data_PCOD9435708
_publ_section_title
;
Structure prediction by ZEFSAII (Michael W. Deem and Ramdas Pophale) SiO2 
 PCOD9435708
Probable space group: P B C M
;
_chemical_formula_sum "Si O2"
_cell_formula_units_Z 56
_cell_length_a 10.035581
_cell_length_b 20.185479
_cell_length_c 14.253704
_cell_angle_alpha 90.000000
_cell_angle_beta 90.000000
_cell_angle_gamma 90.000000
_cell_volume 2887.415716
_symmetry_space_group_name_H-M "P B C M"
_symmetry_group_IT_number 57
_symmetry_cell_setting 'orthorhombic'
loop_
_space_group_symop_operation_xyz
x,y,z
-x,-y,1/2+z
x,1/2-y,-z
-x,1/2+y,1/2-z
-x,-y,-z
x,y,1/2-z
-x,1/2+y,z
x,1/2-y,1/2+z
loop_
_atom_site_type_symbol
_atom_site_label
_atom_site_fract_x
_atom_site_fract_y
_atom_site_fract_z
Si Si1 0.721508 0.416346 0.498099
Si Si2 0.399835 0.288326 0.136947
Si Si3 0.872802 0.660591 0.858222
Si Si4 0.155407 0.790121 0.095087
Si Si5 0.200249 0.016779 0.860451
Si Si6 0.494328 0.935530 0.142024
Si Si7 0.614467 0.189127 0.356849
O O1 0.790072 0.362988 0.429468
O O2 0.819702 0.460975 0.560860
O O3 0.615847 0.456097 0.433921
O O4 0.649454 0.370891 0.575891
O O5 0.396779 0.278006 0.250000
O O6 0.250623 0.298486 0.099901
O O7 0.476585 0.357610 0.123398
O O8 0.485462 0.226660 0.103073
O O9 0.833219 0.650478 0.750000
O O10 0.872420 0.584659 0.892109
O O11 0.011941 0.697920 0.860252
O O12 0.267603 0.744678 0.143617
O O13 0.130293 0.750000 0.000000
O O14 0.168188 0.000785 0.750000
O O15 0.360312 0.030802 0.863828
O O16 0.447804 0.942871 0.250000
O O17 0.595469 0.166307 0.250000
#
# Coordination Sequence:
#
# PCOD9435708 Si02
#       7
#     8   8   8   8   8   8   8
#     4  11  20  31  52  79 110 134 173 212 271 313
#     4   8  15  30  51  74  97 128 172 209 249 302
#     4   9  18  35  55  72  98 140 179 214 258 310
#     4  10  21  33  47  78 107 135 177 217 259 313
#     4   9  19  35  53  76 103 136 177 216 261 314
#     4   9  17  31  51  74 104 134 166 211 250 302
#     4  10  19  33  53  78 108 137 170 218 264 312
#
# _framework density 19.394504999999999
#
# number of rings (size 3 to 8) (size 9 to 14) (size 15 to 20)
#    0.000    2.571    1.429    3.000    0.000    1.143 
#    5.143    0.000    0.000    0.000    0.000    1.000 
#    0.000    0.000    0.000    0.000    0.000    0.000 
#
# Total GULP energy -311944.143108 kJ/mol
# GULP energy per Si atom -5570.431127 kJ/mol
# Density = 1.935036 g / cm^3
# Si number density = 19.394505 Si / 1000 Ang^3
#
#
#
# Elastic Constant Matrix: (Units=GPa)
#
#
# Indices 1 2 3 4 5 6 
#
# 1 50.3804 2.2291 5.8879 0.0000 0.0000 0.0000
# 2 2.2291 32.1272 -1.1783 0.0000 0.0000 0.0000
# 3 5.8879 -1.1783 60.7779 0.0000 0.0000 0.0000
# 4 0.0000 0.0000 0.0000 -8.6169 0.0000 0.0000
# 5 0.0000 0.0000 0.0000 0.0000 9.0523 0.0000
# 6 0.0000 0.0000 0.0000 0.0000 0.0000 15.3409
#
#
#
# Elastic Compliance Matrix: (Units=1/GPa)
#
#
# Indices 1 2 3 4 5 6 
#
# 1 0.020145 -0.001470 -0.001980 0.000000 0.000000 0.000000
# 2 -0.001470 0.031256 0.000748 0.000000 0.000000 0.000000
# 3 -0.001980 0.000748 0.016660 0.000000 0.000000 0.000000
# 4 0.000000 0.000000 0.000000 -0.116052 0.000000 0.000000
# 5 0.000000 0.000000 0.000000 0.000000 0.110469 0.000000
# 6 0.000000 0.000000 0.000000 0.000000 0.000000 0.065185
#
#
# Mechanical properties :
#
#
# Convention : Reuss Voigt Hill
#
# Bulk Modulus (GPa) = 15.96000 17.46256 16.71128
# Shear Modulus (GPa) = 32.47732 12.24504 22.36118
#
# Velocity S-wave (km/s) = 4.09658 2.51543 3.39922
# Velocity P-wave (km/s) = 5.53380 4.17851 4.90321
#
# Compressibility (1/GPa) = 0.06265666
#
# Stress axis : x y z
#
# Youngs Moduli (GPa) = 49.63893 31.99408 60.02513
#
# Poissons Ratio (x) = 0.04704 0.11886
# Poissons Ratio (y) = 0.07299 -0.04492
# Poissons Ratio (z) = 0.09829 -0.02394
#
# Static dielectric constant tensor:
#      x y z
#    x 1.692670 0.000000 0.000000 
#    y 0.000000 1.703790 0.000000 
#    z 0.000000 0.000000 1.712190 
# 
# From -- ./inp_files/16735.got.cif
#   From: 2010.05.17/outbox.cif.g08.bks.cpg/sg57_9_cif.got.tgz:16735.got - 2010.06.03 13:58:18.
