data_PCOD9435186
_publ_section_title
;
Structure prediction by ZEFSAII (Michael W. Deem and Ramdas Pophale) SiO2 
 PCOD9435186
Probable space group: P B C M
;
_chemical_formula_sum "Si O2"
_cell_formula_units_Z 64
_cell_length_a 15.091374
_cell_length_b 30.312440
_cell_length_c 8.726603
_cell_angle_alpha 90.000000
_cell_angle_beta 90.000000
_cell_angle_gamma 90.000000
_cell_volume 3992.040121
_symmetry_space_group_name_H-M "P B C M"
_symmetry_group_IT_number 57
_symmetry_cell_setting 'orthorhombic'
loop_
_space_group_symop_operation_xyz
x,y,z
-x,-y,1/2+z
x,1/2-y,-z
-x,1/2+y,1/2-z
-x,-y,-z
x,y,1/2-z
-x,1/2+y,z
x,1/2-y,1/2+z
loop_
_atom_site_type_symbol
_atom_site_label
_atom_site_fract_x
_atom_site_fract_y
_atom_site_fract_z
Si Si1 0.830860 0.965577 0.434099
Si Si2 0.793061 0.296082 0.067725
Si Si3 0.626080 0.524060 0.567024
Si Si4 0.445977 0.566413 0.930605
Si Si5 0.704198 0.380698 0.930493
Si Si6 0.142439 0.560058 0.932875
Si Si7 0.991065 0.203291 0.067417
Si Si8 0.038400 0.112430 0.934085
O O1 0.840753 0.971060 0.250000
O O2 0.726205 0.962281 0.468304
O O3 0.885141 0.922079 0.478258
O O4 0.867101 0.009619 0.514417
O O5 0.801188 0.293589 0.250000
O O6 0.759006 0.250000 0.000000
O O7 0.733026 0.336793 0.018346
O O8 0.891138 0.302568 0.997341
O O9 0.621259 0.513954 0.750000
O O10 0.598506 0.480391 0.475351
O O11 0.550149 0.560195 0.535660
O O12 0.434423 0.574194 0.750000
O O13 0.393160 0.602997 0.023962
O O14 0.712240 0.374053 0.750000
O O15 0.773426 0.418482 0.983246
O O16 0.156052 0.562106 0.750000
O O17 0.055292 0.588655 0.970348
O O18 0.987833 0.206009 0.250000
O O19 0.023964 0.250000 0.000000
O O20 0.042882 0.159872 0.013428
O O21 0.041019 0.118692 0.750000
#
# Coordination Sequence:
#
# PCOD9435186 Si02
#       8
#     8   8   8   8   8   8   8   8
#     4  10  20  34  51  71 100 138 174 213 253 299
#     4  11  21  35  53  75 102 131 165 205 251 302
#     4   9  18  32  49  71  99 130 167 208 254 300
#     4  10  19  31  49  72  98 130 166 209 253 297
#     4  12  22  33  50  73 101 136 172 207 249 300
#     4  11  21  32  47  70 101 138 174 210 245 294
#     4  11  21  34  53  74  99 131 167 209 253 297
#     4  10  21  35  50  71 102 137 173 209 250 298
#
# _framework density 16.031901999999999
#
# number of rings (size 3 to 8) (size 9 to 14) (size 15 to 20)
#    0.000    1.500    2.500    5.250    0.000    1.500 
#    0.000    0.000    0.000    0.000    0.000    0.875 
#    0.000    4.000    0.000    0.000    0.000    0.000 
#
# Total GULP energy -357409.881818 kJ/mol
# GULP energy per Si atom -5584.529403 kJ/mol
# Density = 1.599541 g / cm^3
# Si number density = 16.031902 Si / 1000 Ang^3
#
#
#
# Elastic Constant Matrix: (Units=GPa)
#
#
# Indices 1 2 3 4 5 6 
#
# 1 48.9189 30.0720 24.5823 0.0000 0.0000 0.0000
# 2 30.0720 115.0026 42.2188 0.0000 0.0000 0.0000
# 3 24.5823 42.2188 78.3646 0.0000 0.0000 0.0000
# 4 0.0000 0.0000 0.0000 29.4849 0.0000 0.0000
# 5 0.0000 0.0000 0.0000 0.0000 16.5572 0.0000
# 6 0.0000 0.0000 0.0000 0.0000 0.0000 17.3851
#
#
#
# Elastic Compliance Matrix: (Units=1/GPa)
#
#
# Indices 1 2 3 4 5 6 
#
# 1 0.026221 -0.004783 -0.005648 0.000000 0.000000 0.000000
# 2 -0.004783 0.011712 -0.004809 0.000000 0.000000 0.000000
# 3 -0.005648 -0.004809 0.017124 0.000000 0.000000 0.000000
# 4 0.000000 0.000000 0.000000 0.033916 0.000000 0.000000
# 5 0.000000 0.000000 0.000000 0.000000 0.060397 0.000000
# 6 0.000000 0.000000 0.000000 0.000000 0.000000 0.057520
#
#
# Mechanical properties :
#
#
# Convention : Reuss Voigt Hill
#
# Bulk Modulus (GPa) = 40.69200 48.44803 44.57002
# Shear Modulus (GPa) = 20.36150 22.37965 21.37057
#
# Velocity S-wave (km/s) = 3.56766 3.74029 3.65499
# Velocity P-wave (km/s) = 6.51214 6.99560 6.75819
#
# Compressibility (1/GPa) = 0.02457485
#
# Stress axis : x y z
#
# Youngs Moduli (GPa) = 38.13800 85.38489 58.39846
#
# Poissons Ratio (x) = 0.40838 0.32986
# Poissons Ratio (y) = 0.18241 0.28086
# Poissons Ratio (z) = 0.21542 0.41064
#
# Static dielectric constant tensor:
#      x y z
#    x 1.533170 0.000000 0.000000 
#    y 0.000000 1.539140 0.000000 
#    z 0.000000 0.000000 1.536590 
# 
# From -- ./inp_files/6083.got.cif
#   From: 2010.05.17/outbox.cif.g08.bks.cpg/sg57_4_cif.got.tgz:6083.got - 2010.06.03 13:58:18.
