data_PCOD9435794
_publ_section_title
;
Structure prediction by ZEFSAII (Michael W. Deem and Ramdas Pophale) SiO2 
 PCOD9435794
Probable space group: P B C M
;
_chemical_formula_sum "Si O2"
_cell_formula_units_Z 56
_cell_length_a 22.399516
_cell_length_b 14.371244
_cell_length_c 8.925103
_cell_angle_alpha 90.000000
_cell_angle_beta 90.000000
_cell_angle_gamma 90.000000
_cell_volume 2873.070178
_symmetry_space_group_name_H-M "P B C M"
_symmetry_group_IT_number 57
_symmetry_cell_setting 'orthorhombic'
loop_
_space_group_symop_operation_xyz
x,y,z
-x,-y,1/2+z
x,1/2-y,-z
-x,1/2+y,1/2-z
-x,-y,-z
x,y,1/2-z
-x,1/2+y,z
x,1/2-y,1/2+z
loop_
_atom_site_type_symbol
_atom_site_label
_atom_site_fract_x
_atom_site_fract_y
_atom_site_fract_z
Si Si1 0.867980 0.334618 0.579075
Si Si2 0.584518 0.541074 0.070986
Si Si3 0.731427 0.343154 0.570408
Si Si4 0.714600 0.961179 0.570875
Si Si5 0.062367 0.026751 0.924063
Si Si6 0.164915 0.148029 0.069441
Si Si7 0.463929 0.647673 0.429963
O O1 0.900901 0.250000 0.500000
O O2 0.861359 0.306340 0.750000
O O3 0.801059 0.345036 0.518766
O O4 0.900552 0.431312 0.571227
O O5 0.580990 0.523738 0.250000
O O6 0.649974 0.583662 0.039069
O O7 0.531507 0.612734 0.033305
O O8 0.573813 0.441026 0.991375
O O9 0.704024 0.250000 0.500000
O O10 0.727586 0.340311 0.750000
O O11 0.708553 0.439286 0.507012
O O12 0.719743 0.973403 0.750000
O O13 0.775177 0.909001 0.522511
O O14 0.053896 0.054273 0.750000
O O15 0.104394 0.100095 0.009085
O O16 0.000000 0.000000 0.000000
O O17 0.163439 0.151351 0.250000
O O18 0.169224 0.250000 0.000000
O O19 0.452260 0.750000 0.500000
O O20 0.456675 0.653493 0.250000
#
# Coordination Sequence:
#
# PCOD9435794 Si02
#       7
#     8   8   8   8   8   8   8
#     4   9  19  34  55  81 110 141 179 225 278 336
#     4   9  20  38  58  84 117 153 198 246 291 346
#     4  10  19  33  54  82 113 147 185 229 284 346
#     4  10  21  38  60  86 118 155 196 243 294 349
#     4  11  23  41  62  88 119 154 197 245 294 348
#     4  11  24  42  64  89 119 158 200 244 297 353
#     4  10  20  36  59  85 116 155 197 244 296 348
#
# _framework density 19.491344999999999
#
# number of rings (size 3 to 8) (size 9 to 14) (size 15 to 20)
#    0.000    2.000    1.429    1.714    0.000    5.143 
#    0.000    1.429    0.000    0.000    0.000    0.000 
#    0.000    0.000    0.000    0.000    0.000    0.000 
#
# Total GULP energy -312258.823710 kJ/mol
# GULP energy per Si atom -5576.050423 kJ/mol
# Density = 1.944698 g / cm^3
# Si number density = 19.491345 Si / 1000 Ang^3
#
#
#
# Elastic Constant Matrix: (Units=GPa)
#
#
# Indices 1 2 3 4 5 6 
#
# 1 124.1915 33.7922 36.4811 0.0000 0.0000 0.0000
# 2 33.7922 85.8059 37.4877 0.0000 0.0000 0.0000
# 3 36.4811 37.4877 42.4650 0.0000 0.0000 0.0000
# 4 0.0000 0.0000 0.0000 34.1139 0.0000 0.0000
# 5 0.0000 0.0000 0.0000 0.0000 13.3238 0.0000
# 6 0.0000 0.0000 0.0000 0.0000 0.0000 -1.0991
#
#
#
# Elastic Compliance Matrix: (Units=1/GPa)
#
#
# Indices 1 2 3 4 5 6 
#
# 1 0.010775 -0.000324 -0.008971 0.000000 0.000000 0.000000
# 2 -0.000324 0.018981 -0.016477 0.000000 0.000000 0.000000
# 3 -0.008971 -0.016477 0.045801 0.000000 0.000000 0.000000
# 4 0.000000 0.000000 0.000000 0.029314 0.000000 0.000000
# 5 0.000000 0.000000 0.000000 0.000000 0.075054 0.000000
# 6 0.000000 0.000000 0.000000 0.000000 0.000000 -0.909863
#
#
# Mechanical properties :
#
#
# Convention : Reuss Voigt Hill
#
# Bulk Modulus (GPa) = 41.64444 51.99826 46.82135
# Shear Modulus (GPa) = -7.45836 18.91449 5.72806
#
# Velocity S-wave (km/s) = -1.95827 3.11851 1.71614
# Velocity P-wave (km/s) = 4.03719 6.30098 5.29156
#
# Compressibility (1/GPa) = 0.02401281
#
# Stress axis : x y z
#
# Youngs Moduli (GPa) = 92.80335 52.68500 21.83340
#
# Poissons Ratio (x) = 0.01709 0.19586
# Poissons Ratio (y) = 0.03011 0.35976
# Poissons Ratio (z) = 0.83251 0.86811
#
# Static dielectric constant tensor:
#      x y z
#    x 1.734080 0.000000 0.000000 
#    y 0.000000 1.691660 0.000000 
#    z 0.000000 0.000000 1.677710 
# 
# From -- ./inp_files/8169.got.cif
#   From: 2010.05.17/outbox.cif.g08.bks.cpg/sg57_5_cif.got.tgz:8169.got - 2010.06.03 13:58:18.
