data_PCOD9435770
_publ_section_title
;
Structure prediction by ZEFSAII (Michael W. Deem and Ramdas Pophale) SiO2 
 PCOD9435770
Probable space group: P B C M
;
_chemical_formula_sum "Si O2"
_cell_formula_units_Z 64
_cell_length_a 8.866769
_cell_length_b 26.001951
_cell_length_c 14.801105
_cell_angle_alpha 90.000000
_cell_angle_beta 90.000000
_cell_angle_gamma 90.000000
_cell_volume 3412.443499
_symmetry_space_group_name_H-M "P B C M"
_symmetry_group_IT_number 57
_symmetry_cell_setting 'orthorhombic'
loop_
_space_group_symop_operation_xyz
x,y,z
-x,-y,1/2+z
x,1/2-y,-z
-x,1/2+y,1/2-z
-x,-y,-z
x,y,1/2-z
-x,1/2+y,z
x,1/2-y,1/2+z
loop_
_atom_site_type_symbol
_atom_site_label
_atom_site_fract_x
_atom_site_fract_y
_atom_site_fract_z
Si Si1 0.383395 0.818778 0.356654
Si Si2 0.577936 0.204111 0.353834
Si Si3 0.141912 0.904747 0.356067
Si Si4 0.529002 0.452040 0.565144
Si Si5 0.078787 0.400868 0.980680
Si Si6 0.796057 0.394307 0.644521
Si Si7 0.613773 0.653334 0.500807
Si Si8 0.238368 0.479565 0.849920
O O1 0.399247 0.826886 0.250000
O O2 0.345948 0.759001 0.373713
O O3 0.253382 0.858621 0.386607
O O4 0.541987 0.827938 0.405980
O O5 0.523601 0.205657 0.250000
O O6 0.694409 0.157065 0.361020
O O7 0.444405 0.191642 0.423044
O O8 0.102181 0.896659 0.250000
O O9 0.000464 0.909520 0.422901
O O10 0.227805 0.959258 0.361754
O O11 0.500000 0.500000 0.500000
O O12 0.696476 0.440098 0.599871
O O13 0.470004 0.400889 0.516610
O O14 0.411211 0.461276 0.646047
O O15 0.210596 0.359103 0.993709
O O16 0.153913 0.450436 0.931441
O O17 0.946868 0.385632 0.911676
O O18 0.823762 0.405136 0.750000
O O19 0.175248 0.467051 0.750000
#
# Coordination Sequence:
#
# PCOD9435770 Si02
#       8
#     8   8   8   8   8   8   8   8
#     4  10  20  38  61  81 102 136 184 236 283 333
#     4   9  19  37  61  82 103 136 184 237 283 327
#     4  10  21  37  58  82 111 147 187 229 278 331
#     4  10  19  33  54  79 108 144 187 231 268 311
#     4  11  22  35  52  80 117 152 180 220 274 337
#     4  10  20  35  56  84 113 147 190 233 277 328
#     4  10  21  34  53  78 107 141 176 220 273 329
#     4  10  20  35  55  80 112 151 188 226 272 326
#
# _framework density 18.754888000000001
#
# number of rings (size 3 to 8) (size 9 to 14) (size 15 to 20)
#    0.000    2.000    0.000    4.500    0.000    5.000 
#    0.000    3.125    0.000    3.750    0.000    0.000 
#    0.000    0.000    0.000    0.000    0.000    0.000 
#
# Total GULP energy -356947.176923 kJ/mol
# GULP energy per Si atom -5577.299639 kJ/mol
# Density = 1.871220 g / cm^3
# Si number density = 18.754888 Si / 1000 Ang^3
#
#
#
# Elastic Constant Matrix: (Units=GPa)
#
#
# Indices 1 2 3 4 5 6 
#
# 1 78.0012 17.7465 38.7775 0.0000 0.0000 0.0000
# 2 17.7465 86.2649 35.7465 0.0000 0.0000 0.0000
# 3 38.7775 35.7465 87.6679 0.0000 0.0000 0.0000
# 4 0.0000 0.0000 0.0000 20.6001 0.0000 0.0000
# 5 0.0000 0.0000 0.0000 0.0000 22.6833 0.0000
# 6 0.0000 0.0000 0.0000 0.0000 0.0000 20.2068
#
#
#
# Elastic Compliance Matrix: (Units=1/GPa)
#
#
# Indices 1 2 3 4 5 6 
#
# 1 0.016448 -0.000444 -0.007094 0.000000 0.000000 0.000000
# 2 -0.000444 0.013961 -0.005496 0.000000 0.000000 0.000000
# 3 -0.007094 -0.005496 0.016786 0.000000 0.000000 0.000000
# 4 0.000000 0.000000 0.000000 0.048543 0.000000 0.000000
# 5 0.000000 0.000000 0.000000 0.000000 0.044085 0.000000
# 6 0.000000 0.000000 0.000000 0.000000 0.000000 0.049488
#
#
# Mechanical properties :
#
#
# Convention : Reuss Voigt Hill
#
# Bulk Modulus (GPa) = 47.33530 48.49722 47.91626
# Shear Modulus (GPa) = 22.47968 23.34229 22.91099
#
# Velocity S-wave (km/s) = 3.46584 3.53171 3.49893
# Velocity P-wave (km/s) = 6.42727 6.52267 6.47515
#
# Compressibility (1/GPa) = 0.02112588
#
# Stress axis : x y z
#
# Youngs Moduli (GPa) = 60.79685 71.62780 59.57430
#
# Poissons Ratio (x) = 0.03180 0.42264
# Poissons Ratio (y) = 0.02699 0.32743
# Poissons Ratio (z) = 0.43132 0.39368
#
# Static dielectric constant tensor:
#      x y z
#    x 1.647750 0.000000 0.000000 
#    y 0.000000 1.658830 0.000000 
#    z 0.000000 0.000000 1.686960 
# 
# From -- ./inp_files/16928.got.cif
#   From: 2010.05.17/outbox.cif.g08.bks.cpg/sg57_9_cif.got.tgz:16928.got - 2010.06.03 13:58:18.
