data_PCOD9435152
_publ_section_title
;
Structure prediction by ZEFSAII (Michael W. Deem and Ramdas Pophale) SiO2 
 PCOD9435152
Probable space group: P B C M
;
_chemical_formula_sum "Si O2"
_cell_formula_units_Z 64
_cell_length_a 22.040596
_cell_length_b 19.619678
_cell_length_c 9.054104
_cell_angle_alpha 90.000000
_cell_angle_beta 90.000000
_cell_angle_gamma 90.000000
_cell_volume 3915.260728
_symmetry_space_group_name_H-M "P B C M"
_symmetry_group_IT_number 57
_symmetry_cell_setting 'orthorhombic'
loop_
_space_group_symop_operation_xyz
x,y,z
-x,-y,1/2+z
x,1/2-y,-z
-x,1/2+y,1/2-z
-x,-y,-z
x,y,1/2-z
-x,1/2+y,z
x,1/2-y,1/2+z
loop_
_atom_site_type_symbol
_atom_site_label
_atom_site_fract_x
_atom_site_fract_y
_atom_site_fract_z
Si Si1 0.913626 0.960867 0.081574
Si Si2 0.442964 0.316730 0.581688
Si Si3 0.017146 0.607042 0.081656
Si Si4 0.308022 0.461209 0.427442
Si Si5 0.552587 0.542953 0.925780
Si Si6 0.704019 0.681411 0.418031
Si Si7 0.803532 0.050375 0.428492
Si Si8 0.127879 0.676770 0.927287
O O1 0.910077 0.935872 0.250000
O O2 0.951063 0.032290 0.084105
O O3 0.848050 0.987158 0.031346
O O4 0.950710 0.907766 0.983337
O O5 0.466158 0.250000 0.500000
O O6 0.464646 0.323733 0.750000
O O7 0.457487 0.380682 0.481133
O O8 0.369524 0.312492 0.587951
O O9 0.015865 0.632380 0.250000
O O10 0.060754 0.653324 0.981732
O O11 0.306745 0.451784 0.250000
O O12 0.377960 0.474632 0.471145
O O13 0.285751 0.390309 0.499621
O O14 0.263667 0.523908 0.462977
O O15 0.549182 0.537435 0.750000
O O16 0.500000 0.500000 0.000000
O O17 0.725994 0.750000 0.500000
O O18 0.726488 0.679040 0.250000
O O19 0.809738 0.060420 0.250000
O O20 0.827180 0.117889 0.510055
O O21 0.130502 0.679726 0.750000
O O22 0.141496 0.750000 0.000000
#
# Coordination Sequence:
#
# PCOD9435152 Si02
#       8
#     8   8   8   8   8   8   8   8
#     4   8  14  25  43  67  93 119 147 183 229 278
#     4   9  16  27  44  67  93 120 150 187 231 282
#     4   9  16  27  44  67  94 121 151 188 230 275
#     4   9  18  32  50  71  97 129 164 203 248 297
#     4  10  19  31  48  71  98 129 163 202 250 300
#     4   9  16  26  43  67  94 121 151 187 229 280
#     4   9  18  33  51  72  98 128 164 206 249 295
#     4  11  21  33  50  72  98 129 168 211 253 294
#
# _framework density 16.346292999999999
#
# number of rings (size 3 to 8) (size 9 to 14) (size 15 to 20)
#    0.000    2.750    0.000    3.375    0.000    7.000 
#    0.000    0.000    0.000    1.500    0.000    7.000 
#    0.000    0.000    0.000    0.000    0.000    0.000 
#
# Total GULP energy -356354.203194 kJ/mol
# GULP energy per Si atom -5568.034425 kJ/mol
# Density = 1.630909 g / cm^3
# Si number density = 16.346293 Si / 1000 Ang^3
#
#
#
# Elastic Constant Matrix: (Units=GPa)
#
#
# Indices 1 2 3 4 5 6 
#
# 1 77.3307 56.8485 42.5872 0.0000 0.0000 0.0000
# 2 56.8485 93.6039 52.3779 0.0000 0.0000 0.0000
# 3 42.5872 52.3779 88.9266 0.0000 0.0000 0.0000
# 4 0.0000 0.0000 0.0000 26.7531 0.0000 0.0000
# 5 0.0000 0.0000 0.0000 0.0000 17.1324 0.0000
# 6 0.0000 0.0000 0.0000 0.0000 0.0000 -0.0470
#
#
#
# Elastic Compliance Matrix: (Units=1/GPa)
#
#
# Indices 1 2 3 4 5 6 
#
# 1 0.024476 -0.012389 -0.004424 0.000000 0.000000 0.000000
# 2 -0.012389 0.022207 -0.007147 0.000000 0.000000 0.000000
# 3 -0.004424 -0.007147 0.017573 0.000000 0.000000 0.000000
# 4 0.000000 0.000000 0.000000 0.037379 0.000000 0.000000
# 5 0.000000 0.000000 0.000000 0.000000 0.058369 0.000000
# 6 0.000000 0.000000 0.000000 0.000000 0.000000-21.290933
#
#
# Mechanical properties :
#
#
# Convention : Reuss Voigt Hill
#
# Bulk Modulus (GPa) = 61.21538 62.60984 61.91261
# Shear Modulus (GPa) = -0.23722 15.97087 7.86683
#
# Velocity S-wave (km/s) = -0.38136 3.12914 2.19615
# Velocity P-wave (km/s) = 6.11036 7.17222 6.66248
#
# Compressibility (1/GPa) = 0.01633577
#
# Stress axis : x y z
#
# Youngs Moduli (GPa) = 40.85685 45.03163 56.90442
#
# Poissons Ratio (x) = 0.55790 0.25176
# Poissons Ratio (y) = 0.50618 0.40667
# Poissons Ratio (z) = 0.18076 0.32182
#
# Static dielectric constant tensor:
#      x y z
#    x 1.565720 0.000000 0.000000 
#    y 0.000000 1.520310 0.000000 
#    z 0.000000 0.000000 1.556710 
# 
# From -- ./inp_files/8773.got.cif
#   From: 2010.05.17/outbox.cif.g08.bks.cpg/sg57_5_cif.got.tgz:8773.got - 2010.06.03 13:58:18.
