data_PCOD9435124
_publ_section_title
;
Structure prediction by ZEFSAII (Michael W. Deem and Ramdas Pophale) SiO2 
 PCOD9435124
Probable space group: P B C M
;
_chemical_formula_sum "Si O2"
_cell_formula_units_Z 48
_cell_length_a 13.232240
_cell_length_b 24.206260
_cell_length_c 7.690594
_cell_angle_alpha 90.000000
_cell_angle_beta 90.000000
_cell_angle_gamma 90.000000
_cell_volume 2463.320652
_symmetry_space_group_name_H-M "P B C M"
_symmetry_group_IT_number 57
_symmetry_cell_setting 'orthorhombic'
loop_
_space_group_symop_operation_xyz
x,y,z
-x,-y,1/2+z
x,1/2-y,-z
-x,1/2+y,1/2-z
-x,-y,-z
x,y,1/2-z
-x,1/2+y,z
x,1/2-y,1/2+z
loop_
_atom_site_type_symbol
_atom_site_label
_atom_site_fract_x
_atom_site_fract_y
_atom_site_fract_z
Si Si1 0.004136 0.314305 0.041103
Si Si2 0.119259 0.997746 0.542948
Si Si3 0.385236 0.313388 0.040872
Si Si4 0.386575 0.686600 0.540792
Si Si5 0.802700 0.884543 0.463414
Si Si6 0.193326 0.623022 0.543481
O O1 0.003293 0.320400 0.250000
O O2 0.103179 0.346722 0.979525
O O3 0.901972 0.342540 0.972021
O O4 0.008214 0.250000 0.000000
O O5 0.126722 0.997864 0.750000
O O6 0.169584 0.941278 0.479920
O O7 0.174630 0.053124 0.478251
O O8 0.000000 0.000000 0.500000
O O9 0.388036 0.317882 0.250000
O O10 0.499335 0.322820 0.973807
O O11 0.301256 0.356354 0.977654
O O12 0.356587 0.250000 0.000000
O O13 0.358511 0.750000 0.500000
O O14 0.391917 0.681464 0.750000
O O15 0.299870 0.645622 0.473923
O O16 0.801686 0.884751 0.250000
O O17 0.196142 0.633659 0.750000
#
# Coordination Sequence:
#
# PCOD9435124 Si02
#       6
#     8   8   8   8   8   8
#     4  10  19  31  47  70 100 129 159 203 252 299
#     4  11  21  36  55  74  99 136 175 211 254 305
#     4   9  17  32  53  76 102 134 168 203 252 303
#     4   9  18  32  53  77 104 136 168 208 252 300
#     4   9  18  33  51  71 100 133 165 206 255 301
#     4  10  20  35  51  72 104 135 168 208 252 298
#
# _framework density 19.485892
#
# number of rings (size 3 to 8) (size 9 to 14) (size 15 to 20)
#    0.000    2.333    1.667    1.500    0.000    1.333 
#    0.000    2.500    0.000    0.000    0.000    0.000 
#    0.000    0.000    0.000    0.000    0.000    0.000 
#
# Total GULP energy -267910.274733 kJ/mol
# GULP energy per Si atom -5581.464057 kJ/mol
# Density = 1.944154 g / cm^3
# Si number density = 19.485892 Si / 1000 Ang^3
#
#
#
# Elastic Constant Matrix: (Units=GPa)
#
#
# Indices 1 2 3 4 5 6 
#
# 1 152.2531 98.9347 0.1580 0.0000 0.0000 0.0000
# 2 98.9347 144.5265 -19.3126 0.0000 0.0000 0.0000
# 3 0.1580 -19.3126 27.4595 0.0000 0.0000 0.0000
# 4 0.0000 0.0000 0.0000 26.4288 0.0000 0.0000
# 5 0.0000 0.0000 0.0000 0.0000 0.5230 0.0000
# 6 0.0000 0.0000 0.0000 0.0000 0.0000 23.9199
#
#
#
# Elastic Compliance Matrix: (Units=1/GPa)
#
#
# Indices 1 2 3 4 5 6 
#
# 1 0.012931 -0.009781 -0.006953 0.000000 0.000000 0.000000
# 2 -0.009781 0.015035 0.010631 0.000000 0.000000 0.000000
# 3 -0.006953 0.010631 0.043934 0.000000 0.000000 0.000000
# 4 0.000000 0.000000 0.000000 0.037838 0.000000 0.000000
# 5 0.000000 0.000000 0.000000 0.000000 1.912203 0.000000
# 6 0.000000 0.000000 0.000000 0.000000 0.000000 0.041806
#
#
# Mechanical properties :
#
#
# Convention : Reuss Voigt Hill
#
# Bulk Modulus (GPa) = 16.75246 53.75547 35.25396
# Shear Modulus (GPa) = 2.38566 26.47159 14.42863
#
# Velocity S-wave (km/s) = 1.10768 3.68978 2.72410
# Velocity P-wave (km/s) = 3.20185 6.76753 5.29392
#
# Compressibility (1/GPa) = 0.05969274
#
# Stress axis : x y z
#
# Youngs Moduli (GPa) = 77.33392 66.51067 22.76139
#
# Poissons Ratio (x) = 0.65054 0.15827
# Poissons Ratio (y) = 0.75640 -0.24197
# Poissons Ratio (z) = 0.53774 -0.70706
#
# Static dielectric constant tensor:
#      x y z
#    x 1.686220 0.000000 0.000000 
#    y 0.000000 1.634660 0.000000 
#    z 0.000000 0.000000 1.722840 
# 
# From -- ./inp_files/3137.got.cif
#   From: 2010.05.17/outbox.cif.g08.bks.cpg/sg57_2_cif.got.tgz:3137.got - 2010.06.03 13:58:18.
