data_PCOD9435710
_publ_section_title
;
Structure prediction by ZEFSAII (Michael W. Deem and Ramdas Pophale) SiO2 
 PCOD9435710
Probable space group: P B C M
;
_chemical_formula_sum "Si O2"
_cell_formula_units_Z 64
_cell_length_a 21.052577
_cell_length_b 20.108297
_cell_length_c 8.690749
_cell_angle_alpha 90.000000
_cell_angle_beta 90.000000
_cell_angle_gamma 90.000000
_cell_volume 3679.067558
_symmetry_space_group_name_H-M "P B C M"
_symmetry_group_IT_number 57
_symmetry_cell_setting 'orthorhombic'
loop_
_space_group_symop_operation_xyz
x,y,z
-x,-y,1/2+z
x,1/2-y,-z
-x,1/2+y,1/2-z
-x,-y,-z
x,y,1/2-z
-x,1/2+y,z
x,1/2-y,1/2+z
loop_
_atom_site_type_symbol
_atom_site_label
_atom_site_fract_x
_atom_site_fract_y
_atom_site_fract_z
Si Si1 0.685546 0.542439 0.065330
Si Si2 0.011371 0.680645 0.934150
Si Si3 0.131161 0.320893 0.566110
Si Si4 0.180468 0.457675 0.433282
Si Si5 0.560782 0.038799 0.564014
Si Si6 0.365121 0.178584 0.934696
Si Si7 0.938123 0.462877 0.065908
Si Si8 0.514499 0.179694 0.565624
O O1 0.689783 0.542102 0.250000
O O2 0.625678 0.497159 0.017079
O O3 0.751397 0.518676 0.993335
O O4 0.671761 0.616991 0.006965
O O5 0.002793 0.685891 0.750000
O O6 0.052925 0.615487 0.966767
O O7 0.037403 0.750000 0.000000
O O8 0.941944 0.671382 0.010156
O O9 0.153813 0.250000 0.500000
O O10 0.133498 0.319973 0.750000
O O11 0.168378 0.384008 0.501182
O O12 0.179025 0.454229 0.250000
O O13 0.123998 0.504600 0.492815
O O14 0.557775 0.037062 0.750000
O O15 0.553693 0.115404 0.514168
O O16 0.500000 0.000000 0.500000
O O17 0.359529 0.177713 0.750000
O O18 0.440025 0.170483 0.976671
O O19 0.344478 0.250000 0.000000
O O20 0.936395 0.471885 0.250000
O O21 0.000000 0.500000 0.000000
O O22 0.536274 0.250000 0.500000
O O23 0.516721 0.182993 0.750000
#
# Coordination Sequence:
#
# PCOD9435710 Si02
#       8
#     8   8   8   8   8   8   8   8
#     4  11  23  38  56  80 111 148 189 231 283 335
#     4  10  20  34  56  86 117 147 184 228 280 331
#     4  11  21  35  56  81 114 150 189 230 276 333
#     4  12  25  40  57  80 113 151 193 236 284 336
#     4  10  20  35  57  83 111 143 183 229 276 328
#     4  10  19  33  53  78 112 148 187 226 271 328
#     4  11  22  37  60  87 115 149 190 234 280 333
#     4   9  18  32  52  81 112 142 178 224 273 325
#
# _framework density 17.395712
#
# number of rings (size 3 to 8) (size 9 to 14) (size 15 to 20)
#    0.000    1.500    2.500    4.500    0.000    3.500 
#    0.000    2.500    0.000    0.750    0.000    1.750 
#    0.000    0.000    0.000    0.000    0.000    0.000 
#
# Total GULP energy -357584.519120 kJ/mol
# GULP energy per Si atom -5587.258111 kJ/mol
# Density = 1.735612 g / cm^3
# Si number density = 17.395712 Si / 1000 Ang^3
#
#
#
# Elastic Constant Matrix: (Units=GPa)
#
#
# Indices 1 2 3 4 5 6 
#
# 1 118.2999 70.2408 45.9233 0.0000 0.0000 0.0000
# 2 70.2408 127.3163 48.1763 0.0000 0.0000 0.0000
# 3 45.9233 48.1763 86.1597 0.0000 0.0000 0.0000
# 4 0.0000 0.0000 0.0000 30.5223 0.0000 0.0000
# 5 0.0000 0.0000 0.0000 0.0000 23.8943 0.0000
# 6 0.0000 0.0000 0.0000 0.0000 0.0000 22.0417
#
#
#
# Elastic Compliance Matrix: (Units=1/GPa)
#
#
# Indices 1 2 3 4 5 6 
#
# 1 0.013506 -0.005996 -0.003846 0.000000 0.000000 0.000000
# 2 -0.005996 0.012624 -0.003863 0.000000 0.000000 0.000000
# 3 -0.003846 -0.003863 0.015816 0.000000 0.000000 0.000000
# 4 0.000000 0.000000 0.000000 0.032763 0.000000 0.000000
# 5 0.000000 0.000000 0.000000 0.000000 0.041851 0.000000
# 6 0.000000 0.000000 0.000000 0.000000 0.000000 0.045368
#
#
# Mechanical properties :
#
#
# Convention : Reuss Voigt Hill
#
# Bulk Modulus (GPa) = 68.79230 73.38407 71.08819
# Shear Modulus (GPa) = 25.74861 26.45405 26.10133
#
# Velocity S-wave (km/s) = 3.85147 3.90387 3.87776
# Velocity P-wave (km/s) = 7.70778 7.91183 7.81047
#
# Compressibility (1/GPa) = 0.01453651
#
# Stress axis : x y z
#
# Youngs Moduli (GPa) = 74.03924 79.21268 63.22576
#
# Poissons Ratio (x) = 0.47497 0.24318
# Poissons Ratio (y) = 0.44395 0.24424
# Poissons Ratio (z) = 0.28477 0.30599
#
# Static dielectric constant tensor:
#      x y z
#    x 1.581150 0.000000 0.000000 
#    y 0.000000 1.598370 0.000000 
#    z 0.000000 0.000000 1.578660 
# 
# From -- ./inp_files/7208.got.cif
#   From: 2010.05.17/outbox.cif.g08.bks.cpg/sg57_4_cif.got.tgz:7208.got - 2010.06.03 13:58:18.
