data_PCOD9435896
_publ_section_title
;
Structure prediction by ZEFSAII (Michael W. Deem and Ramdas Pophale) SiO2 
 PCOD9435896
Probable space group: P B C M
;
_chemical_formula_sum "Si O2"
_cell_formula_units_Z 64
_cell_length_a 15.253213
_cell_length_b 23.413247
_cell_length_c 9.019707
_cell_angle_alpha 90.000000
_cell_angle_beta 90.000000
_cell_angle_gamma 90.000000
_cell_volume 3221.183098
_symmetry_space_group_name_H-M "P B C M"
_symmetry_group_IT_number 57
_symmetry_cell_setting 'orthorhombic'
loop_
_space_group_symop_operation_xyz
x,y,z
-x,-y,1/2+z
x,1/2-y,-z
-x,1/2+y,1/2-z
-x,-y,-z
x,y,1/2-z
-x,1/2+y,z
x,1/2-y,1/2+z
loop_
_atom_site_type_symbol
_atom_site_label
_atom_site_fract_x
_atom_site_fract_y
_atom_site_fract_z
Si Si1 0.894874 0.900371 0.926309
Si Si2 0.841265 0.487779 0.579478
Si Si3 0.579581 0.862035 0.428908
Si Si4 0.957499 0.307433 0.925911
Si Si5 0.392377 0.891444 0.427822
Si Si6 0.194846 0.869921 0.072567
Si Si7 0.633376 0.509567 0.579714
Si Si8 0.254142 0.191100 0.427259
O O1 0.890752 0.912354 0.750000
O O2 0.810208 0.861541 0.965494
O O3 0.977947 0.860320 0.955881
O O4 0.894972 0.959376 0.014478
O O5 0.865305 0.474991 0.750000
O O6 0.843292 0.430778 0.481990
O O7 0.739085 0.506920 0.575844
O O8 0.588738 0.855545 0.250000
O O9 0.477760 0.855415 0.472127
O O10 0.603431 0.927773 0.467152
O O11 0.649519 0.822778 0.510453
O O12 0.951426 0.300165 0.750000
O O13 0.992698 0.250000 0.000000
O O14 0.863864 0.322175 0.996223
O O15 0.392158 0.893552 0.250000
O O16 0.297026 0.868803 0.475335
O O17 0.400281 0.956351 0.485263
O O18 0.190287 0.865809 0.250000
O O19 0.605178 0.501282 0.750000
O O20 0.222806 0.250000 0.500000
O O21 0.254799 0.196691 0.250000
#
# Coordination Sequence:
#
# PCOD9435896 Si02
#       8
#     8   8   8   8   8   8   8   8
#     4  10  22  39  60  87 117 148 187 233 287 350
#     4  10  19  33  57  89 122 157 191 230 284 342
#     4  10  19  34  53  79 113 149 189 232 277 330
#     4  11  24  43  65  88 112 145 191 241 292 347
#     4   9  19  33  54  81 113 150 188 231 280 331
#     4  10  21  39  60  86 120 155 193 240 289 340
#     4   9  17  29  49  80 116 150 185 227 274 328
#     4  11  23  38  57  81 112 151 191 236 287 343
#
# _framework density 19.868476000000001
#
# number of rings (size 3 to 8) (size 9 to 14) (size 15 to 20)
#    0.000    2.000    1.250    2.250    0.000    4.000 
#    0.000    0.625    0.000    0.000    0.000    0.000 
#    0.000    0.000    0.000    0.000    0.000    0.000 
#
# Total GULP energy -357526.457410 kJ/mol
# GULP energy per Si atom -5586.350897 kJ/mol
# Density = 1.982325 g / cm^3
# Si number density = 19.868476 Si / 1000 Ang^3
#
#
#
# Elastic Constant Matrix: (Units=GPa)
#
#
# Indices 1 2 3 4 5 6 
#
# 1 71.4915 24.9585 32.5675 0.0000 0.0000 0.0000
# 2 24.9585 27.4989 12.6368 0.0000 0.0000 0.0000
# 3 32.5675 12.6368 32.5818 0.0000 0.0000 0.0000
# 4 0.0000 0.0000 0.0000 34.0915 0.0000 0.0000
# 5 0.0000 0.0000 0.0000 0.0000 21.9126 0.0000
# 6 0.0000 0.0000 0.0000 0.0000 0.0000 15.4515
#
#
#
# Elastic Compliance Matrix: (Units=1/GPa)
#
#
# Indices 1 2 3 4 5 6 
#
# 1 0.031043 -0.016934 -0.024461 0.000000 0.000000 0.000000
# 2 -0.016934 0.053490 -0.003819 0.000000 0.000000 0.000000
# 3 -0.024461 -0.003819 0.056624 0.000000 0.000000 0.000000
# 4 0.000000 0.000000 0.000000 0.029333 0.000000 0.000000
# 5 0.000000 0.000000 0.000000 0.000000 0.045636 0.000000
# 6 0.000000 0.000000 0.000000 0.000000 0.000000 0.064719
#
#
# Mechanical properties :
#
#
# Convention : Reuss Voigt Hill
#
# Bulk Modulus (GPa) = 19.71333 30.21087 24.96210
# Shear Modulus (GPa) = 12.88055 18.38508 15.63282
#
# Velocity S-wave (km/s) = 2.54892 3.04524 2.80807
# Velocity P-wave (km/s) = 4.31348 5.25386 4.80672
#
# Compressibility (1/GPa) = 0.05072710
#
# Stress axis : x y z
#
# Youngs Moduli (GPa) = 32.21364 18.69510 17.66040
#
# Poissons Ratio (x) = 0.31658 0.43200
# Poissons Ratio (y) = 0.54551 0.06745
# Poissons Ratio (z) = 0.78799 0.07140
#
# Static dielectric constant tensor:
#      x y z
#    x 1.742450 0.000000 0.000000 
#    y 0.000000 1.674600 0.000000 
#    z 0.000000 0.000000 1.663770 
# 
# From -- ./inp_files/5752.got.cif
#   From: 2010.05.17/outbox.cif.g08.bks.cpg/sg57_3_cif.got.tgz:5752.got - 2010.06.03 13:58:18.
