data_PCOD9435368
_publ_section_title
;
Structure prediction by ZEFSAII (Michael W. Deem and Ramdas Pophale) SiO2 
 PCOD9435368
Probable space group: P B C M
;
_chemical_formula_sum "Si O2"
_cell_formula_units_Z 64
_cell_length_a 15.974918
_cell_length_b 26.251785
_cell_length_c 7.888720
_cell_angle_alpha 90.000000
_cell_angle_beta 90.000000
_cell_angle_gamma 90.000000
_cell_volume 3308.293396
_symmetry_space_group_name_H-M "P B C M"
_symmetry_group_IT_number 57
_symmetry_cell_setting 'orthorhombic'
loop_
_space_group_symop_operation_xyz
x,y,z
-x,-y,1/2+z
x,1/2-y,-z
-x,1/2+y,1/2-z
-x,-y,-z
x,y,1/2-z
-x,1/2+y,z
x,1/2-y,1/2+z
loop_
_atom_site_type_symbol
_atom_site_label
_atom_site_fract_x
_atom_site_fract_y
_atom_site_fract_z
Si Si1 0.133466 0.065288 0.956248
Si Si2 0.051090 0.590159 0.554485
Si Si3 0.393511 0.971177 0.447149
Si Si4 0.013437 0.303783 0.547053
Si Si5 0.215027 0.961027 0.946556
Si Si6 0.618250 0.693450 0.455073
Si Si7 0.559091 0.581697 0.447596
Si Si8 0.196617 0.173742 0.050494
O O1 0.132207 0.068232 0.750000
O O2 0.036173 0.066159 0.013007
O O3 0.178982 0.014498 0.011668
O O4 0.183421 0.113534 0.025744
O O5 0.060052 0.574944 0.750000
O O6 0.033835 0.649840 0.537854
O O7 0.136233 0.575990 0.462825
O O8 0.418289 0.974110 0.250000
O O9 0.301029 0.948724 0.461831
O O10 0.462479 0.935568 0.534765
O O11 0.395030 0.030001 0.516045
O O12 0.975469 0.250000 0.500000
O O13 0.014891 0.311507 0.750000
O O14 0.109548 0.304609 0.479651
O O15 0.236818 0.966818 0.750000
O O16 0.583768 0.750000 0.500000
O O17 0.618026 0.691747 0.250000
O O18 0.577407 0.639133 0.514596
O O19 0.714638 0.691209 0.520540
O O20 0.583072 0.584461 0.250000
O O21 0.198234 0.185641 0.250000
#
# Coordination Sequence:
#
# PCOD9435368 Si02
#       8
#     8   8   8   8   8   8   8   8
#     4   9  19  32  48  72 103 138 172 207 246 293
#     4  10  20  34  50  71 100 134 172 210 249 296
#     4  10  20  35  57  80 101 131 170 212 258 308
#     4  10  19  32  50  71  97 132 172 213 255 296
#     4  11  21  33  50  75 105 134 166 205 252 301
#     4  10  20  33  50  75 107 141 173 207 250 301
#     4   9  19  36  55  77 106 135 167 209 257 307
#     4   9  18  31  48  72 103 137 172 209 248 292
#
# _framework density 19.345321999999999
#
# number of rings (size 3 to 8) (size 9 to 14) (size 15 to 20)
#    0.000    2.250    0.000    3.000    0.000    4.500 
#    0.000    0.000    0.000    0.750    0.000    3.500 
#    0.000    0.000    0.000    0.000    0.000    0.000 
#
# Total GULP energy -356822.808129 kJ/mol
# GULP energy per Si atom -5575.356377 kJ/mol
# Density = 1.930129 g / cm^3
# Si number density = 19.345322 Si / 1000 Ang^3
#
#
#
# Elastic Constant Matrix: (Units=GPa)
#
#
# Indices 1 2 3 4 5 6 
#
# 1 74.6045 33.6785 -2.5477 0.0000 0.0000 0.0000
# 2 33.6785 106.0955 -7.4404 0.0000 0.0000 0.0000
# 3 -2.5477 -7.4404 28.4983 0.0000 0.0000 0.0000
# 4 0.0000 0.0000 0.0000 22.3413 0.0000 0.0000
# 5 0.0000 0.0000 0.0000 0.0000 6.8420 0.0000
# 6 0.0000 0.0000 0.0000 0.0000 0.0000 2.5327
#
#
#
# Elastic Compliance Matrix: (Units=1/GPa)
#
#
# Indices 1 2 3 4 5 6 
#
# 1 0.015646 -0.004959 0.000104 0.000000 0.000000 0.000000
# 2 -0.004959 0.011173 0.002474 0.000000 0.000000 0.000000
# 3 0.000104 0.002474 0.035745 0.000000 0.000000 0.000000
# 4 0.000000 0.000000 0.000000 0.044760 0.000000 0.000000
# 5 0.000000 0.000000 0.000000 0.000000 0.146155 0.000000
# 6 0.000000 0.000000 0.000000 0.000000 0.000000 0.394841
#
#
# Mechanical properties :
#
#
# Convention : Reuss Voigt Hill
#
# Bulk Modulus (GPa) = 17.30068 28.50879 22.90473
# Shear Modulus (GPa) = 7.43659 18.71040 13.07349
#
# Velocity S-wave (km/s) = 1.96277 3.11332 2.60243
# Velocity P-wave (km/s) = 3.75488 5.26237 4.57119
#
# Compressibility (1/GPa) = 0.05780120
#
# Stress axis : x y z
#
# Youngs Moduli (GPa) = 63.91253 89.49943 27.97596
#
# Poissons Ratio (x) = 0.44387 -0.00291
# Poissons Ratio (y) = 0.31697 -0.06921
# Poissons Ratio (z) = -0.00664 -0.22140
#
# Static dielectric constant tensor:
#      x y z
#    x 1.671460 0.000000 0.000000 
#    y 0.000000 1.678020 0.000000 
#    z 0.000000 0.000000 1.831460 
# 
# From -- ./inp_files/5555.got.cif
#   From: 2010.05.17/outbox.cif.g08.bks.cpg/sg57_3_cif.got.tgz:5555.got - 2010.06.03 13:58:18.
