data_PCOD9435448
_publ_section_title
;
Structure prediction by ZEFSAII (Michael W. Deem and Ramdas Pophale) SiO2 
 PCOD9435448
Probable space group: P B C M
;
_chemical_formula_sum "Si O2"
_cell_formula_units_Z 48
_cell_length_a 11.848536
_cell_length_b 27.048449
_cell_length_c 8.670066
_cell_angle_alpha 90.000000
_cell_angle_beta 90.000000
_cell_angle_gamma 90.000000
_cell_volume 2778.621955
_symmetry_space_group_name_H-M "P B C M"
_symmetry_group_IT_number 57
_symmetry_cell_setting 'orthorhombic'
loop_
_space_group_symop_operation_xyz
x,y,z
-x,-y,1/2+z
x,1/2-y,-z
-x,1/2+y,1/2-z
-x,-y,-z
x,y,1/2-z
-x,1/2+y,z
x,1/2-y,1/2+z
loop_
_atom_site_type_symbol
_atom_site_label
_atom_site_fract_x
_atom_site_fract_y
_atom_site_fract_z
Si Si1 0.472785 0.204148 0.919001
Si Si2 0.293469 0.116818 0.923984
Si Si3 0.888075 0.696073 0.937154
Si Si4 0.660764 0.364046 0.062411
Si Si5 0.511519 0.554863 0.433851
Si Si6 0.141643 0.803874 0.564556
O O1 0.506135 0.221030 0.750000
O O2 0.385814 0.160100 0.909377
O O3 0.583543 0.181914 0.995052
O O4 0.419086 0.250000 0.000000
O O5 0.268675 0.098129 0.750000
O O6 0.186362 0.148069 0.984739
O O7 0.364807 0.076561 0.018741
O O8 0.885635 0.697956 0.750000
O O9 0.848887 0.750000 0.000000
O O10 0.014745 0.690144 0.000044
O O11 0.661527 0.365294 0.250000
O O12 0.590215 0.411459 0.004053
O O13 0.782190 0.349210 0.997413
O O14 0.500000 0.500000 0.500000
O O15 0.501873 0.555529 0.250000
O O16 0.180692 0.750000 0.500000
O O17 0.141883 0.802421 0.750000
#
# Coordination Sequence:
#
# PCOD9435448 Si02
#       6
#     8   8   8   8   8   8
#     4   9  17  27  42  66  97 129 160 200 246 296
#     4   9  19  34  50  72 102 135 172 213 257 305
#     4  10  19  32  51  75 107 145 181 216 253 298
#     4  10  20  35  52  73 102 134 172 215 259 308
#     4  11  22  37  58  81 104 132 168 213 267 320
#     4  11  21  33  50  75 108 145 183 217 254 303
#
# _framework density 17.274750000000001
#
# number of rings (size 3 to 8) (size 9 to 14) (size 15 to 20)
#    0.000    2.000    0.000    7.000    0.000    6.000 
#    0.000    0.000    0.000    1.000    0.000    0.000 
#    0.000    0.000    0.000    0.000    0.000    0.000 
#
# Total GULP energy -267210.378114 kJ/mol
# GULP energy per Si atom -5566.882877 kJ/mol
# Density = 1.723543 g / cm^3
# Si number density = 17.274750 Si / 1000 Ang^3
#
#
#
# Elastic Constant Matrix: (Units=GPa)
#
#
# Indices 1 2 3 4 5 6 
#
# 1 99.0439 51.0489 32.2129 0.0000 0.0000 0.0000
# 2 51.0489 95.1952 50.0764 0.0000 0.0000 0.0000
# 3 32.2129 50.0764 97.3943 0.0000 0.0000 0.0000
# 4 0.0000 0.0000 0.0000 25.8799 0.0000 0.0000
# 5 0.0000 0.0000 0.0000 0.0000 24.0960 0.0000
# 6 0.0000 0.0000 0.0000 0.0000 0.0000 25.1554
#
#
#
# Elastic Compliance Matrix: (Units=1/GPa)
#
#
# Indices 1 2 3 4 5 6 
#
# 1 0.014032 -0.006968 -0.001058 0.000000 0.000000 0.000000
# 2 -0.006968 0.017859 -0.006878 0.000000 0.000000 0.000000
# 3 -0.001058 -0.006878 0.014154 0.000000 0.000000 0.000000
# 4 0.000000 0.000000 0.000000 0.038640 0.000000 0.000000
# 5 0.000000 0.000000 0.000000 0.000000 0.041501 0.000000
# 6 0.000000 0.000000 0.000000 0.000000 0.000000 0.039753
#
#
# Mechanical properties :
#
#
# Convention : Reuss Voigt Hill
#
# Bulk Modulus (GPa) = 61.58861 62.03443 61.81152
# Shear Modulus (GPa) = 24.85578 25.57929 25.21754
#
# Velocity S-wave (km/s) = 3.79733 3.85220 3.82487
# Velocity P-wave (km/s) = 7.41324 7.46823 7.44078
#
# Compressibility (1/GPa) = 0.01623677
#
# Stress axis : x y z
#
# Youngs Moduli (GPa) = 71.26446 55.99261 70.65137
#
# Poissons Ratio (x) = 0.39016 0.07478
# Poissons Ratio (y) = 0.49658 0.48594
# Poissons Ratio (z) = 0.07543 0.38512
#
# Static dielectric constant tensor:
#      x y z
#    x 1.622250 0.000000 0.000000 
#    y 0.000000 1.666030 0.000000 
#    z 0.000000 0.000000 1.612300 
# 
# From -- ./inp_files/3115.got.cif
#   From: 2010.05.17/outbox.cif.g08.bks.cpg/sg57_2_cif.got.tgz:3115.got - 2010.06.03 13:58:18.
