data_PCOD9435704
_publ_section_title
;
Structure prediction by ZEFSAII (Michael W. Deem and Ramdas Pophale) SiO2 
 PCOD9435704
Probable space group: P B C M
;
_chemical_formula_sum "Si O2"
_cell_formula_units_Z 48
_cell_length_a 18.605119
_cell_length_b 15.434435
_cell_length_c 8.597418
_cell_angle_alpha 90.000000
_cell_angle_beta 90.000000
_cell_angle_gamma 90.000000
_cell_volume 2468.830253
_symmetry_space_group_name_H-M "P B C M"
_symmetry_group_IT_number 57
_symmetry_cell_setting 'orthorhombic'
loop_
_space_group_symop_operation_xyz
x,y,z
-x,-y,1/2+z
x,1/2-y,-z
-x,1/2+y,1/2-z
-x,-y,-z
x,y,1/2-z
-x,1/2+y,z
x,1/2-y,1/2+z
loop_
_atom_site_type_symbol
_atom_site_label
_atom_site_fract_x
_atom_site_fract_y
_atom_site_fract_z
Si Si1 0.828091 0.975464 0.563518
Si Si2 0.622193 0.340429 0.436830
Si Si3 0.473068 0.408095 0.437130
Si Si4 0.325270 0.026199 0.936667
Si Si5 0.054606 0.155620 0.936614
Si Si6 0.887640 0.342929 0.436901
O O1 0.826868 0.973950 0.750000
O O2 0.751805 0.945522 0.498441
O O3 0.893203 0.916654 0.504477
O O4 0.841986 0.074602 0.511289
O O5 0.652898 0.250000 0.500000
O O6 0.627169 0.341343 0.250000
O O7 0.537569 0.345294 0.486641
O O8 0.657352 0.429374 0.499275
O O9 0.500000 0.500000 0.500000
O O10 0.473597 0.407561 0.250000
O O11 0.389674 0.408131 0.486092
O O12 0.324766 0.021774 0.750000
O O13 0.058103 0.154775 0.750000
O O14 0.971121 0.142385 0.983464
O O15 0.075914 0.250000 0.000000
O O16 0.864047 0.250000 0.500000
O O17 0.885621 0.339434 0.250000
#
# Coordination Sequence:
#
# PCOD9435704 Si02
#       6
#     8   8   8   8   8   8
#     4  11  22  36  54  81 114 149 185 225 273 330
#     4  10  19  33  53  78 104 133 170 215 263 317
#     4   8  16  31  51  71  94 125 165 207 249 298
#     4  10  20  35  53  75 104 140 176 216 265 318
#     4  10  20  37  59  82 106 139 182 231 280 329
#     4   9  20  36  56  81 110 142 182 228 275 326
#
# _framework density 19.442405999999998
#
# number of rings (size 3 to 8) (size 9 to 14) (size 15 to 20)
#    0.000    2.333    0.000    2.500    0.000    4.000 
#    0.000    2.500    0.000    2.000    0.000    0.000 
#    0.000    0.000    0.000    0.000    0.000    0.000 
#
# Total GULP energy -267688.998962 kJ/mol
# GULP energy per Si atom -5576.854145 kJ/mol
# Density = 1.939815 g / cm^3
# Si number density = 19.442406 Si / 1000 Ang^3
#
#
#
# Elastic Constant Matrix: (Units=GPa)
#
#
# Indices 1 2 3 4 5 6 
#
# 1 51.1228 -3.4200 7.4108 0.0000 0.0000 0.0000
# 2 -3.4200 27.6044 0.8170 0.0000 0.0000 0.0000
# 3 7.4108 0.8170 30.9049 0.0000 0.0000 0.0000
# 4 0.0000 0.0000 0.0000 26.2528 0.0000 0.0000
# 5 0.0000 0.0000 0.0000 0.0000 25.3745 0.0000
# 6 0.0000 0.0000 0.0000 0.0000 0.0000 6.5072
#
#
#
# Elastic Compliance Matrix: (Units=1/GPa)
#
#
# Indices 1 2 3 4 5 6 
#
# 1 0.020462 0.002682 -0.004978 0.000000 0.000000 0.000000
# 2 0.002682 0.036606 -0.001611 0.000000 0.000000 0.000000
# 3 -0.004978 -0.001611 0.033594 0.000000 0.000000 0.000000
# 4 0.000000 0.000000 0.000000 0.038091 0.000000 0.000000
# 5 0.000000 0.000000 0.000000 0.000000 0.039410 0.000000
# 6 0.000000 0.000000 0.000000 0.000000 0.000000 0.153676
#
#
# Mechanical properties :
#
#
# Convention : Reuss Voigt Hill
#
# Bulk Modulus (GPa) = 12.07012 13.24974 12.65993
# Shear Modulus (GPa) = 13.99514 18.61518 16.30516
#
# Velocity S-wave (km/s) = 2.68587 3.09763 2.89907
# Velocity P-wave (km/s) = 3.97997 4.42983 4.21091
#
# Compressibility (1/GPa) = 0.08284925
#
# Stress axis : x y z
#
# Youngs Moduli (GPa) = 48.87173 27.31786 29.76763
#
# Poissons Ratio (x) = -0.07328 0.14817
# Poissons Ratio (y) = -0.13109 0.04795
# Poissons Ratio (z) = 0.24326 0.04401
#
# Static dielectric constant tensor:
#      x y z
#    x 1.711100 0.000000 0.000000 
#    y 0.000000 1.662210 0.000000 
#    z 0.000000 0.000000 1.648770 
# 
# From -- ./inp_files/6496.got.cif
#   From: 2010.05.17/outbox.cif.g08.bks.cpg/sg57_4_cif.got.tgz:6496.got - 2010.06.03 13:58:18.
