data_PCOD9435933
_publ_section_title
;
Structure prediction by ZEFSAII (Michael W. Deem and Ramdas Pophale) SiO2 
 PCOD9435933
Probable space group: P B C M
;
_chemical_formula_sum "Si O2"
_cell_formula_units_Z 44
_cell_length_a 23.753871
_cell_length_b 9.155610
_cell_length_c 10.911515
_cell_angle_alpha 90.000000
_cell_angle_beta 90.000000
_cell_angle_gamma 90.000000
_cell_volume 2373.049145
_symmetry_space_group_name_H-M "P B C M"
_symmetry_group_IT_number 57
_symmetry_cell_setting 'orthorhombic'
loop_
_space_group_symop_operation_xyz
x,y,z
-x,-y,1/2+z
x,1/2-y,-z
-x,1/2+y,1/2-z
-x,-y,-z
x,y,1/2-z
-x,1/2+y,z
x,1/2-y,1/2+z
loop_
_atom_site_type_symbol
_atom_site_label
_atom_site_fract_x
_atom_site_fract_y
_atom_site_fract_z
Si Si1 0.927614 0.007777 0.110249
Si Si2 0.683835 0.635740 0.888679
Si Si3 0.997871 0.250000 0.000000
Si Si4 0.532520 0.856640 0.884067
Si Si5 0.408929 0.913720 0.530719
Si Si6 0.813483 0.629513 0.893057
O O1 0.935805 0.968601 0.250000
O O2 0.861214 0.992050 0.084053
O O3 0.955177 0.165217 0.089520
O O4 0.961297 0.880531 0.040828
O O5 0.678301 0.698258 0.750000
O O6 0.639185 0.506887 0.905263
O O7 0.748426 0.581943 0.900697
O O8 0.674874 0.750000 0.000000
O O9 0.543693 0.792341 0.750000
O O10 0.467073 0.902088 0.892984
O O11 0.541868 0.750000 0.000000
O O12 0.570886 0.997432 0.910045
O O13 0.390901 0.750000 0.500000
O O14 0.821260 0.681829 0.750000
O O15 0.821322 0.750000 0.000000
#
# Coordination Sequence:
#
# PCOD9435933 Si02
#       6
#     8   8   4   8   8   8
#     4  10  19  34  53  79 112 144 182 226 272 324
#     4  10  21  38  60  81 107 146 189 230 272 325
#     4  10  20  32  52  82 110 144 180 220 274 326
#     4  10  22  39  59  82 111 145 182 223 273 331
#     4  10  22  36  55  84 113 143 179 227 277 327
#     4   9  18  35  57  80 108 144 186 229 272 322
#
# _framework density 18.541546
#
# number of rings (size 3 to 8) (size 9 to 14) (size 15 to 20)
#    0.000    2.182    0.909    1.636    0.000   10.909 
#    1.636    0.909    0.000    0.000    0.000    0.000 
#    0.000    0.000    0.000    0.000    0.000    0.000 
#
# Total GULP energy -245050.330411 kJ/mol
# GULP energy per Si atom -5569.325691 kJ/mol
# Density = 1.849934 g / cm^3
# Si number density = 18.541546 Si / 1000 Ang^3
#
#
#
# Elastic Constant Matrix: (Units=GPa)
#
#
# Indices 1 2 3 4 5 6 
#
# 1 110.7628 30.5078 32.6202 0.0000 0.0000 0.0000
# 2 30.5078 68.0144 29.3273 0.0000 0.0000 0.0000
# 3 32.6202 29.3273 109.9530 0.0000 0.0000 0.0000
# 4 0.0000 0.0000 0.0000 21.9332 0.0000 0.0000
# 5 0.0000 0.0000 0.0000 0.0000 4.7725 0.0000
# 6 0.0000 0.0000 0.0000 0.0000 0.0000 30.3042
#
#
#
# Elastic Compliance Matrix: (Units=1/GPa)
#
#
# Indices 1 2 3 4 5 6 
#
# 1 0.010731 -0.003888 -0.002147 0.000000 0.000000 0.000000
# 2 -0.003888 0.018022 -0.003654 0.000000 0.000000 0.000000
# 3 -0.002147 -0.003654 0.010706 0.000000 0.000000 0.000000
# 4 0.000000 0.000000 0.000000 0.045593 0.000000 0.000000
# 5 0.000000 0.000000 0.000000 0.000000 0.209532 0.000000
# 6 0.000000 0.000000 0.000000 0.000000 0.000000 0.032999
#
#
# Mechanical properties :
#
#
# Convention : Reuss Voigt Hill
#
# Bulk Modulus (GPa) = 49.79255 52.62677 51.20966
# Shear Modulus (GPa) = 14.13812 24.48699 19.31256
#
# Velocity S-wave (km/s) = 2.76436 3.63802 3.23086
# Velocity P-wave (km/s) = 6.09112 6.78909 6.44955
#
# Compressibility (1/GPa) = 0.02008333
#
# Stress axis : x y z
#
# Youngs Moduli (GPa) = 93.18467 55.48755 93.40422
#
# Poissons Ratio (x) = 0.21573 0.20051
# Poissons Ratio (y) = 0.36229 0.34125
# Poissons Ratio (z) = 0.20004 0.20272
#
# Static dielectric constant tensor:
#      x y z
#    x 1.670370 0.000000 0.000000 
#    y 0.000000 1.668960 0.000000 
#    z 0.000000 0.000000 1.679160 
# 
# From -- ./inp_files/14404.got.cif
#   From: 2010.05.17/outbox.cif.g08.bks.cpg/sg57_8_cif.got.tgz:14404.got - 2010.06.03 13:58:18.
