data_PCOD9435640
_publ_section_title
;
Structure prediction by ZEFSAII (Michael W. Deem and Ramdas Pophale) SiO2 
 PCOD9435640
Probable space group: P B C M
;
_chemical_formula_sum "Si O2"
_cell_formula_units_Z 40
_cell_length_a 14.281264
_cell_length_b 5.217958
_cell_length_c 25.904380
_cell_angle_alpha 90.000000
_cell_angle_beta 90.000000
_cell_angle_gamma 90.000000
_cell_volume 1930.369419
_symmetry_space_group_name_H-M "P B C M"
_symmetry_group_IT_number 57
_symmetry_cell_setting 'orthorhombic'
loop_
_space_group_symop_operation_xyz
x,y,z
-x,-y,1/2+z
x,1/2-y,-z
-x,1/2+y,1/2-z
-x,-y,-z
x,y,1/2-z
-x,1/2+y,z
x,1/2-y,1/2+z
loop_
_atom_site_type_symbol
_atom_site_label
_atom_site_fract_x
_atom_site_fract_y
_atom_site_fract_z
Si Si1 0.748557 0.256021 0.440963
Si Si2 0.057119 0.388135 0.188059
Si Si3 0.463019 0.549151 0.942188
Si Si4 0.760259 0.743036 0.125441
Si Si5 0.565188 0.717185 0.188662
O O1 0.784909 0.250000 0.500000
O O2 0.788344 0.479699 0.404114
O O3 0.640690 0.347928 0.443883
O O4 0.750072 0.975148 0.415807
O O5 0.066590 0.382466 0.250000
O O6 0.156060 0.327392 0.162678
O O7 0.015697 0.663958 0.173219
O O8 0.473663 0.270156 0.918239
O O9 0.500222 0.532301 0.819886
O O10 0.500000 0.500000 0.000000
O O11 0.664154 0.709851 0.157981
O O12 0.589425 0.718549 0.250000
#
# Coordination Sequence:
#
# PCOD9435640 Si02
#       5
#     8   8   8   8   8
#     4  12  25  39  56  86 129 174 213 264 317 352
#     4  10  22  44  75 105 128 153 199 271 344 393
#     4  10  19  33  52  72 108 164 213 272 302 331
#     4  12  25  40  66  95 127 168 217 265 315 393
#     4  10  22  41  60  88 131 172 208 253 312 394
#
# _framework density 20.721420999999999
#
# number of rings (size 3 to 8) (size 9 to 14) (size 15 to 20)
#    0.000    1.200    2.000    4.800    2.800    4.800 
#    0.000    8.000    0.000   12.000    0.000    0.000 
#    0.000    0.000    0.000    0.000    0.000    0.000 
#
# Total GULP energy -223558.883506 kJ/mol
# GULP energy per Si atom -5588.972088 kJ/mol
# Density = 2.067426 g / cm^3
# Si number density = 20.721421 Si / 1000 Ang^3
#
#
#
# Elastic Constant Matrix: (Units=GPa)
#
#
# Indices 1 2 3 4 5 6 
#
# 1 58.9475 -8.2439 26.3262 0.0000 0.0000 0.0000
# 2 -8.2439 131.7129 39.1564 0.0000 0.0000 0.0000
# 3 26.3262 39.1564 103.7120 0.0000 0.0000 0.0000
# 4 0.0000 0.0000 0.0000 40.6839 0.0000 0.0000
# 5 0.0000 0.0000 0.0000 0.0000 30.0266 0.0000
# 6 0.0000 0.0000 0.0000 0.0000 0.0000 27.4603
#
#
#
# Elastic Compliance Matrix: (Units=1/GPa)
#
#
# Indices 1 2 3 4 5 6 
#
# 1 0.020228 0.003146 -0.006322 0.000000 0.000000 0.000000
# 2 0.003146 0.009041 -0.004212 0.000000 0.000000 0.000000
# 3 -0.006322 -0.004212 0.012837 0.000000 0.000000 0.000000
# 4 0.000000 0.000000 0.000000 0.024580 0.000000 0.000000
# 5 0.000000 0.000000 0.000000 0.000000 0.033304 0.000000
# 6 0.000000 0.000000 0.000000 0.000000 0.000000 0.036416
#
#
# Mechanical properties :
#
#
# Convention : Reuss Voigt Hill
#
# Bulk Modulus (GPa) = 36.59138 45.42777 41.00957
# Shear Modulus (GPa) = 31.19292 35.44308 33.31800
#
# Velocity S-wave (km/s) = 3.88409 4.14025 4.01421
# Velocity P-wave (km/s) = 6.14914 6.69524 6.42799
#
# Compressibility (1/GPa) = 0.02732884
#
# Stress axis : x y z
#
# Youngs Moduli (GPa) = 49.43723 110.60332 77.89892
#
# Poissons Ratio (x) = -0.34791 0.49249
# Poissons Ratio (y) = -0.15551 0.32811
# Poissons Ratio (z) = 0.31255 0.46586
#
# Static dielectric constant tensor:
#      x y z
#    x 1.693360 0.000000 0.000000 
#    y 0.000000 1.931010 0.000000 
#    z 0.000000 0.000000 2.648100 
# 
# From -- ./inp_files/25522.got.cif
#   From: 2010.05.17/outbox.cif.g08.bks.cpg/sg57_13_cif.got.tgz:25522.got - 2010.06.03 13:58:18.
