data_PCOD9435607
_publ_section_title
;
Structure prediction by ZEFSAII (Michael W. Deem and Ramdas Pophale) SiO2 
 PCOD9435607
Probable space group: P B C M
;
_chemical_formula_sum "Si O2"
_cell_formula_units_Z 56
_cell_length_a 10.923344
_cell_length_b 12.298622
_cell_length_c 18.392785
_cell_angle_alpha 90.000000
_cell_angle_beta 90.000000
_cell_angle_gamma 90.000000
_cell_volume 2470.924972
_symmetry_space_group_name_H-M "P B C M"
_symmetry_group_IT_number 57
_symmetry_cell_setting 'orthorhombic'
loop_
_space_group_symop_operation_xyz
x,y,z
-x,-y,1/2+z
x,1/2-y,-z
-x,1/2+y,1/2-z
-x,-y,-z
x,y,1/2-z
-x,1/2+y,z
x,1/2-y,1/2+z
loop_
_atom_site_type_symbol
_atom_site_label
_atom_site_fract_x
_atom_site_fract_y
_atom_site_fract_z
Si Si1 0.835771 0.857850 0.334990
Si Si2 0.506859 0.938965 0.830615
Si Si3 0.690269 0.919407 0.023860
Si Si4 0.232968 0.373874 0.872455
Si Si5 0.894848 0.101890 0.664459
Si Si6 0.684493 0.260325 0.665205
Si Si7 0.571634 0.112465 0.952735
O O1 0.812060 0.889582 0.250000
O O2 0.738198 0.895738 0.395707
O O3 0.838878 0.726308 0.338211
O O4 0.967107 0.900091 0.363863
O O5 0.518659 0.985476 0.750000
O O6 0.626802 0.862997 0.843331
O O7 0.376583 0.878909 0.834448
O O8 0.527616 0.029123 0.890202
O O9 0.556292 0.868495 0.008790
O O10 0.771886 0.869131 0.959850
O O11 0.668055 0.046722 0.002134
O O12 0.184944 0.495514 0.854939
O O13 0.912249 0.096014 0.750000
O O14 0.821747 0.215092 0.652128
O O15 0.658016 0.222755 0.750000
O O16 0.621106 0.210263 0.593827
#
# Coordination Sequence:
#
# PCOD9435607 Si02
#       7
#     8   8   8   8   8   8   8
#     4  11  24  40  63  93 121 163 217 264 308 368
#     4  10  19  32  62  97 122 163 211 254 312 379
#     4  10  22  39  61  88 125 159 204 258 310 374
#     4  11  21  41  67  87 123 165 210 254 314 382
#     4  10  21  40  63  88 125 165 208 262 313 365
#     4  10  19  35  60  91 126 164 209 258 308 372
#     4  10  20  37  60  91 128 164 197 258 322 376
#
# _framework density 22.663577
#
# number of rings (size 3 to 8) (size 9 to 14) (size 15 to 20)
#    0.000    1.714    2.857    3.000    0.000    4.000 
#    2.571    2.143    0.000    0.000    0.000    0.000 
#    0.000    0.000    0.000    0.000    0.000    0.000 
#
# Total GULP energy -312073.397395 kJ/mol
# GULP energy per Si atom -5572.739239 kJ/mol
# Density = 2.261199 g / cm^3
# Si number density = 22.663577 Si / 1000 Ang^3
#
#
#
# Elastic Constant Matrix: (Units=GPa)
#
#
# Indices 1 2 3 4 5 6 
#
# 1 72.5358 11.8950 14.2518 0.0000 0.0000 0.0000
# 2 11.8950 58.8937 8.4716 0.0000 0.0000 0.0000
# 3 14.2518 8.4716 88.2938 0.0000 0.0000 0.0000
# 4 0.0000 0.0000 0.0000 24.9249 0.0000 0.0000
# 5 0.0000 0.0000 0.0000 0.0000 24.2675 0.0000
# 6 0.0000 0.0000 0.0000 0.0000 0.0000 21.1893
#
#
#
# Elastic Compliance Matrix: (Units=1/GPa)
#
#
# Indices 1 2 3 4 5 6 
#
# 1 0.014635 -0.002653 -0.002108 0.000000 0.000000 0.000000
# 2 -0.002653 0.017698 -0.001270 0.000000 0.000000 0.000000
# 3 -0.002108 -0.001270 0.011788 0.000000 0.000000 0.000000
# 4 0.000000 0.000000 0.000000 0.040121 0.000000 0.000000
# 5 0.000000 0.000000 0.000000 0.000000 0.041207 0.000000
# 6 0.000000 0.000000 0.000000 0.000000 0.000000 0.047194
#
#
# Mechanical properties :
#
#
# Convention : Reuss Voigt Hill
#
# Bulk Modulus (GPa) = 31.19101 32.10668 31.64885
# Shear Modulus (GPa) = 25.58970 26.41666 26.00318
#
# Velocity S-wave (km/s) = 3.36387 3.41779 3.39094
# Velocity P-wave (km/s) = 5.37401 5.45642 5.41537
#
# Compressibility (1/GPa) = 0.03206052
#
# Stress axis : x y z
#
# Youngs Moduli (GPa) = 68.32721 56.50292 84.83270
#
# Poissons Ratio (x) = 0.14989 0.17881
# Poissons Ratio (y) = 0.18126 0.10773
# Poissons Ratio (z) = 0.14402 0.07175
#
# Static dielectric constant tensor:
#      x y z
#    x 1.925120 0.000000 0.000000 
#    y 0.000000 1.921810 0.000000 
#    z 0.000000 0.000000 1.856200 
# 
# From -- ./inp_files/25048.got.cif
#   From: 2010.05.17/outbox.cif.g08.bks.cpg/sg57_13_cif.got.tgz:25048.got - 2010.06.03 13:58:18.
