data_PCOD9435580
_publ_section_title
;
Structure prediction by ZEFSAII (Michael W. Deem and Ramdas Pophale) SiO2 
 PCOD9435580
Probable space group: P B C M
;
_chemical_formula_sum "Si O2"
_cell_formula_units_Z 56
_cell_length_a 14.590416
_cell_length_b 21.594726
_cell_length_c 8.426302
_cell_angle_alpha 90.000000
_cell_angle_beta 90.000000
_cell_angle_gamma 90.000000
_cell_volume 2654.925830
_symmetry_space_group_name_H-M "P B C M"
_symmetry_group_IT_number 57
_symmetry_cell_setting 'orthorhombic'
loop_
_space_group_symop_operation_xyz
x,y,z
-x,-y,1/2+z
x,1/2-y,-z
-x,1/2+y,1/2-z
-x,-y,-z
x,y,1/2-z
-x,1/2+y,z
x,1/2-y,1/2+z
loop_
_atom_site_type_symbol
_atom_site_label
_atom_site_fract_x
_atom_site_fract_y
_atom_site_fract_z
Si Si1 0.479624 0.079756 0.936781
Si Si2 0.329434 0.187463 0.567675
Si Si3 0.855100 0.182106 0.940964
Si Si4 0.191135 0.103195 0.068778
Si Si5 0.983950 0.070678 0.435895
Si Si6 0.313815 0.999636 0.563720
Si Si7 0.326649 0.624735 0.565368
O O1 0.497044 0.066014 0.750000
O O2 0.406326 0.135233 0.943560
O O3 0.573069 0.108978 0.007362
O O4 0.413806 0.023692 0.996837
O O5 0.369225 0.250000 0.500000
O O6 0.302744 0.193816 0.750000
O O7 0.241269 0.167254 0.467395
O O8 0.854002 0.182882 0.750000
O O9 0.749519 0.171353 0.999971
O O10 0.887404 0.250000 0.000000
O O11 0.913504 0.121234 0.991844
O O12 0.210951 0.084561 0.250000
O O13 0.083496 0.102293 0.046222
O O14 0.240954 0.054138 0.955384
O O15 0.960642 0.064250 0.250000
O O16 0.000000 0.000000 0.500000
O O17 0.321003 0.983644 0.750000
O O18 0.281784 0.942846 0.457587
O O19 0.341212 0.640347 0.750000
#
# Coordination Sequence:
#
# PCOD9435580 Si02
#       7
#     8   8   8   8   8   8   8
#     4   8  17  33  52  78 113 150 191 236 283 336
#     4  10  20  35  55  80 110 145 183 227 277 331
#     4  11  25  43  63  87 119 160 205 254 308 364
#     4  10  21  37  57  82 110 143 180 222 277 338
#     4  11  24  42  66  93 121 154 196 246 302 363
#     4  10  19  32  54  86 119 149 184 233 288 343
#     4  10  20  36  57  80 111 153 195 236 283 341
#
# _framework density 21.092869
#
# number of rings (size 3 to 8) (size 9 to 14) (size 15 to 20)
#    0.000    2.000    0.000    4.286    0.000    8.000 
#    0.000    3.571    0.000    0.000    0.000    0.000 
#    0.000    0.000    0.000    0.000    0.000    0.000 
#
# Total GULP energy -311994.063433 kJ/mol
# GULP energy per Si atom -5571.322561 kJ/mol
# Density = 2.104486 g / cm^3
# Si number density = 21.092869 Si / 1000 Ang^3
#
#
#
# Elastic Constant Matrix: (Units=GPa)
#
#
# Indices 1 2 3 4 5 6 
#
# 1 75.0834 27.8996 43.5526 0.0000 0.0000 0.0000
# 2 27.8996 77.4665 19.1730 0.0000 0.0000 0.0000
# 3 43.5526 19.1730 46.3271 0.0000 0.0000 0.0000
# 4 0.0000 0.0000 0.0000 32.3633 0.0000 0.0000
# 5 0.0000 0.0000 0.0000 0.0000 21.4537 0.0000
# 6 0.0000 0.0000 0.0000 0.0000 0.0000 15.7930
#
#
#
# Elastic Compliance Matrix: (Units=1/GPa)
#
#
# Indices 1 2 3 4 5 6 
#
# 1 0.030547 -0.004338 -0.026922 0.000000 0.000000 0.000000
# 2 -0.004338 0.014998 -0.002129 0.000000 0.000000 0.000000
# 3 -0.026922 -0.002129 0.047776 0.000000 0.000000 0.000000
# 4 0.000000 0.000000 0.000000 0.030899 0.000000 0.000000
# 5 0.000000 0.000000 0.000000 0.000000 0.046612 0.000000
# 6 0.000000 0.000000 0.000000 0.000000 0.000000 0.063319
#
#
# Mechanical properties :
#
#
# Convention : Reuss Voigt Hill
#
# Bulk Modulus (GPa) = 37.67421 42.23637 39.95529
# Shear Modulus (GPa) = 16.14065 21.13879 18.63972
#
# Velocity S-wave (km/s) = 2.76926 3.16915 2.97593
# Velocity P-wave (km/s) = 5.30330 5.78436 5.54904
#
# Compressibility (1/GPa) = 0.02654336
#
# Stress axis : x y z
#
# Youngs Moduli (GPa) = 32.73669 66.67515 20.93094
#
# Poissons Ratio (x) = 0.28926 0.56350
# Poissons Ratio (y) = 0.14202 0.04455
# Poissons Ratio (z) = 0.88133 0.14193
#
# Static dielectric constant tensor:
#      x y z
#    x 1.811490 0.000000 0.000000 
#    y 0.000000 1.558650 0.000000 
#    z 0.000000 0.000000 1.782860 
# 
# From -- ./inp_files/5250.got.cif
#   From: 2010.05.17/outbox.cif.g08.bks.cpg/sg57_3_cif.got.tgz:5250.got - 2010.06.03 13:58:18.
