data_PCOD9435016
_publ_section_title
;
Structure prediction by ZEFSAII (Michael W. Deem and Ramdas Pophale) SiO2 
 PCOD9435016
Probable space group: P B C M
;
_chemical_formula_sum "Si O2"
_cell_formula_units_Z 48
_cell_length_a 10.026162
_cell_length_b 31.915111
_cell_length_c 7.597430
_cell_angle_alpha 90.000000
_cell_angle_beta 90.000000
_cell_angle_gamma 90.000000
_cell_volume 2431.071792
_symmetry_space_group_name_H-M "P B C M"
_symmetry_group_IT_number 57
_symmetry_cell_setting 'orthorhombic'
loop_
_space_group_symop_operation_xyz
x,y,z
-x,-y,1/2+z
x,1/2-y,-z
-x,1/2+y,1/2-z
-x,-y,-z
x,y,1/2-z
-x,1/2+y,z
x,1/2-y,1/2+z
loop_
_atom_site_type_symbol
_atom_site_label
_atom_site_fract_x
_atom_site_fract_y
_atom_site_fract_z
Si Si1 0.989726 0.135044 0.454754
Si Si2 0.798305 0.798729 0.961411
Si Si3 0.295816 0.892554 0.533551
Si Si4 0.792997 0.930902 0.042302
Si Si5 0.423238 0.139481 0.037424
Si Si6 0.347600 0.512660 0.038556
O O1 0.968649 0.145430 0.250000
O O2 0.079966 0.172594 0.531049
O O3 0.081226 0.093421 0.463067
O O4 0.844198 0.126040 0.529784
O O5 0.798664 0.803438 0.750000
O O6 0.660778 0.820279 0.024524
O O7 0.809434 0.750000 0.000000
O O8 0.294124 0.893005 0.750000
O O9 0.425851 0.866587 0.476832
O O10 0.315069 0.940685 0.475885
O O11 0.818241 0.934052 0.250000
O O12 0.751613 0.976396 0.971720
O O13 0.665383 0.900760 0.013623
O O14 0.426824 0.140386 0.250000
O O15 0.334865 0.513016 0.250000
O O16 0.500000 0.500000 0.000000
#
# Coordination Sequence:
#
# PCOD9435016 Si02
#       6
#     8   8   8   8   8   8
#     4   9  19  35  53  72  96 133 172 200 240 298
#     4   9  18  32  52  75  95 122 161 200 244 298
#     4   9  17  32  53  73  97 130 170 209 239 282
#     4  10  19  30  46  73 104 132 165 205 246 285
#     4   9  17  32  54  74  94 127 167 200 239 293
#     4  10  19  30  48  73 100 133 171 209 247 283
#
# _framework density 19.744378000000001
#
# number of rings (size 3 to 8) (size 9 to 14) (size 15 to 20)
#    0.000    2.667    1.667    1.500    0.000    4.000 
#    0.000    2.500    0.000    0.000    0.000    0.000 
#    0.000    0.000    0.000    0.000    0.000    0.000 
#
# Total GULP energy -267723.941243 kJ/mol
# GULP energy per Si atom -5577.582109 kJ/mol
# Density = 1.969944 g / cm^3
# Si number density = 19.744378 Si / 1000 Ang^3
#
#
#
# Elastic Constant Matrix: (Units=GPa)
#
#
# Indices 1 2 3 4 5 6 
#
# 1 163.0991 87.3386 3.3135 0.0000 0.0000 0.0000
# 2 87.3386 148.0859 4.7052 0.0000 0.0000 0.0000
# 3 3.3135 4.7052 38.6433 0.0000 0.0000 0.0000
# 4 0.0000 0.0000 0.0000 18.7694 0.0000 0.0000
# 5 0.0000 0.0000 0.0000 0.0000 7.9930 0.0000
# 6 0.0000 0.0000 0.0000 0.0000 0.0000 15.8584
#
#
#
# Elastic Compliance Matrix: (Units=1/GPa)
#
#
# Indices 1 2 3 4 5 6 
#
# 1 0.008962 -0.005282 -0.000125 0.000000 0.000000 0.000000
# 2 -0.005282 0.009892 -0.000752 0.000000 0.000000 0.000000
# 3 -0.000125 -0.000752 0.025980 0.000000 0.000000 0.000000
# 4 0.000000 0.000000 0.000000 0.053278 0.000000 0.000000
# 5 0.000000 0.000000 0.000000 0.000000 0.125109 0.000000
# 6 0.000000 0.000000 0.000000 0.000000 0.000000 0.063058
#
#
# Mechanical properties :
#
#
# Convention : Reuss Voigt Hill
#
# Bulk Modulus (GPa) = 30.75352 60.06032 45.40692
# Shear Modulus (GPa) = 16.15848 25.48891 20.82369
#
# Velocity S-wave (km/s) = 2.86384 3.59687 3.25108
# Velocity P-wave (km/s) = 5.15220 6.90905 6.09426
#
# Compressibility (1/GPa) = 0.03251660
#
# Stress axis : x y z
#
# Youngs Moduli (GPa) = 111.58064 101.09389 38.49124
#
# Poissons Ratio (x) = 0.53395 0.00483
# Poissons Ratio (y) = 0.58934 0.02893
# Poissons Ratio (z) = 0.01399 0.07597
#
# Static dielectric constant tensor:
#      x y z
#    x 1.690820 0.000000 0.000000 
#    y 0.000000 1.690760 0.000000 
#    z 0.000000 0.000000 1.733770 
# 
# From -- ./inp_files/2138.got.cif
#   From: 2010.05.17/outbox.cif.g08.bks.cpg/sg57_2_cif.got.tgz:2138.got - 2010.06.03 13:58:18.
