data_PCOD9435215
_publ_section_title
;
Structure prediction by ZEFSAII (Michael W. Deem and Ramdas Pophale) SiO2 
 PCOD9435215
Probable space group: P B C M
;
_chemical_formula_sum "Si O2"
_cell_formula_units_Z 64
_cell_length_a 16.727117
_cell_length_b 23.738234
_cell_length_c 8.930774
_cell_angle_alpha 90.000000
_cell_angle_beta 90.000000
_cell_angle_gamma 90.000000
_cell_volume 3546.162236
_symmetry_space_group_name_H-M "P B C M"
_symmetry_group_IT_number 57
_symmetry_cell_setting 'orthorhombic'
loop_
_space_group_symop_operation_xyz
x,y,z
-x,-y,1/2+z
x,1/2-y,-z
-x,1/2+y,1/2-z
-x,-y,-z
x,y,1/2-z
-x,1/2+y,z
x,1/2-y,1/2+z
loop_
_atom_site_type_symbol
_atom_site_label
_atom_site_fract_x
_atom_site_fract_y
_atom_site_fract_z
Si Si1 0.772380 0.085926 0.570730
Si Si2 0.439555 0.425093 0.421596
Si Si3 0.122627 0.812471 0.430341
Si Si4 0.397959 0.941392 0.923098
Si Si5 0.719410 0.592452 0.418513
Si Si6 0.031037 0.384481 0.070447
Si Si7 0.145489 0.482222 0.429561
Si Si8 0.837872 0.692600 0.419614
O O1 0.769751 0.080013 0.750000
O O2 0.799163 0.149890 0.535306
O O3 0.686803 0.070613 0.500194
O O4 0.838497 0.041860 0.507957
O O5 0.436139 0.406443 0.250000
O O6 0.526920 0.415218 0.489563
O O7 0.417980 0.491873 0.424557
O O8 0.368876 0.400093 0.520051
O O9 0.119647 0.750000 0.500000
O O10 0.116695 0.806391 0.250000
O O11 0.050543 0.854348 0.480279
O O12 0.395304 0.923521 0.750000
O O13 0.718639 0.567719 0.250000
O O14 0.776011 0.554031 0.523112
O O15 0.762115 0.652249 0.412417
O O16 0.026967 0.388422 0.250000
O O17 0.067876 0.445225 0.020008
O O18 0.097403 0.340390 0.017127
O O19 0.143222 0.488699 0.250000
O O20 0.818616 0.750000 0.500000
O O21 0.867972 0.701427 0.250000
#
# Coordination Sequence:
#
# PCOD9435215 Si02
#       8
#     8   8   8   8   8   8   8   8
#     4  11  22  36  55  79 112 144 177 223 273 324
#     4  10  19  31  51  79 110 142 176 214 261 317
#     4  10  23  41  59  80 104 140 186 233 277 317
#     4  10  20  33  52  79 109 141 177 213 261 319
#     4  10  19  31  49  74 108 144 177 217 262 314
#     4   9  19  36  56  78 108 140 177 225 271 321
#     4  10  19  32  52  80 111 144 177 213 267 325
#     4  10  20  32  49  75 104 140 182 221 267 317
#
# _framework density 18.047678999999999
#
# number of rings (size 3 to 8) (size 9 to 14) (size 15 to 20)
#    0.000    2.000    1.250    2.625    0.000    6.000 
#    0.000    0.000    0.000    0.750    0.000    5.250 
#    0.000    0.000    0.000    0.000    0.000    0.000 
#
# Total GULP energy -356825.465381 kJ/mol
# GULP energy per Si atom -5575.397897 kJ/mol
# Density = 1.800660 g / cm^3
# Si number density = 18.047679 Si / 1000 Ang^3
#
#
#
# Elastic Constant Matrix: (Units=GPa)
#
#
# Indices 1 2 3 4 5 6 
#
# 1 81.8571 44.9869 28.8826 0.0000 0.0000 0.0000
# 2 44.9869 85.2668 24.6149 0.0000 0.0000 0.0000
# 3 28.8826 24.6149 44.5683 0.0000 0.0000 0.0000
# 4 0.0000 0.0000 0.0000 23.3601 0.0000 0.0000
# 5 0.0000 0.0000 0.0000 0.0000 19.3501 0.0000
# 6 0.0000 0.0000 0.0000 0.0000 0.0000 11.3442
#
#
#
# Elastic Compliance Matrix: (Units=1/GPa)
#
#
# Indices 1 2 3 4 5 6 
#
# 1 0.019464 -0.007885 -0.008259 0.000000 0.000000 0.000000
# 2 -0.007885 0.017147 -0.004360 0.000000 0.000000 0.000000
# 3 -0.008259 -0.004360 0.030198 0.000000 0.000000 0.000000
# 4 0.000000 0.000000 0.000000 0.042808 0.000000 0.000000
# 5 0.000000 0.000000 0.000000 0.000000 0.051679 0.000000
# 6 0.000000 0.000000 0.000000 0.000000 0.000000 0.088151
#
#
# Mechanical properties :
#
#
# Convention : Reuss Voigt Hill
#
# Bulk Modulus (GPa) = 38.75905 45.40677 42.08291
# Shear Modulus (GPa) = 16.71935 18.35807 17.53871
#
# Velocity S-wave (km/s) = 3.04698 3.19281 3.12075
# Velocity P-wave (km/s) = 5.82249 6.22945 6.02940
#
# Compressibility (1/GPa) = 0.02580043
#
# Stress axis : x y z
#
# Youngs Moduli (GPa) = 51.37720 58.32018 33.11508
#
# Poissons Ratio (x) = 0.45986 0.27349
# Poissons Ratio (y) = 0.40511 0.14439
# Poissons Ratio (z) = 0.42431 0.25429
#
# Static dielectric constant tensor:
#      x y z
#    x 1.631380 0.000000 0.000000 
#    y 0.000000 1.606220 0.000000 
#    z 0.000000 0.000000 1.627250 
# 
# From -- ./inp_files/5610.got.cif
#   From: 2010.05.17/outbox.cif.g08.bks.cpg/sg57_3_cif.got.tgz:5610.got - 2010.06.03 13:58:18.
