data_PCOD9435771
_publ_section_title
;
Structure prediction by ZEFSAII (Michael W. Deem and Ramdas Pophale) SiO2 
 PCOD9435771
Probable space group: P B C M
;
_chemical_formula_sum "Si O2"
_cell_formula_units_Z 40
_cell_length_a 11.720598
_cell_length_b 9.596837
_cell_length_c 13.849926
_cell_angle_alpha 90.000000
_cell_angle_beta 90.000000
_cell_angle_gamma 90.000000
_cell_volume 1557.848936
_symmetry_space_group_name_H-M "P B C M"
_symmetry_group_IT_number 57
_symmetry_cell_setting 'orthorhombic'
loop_
_space_group_symop_operation_xyz
x,y,z
-x,-y,1/2+z
x,1/2-y,-z
-x,1/2+y,1/2-z
-x,-y,-z
x,y,1/2-z
-x,1/2+y,z
x,1/2-y,1/2+z
loop_
_atom_site_type_symbol
_atom_site_label
_atom_site_fract_x
_atom_site_fract_y
_atom_site_fract_z
Si Si1 0.107124 0.032096 0.639701
Si Si2 0.756779 0.806934 0.864045
Si Si3 0.129232 0.924415 0.060878
Si Si4 0.517656 0.563544 0.366853
Si Si5 0.641467 0.210026 0.866294
O O1 0.111821 0.980202 0.750000
O O2 0.205862 0.147590 0.626388
O O3 0.112948 0.919847 0.554221
O O4 0.985806 0.107224 0.619152
O O5 0.764183 0.840339 0.750000
O O6 0.841527 0.913291 0.916104
O O7 0.628868 0.846161 0.894796
O O8 0.239130 0.841635 0.094740
O O9 0.512681 0.566247 0.250000
O O10 0.402953 0.639755 0.399337
O O11 0.545518 0.405458 0.392583
O O12 0.650106 0.209559 0.750000
#
# Coordination Sequence:
#
# PCOD9435771 Si02
#       5
#     8   8   8   8   8
#     4  10  20  33  52  79 108 142 189 238 283 340
#     4   9  17  32  53  77 109 147 183 223 281 350
#     4  10  19  33  54  79 109 147 188 232 289 351
#     4   8  15  28  50  79 112 149 187 231 286 347
#     4   9  16  30  53  82 115 150 190 238 294 353
#
# _framework density 25.67643
#
# number of rings (size 3 to 8) (size 9 to 14) (size 15 to 20)
#    0.000    2.800    0.000    3.600    0.000    0.000 
#    0.000    3.000    0.000    7.200    0.000    5.600 
#    0.000    0.000    0.000    0.000    0.000    0.000 
#
# Total GULP energy -224064.012545 kJ/mol
# GULP energy per Si atom -5601.600314 kJ/mol
# Density = 2.561799 g / cm^3
# Si number density = 25.676430 Si / 1000 Ang^3
#
#
#
# Elastic Constant Matrix: (Units=GPa)
#
#
# Indices 1 2 3 4 5 6 
#
# 1 51.4552 29.7431 3.0096 0.0000 0.0000 0.0000
# 2 29.7431 49.4785 25.9796 0.0000 0.0000 0.0000
# 3 3.0096 25.9796 145.2783 0.0000 0.0000 0.0000
# 4 0.0000 0.0000 0.0000 25.2604 0.0000 0.0000
# 5 0.0000 0.0000 0.0000 0.0000 21.8722 0.0000
# 6 0.0000 0.0000 0.0000 0.0000 0.0000 39.1655
#
#
#
# Elastic Compliance Matrix: (Units=1/GPa)
#
#
# Indices 1 2 3 4 5 6 
#
# 1 0.030895 -0.020125 0.002959 0.000000 0.000000 0.000000
# 2 -0.020125 0.035415 -0.005916 0.000000 0.000000 0.000000
# 3 0.002959 -0.005916 0.007880 0.000000 0.000000 0.000000
# 4 0.000000 0.000000 0.000000 0.039588 0.000000 0.000000
# 5 0.000000 0.000000 0.000000 0.000000 0.045720 0.000000
# 6 0.000000 0.000000 0.000000 0.000000 0.000000 0.025533
#
#
# Mechanical properties :
#
#
# Convention : Reuss Voigt Hill
#
# Bulk Modulus (GPa) = 35.68314 40.40852 38.04583
# Shear Modulus (GPa) = 20.78681 29.75826 25.27254
#
# Velocity S-wave (km/s) = 2.84838 3.40806 3.14071
# Velocity P-wave (km/s) = 4.97444 5.59091 5.29166
#
# Compressibility (1/GPa) = 0.02802444
#
# Stress axis : x y z
#
# Youngs Moduli (GPa) = 32.36819 28.23646 126.90319
#
# Poissons Ratio (x) = 0.56827 -0.37550
# Poissons Ratio (y) = 0.65142 0.75079
# Poissons Ratio (z) = -0.09577 0.16705
#
# Static dielectric constant tensor:
#      x y z
#    x 1.964390 0.000000 0.000000 
#    y 0.000000 2.016550 0.000000 
#    z 0.000000 0.000000 2.028000 
# 
# From -- ./inp_files/17419.got.cif
#   From: 2010.05.17/outbox.cif.g08.bks.cpg/sg57_9_cif.got.tgz:17419.got - 2010.06.03 13:58:18.
