data_PCOD9435788
_publ_section_title
;
Structure prediction by ZEFSAII (Michael W. Deem and Ramdas Pophale) SiO2 
 PCOD9435788
Probable space group: P B C M
;
_chemical_formula_sum "Si O2"
_cell_formula_units_Z 56
_cell_length_a 21.671976
_cell_length_b 15.958034
_cell_length_c 8.505286
_cell_angle_alpha 90.000000
_cell_angle_beta 90.000000
_cell_angle_gamma 90.000000
_cell_volume 2941.486225
_symmetry_space_group_name_H-M "P B C M"
_symmetry_group_IT_number 57
_symmetry_cell_setting 'orthorhombic'
loop_
_space_group_symop_operation_xyz
x,y,z
-x,-y,1/2+z
x,1/2-y,-z
-x,1/2+y,1/2-z
-x,-y,-z
x,y,1/2-z
-x,1/2+y,z
x,1/2-y,1/2+z
loop_
_atom_site_type_symbol
_atom_site_label
_atom_site_fract_x
_atom_site_fract_y
_atom_site_fract_z
Si Si1 0.907012 0.837998 0.061416
Si Si2 0.376787 0.839545 0.939362
Si Si3 0.289746 0.508038 0.060189
Si Si4 0.491111 0.405384 0.560784
Si Si5 0.640014 0.658305 0.938449
Si Si6 0.152906 0.509628 0.938567
Si Si7 0.030297 0.585775 0.939400
O O1 0.903816 0.840444 0.250000
O O2 0.979293 0.846711 0.010294
O O3 0.882061 0.750000 0.000000
O O4 0.871384 0.918781 0.995551
O O5 0.375551 0.839226 0.750000
O O6 0.335308 0.917763 0.993379
O O7 0.447532 0.855318 0.988763
O O8 0.354762 0.750000 0.000000
O O9 0.290676 0.507381 0.250000
O O10 0.315577 0.417520 0.007360
O O11 0.220656 0.523929 0.004213
O O12 0.500000 0.500000 0.500000
O O13 0.488029 0.406182 0.750000
O O14 0.428886 0.365274 0.494220
O O15 0.640612 0.659908 0.750000
O O16 0.657407 0.750000 0.000000
O O17 0.154763 0.509487 0.750000
O O18 0.101455 0.578522 0.990939
O O19 0.030734 0.586289 0.750000
O O20 0.000000 0.500000 0.000000
#
# Coordination Sequence:
#
# PCOD9435788 Si02
#       7
#     8   8   8   8   8   8   8
#     4  10  19  33  54  81 112 145 179 223 277 328
#     4  10  22  40  60  84 112 147 189 237 289 341
#     4  10  22  41  58  78 116 157 194 238 288 343
#     4  11  21  37  61  88 117 150 188 237 295 350
#     4  11  23  40  59  84 117 152 193 241 292 351
#     4  10  20  35  56  81 108 143 187 228 274 333
#     4   8  16  31  51  75 103 133 170 215 260 313
#
# _framework density 19.037996
#
# number of rings (size 3 to 8) (size 9 to 14) (size 15 to 20)
#    0.000    2.000    1.429    2.143    0.000    5.714 
#    0.000    2.143    0.000    3.429    0.000    0.000 
#    0.000    0.000    0.000    0.000    0.000    0.000 
#
# Total GULP energy -312428.389508 kJ/mol
# GULP energy per Si atom -5579.078384 kJ/mol
# Density = 1.899466 g / cm^3
# Si number density = 19.037996 Si / 1000 Ang^3
#
#
#
# Elastic Constant Matrix: (Units=GPa)
#
#
# Indices 1 2 3 4 5 6 
#
# 1 98.0805 4.1116 10.5700 0.0000 0.0000 0.0000
# 2 4.1116 72.2014 8.8031 0.0000 0.0000 0.0000
# 3 10.5700 8.8031 20.9339 0.0000 0.0000 0.0000
# 4 0.0000 0.0000 0.0000 26.6395 0.0000 0.0000
# 5 0.0000 0.0000 0.0000 0.0000 29.9794 0.0000
# 6 0.0000 0.0000 0.0000 0.0000 0.0000 11.8010
#
#
#
# Elastic Compliance Matrix: (Units=1/GPa)
#
#
# Indices 1 2 3 4 5 6 
#
# 1 0.010783 0.000052 -0.005466 0.000000 0.000000 0.000000
# 2 0.000052 0.014599 -0.006166 0.000000 0.000000 0.000000
# 3 -0.005466 -0.006166 0.053122 0.000000 0.000000 0.000000
# 4 0.000000 0.000000 0.000000 0.037538 0.000000 0.000000
# 5 0.000000 0.000000 0.000000 0.000000 0.033356 0.000000
# 6 0.000000 0.000000 0.000000 0.000000 0.000000 0.084739
#
#
# Mechanical properties :
#
#
# Convention : Reuss Voigt Hill
#
# Bulk Modulus (GPa) = 18.06862 26.46504 22.26683
# Shear Modulus (GPa) = 18.13274 24.86605 21.49940
#
# Velocity S-wave (km/s) = 3.08953 3.61796 3.36414
# Velocity P-wave (km/s) = 4.71575 5.60216 5.17796
#
# Compressibility (1/GPa) = 0.05534457
#
# Stress axis : x y z
#
# Youngs Moduli (GPa) = 92.74182 68.49835 18.82449
#
# Poissons Ratio (x) = -0.00359 0.10290
# Poissons Ratio (y) = -0.00487 0.11606
# Poissons Ratio (z) = 0.50697 0.42233
#
# Static dielectric constant tensor:
#      x y z
#    x 1.672400 0.000000 0.000000 
#    y 0.000000 1.635700 0.000000 
#    z 0.000000 0.000000 1.645830 
# 
# From -- ./inp_files/8141.got.cif
#   From: 2010.05.17/outbox.cif.g08.bks.cpg/sg57_5_cif.got.tgz:8141.got - 2010.06.03 13:58:18.
