data_PCOD9435887
_publ_section_title
;
Structure prediction by ZEFSAII (Michael W. Deem and Ramdas Pophale) SiO2 
 PCOD9435887
Probable space group: P B C M
;
_chemical_formula_sum "Si O2"
_cell_formula_units_Z 32
_cell_length_a 9.785490
_cell_length_b 8.039309
_cell_length_c 17.159563
_cell_angle_alpha 90.000000
_cell_angle_beta 90.000000
_cell_angle_gamma 90.000000
_cell_volume 1349.918417
_symmetry_space_group_name_H-M "P B C M"
_symmetry_group_IT_number 57
_symmetry_cell_setting 'orthorhombic'
loop_
_space_group_symop_operation_xyz
x,y,z
-x,-y,1/2+z
x,1/2-y,-z
-x,1/2+y,1/2-z
-x,-y,-z
x,y,1/2-z
-x,1/2+y,z
x,1/2-y,1/2+z
loop_
_atom_site_type_symbol
_atom_site_label
_atom_site_fract_x
_atom_site_fract_y
_atom_site_fract_z
Si Si1 0.790561 0.823184 0.414189
Si Si2 0.056228 0.821022 0.911919
Si Si3 0.469396 0.518971 0.091276
Si Si4 0.313712 0.825810 0.340395
O O1 0.759822 0.750000 0.500000
O O2 0.901706 0.694496 0.379986
O O3 0.879265 0.995363 0.416095
O O4 0.645863 0.884944 0.381316
O O5 0.157991 0.705183 0.862947
O O6 0.055305 0.750000 0.000000
O O7 0.611395 0.495634 0.136433
O O8 0.396708 0.692680 0.107750
O O9 0.500000 0.500000 0.000000
O O10 0.333538 0.791041 0.250000
#
# Coordination Sequence:
#
# PCOD9435887 Si02
#       4
#     8   8   8   8
#     4  10  19  33  57  86 112 143 193 247 290 339
#     4  10  20  35  56  82 113 148 191 239 286 346
#     4  11  22  39  63  87 115 154 200 245 294 355
#     4  11  23  39  57  85 120 153 189 241 299 354
#
# _framework density 23.705136
#
# number of rings (size 3 to 8) (size 9 to 14) (size 15 to 20)
#    0.000    1.500    0.000    9.000    0.000    2.000 
#    0.000    6.250    0.000    0.000    0.000    0.000 
#    0.000    0.000    0.000    0.000    0.000    0.000 
#
# Total GULP energy -178805.995830 kJ/mol
# GULP energy per Si atom -5587.687370 kJ/mol
# Density = 2.365118 g / cm^3
# Si number density = 23.705136 Si / 1000 Ang^3
#
#
#
# Elastic Constant Matrix: (Units=GPa)
#
#
# Indices 1 2 3 4 5 6 
#
# 1 139.7235 12.5588 6.8834 0.0000 0.0000 0.0000
# 2 12.5588 77.4499 -15.9790 0.0000 0.0000 0.0000
# 3 6.8834 -15.9790 72.7763 0.0000 0.0000 0.0000
# 4 0.0000 0.0000 0.0000 13.9500 0.0000 0.0000
# 5 0.0000 0.0000 0.0000 0.0000 -5.7502 0.0000
# 6 0.0000 0.0000 0.0000 0.0000 0.0000 54.2268
#
#
#
# Elastic Compliance Matrix: (Units=1/GPa)
#
#
# Indices 1 2 3 4 5 6 
#
# 1 0.007332 -0.001395 -0.001000 0.000000 0.000000 0.000000
# 2 -0.001395 0.013790 0.003160 0.000000 0.000000 0.000000
# 3 -0.001000 0.003160 0.014529 0.000000 0.000000 0.000000
# 4 0.000000 0.000000 0.000000 0.071685 0.000000 0.000000
# 5 0.000000 0.000000 0.000000 0.000000 -0.173907 0.000000
# 6 0.000000 0.000000 0.000000 0.000000 0.000000 0.018441
#
#
# Mechanical properties :
#
#
# Convention : Reuss Voigt Hill
#
# Bulk Modulus (GPa) = 26.89624 32.98624 29.94124
# Shear Modulus (GPa) = -134.16728 31.58441 -51.29143
#
# Velocity S-wave (km/s) = -7.53135 3.65415 -4.65663
# Velocity P-wave (km/s) = 8.01608 5.63464 4.03165
#
# Compressibility (1/GPa) = 0.03717992
#
# Stress axis : x y z
#
# Youngs Moduli (GPa) = 136.39502 72.51798 68.82762
#
# Poissons Ratio (x) = 0.10117 0.06881
# Poissons Ratio (y) = 0.19029 -0.21747
# Poissons Ratio (z) = 0.13636 -0.22913
#
# Static dielectric constant tensor:
#      x y z
#    x 1.948780 0.000000 0.000000 
#    y 0.000000 2.256600 0.000000 
#    z 0.000000 0.000000 1.858590 
# 
# From -- ./inp_files/17174.got.cif
#   From: 2010.05.17/outbox.cif.g08.bks.cpg/sg57_9_cif.got.tgz:17174.got - 2010.06.03 13:58:18.
