data_PCOD9435701
_publ_section_title
;
Structure prediction by ZEFSAII (Michael W. Deem and Ramdas Pophale) SiO2 
 PCOD9435701
Probable space group: P B C M
;
_chemical_formula_sum "Si O2"
_cell_formula_units_Z 64
_cell_length_a 17.153340
_cell_length_b 23.866311
_cell_length_c 7.881251
_cell_angle_alpha 90.000000
_cell_angle_beta 90.000000
_cell_angle_gamma 90.000000
_cell_volume 3226.481286
_symmetry_space_group_name_H-M "P B C M"
_symmetry_group_IT_number 57
_symmetry_cell_setting 'orthorhombic'
loop_
_space_group_symop_operation_xyz
x,y,z
-x,-y,1/2+z
x,1/2-y,-z
-x,1/2+y,1/2-z
-x,-y,-z
x,y,1/2-z
-x,1/2+y,z
x,1/2-y,1/2+z
loop_
_atom_site_type_symbol
_atom_site_label
_atom_site_fract_x
_atom_site_fract_y
_atom_site_fract_z
Si Si1 0.041882 0.924180 0.049825
Si Si2 0.876854 0.531693 0.951503
Si Si3 0.587621 0.485243 0.953339
Si Si4 0.880371 0.315065 0.952967
Si Si5 0.285133 0.813011 0.547370
Si Si6 0.557108 0.360762 0.542334
Si Si7 0.611228 0.684343 0.452191
Si Si8 0.289247 0.077835 0.544947
O O1 0.041404 0.934776 0.250000
O O2 0.956990 0.941534 0.978724
O O3 0.057305 0.859221 0.017622
O O4 0.108650 0.965292 0.976540
O O5 0.875398 0.542038 0.750000
O O6 0.796436 0.558712 0.017588
O O7 0.596623 0.484773 0.750000
O O8 0.590040 0.421277 0.011874
O O9 0.648124 0.531420 0.019148
O O10 0.500000 0.500000 0.000000
O O11 0.878762 0.316863 0.750000
O O12 0.795889 0.339649 0.014763
O O13 0.894069 0.250000 0.000000
O O14 0.267807 0.750000 0.500000
O O15 0.289217 0.822416 0.750000
O O16 0.371782 0.822801 0.481958
O O17 0.551971 0.361148 0.750000
O O18 0.472112 0.340674 0.481320
O O19 0.621258 0.750000 0.500000
O O20 0.607188 0.683180 0.250000
O O21 0.678469 0.639901 0.502875
O O22 0.288400 0.074646 0.750000
#
# Coordination Sequence:
#
# PCOD9435701 Si02
#       8
#     8   8   8   8   8   8   8   8
#     4  10  20  36  58  85 114 141 178 223 273 332
#     4   9  20  38  60  84 110 143 180 224 273 329
#     4  10  19  33  53  77 108 140 174 217 263 315
#     4  10  20  34  55  80 112 149 185 224 272 328
#     4   9  18  32  50  72 103 140 178 217 256 309
#     4   9  18  32  51  76 105 140 178 219 265 312
#     4  11  22  37  57  78 108 144 185 230 274 321
#     4  10  21  37  59  83 109 142 183 224 271 324
#
# _framework density 19.835851999999999
#
# number of rings (size 3 to 8) (size 9 to 14) (size 15 to 20)
#    0.000    2.250    1.250    1.500    1.750    1.500 
#    0.000    1.875    0.000    0.000    0.000    0.000 
#    0.000    0.000    0.000    0.000    0.000    0.000 
#
# Total GULP energy -356273.638923 kJ/mol
# GULP energy per Si atom -5566.775608 kJ/mol
# Density = 1.979070 g / cm^3
# Si number density = 19.835852 Si / 1000 Ang^3
#
#
#
# Elastic Constant Matrix: (Units=GPa)
#
#
# Indices 1 2 3 4 5 6 
#
# 1 123.6255 75.4184 10.2162 0.0000 0.0000 0.0000
# 2 75.4184 124.6478 -1.3134 0.0000 0.0000 0.0000
# 3 10.2162 -1.3134 22.6125 0.0000 0.0000 0.0000
# 4 0.0000 0.0000 0.0000 19.8023 0.0000 0.0000
# 5 0.0000 0.0000 0.0000 0.0000 17.9627 0.0000
# 6 0.0000 0.0000 0.0000 0.0000 0.0000 33.7628
#
#
#
# Elastic Compliance Matrix: (Units=1/GPa)
#
#
# Indices 1 2 3 4 5 6 
#
# 1 0.013769 -0.008401 -0.006709 0.000000 0.000000 0.000000
# 2 -0.008401 0.013154 0.004560 0.000000 0.000000 0.000000
# 3 -0.006709 0.004560 0.047519 0.000000 0.000000 0.000000
# 4 0.000000 0.000000 0.000000 0.050499 0.000000 0.000000
# 5 0.000000 0.000000 0.000000 0.000000 0.055671 0.000000
# 6 0.000000 0.000000 0.000000 0.000000 0.000000 0.029618
#
#
# Mechanical properties :
#
#
# Convention : Reuss Voigt Hill
#
# Bulk Modulus (GPa) = 18.74725 48.83646 33.79185
# Shear Modulus (GPa) = 20.07134 26.74318 23.40726
#
# Velocity S-wave (km/s) = 3.18444 3.67580 3.43891
# Velocity P-wave (km/s) = 4.79506 6.53369 5.73069
#
# Compressibility (1/GPa) = 0.05334116
#
# Stress axis : x y z
#
# Youngs Moduli (GPa) = 72.62851 76.02260 21.04418
#
# Poissons Ratio (x) = 0.63870 0.14118
# Poissons Ratio (y) = 0.61019 -0.09596
# Poissons Ratio (z) = 0.48724 -0.34665
#
# Static dielectric constant tensor:
#      x y z
#    x 2.101630 0.000000 0.000000 
#    y 0.000000 1.657210 0.000000 
#    z 0.000000 0.000000 1.720460 
# 
# From -- ./inp_files/5621.got.cif
#   From: 2010.05.17/outbox.cif.g08.bks.cpg/sg57_3_cif.got.tgz:5621.got - 2010.06.03 13:58:18.
