data_PCOD9435920
_publ_section_title
;
Structure prediction by ZEFSAII (Michael W. Deem and Ramdas Pophale) SiO2 
 PCOD9435920
Probable space group: P B C M
;
_chemical_formula_sum "Si O2"
_cell_formula_units_Z 64
_cell_length_a 15.927727
_cell_length_b 29.180537
_cell_length_c 8.807531
_cell_angle_alpha 90.000000
_cell_angle_beta 90.000000
_cell_angle_gamma 90.000000
_cell_volume 4093.560973
_symmetry_space_group_name_H-M "P B C M"
_symmetry_group_IT_number 57
_symmetry_cell_setting 'orthorhombic'
loop_
_space_group_symop_operation_xyz
x,y,z
-x,-y,1/2+z
x,1/2-y,-z
-x,1/2+y,1/2-z
-x,-y,-z
x,y,1/2-z
-x,1/2+y,z
x,1/2-y,1/2+z
loop_
_atom_site_type_symbol
_atom_site_label
_atom_site_fract_x
_atom_site_fract_y
_atom_site_fract_z
Si Si1 0.000085 0.948859 0.931999
Si Si2 0.492406 0.550666 0.567499
Si Si3 0.409584 0.798170 0.567916
Si Si4 0.186848 0.050517 0.432073
Si Si5 0.605660 0.798870 0.568009
Si Si6 0.335334 0.894557 0.932819
Si Si7 0.826586 0.057682 0.567997
Si Si8 0.660705 0.892524 0.068784
O O1 0.007545 0.950890 0.750000
O O2 0.906761 0.930717 0.968274
O O3 0.083213 0.926897 0.002596
O O4 0.000000 0.000000 0.000000
O O5 0.500000 0.500000 0.500000
O O6 0.485180 0.548657 0.750000
O O7 0.411188 0.574984 0.497584
O O8 0.575648 0.579775 0.528236
O O9 0.380930 0.750000 0.500000
O O10 0.408279 0.795088 0.750000
O O11 0.507297 0.805242 0.522479
O O12 0.355771 0.842193 0.522408
O O13 0.198059 0.053177 0.250000
O O14 0.259935 0.078434 0.512384
O O15 0.188046 0.996254 0.472620
O O16 0.632809 0.750000 0.500000
O O17 0.609952 0.797424 0.750000
O O18 0.655428 0.842476 0.505841
O O19 0.334767 0.897570 0.750000
O O20 0.248682 0.913041 0.999453
O O21 0.827831 0.060298 0.750000
O O22 0.663013 0.887907 0.250000
#
# Coordination Sequence:
#
# PCOD9435920 Si02
#       8
#     8   8   8   8   8   8   8   8
#     4   9  17  31  50  72  98 130 166 209 253 295
#     4  11  23  35  47  66  97 136 173 206 240 287
#     4   9  19  33  51  72  94 125 162 205 252 294
#     4   9  19  33  49  70  99 132 167 204 247 293
#     4  10  19  34  53  72  96 126 162 207 252 295
#     4  11  21  34  50  72  99 131 168 205 249 297
#     4  10  20  33  50  74 101 134 170 207 250 297
#     4  11  22  33  48  72  98 130 169 205 246 294
#
# _framework density 15.634309999999999
#
# number of rings (size 3 to 8) (size 9 to 14) (size 15 to 20)
#    0.000    2.000    1.250    3.750    0.000    8.000 
#    0.000    0.000    0.000    0.000    0.000    0.875 
#    0.000    4.000    0.000    0.000    0.000    0.000 
#
# Total GULP energy -357086.009382 kJ/mol
# GULP energy per Si atom -5579.468897 kJ/mol
# Density = 1.559873 g / cm^3
# Si number density = 15.634310 Si / 1000 Ang^3
#
#
#
# Elastic Constant Matrix: (Units=GPa)
#
#
# Indices 1 2 3 4 5 6 
#
# 1 85.1240 25.8868 27.3618 0.0000 0.0000 0.0000
# 2 25.8868 84.6214 25.0353 0.0000 0.0000 0.0000
# 3 27.3618 25.0353 40.7379 0.0000 0.0000 0.0000
# 4 0.0000 0.0000 0.0000 26.4708 0.0000 0.0000
# 5 0.0000 0.0000 0.0000 0.0000 29.0004 0.0000
# 6 0.0000 0.0000 0.0000 0.0000 0.0000 6.5214
#
#
#
# Elastic Compliance Matrix: (Units=1/GPa)
#
#
# Indices 1 2 3 4 5 6 
#
# 1 0.015254 -0.001999 -0.009017 0.000000 0.000000 0.000000
# 2 -0.001999 0.014705 -0.007695 0.000000 0.000000 0.000000
# 3 -0.009017 -0.007695 0.035332 0.000000 0.000000 0.000000
# 4 0.000000 0.000000 0.000000 0.037777 0.000000 0.000000
# 5 0.000000 0.000000 0.000000 0.000000 0.034482 0.000000
# 6 0.000000 0.000000 0.000000 0.000000 0.000000 0.153341
#
#
# Mechanical properties :
#
#
# Convention : Reuss Voigt Hill
#
# Bulk Modulus (GPa) = 35.88012 40.78348 38.33180
# Shear Modulus (GPa) = 14.81030 21.21183 18.01106
#
# Velocity S-wave (km/s) = 3.08115 3.68740 3.39783
# Velocity P-wave (km/s) = 5.97139 6.65370 6.32176
#
# Compressibility (1/GPa) = 0.02787058
#
# Stress axis : x y z
#
# Youngs Moduli (GPa) = 65.55775 68.00309 28.30283
#
# Poissons Ratio (x) = 0.13591 0.25521
# Poissons Ratio (y) = 0.13103 0.21778
# Poissons Ratio (z) = 0.59113 0.52326
#
# Static dielectric constant tensor:
#      x y z
#    x 1.513460 0.000000 0.000000 
#    y 0.000000 1.500700 0.000000 
#    z 0.000000 0.000000 1.520600 
# 
# From -- ./inp_files/6011.got.cif
#   From: 2010.05.17/outbox.cif.g08.bks.cpg/sg57_4_cif.got.tgz:6011.got - 2010.06.03 13:58:18.
