data_PCOD9435196
_publ_section_title
;
Structure prediction by ZEFSAII (Michael W. Deem and Ramdas Pophale) SiO2 
 PCOD9435196
Probable space group: P B C M
;
_chemical_formula_sum "Si O2"
_cell_formula_units_Z 56
_cell_length_a 19.588583
_cell_length_b 18.493191
_cell_length_c 8.833303
_cell_angle_alpha 90.000000
_cell_angle_beta 90.000000
_cell_angle_gamma 90.000000
_cell_volume 3199.911772
_symmetry_space_group_name_H-M "P B C M"
_symmetry_group_IT_number 57
_symmetry_cell_setting 'orthorhombic'
loop_
_space_group_symop_operation_xyz
x,y,z
-x,-y,1/2+z
x,1/2-y,-z
-x,1/2+y,1/2-z
-x,-y,-z
x,y,1/2-z
-x,1/2+y,z
x,1/2-y,1/2+z
loop_
_atom_site_type_symbol
_atom_site_label
_atom_site_fract_x
_atom_site_fract_y
_atom_site_fract_z
Si Si1 0.777128 0.602280 0.067876
Si Si2 0.363637 0.327080 0.567882
Si Si3 0.926339 0.583133 0.430931
Si Si4 0.802148 0.328778 0.569145
Si Si5 0.569552 0.969640 0.068348
Si Si6 0.711289 0.039618 0.068482
Si Si7 0.070030 0.589521 0.570900
O O1 0.778213 0.598928 0.250000
O O2 0.715387 0.655278 0.023625
O O3 0.854601 0.618218 0.019081
O O4 0.755224 0.523978 0.006591
O O5 0.383385 0.250000 0.500000
O O6 0.368172 0.326723 0.750000
O O7 0.408636 0.392526 0.501731
O O8 0.934975 0.592739 0.250000
O O9 0.920481 0.496489 0.458750
O O10 0.994131 0.608958 0.514834
O O11 0.794310 0.250000 0.500000
O O12 0.802766 0.323805 0.750000
O O13 0.741442 0.383356 0.522315
O O14 0.872262 0.365450 0.513861
O O15 0.564685 0.963430 0.250000
O O16 0.632616 0.023499 0.031562
O O17 0.500000 0.000000 0.000000
O O18 0.718583 0.033124 0.250000
O O19 0.076327 0.600888 0.750000
#
# Coordination Sequence:
#
# PCOD9435196 Si02
#       7
#     8   8   8   8   8   8   8
#     4   9  17  31  53  78 104 137 178 222 267 317
#     4  10  20  35  56  83 114 147 181 220 270 324
#     4   9  17  30  49  74 103 135 174 224 273 321
#     4  11  22  36  53  74 103 140 179 225 276 324
#     4  10  20  37  60  87 115 145 181 221 266 318
#     4   9  19  34  54  78 105 135 174 221 265 314
#     4  10  19  31  49  73 101 136 179 224 272 323
#
# _framework density 17.500482999999999
#
# number of rings (size 3 to 8) (size 9 to 14) (size 15 to 20)
#    0.000    2.286    1.429    1.714    0.000    2.857 
#    0.000    1.429    0.000    3.429    0.000    0.000 
#    0.000    0.000    0.000    0.000    0.000    0.000 
#
# Total GULP energy -312402.161782 kJ/mol
# GULP energy per Si atom -5578.610032 kJ/mol
# Density = 1.746065 g / cm^3
# Si number density = 17.500483 Si / 1000 Ang^3
#
#
#
# Elastic Constant Matrix: (Units=GPa)
#
#
# Indices 1 2 3 4 5 6 
#
# 1 143.5394 64.0530 45.8321 0.0000 0.0000 0.0000
# 2 64.0530 111.2879 45.4628 0.0000 0.0000 0.0000
# 3 45.8321 45.4628 41.3181 0.0000 0.0000 0.0000
# 4 0.0000 0.0000 0.0000 25.3638 0.0000 0.0000
# 5 0.0000 0.0000 0.0000 0.0000 24.4709 0.0000
# 6 0.0000 0.0000 0.0000 0.0000 0.0000 15.8946
#
#
#
# Elastic Compliance Matrix: (Units=1/GPa)
#
#
# Indices 1 2 3 4 5 6 
#
# 1 0.011152 -0.002480 -0.009642 0.000000 0.000000 0.000000
# 2 -0.002480 0.016874 -0.015816 0.000000 0.000000 0.000000
# 3 -0.009642 -0.015816 0.052300 0.000000 0.000000 0.000000
# 4 0.000000 0.000000 0.000000 0.039426 0.000000 0.000000
# 5 0.000000 0.000000 0.000000 0.000000 0.040865 0.000000
# 6 0.000000 0.000000 0.000000 0.000000 0.000000 0.062915
#
#
# Mechanical properties :
#
#
# Convention : Reuss Voigt Hill
#
# Bulk Modulus (GPa) = 40.89815 67.42679 54.16247
# Shear Modulus (GPa) = 17.38789 22.53237 19.96013
#
# Velocity S-wave (km/s) = 3.15551 3.59211 3.38086
# Velocity P-wave (km/s) = 6.05779 7.47104 6.80122
#
# Compressibility (1/GPa) = 0.02445098
#
# Stress axis : x y z
#
# Youngs Moduli (GPa) = 89.67081 59.26262 19.12054
#
# Poissons Ratio (x) = 0.14696 0.18435
# Poissons Ratio (y) = 0.22237 0.30241
# Poissons Ratio (z) = 0.86457 0.93729
#
# Static dielectric constant tensor:
#      x y z
#    x 1.602670 0.000000 0.000000 
#    y 0.000000 1.576000 0.000000 
#    z 0.000000 0.000000 1.637170 
# 
# From -- ./inp_files/8358.got.cif
#   From: 2010.05.17/outbox.cif.g08.bks.cpg/sg57_5_cif.got.tgz:8358.got - 2010.06.03 13:58:18.
