data_PCOD9435336
_publ_section_title
;
Structure prediction by ZEFSAII (Michael W. Deem and Ramdas Pophale) SiO2 
 PCOD9435336
Probable space group: P B C M
;
_chemical_formula_sum "Si O2"
_cell_formula_units_Z 64
_cell_length_a 21.959597
_cell_length_b 20.043113
_cell_length_c 8.906887
_cell_angle_alpha 90.000000
_cell_angle_beta 90.000000
_cell_angle_gamma 90.000000
_cell_volume 3920.265524
_symmetry_space_group_name_H-M "P B C M"
_symmetry_group_IT_number 57
_symmetry_cell_setting 'orthorhombic'
loop_
_space_group_symop_operation_xyz
x,y,z
-x,-y,1/2+z
x,1/2-y,-z
-x,1/2+y,1/2-z
-x,-y,-z
x,y,1/2-z
-x,1/2+y,z
x,1/2-y,1/2+z
loop_
_atom_site_type_symbol
_atom_site_label
_atom_site_fract_x
_atom_site_fract_y
_atom_site_fract_z
Si Si1 0.558164 0.037318 0.431259
Si Si2 0.010593 0.394009 0.079128
Si Si3 0.624361 0.820490 0.570245
Si Si4 0.131742 0.321921 0.068446
Si Si5 0.194073 0.452625 0.571718
Si Si6 0.480060 0.819359 0.571119
Si Si7 0.090033 0.530578 0.419858
Si Si8 0.677138 0.547063 0.569803
O O1 0.552420 0.035152 0.250000
O O2 0.554807 0.114463 0.479363
O O3 0.500000 0.000000 0.500000
O O4 0.620950 0.001183 0.471849
O O5 0.992201 0.378609 0.250000
O O6 0.061381 0.340831 0.028663
O O7 0.047740 0.464085 0.083325
O O8 0.952109 0.409394 0.978381
O O9 0.643169 0.750000 0.500000
O O10 0.632576 0.821127 0.750000
O O11 0.552076 0.828912 0.537557
O O12 0.659660 0.880262 0.492371
O O13 0.136487 0.321780 0.250000
O O14 0.147647 0.250000 0.000000
O O15 0.172058 0.382634 0.003149
O O16 0.196309 0.444182 0.750000
O O17 0.145111 0.508982 0.526256
O O18 0.259271 0.471834 0.504914
O O19 0.459915 0.750000 0.500000
O O20 0.474786 0.813848 0.750000
O O21 0.111313 0.542156 0.250000
O O22 0.682613 0.548202 0.750000
#
# Coordination Sequence:
#
# PCOD9435336 Si02
#       8
#     8   8   8   8   8   8   8   8
#     4  10  20  34  53  76 102 130 163 209 262 312
#     4   8  15  27  45  70  97 125 157 196 239 283
#     4  10  19  32  49  69  97 128 165 205 246 301
#     4  10  20  34  51  73 103 137 174 210 245 289
#     4  11  22  35  50  68  96 133 171 209 251 299
#     4   9  18  32  50  74 100 126 157 196 245 304
#     4   9  16  28  47  70  95 122 157 200 243 285
#     4  11  22  35  51  72  99 132 172 214 261 311
#
# _framework density 16.325424000000002
#
# number of rings (size 3 to 8) (size 9 to 14) (size 15 to 20)
#    0.000    2.250    1.250    3.375    0.000    5.500 
#    0.000    2.500    0.000    0.000    0.000    0.875 
#    0.000    4.000    0.000    0.000    0.000    0.000 
#
# Total GULP energy -356891.326829 kJ/mol
# GULP energy per Si atom -5576.426982 kJ/mol
# Density = 1.628827 g / cm^3
# Si number density = 16.325424 Si / 1000 Ang^3
#
#
#
# Elastic Constant Matrix: (Units=GPa)
#
#
# Indices 1 2 3 4 5 6 
#
# 1 89.2880 36.2984 44.1654 0.0000 0.0000 0.0000
# 2 36.2984 50.3333 18.6516 0.0000 0.0000 0.0000
# 3 44.1654 18.6516 63.3459 0.0000 0.0000 0.0000
# 4 0.0000 0.0000 0.0000 21.6265 0.0000 0.0000
# 5 0.0000 0.0000 0.0000 0.0000 23.7161 0.0000
# 6 0.0000 0.0000 0.0000 0.0000 0.0000 16.5341
#
#
#
# Elastic Compliance Matrix: (Units=1/GPa)
#
#
# Indices 1 2 3 4 5 6 
#
# 1 0.021554 -0.011197 -0.011731 0.000000 0.000000 0.000000
# 2 -0.011197 0.028117 -0.000472 0.000000 0.000000 0.000000
# 3 -0.011731 -0.000472 0.024104 0.000000 0.000000 0.000000
# 4 0.000000 0.000000 0.000000 0.046240 0.000000 0.000000
# 5 0.000000 0.000000 0.000000 0.000000 0.042165 0.000000
# 6 0.000000 0.000000 0.000000 0.000000 0.000000 0.060481
#
#
# Mechanical properties :
#
#
# Convention : Reuss Voigt Hill
#
# Bulk Modulus (GPa) = 37.07061 44.57753 40.82407
# Shear Modulus (GPa) = 17.95625 19.29879 18.62752
#
# Velocity S-wave (km/s) = 3.32006 3.44194 3.38155
# Velocity P-wave (km/s) = 6.11994 6.56969 6.34880
#
# Compressibility (1/GPa) = 0.02697554
#
# Stress axis : x y z
#
# Youngs Moduli (GPa) = 46.39457 35.56515 41.48630
#
# Poissons Ratio (x) = 0.39822 0.48667
# Poissons Ratio (y) = 0.51948 0.01959
# Poissons Ratio (z) = 0.54425 0.01680
#
# Static dielectric constant tensor:
#      x y z
#    x 1.558220 0.000000 0.000000 
#    y 0.000000 1.542360 0.000000 
#    z 0.000000 0.000000 1.588500 
# 
# From -- ./inp_files/8464.got.cif
#   From: 2010.05.17/outbox.cif.g08.bks.cpg/sg57_5_cif.got.tgz:8464.got - 2010.06.03 13:58:18.
