data_PCOD9435484
_publ_section_title
;
Structure prediction by ZEFSAII (Michael W. Deem and Ramdas Pophale) SiO2 
 PCOD9435484
Probable space group: P B C M
;
_chemical_formula_sum "Si O2"
_cell_formula_units_Z 64
_cell_length_a 14.080336
_cell_length_b 26.971157
_cell_length_c 9.307539
_cell_angle_alpha 90.000000
_cell_angle_beta 90.000000
_cell_angle_gamma 90.000000
_cell_volume 3534.658495
_symmetry_space_group_name_H-M "P B C M"
_symmetry_group_IT_number 57
_symmetry_cell_setting 'orthorhombic'
loop_
_space_group_symop_operation_xyz
x,y,z
-x,-y,1/2+z
x,1/2-y,-z
-x,1/2+y,1/2-z
-x,-y,-z
x,y,1/2-z
-x,1/2+y,z
x,1/2-y,1/2+z
loop_
_atom_site_type_symbol
_atom_site_label
_atom_site_fract_x
_atom_site_fract_y
_atom_site_fract_z
Si Si1 0.840600 0.877564 0.414354
Si Si2 0.595072 0.517772 0.921410
Si Si3 0.476482 0.120512 0.922025
Si Si4 0.864683 0.131481 0.081818
Si Si5 0.968322 0.950453 0.918422
Si Si6 0.333324 0.916068 0.576785
Si Si7 0.009789 0.702555 0.587704
Si Si8 0.324860 0.302468 0.423485
O O1 0.820039 0.894260 0.250000
O O2 0.877620 0.923369 0.508880
O O3 0.754040 0.843317 0.466181
O O4 0.928273 0.838986 0.409705
O O5 0.582759 0.514689 0.750000
O O6 0.599148 0.575968 0.954943
O O7 0.670386 0.475114 0.959369
O O8 0.500000 0.500000 0.000000
O O9 0.493246 0.119414 0.750000
O O10 0.426211 0.172214 0.957747
O O11 0.573681 0.107650 0.003482
O O12 0.859018 0.144980 0.250000
O O13 0.763287 0.110720 0.033565
O O14 0.943753 0.088204 0.070503
O O15 0.901040 0.177535 0.990079
O O16 0.951155 0.960076 0.750000
O O17 0.000000 0.000000 0.000000
O O18 0.342261 0.912034 0.750000
O O19 0.976165 0.750000 0.500000
O O20 0.031917 0.717050 0.750000
O O21 0.311623 0.250000 0.500000
O O22 0.317217 0.296734 0.250000
#
# Coordination Sequence:
#
# PCOD9435484 Si02
#       8
#     8   8   8   8   8   8   8   8
#     4   9  19  35  54  76 102 134 171 210 255 307
#     4   8  14  26  45  68  92 119 154 194 236 284
#     4   9  18  32  50  73 101 132 166 206 253 304
#     4   9  19  34  51  73 101 135 172 207 248 299
#     4  10  20  34  53  78 110 144 175 211 256 309
#     4   9  17  31  52  75  99 130 166 205 250 299
#     4  10  19  32  52  75  98 125 160 205 251 295
#     4  10  21  36  54  76 103 137 176 218 265 315
#
# _framework density 18.106417
#
# number of rings (size 3 to 8) (size 9 to 14) (size 15 to 20)
#    0.000    2.750    0.000    1.125    0.000    3.500 
#    0.000    4.375    0.000    7.500    0.000    0.000 
#    0.000    0.000    0.000    0.000    0.000    0.000 
#
# Total GULP energy -356531.223659 kJ/mol
# GULP energy per Si atom -5570.800370 kJ/mol
# Density = 1.806521 g / cm^3
# Si number density = 18.106417 Si / 1000 Ang^3
#
#
#
# Elastic Constant Matrix: (Units=GPa)
#
#
# Indices 1 2 3 4 5 6 
#
# 1 52.5527 6.7471 10.0970 0.0000 0.0000 0.0000
# 2 6.7471 69.8017 38.2207 0.0000 0.0000 0.0000
# 3 10.0970 38.2207 55.7337 0.0000 0.0000 0.0000
# 4 0.0000 0.0000 0.0000 32.0481 0.0000 0.0000
# 5 0.0000 0.0000 0.0000 0.0000 20.4113 0.0000
# 6 0.0000 0.0000 0.0000 0.0000 0.0000 23.3255
#
#
#
# Elastic Compliance Matrix: (Units=1/GPa)
#
#
# Indices 1 2 3 4 5 6 
#
# 1 0.019715 0.000080 -0.003627 0.000000 0.000000 0.000000
# 2 0.000080 0.022941 -0.015747 0.000000 0.000000 0.000000
# 3 -0.003627 -0.015747 0.029398 0.000000 0.000000 0.000000
# 4 0.000000 0.000000 0.000000 0.031203 0.000000 0.000000
# 5 0.000000 0.000000 0.000000 0.000000 0.048993 0.000000
# 6 0.000000 0.000000 0.000000 0.000000 0.000000 0.042872
#
#
# Mechanical properties :
#
#
# Convention : Reuss Voigt Hill
#
# Bulk Modulus (GPa) = 29.87969 32.02420 30.95195
# Shear Modulus (GPa) = 20.41953 23.35852 21.88902
#
# Velocity S-wave (km/s) = 3.36184 3.59565 3.48071
# Velocity P-wave (km/s) = 5.62205 5.91298 5.76935
#
# Compressibility (1/GPa) = 0.03346755
#
# Stress axis : x y z
#
# Youngs Moduli (GPa) = 50.72280 43.59034 34.01567
#
# Poissons Ratio (x) = -0.00349 0.12336
# Poissons Ratio (y) = -0.00406 0.53564
# Poissons Ratio (z) = 0.18395 0.68641
#
# Static dielectric constant tensor:
#      x y z
#    x 1.614080 0.000000 0.000000 
#    y 0.000000 1.629170 0.000000 
#    z 0.000000 0.000000 1.617490 
# 
# From -- ./inp_files/5736.got.cif
#   From: 2010.05.17/outbox.cif.g08.bks.cpg/sg57_3_cif.got.tgz:5736.got - 2010.06.03 13:58:18.
