data_PCOD9435157
_publ_section_title
;
Structure prediction by ZEFSAII (Michael W. Deem and Ramdas Pophale) SiO2 
 PCOD9435157
Probable space group: P B C M
;
_chemical_formula_sum "Si O2"
_cell_formula_units_Z 40
_cell_length_a 13.028809
_cell_length_b 21.323800
_cell_length_c 8.809085
_cell_angle_alpha 90.000000
_cell_angle_beta 90.000000
_cell_angle_gamma 90.000000
_cell_volume 2447.372741
_symmetry_space_group_name_H-M "P B C M"
_symmetry_group_IT_number 57
_symmetry_cell_setting 'orthorhombic'
loop_
_space_group_symop_operation_xyz
x,y,z
-x,-y,1/2+z
x,1/2-y,-z
-x,1/2+y,1/2-z
-x,-y,-z
x,y,1/2-z
-x,1/2+y,z
x,1/2-y,1/2+z
loop_
_atom_site_type_symbol
_atom_site_label
_atom_site_fract_x
_atom_site_fract_y
_atom_site_fract_z
Si Si1 0.421818 0.910257 0.069826
Si Si2 0.858714 0.548308 0.066916
Si Si3 0.920417 0.085711 0.067010
Si Si4 0.746183 0.319072 0.931832
Si Si5 0.368491 0.055604 0.431787
O O1 0.415815 0.900993 0.250000
O O2 0.382627 0.981147 0.036299
O O3 0.349698 0.860545 0.987348
O O4 0.539261 0.908939 0.014089
O O5 0.856766 0.543182 0.250000
O O6 0.746982 0.573029 0.020380
O O7 0.959353 0.588168 0.023568
O O8 0.876574 0.478870 0.000952
O O9 0.915424 0.081298 0.250000
O O10 0.848907 0.143218 0.019400
O O11 0.745168 0.315555 0.750000
O O12 0.743089 0.250000 0.000000
O O13 0.379284 0.063768 0.250000
#
# Coordination Sequence:
#
# PCOD9435157 Si02
#       5
#     8   8   8   8   8
#     4  10  19  31  48  72 100 130 167 205 246 294
#     4   9  16  29  49  73 101 129 158 197 249 299
#     4   9  18  30  47  72  99 127 162 203 246 293
#     4  11  22  35  51  71  99 133 169 205 244 290
#     4   9  17  29  48  73 102 132 159 199 250 299
#
# _framework density 16.344058
#
# number of rings (size 3 to 8) (size 9 to 14) (size 15 to 20)
#    0.000    2.400    2.000    1.200    0.000    2.400 
#    0.000    0.000    0.000    1.200    0.000    2.800 
#    0.000    0.000    0.000    0.000    0.000    0.000 
#
# Total GULP energy -222980.917733 kJ/mol
# GULP energy per Si atom -5574.522943 kJ/mol
# Density = 1.630686 g / cm^3
# Si number density = 16.344058 Si / 1000 Ang^3
#
#
#
# Elastic Constant Matrix: (Units=GPa)
#
#
# Indices 1 2 3 4 5 6 
#
# 1 167.2626 59.9275 41.3098 0.0000 0.0000 0.0000
# 2 59.9275 84.1476 35.0800 0.0000 0.0000 0.0000
# 3 41.3098 35.0800 26.0727 0.0000 0.0000 0.0000
# 4 0.0000 0.0000 0.0000 21.9321 0.0000 0.0000
# 5 0.0000 0.0000 0.0000 0.0000 19.7557 0.0000
# 6 0.0000 0.0000 0.0000 0.0000 0.0000 15.4153
#
#
#
# Elastic Compliance Matrix: (Units=1/GPa)
#
#
# Indices 1 2 3 4 5 6 
#
# 1 0.009872 -0.001161 -0.014078 0.000000 0.000000 0.000000
# 2 -0.001161 0.027201 -0.034758 0.000000 0.000000 0.000000
# 3 -0.014078 -0.034758 0.107426 0.000000 0.000000 0.000000
# 4 0.000000 0.000000 0.000000 0.045595 0.000000 0.000000
# 5 0.000000 0.000000 0.000000 0.000000 0.050618 0.000000
# 6 0.000000 0.000000 0.000000 0.000000 0.000000 0.064871
#
#
# Mechanical properties :
#
#
# Convention : Reuss Voigt Hill
#
# Bulk Modulus (GPa) = 22.47034 61.12416 41.79725
# Shear Modulus (GPa) = 11.89308 20.83165 16.36237
#
# Velocity S-wave (km/s) = 2.70046 3.57399 3.16748
# Velocity P-wave (km/s) = 4.84783 7.38314 6.24549
#
# Compressibility (1/GPa) = 0.04450311
#
# Stress axis : x y z
#
# Youngs Moduli (GPa) = 101.29985 36.76316 9.30876
#
# Poissons Ratio (x) = 0.04269 0.13105
# Poissons Ratio (y) = 0.11764 0.32356
# Poissons Ratio (z) = 1.42612 1.27782
#
# Static dielectric constant tensor:
#      x y z
#    x 1.584630 0.000000 0.000000 
#    y 0.000000 1.504610 0.000000 
#    z 0.000000 0.000000 1.549160 
# 
# From -- ./inp_files/2880.got.cif
#   From: 2010.05.17/outbox.cif.g08.bks.cpg/sg57_2_cif.got.tgz:2880.got - 2010.06.03 13:58:18.
