data_PCOD9435393
_publ_section_title
;
Structure prediction by ZEFSAII (Michael W. Deem and Ramdas Pophale) SiO2 
 PCOD9435393
Probable space group: P B C M
;
_chemical_formula_sum "Si O2"
_cell_formula_units_Z 64
_cell_length_a 16.006152
_cell_length_b 29.147278
_cell_length_c 8.624676
_cell_angle_alpha 90.000000
_cell_angle_beta 90.000000
_cell_angle_gamma 90.000000
_cell_volume 4023.719790
_symmetry_space_group_name_H-M "P B C M"
_symmetry_group_IT_number 57
_symmetry_cell_setting 'orthorhombic'
loop_
_space_group_symop_operation_xyz
x,y,z
-x,-y,1/2+z
x,1/2-y,-z
-x,1/2+y,1/2-z
-x,-y,-z
x,y,1/2-z
-x,1/2+y,z
x,1/2-y,1/2+z
loop_
_atom_site_type_symbol
_atom_site_label
_atom_site_fract_x
_atom_site_fract_y
_atom_site_fract_z
Si Si1 0.916873 0.701638 0.935592
Si Si2 0.497841 0.948071 0.063763
Si Si3 0.005988 0.051377 0.064738
Si Si4 0.104624 0.700606 0.435043
Si Si5 0.672619 0.559457 0.435997
Si Si6 0.835946 0.605634 0.564500
Si Si7 0.685689 0.047304 0.561908
Si Si8 0.845789 0.105594 0.936851
O O1 0.926974 0.704469 0.750000
O O2 0.859488 0.658186 0.972804
O O3 0.884540 0.750000 0.000000
O O4 0.008548 0.694476 0.009065
O O5 0.503346 0.948386 0.250000
O O6 0.404734 0.931686 0.018596
O O7 0.580986 0.925736 0.994714
O O8 0.500000 0.000000 0.000000
O O9 0.002272 0.050853 0.250000
O O10 0.929203 0.080987 0.998541
O O11 0.092413 0.074081 0.010209
O O12 0.000000 0.000000 0.000000
O O13 0.132391 0.750000 0.500000
O O14 0.106850 0.700911 0.250000
O O15 0.154729 0.657431 0.501428
O O16 0.673656 0.560041 0.250000
O O17 0.746481 0.590195 0.502412
O O18 0.688231 0.506219 0.487132
O O19 0.839244 0.600307 0.750000
O O20 0.688051 0.046538 0.750000
O O21 0.765189 0.076439 0.510174
O O22 0.848440 0.105984 0.750000
#
# Coordination Sequence:
#
# PCOD9435393 Si02
#       8
#     8   8   8   8   8   8   8   8
#     4  10  20  34  53  73  97 127 165 210 256 300
#     4   9  16  30  49  71  98 130 168 210 254 297
#     4  12  24  36  49  68  99 139 175 208 245 293
#     4  11  21  34  52  73  97 128 166 209 257 301
#     4  10  19  32  50  74 102 135 171 208 250 298
#     4  11  22  35  51  73 100 133 170 209 252 300
#     4   8  17  31  49  71  98 132 167 204 247 293
#     4  11  20  34  52  73 100 132 170 210 251 300
#
# _framework density 15.90568
#
# number of rings (size 3 to 8) (size 9 to 14) (size 15 to 20)
#    0.000    1.750    1.250    6.375    0.000    2.500 
#    0.000    6.875    0.000    0.000    0.000    0.875 
#    0.000    4.000    0.000    0.000    0.000    0.000 
#
# Total GULP energy -357167.769666 kJ/mol
# GULP energy per Si atom -5580.746401 kJ/mol
# Density = 1.586948 g / cm^3
# Si number density = 15.905680 Si / 1000 Ang^3
#
#
#
# Elastic Constant Matrix: (Units=GPa)
#
#
# Indices 1 2 3 4 5 6 
#
# 1 62.1010 10.6712 17.8926 0.0000 0.0000 0.0000
# 2 10.6712 70.2897 27.0476 0.0000 0.0000 0.0000
# 3 17.8926 27.0476 77.7056 0.0000 0.0000 0.0000
# 4 0.0000 0.0000 0.0000 25.5860 0.0000 0.0000
# 5 0.0000 0.0000 0.0000 0.0000 21.8507 0.0000
# 6 0.0000 0.0000 0.0000 0.0000 0.0000 7.4900
#
#
#
# Elastic Compliance Matrix: (Units=1/GPa)
#
#
# Indices 1 2 3 4 5 6 
#
# 1 0.017344 -0.001266 -0.003553 0.000000 0.000000 0.000000
# 2 -0.001266 0.016519 -0.005459 0.000000 0.000000 0.000000
# 3 -0.003553 -0.005459 0.015587 0.000000 0.000000 0.000000
# 4 0.000000 0.000000 0.000000 0.039084 0.000000 0.000000
# 5 0.000000 0.000000 0.000000 0.000000 0.045765 0.000000
# 6 0.000000 0.000000 0.000000 0.000000 0.000000 0.133511
#
#
# Mechanical properties :
#
#
# Convention : Reuss Voigt Hill
#
# Bulk Modulus (GPa) = 34.60720 35.70211 35.15465
# Shear Modulus (GPa) = 16.77867 21.28433 19.03150
#
# Velocity S-wave (km/s) = 3.25142 3.66205 3.46283
# Velocity P-wave (km/s) = 5.99172 6.35419 6.17561
#
# Compressibility (1/GPa) = 0.02889572
#
# Stress axis : x y z
#
# Youngs Moduli (GPa) = 57.65676 60.53455 64.15510
#
# Poissons Ratio (x) = 0.07663 0.22794
# Poissons Ratio (y) = 0.07299 0.35020
# Poissons Ratio (z) = 0.20486 0.33043
#
# Static dielectric constant tensor:
#      x y z
#    x 1.531460 0.000000 0.000000 
#    y 0.000000 1.520790 0.000000 
#    z 0.000000 0.000000 1.535480 
# 
# From -- ./inp_files/6028.got.cif
#   From: 2010.05.17/outbox.cif.g08.bks.cpg/sg57_4_cif.got.tgz:6028.got - 2010.06.03 13:58:18.
