data_PCOD9435991
_publ_section_title
;
Structure prediction by ZEFSAII (Michael W. Deem and Ramdas Pophale) SiO2 
 PCOD9435991
Probable space group: P B C M
;
_chemical_formula_sum "Si O2"
_cell_formula_units_Z 64
_cell_length_a 20.967423
_cell_length_b 20.044879
_cell_length_c 8.440715
_cell_angle_alpha 90.000000
_cell_angle_beta 90.000000
_cell_angle_gamma 90.000000
_cell_volume 3547.543524
_symmetry_space_group_name_H-M "P B C M"
_symmetry_group_IT_number 57
_symmetry_cell_setting 'orthorhombic'
loop_
_space_group_symop_operation_xyz
x,y,z
-x,-y,1/2+z
x,1/2-y,-z
-x,1/2+y,1/2-z
-x,-y,-z
x,y,1/2-z
-x,1/2+y,z
x,1/2-y,1/2+z
loop_
_atom_site_type_symbol
_atom_site_label
_atom_site_fract_x
_atom_site_fract_y
_atom_site_fract_z
Si Si1 0.765008 0.937752 0.560748
Si Si2 0.612317 0.173670 0.058152
Si Si3 0.964051 0.404476 0.941262
Si Si4 0.269887 0.917646 0.941728
Si Si5 0.527597 0.673916 0.059167
Si Si6 0.907141 0.548440 0.561279
Si Si7 0.332676 0.173987 0.441857
Si Si8 0.845607 0.323131 0.940850
O O1 0.763329 0.937323 0.750000
O O2 0.838400 0.934519 0.507366
O O3 0.722679 0.875501 0.502401
O O4 0.735251 0.007320 0.502106
O O5 0.613786 0.175877 0.250000
O O6 0.668407 0.124399 0.005405
O O7 0.541854 0.147987 0.007123
O O8 0.621221 0.250000 0.000000
O O9 0.968344 0.404629 0.750000
O O10 0.930167 0.474264 0.989851
O O11 0.915883 0.346564 0.992630
O O12 0.034927 0.403885 0.009885
O O13 0.270003 0.919524 0.750000
O O14 0.207052 0.876723 0.992952
O O15 0.527290 0.672497 0.250000
O O16 0.596823 0.647275 0.007791
O O17 0.527774 0.750000 0.000000
O O18 0.901855 0.547344 0.750000
O O19 0.325152 0.250000 0.500000
O O20 0.331788 0.175586 0.250000
O O21 0.845063 0.323183 0.750000
O O22 0.829428 0.250000 0.000000
#
# Coordination Sequence:
#
# PCOD9435991 Si02
#       8
#     8   8   8   8   8   8   8   8
#     4  11  22  35  53  78 105 136 172 215 261 310
#     4   9  17  29  50  75 103 138 177 218 259 304
#     4   9  18  34  53  75 102 131 167 211 252 297
#     4  10  20  35  50  72 106 142 178 214 255 307
#     4   8  14  28  49  73  99 131 169 212 259 308
#     4  10  19  34  56  78 101 130 167 210 254 305
#     4   9  19  35  55  78 103 130 168 215 265 317
#     4  10  20  34  51  74 107 141 174 214 255 298
#
# _framework density 18.040652000000001
#
# number of rings (size 3 to 8) (size 9 to 14) (size 15 to 20)
#    0.000    2.500    1.250    1.125    0.000    3.000 
#    0.000    1.250    0.000    0.000    0.000    0.000 
#    0.000    0.000    0.000    0.000    0.000    0.000 
#
# Total GULP energy -356677.135937 kJ/mol
# GULP energy per Si atom -5573.080249 kJ/mol
# Density = 1.799959 g / cm^3
# Si number density = 18.040652 Si / 1000 Ang^3
#
#
#
# Elastic Constant Matrix: (Units=GPa)
#
#
# Indices 1 2 3 4 5 6 
#
# 1 173.4174 69.5579 23.8880 0.0000 0.0000 0.0000
# 2 69.5579 86.3771 13.5567 0.0000 0.0000 0.0000
# 3 23.8880 13.5567 9.4949 0.0000 0.0000 0.0000
# 4 0.0000 0.0000 0.0000 23.0183 0.0000 0.0000
# 5 0.0000 0.0000 0.0000 0.0000 8.7332 0.0000
# 6 0.0000 0.0000 0.0000 0.0000 0.0000 30.1065
#
#
#
# Elastic Compliance Matrix: (Units=1/GPa)
#
#
# Indices 1 2 3 4 5 6 
#
# 1 0.010575 -0.005593 -0.018618 0.000000 0.000000 0.000000
# 2 -0.005593 0.017879 -0.011456 0.000000 0.000000 0.000000
# 3 -0.018618 -0.011456 0.168518 0.000000 0.000000 0.000000
# 4 0.000000 0.000000 0.000000 0.043444 0.000000 0.000000
# 5 0.000000 0.000000 0.000000 0.000000 0.114506 0.000000
# 6 0.000000 0.000000 0.000000 0.000000 0.000000 0.033215
#
#
# Mechanical properties :
#
#
# Convention : Reuss Voigt Hill
#
# Bulk Modulus (GPa) = 7.95942 53.69939 30.82941
# Shear Modulus (GPa) = 9.97306 23.19072 16.58189
#
# Velocity S-wave (km/s) = 2.35374 3.58924 3.03502
# Velocity P-wave (km/s) = 3.43632 6.85618 5.42289
#
# Compressibility (1/GPa) = 0.12563726
#
# Stress axis : x y z
#
# Youngs Moduli (GPa) = 94.56631 55.93037 5.93409
#
# Poissons Ratio (x) = 0.31284 0.11048
# Poissons Ratio (y) = 0.52895 0.06798
# Poissons Ratio (z) = 1.76065 0.64072
#
# Static dielectric constant tensor:
#      x y z
#    x 1.657790 0.000000 0.000000 
#    y 0.000000 1.584760 0.000000 
#    z 0.000000 0.000000 1.620490 
# 
# From -- ./inp_files/8573.got.cif
#   From: 2010.05.17/outbox.cif.g08.bks.cpg/sg57_5_cif.got.tgz:8573.got - 2010.06.03 13:58:18.
