data_PCOD9435265
_publ_section_title
;
Structure prediction by ZEFSAII (Michael W. Deem and Ramdas Pophale) SiO2 
 PCOD9435265
Probable space group: P B C M
;
_chemical_formula_sum "Si O2"
_cell_formula_units_Z 48
_cell_length_a 20.296829
_cell_length_b 14.389366
_cell_length_c 8.779093
_cell_angle_alpha 90.000000
_cell_angle_beta 90.000000
_cell_angle_gamma 90.000000
_cell_volume 2564.008743
_symmetry_space_group_name_H-M "P B C M"
_symmetry_group_IT_number 57
_symmetry_cell_setting 'orthorhombic'
loop_
_space_group_symop_operation_xyz
x,y,z
-x,-y,1/2+z
x,1/2-y,-z
-x,1/2+y,1/2-z
-x,-y,-z
x,y,1/2-z
-x,1/2+y,z
x,1/2-y,1/2+z
loop_
_atom_site_type_symbol
_atom_site_label
_atom_site_fract_x
_atom_site_fract_y
_atom_site_fract_z
Si Si1 0.148331 0.046595 0.066571
Si Si2 0.280393 0.351603 0.933019
Si Si3 0.401137 0.040427 0.567445
Si Si4 0.028548 0.348765 0.432204
Si Si5 0.473461 0.852050 0.567171
Si Si6 0.124777 0.846702 0.432315
O O1 0.142383 0.049893 0.250000
O O2 0.207454 0.114146 0.020734
O O3 0.162440 0.940015 0.022355
O O4 0.078947 0.076736 0.996996
O O5 0.283556 0.348391 0.750000
O O6 0.294101 0.250000 0.000000
O O7 0.333568 0.424423 0.995167
O O8 0.399392 0.050116 0.750000
O O9 0.458842 0.106568 0.501622
O O10 0.420289 0.933348 0.531784
O O11 0.050253 0.250000 0.500000
O O12 0.031494 0.347645 0.250000
O O13 0.952122 0.360359 0.478114
O O14 0.459605 0.750000 0.500000
O O15 0.479449 0.845456 0.750000
O O16 0.148740 0.750000 0.500000
O O17 0.125919 0.839073 0.250000
#
# Coordination Sequence:
#
# PCOD9435265 Si02
#       6
#     8   8   8   8   8   8
#     4  10  21  36  53  75 104 137 175 218 262 311
#     4  11  23  38  56  77 106 142 177 216 261 312
#     4  10  21  37  57  82 112 145 181 219 260 308
#     4  10  19  31  51  77 104 134 169 214 266 318
#     4  10  20  35  58  86 114 144 178 218 262 308
#     4   9  19  35  53  75 102 133 172 217 266 317
#
# _framework density 18.720685
#
# number of rings (size 3 to 8) (size 9 to 14) (size 15 to 20)
#    0.000    2.000    0.000    3.500    0.000    6.000 
#    0.000    0.833    0.000    4.000    0.000    0.000 
#    0.000    0.000    0.000    0.000    0.000    0.000 
#
# Total GULP energy -267966.798121 kJ/mol
# GULP energy per Si atom -5582.641628 kJ/mol
# Density = 1.867808 g / cm^3
# Si number density = 18.720685 Si / 1000 Ang^3
#
#
#
# Elastic Constant Matrix: (Units=GPa)
#
#
# Indices 1 2 3 4 5 6 
#
# 1 26.1650 14.0502 15.7882 0.0000 0.0000 0.0000
# 2 14.0502 127.3721 32.7348 0.0000 0.0000 0.0000
# 3 15.7882 32.7348 36.1584 0.0000 0.0000 0.0000
# 4 0.0000 0.0000 0.0000 31.7631 0.0000 0.0000
# 5 0.0000 0.0000 0.0000 0.0000 15.1511 0.0000
# 6 0.0000 0.0000 0.0000 0.0000 0.0000 38.1938
#
#
#
# Elastic Compliance Matrix: (Units=1/GPa)
#
#
# Indices 1 2 3 4 5 6 
#
# 1 0.051892 0.000129 -0.022775 0.000000 0.000000 0.000000
# 2 0.000129 0.010232 -0.009319 0.000000 0.000000 0.000000
# 3 -0.022775 -0.009319 0.046038 0.000000 0.000000 0.000000
# 4 0.000000 0.000000 0.000000 0.031483 0.000000 0.000000
# 5 0.000000 0.000000 0.000000 0.000000 0.066002 0.000000
# 6 0.000000 0.000000 0.000000 0.000000 0.000000 0.026182
#
#
# Mechanical properties :
#
#
# Convention : Reuss Voigt Hill
#
# Bulk Modulus (GPa) = 22.60862 34.98243 28.79553
# Shear Modulus (GPa) = 16.10286 25.49643 20.79964
#
# Velocity S-wave (km/s) = 2.93604 3.69445 3.33686
# Velocity P-wave (km/s) = 4.85765 6.07665 5.50102
#
# Compressibility (1/GPa) = 0.04423091
#
# Stress axis : x y z
#
# Youngs Moduli (GPa) = 19.27063 97.73367 21.72133
#
# Poissons Ratio (x) = -0.01262 0.49471
# Poissons Ratio (y) = -0.00249 0.20243
# Poissons Ratio (z) = 0.43889 0.91083
#
# Static dielectric constant tensor:
#      x y z
#    x 1.629490 0.000000 0.000000 
#    y 0.000000 1.719260 0.000000 
#    z 0.000000 0.000000 1.614610 
# 
# From -- ./inp_files/6564.got.cif
#   From: 2010.05.17/outbox.cif.g08.bks.cpg/sg57_4_cif.got.tgz:6564.got - 2010.06.03 13:58:18.
