data_PCOD9435191
_publ_section_title
;
Structure prediction by ZEFSAII (Michael W. Deem and Ramdas Pophale) SiO2 
 PCOD9435191
Probable space group: P B C M
;
_chemical_formula_sum "Si O2"
_cell_formula_units_Z 64
_cell_length_a 16.621446
_cell_length_b 24.635376
_cell_length_c 9.315832
_cell_angle_alpha 90.000000
_cell_angle_beta 90.000000
_cell_angle_gamma 90.000000
_cell_volume 3814.605636
_symmetry_space_group_name_H-M "P B C M"
_symmetry_group_IT_number 57
_symmetry_cell_setting 'orthorhombic'
loop_
_space_group_symop_operation_xyz
x,y,z
-x,-y,1/2+z
x,1/2-y,-z
-x,1/2+y,1/2-z
-x,-y,-z
x,y,1/2-z
-x,1/2+y,z
x,1/2-y,1/2+z
loop_
_atom_site_type_symbol
_atom_site_label
_atom_site_fract_x
_atom_site_fract_y
_atom_site_fract_z
Si Si1 0.046442 0.918222 0.922662
Si Si2 0.890934 0.535594 0.921939
Si Si3 0.554357 0.542085 0.917953
Si Si4 0.861309 0.308361 0.923272
Si Si5 0.321959 0.805988 0.580216
Si Si6 0.508495 0.357775 0.583775
Si Si7 0.658034 0.695434 0.417604
Si Si8 0.280310 0.087970 0.577415
O O1 0.036495 0.916924 0.750000
O O2 0.083174 0.859731 0.965247
O O3 0.102201 0.971091 0.955690
O O4 0.962462 0.932872 0.998027
O O5 0.902119 0.540556 0.750000
O O6 0.805519 0.562221 0.958462
O O7 0.547520 0.533094 0.750000
O O8 0.648687 0.544980 0.955733
O O9 0.500000 0.500000 0.000000
O O10 0.520219 0.599630 0.967174
O O11 0.868114 0.301049 0.750000
O O12 0.768390 0.324959 0.956217
O O13 0.876927 0.250000 0.000000
O O14 0.334566 0.750000 0.500000
O O15 0.322075 0.796044 0.750000
O O16 0.399975 0.842127 0.551950
O O17 0.505080 0.378418 0.750000
O O18 0.439434 0.311816 0.576792
O O19 0.680884 0.750000 0.500000
O O20 0.680336 0.697431 0.250000
O O21 0.698275 0.642979 0.492678
O O22 0.283537 0.098407 0.750000
#
# Coordination Sequence:
#
# PCOD9435191 Si02
#       8
#     8   8   8   8   8   8   8   8
#     4   9  18  33  53  77 102 128 159 198 247 298
#     4   9  18  34  56  78  98 124 162 205 247 295
#     4  10  20  33  49  69  96 129 163 201 243 288
#     4   9  18  32  50  73 103 136 167 200 242 294
#     4   9  17  29  46  68  95 127 161 197 234 277
#     4   9  18  31  47  68  94 127 166 204 242 285
#     4  10  19  31  49  72  99 131 167 208 251 296
#     4   9  19  35  53  73  98 130 166 205 249 296
#
# _framework density 16.777619000000001
#
# number of rings (size 3 to 8) (size 9 to 14) (size 15 to 20)
#    0.000    2.750    0.000    1.125    0.000    3.500 
#    0.000    4.375    0.000    4.500    0.000    0.000 
#    0.000    0.000    0.000    0.000    0.000    0.000 
#
# Total GULP energy -356295.436491 kJ/mol
# GULP energy per Si atom -5567.116195 kJ/mol
# Density = 1.673943 g / cm^3
# Si number density = 16.777619 Si / 1000 Ang^3
#
#
#
# Elastic Constant Matrix: (Units=GPa)
#
#
# Indices 1 2 3 4 5 6 
#
# 1 123.5938 77.6670 51.2022 0.0000 0.0000 0.0000
# 2 77.6670 93.7817 43.7505 0.0000 0.0000 0.0000
# 3 51.2022 43.7505 34.6261 0.0000 0.0000 0.0000
# 4 0.0000 0.0000 0.0000 28.8091 0.0000 0.0000
# 5 0.0000 0.0000 0.0000 0.0000 23.7861 0.0000
# 6 0.0000 0.0000 0.0000 0.0000 0.0000 19.9906
#
#
#
# Elastic Compliance Matrix: (Units=1/GPa)
#
#
# Indices 1 2 3 4 5 6 
#
# 1 0.022983 -0.007744 -0.024202 0.000000 0.000000 0.000000
# 2 -0.007744 0.028581 -0.024662 0.000000 0.000000 0.000000
# 3 -0.024202 -0.024662 0.095828 0.000000 0.000000 0.000000
# 4 0.000000 0.000000 0.000000 0.034711 0.000000 0.000000
# 5 0.000000 0.000000 0.000000 0.000000 0.042041 0.000000
# 6 0.000000 0.000000 0.000000 0.000000 0.000000 0.050024
#
#
# Mechanical properties :
#
#
# Convention : Reuss Voigt Hill
#
# Bulk Modulus (GPa) = 29.25864 66.36012 47.80938
# Shear Modulus (GPa) = 12.53833 19.80929 16.17381
#
# Velocity S-wave (km/s) = 2.73669 3.43986 3.10822
# Velocity P-wave (km/s) = 5.24051 7.44415 6.43733
#
# Compressibility (1/GPa) = 0.03417794
#
# Stress axis : x y z
#
# Youngs Moduli (GPa) = 43.50953 34.98773 10.43533
#
# Poissons Ratio (x) = 0.27094 0.25255
# Poissons Ratio (y) = 0.33693 0.25736
# Poissons Ratio (z) = 1.05301 0.86287
#
# Static dielectric constant tensor:
#      x y z
#    x 1.581970 0.000000 0.000000 
#    y 0.000000 1.579540 0.000000 
#    z 0.000000 0.000000 1.558450 
# 
# From -- ./inp_files/5620.got.cif
#   From: 2010.05.17/outbox.cif.g08.bks.cpg/sg57_3_cif.got.tgz:5620.got - 2010.06.03 13:58:18.
