data_PCOD9435897
_publ_section_title
;
Structure prediction by ZEFSAII (Michael W. Deem and Ramdas Pophale) SiO2 
 PCOD9435897
Probable space group: P B C M
;
_chemical_formula_sum "Si O2"
_cell_formula_units_Z 64
_cell_length_a 12.699478
_cell_length_b 14.057729
_cell_length_c 14.205462
_cell_angle_alpha 90.000000
_cell_angle_beta 90.000000
_cell_angle_gamma 90.000000
_cell_volume 2536.041754
_symmetry_space_group_name_H-M "P B C M"
_symmetry_group_IT_number 57
_symmetry_cell_setting 'orthorhombic'
loop_
_space_group_symop_operation_xyz
x,y,z
-x,-y,1/2+z
x,1/2-y,-z
-x,1/2+y,1/2-z
-x,-y,-z
x,y,1/2-z
-x,1/2+y,z
x,1/2-y,1/2+z
loop_
_atom_site_type_symbol
_atom_site_label
_atom_site_fract_x
_atom_site_fract_y
_atom_site_fract_z
Si Si1 0.406144 0.732566 0.863794
Si Si2 0.827925 0.300697 0.134840
Si Si3 0.071117 0.601438 0.134011
Si Si4 0.635525 0.945855 0.906969
Si Si5 0.787898 0.934011 0.352588
Si Si6 0.637953 0.725699 0.865008
Si Si7 0.589705 0.454787 0.605239
Si Si8 0.128226 0.498577 0.638707
O O1 0.406076 0.735991 0.750000
O O2 0.294978 0.688464 0.893026
O O3 0.519862 0.689291 0.890859
O O4 0.402395 0.841106 0.899220
O O5 0.829541 0.299864 0.250000
O O6 0.875668 0.199950 0.103666
O O7 0.889855 0.394305 0.101904
O O8 0.080997 0.602077 0.250000
O O9 0.130831 0.505645 0.099690
O O10 0.950362 0.583848 0.105692
O O11 0.641707 0.831676 0.904221
O O12 0.526962 0.972280 0.854150
O O13 0.748779 0.977791 0.872359
O O14 0.611209 0.995226 0.005746
O O15 0.832327 0.906530 0.250000
O O16 0.735578 0.839867 0.395822
O O17 0.686363 0.001385 0.339687
O O18 0.642659 0.729195 0.750000
O O19 0.107528 0.503619 0.750000
#
# Coordination Sequence:
#
# PCOD9435897 Si02
#       8
#     8   8   8   8   8   8   8   8
#     4   9  16  31  54  81 109 138 180 233 282 328
#     4   9  17  31  54  82 109 139 182 235 281 327
#     4   9  18  34  55  83 114 145 185 236 289 338
#     4  10  22  37  50  78 116 149 185 226 285 334
#     4  10  19  33  58  84 105 142 187 226 278 337
#     4   9  19  32  52  83 113 142 181 232 283 336
#     4  10  20  35  55  77 112 149 183 228 282 340
#     4  10  21  35  56  83 112 150 192 233 280 336
#
# _framework density 25.236177999999999
#
# number of rings (size 3 to 8) (size 9 to 14) (size 15 to 20)
#    0.000    2.500    1.250    0.750    1.750    3.000 
#    0.000    5.000    0.000    0.000    0.000    0.000 
#    0.000    0.000    0.000    0.000    0.000    0.000 
#
# Total GULP energy -357541.695323 kJ/mol
# GULP energy per Si atom -5586.588989 kJ/mol
# Density = 2.517874 g / cm^3
# Si number density = 25.236178 Si / 1000 Ang^3
#
#
#
# Elastic Constant Matrix: (Units=GPa)
#
#
# Indices 1 2 3 4 5 6 
#
# 1 106.1414 40.8924 -0.6338 0.0000 0.0000 0.0000
# 2 40.8924 128.4851 -4.8337 0.0000 0.0000 0.0000
# 3 -0.6338 -4.8337 69.0175 0.0000 0.0000 0.0000
# 4 0.0000 0.0000 0.0000 27.5152 0.0000 0.0000
# 5 0.0000 0.0000 0.0000 0.0000 17.7779 0.0000
# 6 0.0000 0.0000 0.0000 0.0000 0.0000 32.5523
#
#
#
# Elastic Compliance Matrix: (Units=1/GPa)
#
#
# Indices 1 2 3 4 5 6 
#
# 1 0.010739 -0.003423 -0.000141 0.000000 0.000000 0.000000
# 2 -0.003423 0.008895 0.000592 0.000000 0.000000 0.000000
# 3 -0.000141 0.000592 0.014529 0.000000 0.000000 0.000000
# 4 0.000000 0.000000 0.000000 0.036344 0.000000 0.000000
# 5 0.000000 0.000000 0.000000 0.000000 0.056250 0.000000
# 6 0.000000 0.000000 0.000000 0.000000 0.000000 0.030720
#
#
# Mechanical properties :
#
#
# Convention : Reuss Voigt Hill
#
# Bulk Modulus (GPa) = 35.43892 41.61044 38.52468
# Shear Modulus (GPa) = 28.93049 33.45035 31.19042
#
# Velocity S-wave (km/s) = 3.38951 3.64468 3.51941
# Velocity P-wave (km/s) = 5.42142 5.85114 5.64037
#
# Compressibility (1/GPa) = 0.02821757
#
# Stress axis : x y z
#
# Youngs Moduli (GPa) = 93.11488 112.42550 68.82691
#
# Poissons Ratio (x) = 0.38487 0.00971
# Poissons Ratio (y) = 0.31876 -0.04071
# Poissons Ratio (z) = 0.01314 -0.06650
#
# Static dielectric constant tensor:
#      x y z
#    x 1.980540 0.000000 0.000000 
#    y 0.000000 1.968930 0.000000 
#    z 0.000000 0.000000 2.036700 
# 
# From -- ./inp_files/22049.got.cif
#   From: 2010.05.17/outbox.cif.g08.bks.cpg/sg57_12_cif.got.tgz:22049.got - 2010.06.03 13:58:18.
