data_PCOD9435628
_publ_section_title
;
Structure prediction by ZEFSAII (Michael W. Deem and Ramdas Pophale) SiO2 
 PCOD9435628
Probable space group: P B C M
;
_chemical_formula_sum "Si O2"
_cell_formula_units_Z 64
_cell_length_a 17.049653
_cell_length_b 24.362489
_cell_length_c 8.573280
_cell_angle_alpha 90.000000
_cell_angle_beta 90.000000
_cell_angle_gamma 90.000000
_cell_volume 3561.100320
_symmetry_space_group_name_H-M "P B C M"
_symmetry_group_IT_number 57
_symmetry_cell_setting 'orthorhombic'
loop_
_space_group_symop_operation_xyz
x,y,z
-x,-y,1/2+z
x,1/2-y,-z
-x,1/2+y,1/2-z
-x,-y,-z
x,y,1/2-z
-x,1/2+y,z
x,1/2-y,1/2+z
loop_
_atom_site_type_symbol
_atom_site_label
_atom_site_fract_x
_atom_site_fract_y
_atom_site_fract_z
Si Si1 0.431974 0.187852 0.937957
Si Si2 0.190804 0.476796 0.935370
Si Si3 0.875987 0.811047 0.936540
Si Si4 0.395566 0.812278 0.062906
Si Si5 0.131348 0.915037 0.936739
Si Si6 0.040659 0.413626 0.434839
Si Si7 0.769294 0.188218 0.063682
Si Si8 0.724809 0.626168 0.937905
O O1 0.431086 0.191352 0.750000
O O2 0.518476 0.165664 0.983073
O O3 0.359952 0.149333 0.985365
O O4 0.421934 0.250000 0.000000
O O5 0.198151 0.478953 0.750000
O O6 0.189808 0.537173 0.007995
O O7 0.106600 0.450081 0.980585
O O8 0.254682 0.434987 0.005478
O O9 0.882804 0.812957 0.750000
O O10 0.884544 0.750000 0.000000
O O11 0.938834 0.851625 0.014414
O O12 0.791552 0.835009 0.987992
O O13 0.389558 0.812392 0.250000
O O14 0.397239 0.750000 0.000000
O O15 0.314969 0.834799 0.993436
O O16 0.123646 0.916751 0.750000
O O17 0.164435 0.855374 0.983216
O O18 0.047021 0.926224 0.012398
O O19 0.049646 0.420619 0.250000
O O20 0.767657 0.191740 0.250000
O O21 0.780624 0.250000 0.000000
O O22 0.731842 0.628505 0.750000
#
# Coordination Sequence:
#
# PCOD9435628 Si02
#       8
#     8   8   8   8   8   8   8   8
#     4   9  18  29  47  76 107 140 174 210 252 299
#     4  11  22  37  56  78 103 134 173 215 259 303
#     4  11  21  34  50  72 104 141 177 212 257 308
#     4   9  16  29  49  74 105 137 170 207 249 299
#     4  11  23  39  57  78 103 133 170 212 257 306
#     4  11  22  37  56  78 103 134 172 215 261 306
#     4  10  21  36  56  80 107 136 166 205 255 307
#     4  10  19  33  51  74 105 139 175 214 257 303
#
# _framework density 17.971972999999998
#
# number of rings (size 3 to 8) (size 9 to 14) (size 15 to 20)
#    0.000    1.750    0.000    7.875    0.000    5.000 
#    0.000    1.250    0.000    0.750    0.000    0.000 
#    0.000    0.000    0.000    0.000    0.000    0.000 
#
# Total GULP energy -357244.031478 kJ/mol
# GULP energy per Si atom -5581.937992 kJ/mol
# Density = 1.793107 g / cm^3
# Si number density = 17.971973 Si / 1000 Ang^3
#
#
#
# Elastic Constant Matrix: (Units=GPa)
#
#
# Indices 1 2 3 4 5 6 
#
# 1 53.2560 4.5556 3.7230 0.0000 0.0000 0.0000
# 2 4.5556 70.0357 1.0518 0.0000 0.0000 0.0000
# 3 3.7230 1.0518 44.8418 0.0000 0.0000 0.0000
# 4 0.0000 0.0000 0.0000 23.0265 0.0000 0.0000
# 5 0.0000 0.0000 0.0000 0.0000 23.4435 0.0000
# 6 0.0000 0.0000 0.0000 0.0000 0.0000 16.7712
#
#
#
# Elastic Compliance Matrix: (Units=1/GPa)
#
#
# Indices 1 2 3 4 5 6 
#
# 1 0.018989 -0.001212 -0.001548 0.000000 0.000000 0.000000
# 2 -0.001212 0.014361 -0.000236 0.000000 0.000000 0.000000
# 3 -0.001548 -0.000236 0.022435 0.000000 0.000000 0.000000
# 4 0.000000 0.000000 0.000000 0.043428 0.000000 0.000000
# 5 0.000000 0.000000 0.000000 0.000000 0.042656 0.000000
# 6 0.000000 0.000000 0.000000 0.000000 0.000000 0.059626
#
#
# Mechanical properties :
#
#
# Convention : Reuss Voigt Hill
#
# Bulk Modulus (GPa) = 20.08351 20.75490 20.41920
# Shear Modulus (GPa) = 22.31303 23.23513 22.77408
#
# Velocity S-wave (km/s) = 3.52738 3.59953 3.56364
# Velocity P-wave (km/s) = 5.27153 5.37113 5.32156
#
# Compressibility (1/GPa) = 0.04979210
#
# Stress axis : x y z
#
# Youngs Moduli (GPa) = 52.66170 69.63397 44.57378
#
# Poissons Ratio (x) = 0.08439 0.06901
# Poissons Ratio (y) = 0.06382 0.01053
# Poissons Ratio (z) = 0.08153 0.01645
#
# Static dielectric constant tensor:
#      x y z
#    x 1.639950 0.000000 0.000000 
#    y 0.000000 1.614290 0.000000 
#    z 0.000000 0.000000 1.600480 
# 
# From -- ./inp_files/7426.got.cif
#   From: 2010.05.17/outbox.cif.g08.bks.cpg/sg57_4_cif.got.tgz:7426.got - 2010.06.03 13:58:18.
