data_PCOD9436565
_publ_section_title
;
Structure prediction by ZEFSAII (Michael W. Deem and Ramdas Pophale) SiO2 
 PCOD9436565
Probable space group: P B C M
;
_chemical_formula_sum "Si O2"
_cell_formula_units_Z 56
_cell_length_a 20.468654
_cell_length_b 13.415919
_cell_length_c 9.049203
_cell_angle_alpha 90.000000
_cell_angle_beta 90.000000
_cell_angle_gamma 90.000000
_cell_volume 2484.963666
_symmetry_space_group_name_H-M "P B C M"
_symmetry_group_IT_number 57
_symmetry_cell_setting 'orthorhombic'
loop_
_space_group_symop_operation_xyz
x,y,z
-x,-y,1/2+z
x,1/2-y,-z
-x,1/2+y,1/2-z
-x,-y,-z
x,y,1/2-z
-x,1/2+y,z
x,1/2-y,1/2+z
loop_
_atom_site_type_symbol
_atom_site_label
_atom_site_fract_x
_atom_site_fract_y
_atom_site_fract_z
Si Si1 0.475980 0.600051 0.079873
Si Si2 0.181680 0.351165 0.575698
Si Si3 0.651517 0.424261 0.072327
Si Si4 0.377333 0.152913 0.417936
Si Si5 0.926900 0.383285 0.584103
Si Si6 0.947924 0.621497 0.913565
Si Si7 0.783861 0.062081 0.072331
O O1 0.457038 0.581923 0.250000
O O2 0.543487 0.660294 0.082819
O O3 0.500000 0.500000 0.000000
O O4 0.412169 0.632026 0.989847
O O5 0.206726 0.250000 0.500000
O O6 0.193477 0.354014 0.750000
O O7 0.104249 0.351645 0.538675
O O8 0.208098 0.451454 0.498029
O O9 0.653027 0.418851 0.250000
O O10 0.641359 0.541962 0.028029
O O11 0.719133 0.391790 0.999119
O O12 0.352424 0.250000 0.500000
O O13 0.354319 0.156851 0.250000
O O14 0.935934 0.341842 0.750000
O O15 0.941403 0.501905 0.596799
O O16 0.850925 0.378311 0.539990
O O17 0.979511 0.350866 0.463540
O O18 0.930591 0.660442 0.750000
O O19 0.778730 0.053997 0.250000
#
# Coordination Sequence:
#
# PCOD9436565 Si02
#       7
#     8   8   8   8   8   8   8
#     4   9  17  31  49  70  94 122 158 200 242 285
#     4  11  21  33  47  64  91 125 160 196 234 280
#     4  10  20  33  48  70  98 130 165 198 238 290
#     4   9  19  32  48  71  97 124 158 197 237 283
#     4   8  15  27  43  64  88 113 145 185 228 270
#     4   9  16  27  44  65  87 113 148 188 230 271
#     4  10  20  33  48  68  94 125 159 194 233 277
#
# _framework density 22.535540999999998
#
# number of rings (size 3 to 8) (size 9 to 14) (size 15 to 20)
#    0.000    2.571    0.000    4.714    0.000    8.000 
#    0.000    1.429    0.000    0.000    0.000    1.000 
#    0.000    4.571    0.000    0.000    0.000    0.000 
#
# Total GULP energy -312584.952299 kJ/mol
# GULP energy per Si atom -5581.874148 kJ/mol
# Density = 2.248425 g / cm^3
# Si number density = 22.535541 Si / 1000 Ang^3
#
#
#
# Elastic Constant Matrix: (Units=GPa)
#
#
# Indices 1 2 3 4 5 6 
#
# 1 182.2785 -12.0059 57.2999 0.0000 0.0000 0.0000
# 2 -12.0059 47.4641 15.6440 0.0000 0.0000 0.0000
# 3 57.2999 15.6440 112.3291 0.0000 0.0000 0.0000
# 4 0.0000 0.0000 0.0000 20.3984 0.0000 0.0000
# 5 0.0000 0.0000 0.0000 0.0000 21.7563 0.0000
# 6 0.0000 0.0000 0.0000 0.0000 0.0000 -6.9338
#
#
#
# Elastic Compliance Matrix: (Units=1/GPa)
#
#
# Indices 1 2 3 4 5 6 
#
# 1 0.006933 0.003060 -0.003963 0.000000 0.000000 0.000000
# 2 0.003060 0.023433 -0.004824 0.000000 0.000000 0.000000
# 3 -0.003963 -0.004824 0.011596 0.000000 0.000000 0.000000
# 4 0.000000 0.000000 0.000000 0.049023 0.000000 0.000000
# 5 0.000000 0.000000 0.000000 0.000000 0.045964 0.000000
# 6 0.000000 0.000000 0.000000 0.000000 0.000000 -0.144222
#
#
# Mechanical properties :
#
#
# Convention : Reuss Voigt Hill
#
# Bulk Modulus (GPa) = 32.77911 51.54974 42.16442
# Shear Modulus (GPa) = 348.40891 25.78643 187.09767
#
# Velocity S-wave (km/s) = 12.44748 3.38636 9.12160
# Velocity P-wave (km/s) = 14.87157 6.18178 11.38811
#
# Compressibility (1/GPa) = 0.03050724
#
# Stress axis : x y z
#
# Youngs Moduli (GPa) = 144.22878 42.67546 86.23787
#
# Poissons Ratio (x) = -0.13059 0.34176
# Poissons Ratio (y) = -0.44134 0.41604
# Poissons Ratio (z) = 0.57157 0.20588
#
# Static dielectric constant tensor:
#      x y z
#    x 1.876680 0.000000 0.000000 
#    y 0.000000 1.824630 0.000000 
#    z 0.000000 0.000000 1.770950 
# 
# From -- ./inp_files/8275.got.cif
#   From: 2010.05.17/outbox.cif.g08.bks.cpg/sg57_5_cif.got.tgz:8275.got - 2010.06.03 13:58:18.
