data_PCOD9436028
_publ_section_title
;
Structure prediction by ZEFSAII (Michael W. Deem and Ramdas Pophale) SiO2 
 PCOD9436028
Probable space group: P B C M
;
_chemical_formula_sum "Si O2"
_cell_formula_units_Z 40
_cell_length_a 5.298850
_cell_length_b 25.836430
_cell_length_c 13.380148
_cell_angle_alpha 90.000000
_cell_angle_beta 90.000000
_cell_angle_gamma 90.000000
_cell_volume 1831.787314
_symmetry_space_group_name_H-M "P B C M"
_symmetry_group_IT_number 57
_symmetry_cell_setting 'orthorhombic'
loop_
_space_group_symop_operation_xyz
x,y,z
-x,-y,1/2+z
x,1/2-y,-z
-x,1/2+y,1/2-z
-x,-y,-z
x,y,1/2-z
-x,1/2+y,z
x,1/2-y,1/2+z
loop_
_atom_site_type_symbol
_atom_site_label
_atom_site_fract_x
_atom_site_fract_y
_atom_site_fract_z
Si Si1 0.124341 0.064902 0.485002
Si Si2 0.021513 0.351598 0.132609
Si Si3 0.543420 0.192454 0.539735
Si Si4 0.737167 0.005562 0.135624
Si Si5 0.514131 0.881064 0.862849
O O1 0.968702 0.095723 0.569426
O O2 0.208958 0.108756 0.407028
O O3 0.006616 0.022023 0.411571
O O4 0.338610 0.038588 0.556302
O O5 0.036324 0.362081 0.250000
O O6 0.290745 0.329212 0.093853
O O7 0.789061 0.313430 0.109172
O O8 0.499740 0.250000 0.500000
O O9 0.602859 0.157645 0.441918
O O10 0.743171 0.987681 0.250000
O O11 0.596237 0.060570 0.134405
O O12 0.506965 0.862350 0.750000
#
# Coordination Sequence:
#
# PCOD9436028 Si02
#       5
#     8   8   8   8   8
#     4  10  20  35  57  86 124 161 206 258 308 373
#     4  11  23  42  66  93 127 164 207 256 316 375
#     4  11  24  44  65  94 125 163 209 268 313 376
#     4  10  19  34  56  85 120 162 208 253 311 375
#     4  10  21  37  58  85 120 164 208 259 315 375
#
# _framework density 21.836597999999999
#
# number of rings (size 3 to 8) (size 9 to 14) (size 15 to 20)
#    0.000    1.600    2.000    3.000    0.000    1.600 
#    0.000    0.000    0.000    0.000    0.000    0.000 
#    0.000    0.000    0.000    0.000    0.000    0.000 
#
# Total GULP energy -222845.159538 kJ/mol
# GULP energy per Si atom -5571.128988 kJ/mol
# Density = 2.178690 g / cm^3
# Si number density = 21.836598 Si / 1000 Ang^3
#
#
#
# Elastic Constant Matrix: (Units=GPa)
#
#
# Indices 1 2 3 4 5 6 
#
# 1 70.5224 11.5292 38.7910 0.0000 0.0000 0.0000
# 2 11.5292 66.2036 29.8695 0.0000 0.0000 0.0000
# 3 38.7910 29.8695 174.7448 0.0000 0.0000 0.0000
# 4 0.0000 0.0000 0.0000 24.9121 0.0000 0.0000
# 5 0.0000 0.0000 0.0000 0.0000 23.7804 0.0000
# 6 0.0000 0.0000 0.0000 0.0000 0.0000 23.9032
#
#
#
# Elastic Compliance Matrix: (Units=1/GPa)
#
#
# Indices 1 2 3 4 5 6 
#
# 1 0.016255 -0.001303 -0.003386 0.000000 0.000000 0.000000
# 2 -0.001303 0.016472 -0.002526 0.000000 0.000000 0.000000
# 3 -0.003386 -0.002526 0.006906 0.000000 0.000000 0.000000
# 4 0.000000 0.000000 0.000000 0.040141 0.000000 0.000000
# 5 0.000000 0.000000 0.000000 0.000000 0.042051 0.000000
# 6 0.000000 0.000000 0.000000 0.000000 0.000000 0.041835
#
#
# Mechanical properties :
#
#
# Convention : Reuss Voigt Hill
#
# Bulk Modulus (GPa) = 39.67848 52.42780 46.05314
# Shear Modulus (GPa) = 26.81078 29.93788 28.37433
#
# Velocity S-wave (km/s) = 3.50779 3.70671 3.60862
# Velocity P-wave (km/s) = 5.88355 6.51006 6.20472
#
# Compressibility (1/GPa) = 0.02520258
#
# Stress axis : x y z
#
# Youngs Moduli (GPa) = 61.51853 60.71037 144.80117
#
# Poissons Ratio (x) = 0.07912 0.49025
# Poissons Ratio (y) = 0.08018 0.36580
# Poissons Ratio (z) = 0.20828 0.15337
#
# Static dielectric constant tensor:
#      x y z
#    x 1.902050 0.000000 0.000000 
#    y 0.000000 1.883590 0.000000 
#    z 0.000000 0.000000 1.754530 
# 
# From -- ./inp_files/10924.got.cif
#   From: 2010.05.17/outbox.cif.g08.bks.cpg/sg57_6_cif.got.tgz:10924.got - 2010.06.03 13:58:18.
