data_PCOD9436457
_publ_section_title
;
Structure prediction by ZEFSAII (Michael W. Deem and Ramdas Pophale) SiO2 
 PCOD9436457
Probable space group: P B C M
;
_chemical_formula_sum "Si O2"
_cell_formula_units_Z 32
_cell_length_a 21.321285
_cell_length_b 13.616565
_cell_length_c 5.363604
_cell_angle_alpha 90.000000
_cell_angle_beta 90.000000
_cell_angle_gamma 90.000000
_cell_volume 1557.175797
_symmetry_space_group_name_H-M "P B C M"
_symmetry_group_IT_number 57
_symmetry_cell_setting 'orthorhombic'
loop_
_space_group_symop_operation_xyz
x,y,z
-x,-y,1/2+z
x,1/2-y,-z
-x,1/2+y,1/2-z
-x,-y,-z
x,y,1/2-z
-x,1/2+y,z
x,1/2-y,1/2+z
loop_
_atom_site_type_symbol
_atom_site_label
_atom_site_fract_x
_atom_site_fract_y
_atom_site_fract_z
Si Si1 0.869093 0.184057 0.750000
Si Si2 0.266689 0.682620 0.750000
Si Si3 0.865882 0.686873 0.250000
Si Si4 0.661075 0.868365 0.250000
Si Si5 0.283455 0.354741 0.750000
Si Si6 0.517157 0.940185 0.250000
Si Si7 0.602158 0.188170 0.750000
Si Si8 0.041536 0.999739 0.250000
O O1 0.873874 0.250000 0.500000
O O2 0.800526 0.131635 0.750000
O O3 0.920717 0.101428 0.750000
O O4 0.265793 0.750000 0.500000
O O5 0.332987 0.626371 0.750000
O O6 0.878163 0.750000 0.500000
O O7 0.790959 0.663006 0.250000
O O8 0.909793 0.590986 0.250000
O O9 0.678974 0.751176 0.250000
O O10 0.694008 0.906658 0.499202
O O11 0.587895 0.897780 0.250000
O O12 0.465712 0.856677 0.250000
O O13 0.500000 0.000000 0.500000
O O14 0.605816 0.250000 0.500000
O O15 0.000000 0.000000 0.500000
#
# Coordination Sequence:
#
# PCOD9436457 Si02
#       8
#     4   4   4   4   4   4   4   4
#     4  10  21  42  71  93 127 174 222 270 327 387
#     4   8  16  34  59  87 109 145 205 261 298 368
#     4  12  23  45  71 102 145 182 228 292 352 421
#     4  10  20  36  63  87 129 162 226 270 326 407
#     4  10  19  39  66  98 117 170 232 274 334 397
#     4  12  26  41  55  91 136 174 212 275 338 402
#     4  10  21  38  63  83 112 160 213 253 314 374
#     4  12  28  45  66 105 141 175 228 271 339 432
#
# _framework density 20.550024000000001
#
# number of rings (size 3 to 8) (size 9 to 14) (size 15 to 20)
#    0.000    1.500    2.500    3.000    3.500    3.000 
#    4.500    0.000    0.000    0.000    0.000    0.000 
#    0.000    0.000    0.000    0.000    0.000    0.000 
#
# Total GULP energy -178440.883249 kJ/mol
# GULP energy per Si atom -5576.277602 kJ/mol
# Density = 2.050325 g / cm^3
# Si number density = 20.550024 Si / 1000 Ang^3
#
#
#
# Elastic Constant Matrix: (Units=GPa)
#
#
# Indices 1 2 3 4 5 6 
#
# 1 175.2238 71.2732 72.7349 0.0000 0.0000 0.0000
# 2 71.2732 67.5473 50.6164 0.0000 0.0000 0.0000
# 3 72.7349 50.6164 219.9331 0.0000 0.0000 0.0000
# 4 0.0000 0.0000 0.0000 23.9659 0.0000 0.0000
# 5 0.0000 0.0000 0.0000 0.0000 34.7951 0.0000
# 6 0.0000 0.0000 0.0000 0.0000 0.0000 -23.4153
#
#
#
# Elastic Compliance Matrix: (Units=1/GPa)
#
#
# Indices 1 2 3 4 5 6 
#
# 1 0.010208 -0.009958 -0.001084 0.000000 0.000000 0.000000
# 2 -0.009958 0.027605 -0.003060 0.000000 0.000000 0.000000
# 3 -0.001084 -0.003060 0.005609 0.000000 0.000000 0.000000
# 4 0.000000 0.000000 0.000000 0.041726 0.000000 0.000000
# 5 0.000000 0.000000 0.000000 0.000000 0.028740 0.000000
# 6 0.000000 0.000000 0.000000 0.000000 0.000000 -0.042707
#
#
# Mechanical properties :
#
#
# Convention : Reuss Voigt Hill
#
# Bulk Modulus (GPa) = 65.71212 94.66144 80.18678
# Shear Modulus (GPa) = 47.86653 24.94111 36.40382
#
# Velocity S-wave (km/s) = 4.83149 3.48757 4.21345
# Velocity P-wave (km/s) = 7.94798 7.89819 7.92313
#
# Compressibility (1/GPa) = 0.01521789
#
# Stress axis : x y z
#
# Youngs Moduli (GPa) = 97.96704 36.22549 178.26942
#
# Poissons Ratio (x) = 0.36075 0.19323
# Poissons Ratio (y) = 0.97559 0.54546
# Poissons Ratio (z) = 0.10619 0.11084
#
# Static dielectric constant tensor:
#      x y z
#    x 1.798570 0.000000 0.000000 
#    y 0.000000 0.075200 0.000000 
#    z 0.000000 0.000000 1.742640 
# 
# From -- ./inp_files/533.got.cif
#   From: 2010.05.17/outbox.cif.g08.bks.cpg/sg57_1_cif.got.tgz:533.got - 2010.06.03 13:58:18.
