data_PCOD9436691
_publ_section_title
;
Structure prediction by ZEFSAII (Michael W. Deem and Ramdas Pophale) SiO2 
 PCOD9436691
Probable space group: P B C M
;
_chemical_formula_sum "Si O2"
_cell_formula_units_Z 40
_cell_length_a 7.007978
_cell_length_b 13.287557
_cell_length_c 17.238342
_cell_angle_alpha 90.000000
_cell_angle_beta 90.000000
_cell_angle_gamma 90.000000
_cell_volume 1605.215568
_symmetry_space_group_name_H-M "P B C M"
_symmetry_group_IT_number 57
_symmetry_cell_setting 'orthorhombic'
loop_
_space_group_symop_operation_xyz
x,y,z
-x,-y,1/2+z
x,1/2-y,-z
-x,1/2+y,1/2-z
-x,-y,-z
x,y,1/2-z
-x,1/2+y,z
x,1/2-y,1/2+z
loop_
_atom_site_type_symbol
_atom_site_label
_atom_site_fract_x
_atom_site_fract_y
_atom_site_fract_z
Si Si1 0.780078 0.855132 0.040880
Si Si2 0.499726 0.728201 0.662761
Si Si3 0.937791 0.048462 0.661800
Si Si4 0.394360 0.057783 0.110251
Si Si5 0.773436 0.114782 0.340450
O O1 0.597363 0.832684 0.095034
O O2 0.950465 0.891460 0.096115
O O3 0.835902 0.750000 0.000000
O O4 0.708319 0.925728 0.971332
O O5 0.518728 0.689382 0.750000
O O6 0.613879 0.836133 0.657230
O O7 0.283469 0.768973 0.646322
O O8 0.981984 0.081673 0.750000
O O9 0.021375 0.933867 0.651107
O O10 0.713147 0.033369 0.651351
O O11 0.623985 0.051728 0.108112
O O12 0.723623 0.097749 0.250000
#
# Coordination Sequence:
#
# PCOD9436691 Si02
#       5
#     8   8   8   8   8
#     4  10  20  33  53  78 111 146 173 212 276 328
#     4   8  15  33  55  73 106 146 173 216 269 312
#     4  11  20  33  59  83  99 138 189 225 261 315
#     4   9  18  34  55  77 108 138 175 226 272 306
#     4   8  17  32  55  80 102 134 182 222 258 313
#
# _framework density 24.918771
#
# number of rings (size 3 to 8) (size 9 to 14) (size 15 to 20)
#    1.200    1.600    0.000    2.400    0.000    0.800 
#    0.000    0.000   22.000    0.000    0.000    0.000 
#    0.000    0.000    0.000    0.000    0.000    0.000 
#
# Total GULP energy -223182.609766 kJ/mol
# GULP energy per Si atom -5579.565244 kJ/mol
# Density = 2.486205 g / cm^3
# Si number density = 24.918771 Si / 1000 Ang^3
#
#
#
# Elastic Constant Matrix: (Units=GPa)
#
#
# Indices 1 2 3 4 5 6 
#
# 1 78.7050 -3.6546 29.6085 0.0000 0.0000 0.0000
# 2 -3.6546 48.8214 32.4334 0.0000 0.0000 0.0000
# 3 29.6085 32.4334 140.8330 0.0000 0.0000 0.0000
# 4 0.0000 0.0000 0.0000 43.5176 0.0000 0.0000
# 5 0.0000 0.0000 0.0000 0.0000 22.6187 0.0000
# 6 0.0000 0.0000 0.0000 0.0000 0.0000 32.1124
#
#
#
# Elastic Compliance Matrix: (Units=1/GPa)
#
#
# Indices 1 2 3 4 5 6 
#
# 1 0.014321 0.003627 -0.003846 0.000000 0.000000 0.000000
# 2 0.003627 0.025101 -0.006543 0.000000 0.000000 0.000000
# 3 -0.003846 -0.006543 0.009416 0.000000 0.000000 0.000000
# 4 0.000000 0.000000 0.000000 0.022979 0.000000 0.000000
# 5 0.000000 0.000000 0.000000 0.000000 0.044211 0.000000
# 6 0.000000 0.000000 0.000000 0.000000 0.000000 0.031141
#
#
# Mechanical properties :
#
#
# Convention : Reuss Voigt Hill
#
# Bulk Modulus (GPa) = 28.31763 42.79265 35.55514
# Shear Modulus (GPa) = 28.99137 33.64789 31.31963
#
# Velocity S-wave (km/s) = 3.41462 3.67863 3.54908
# Velocity P-wave (km/s) = 5.18987 5.93745 5.57620
#
# Compressibility (1/GPa) = 0.03531369
#
# Stress axis : x y z
#
# Youngs Moduli (GPa) = 69.82754 39.83875 106.20098
#
# Poissons Ratio (x) = -0.14450 0.40846
# Poissons Ratio (y) = -0.25327 0.69490
# Poissons Ratio (z) = 0.26857 0.26068
#
# Static dielectric constant tensor:
#      x y z
#    x 1.993020 0.000000 0.000000 
#    y 0.000000 2.086740 0.000000 
#    z 0.000000 0.000000 1.903860 
# 
# From -- ./inp_files/15905.got.cif
#   From: 2010.05.17/outbox.cif.g08.bks.cpg/sg57_8_cif.got.tgz:15905.got - 2010.06.03 13:58:18.
