data_PCOD9436993
_publ_section_title
;
Structure prediction by ZEFSAII (Michael W. Deem and Ramdas Pophale) SiO2 
 PCOD9436993
Probable space group: P B C M
;
_chemical_formula_sum "Si O2"
_cell_formula_units_Z 32
_cell_length_a 10.421401
_cell_length_b 19.601845
_cell_length_c 8.686101
_cell_angle_alpha 90.000000
_cell_angle_beta 90.000000
_cell_angle_gamma 90.000000
_cell_volume 1774.385308
_symmetry_space_group_name_H-M "P B C M"
_symmetry_group_IT_number 57
_symmetry_cell_setting 'orthorhombic'
loop_
_space_group_symop_operation_xyz
x,y,z
-x,-y,1/2+z
x,1/2-y,-z
-x,1/2+y,1/2-z
-x,-y,-z
x,y,1/2-z
-x,1/2+y,z
x,1/2-y,1/2+z
loop_
_atom_site_type_symbol
_atom_site_label
_atom_site_fract_x
_atom_site_fract_y
_atom_site_fract_z
Si Si1 0.010989 0.178101 0.566811
Si Si2 0.274097 0.824211 0.566046
Si Si3 0.872703 0.964792 0.066324
Si Si4 0.623646 0.038158 0.933604
O O1 0.057006 0.250000 0.500000
O O2 0.989547 0.183948 0.750000
O O3 0.106879 0.115740 0.539254
O O4 0.872863 0.163450 0.489399
O O5 0.310779 0.750000 0.500000
O O6 0.277564 0.823166 0.750000
O O7 0.358818 0.885877 0.501412
O O8 0.864657 0.976627 0.250000
O O9 0.749198 0.996126 0.985458
O O10 0.000000 0.000000 0.000000
O O11 0.617100 0.041802 0.750000
O O12 0.500000 0.000000 0.000000
#
# Coordination Sequence:
#
# PCOD9436993 Si02
#       4
#     8   8   8   8
#     4  10  20  34  56  87 121 155 197 246 299 354
#     4  11  21  36  60  88 120 156 199 246 299 358
#     4  11  22  37  60  89 120 156 199 247 300 356
#     4  12  25  42  62  88 122 160 205 252 306 363
#
# _framework density 18.034414999999999
#
# number of rings (size 3 to 8) (size 9 to 14) (size 15 to 20)
#    0.000    1.000    2.500    7.500    0.000    3.000 
#    0.000    1.250    0.000    3.000    0.000    0.000 
#    0.000    0.000    0.000    0.000    0.000    0.000 
#
# Total GULP energy -178918.629528 kJ/mol
# GULP energy per Si atom -5591.207173 kJ/mol
# Density = 1.799337 g / cm^3
# Si number density = 18.034415 Si / 1000 Ang^3
#
#
#
# Elastic Constant Matrix: (Units=GPa)
#
#
# Indices 1 2 3 4 5 6 
#
# 1 107.2342 72.2978 57.5206 0.0000 0.0000 0.0000
# 2 72.2978 163.2077 95.0850 0.0000 0.0000 0.0000
# 3 57.5206 95.0850 171.3664 0.0000 0.0000 0.0000
# 4 0.0000 0.0000 0.0000 37.5799 0.0000 0.0000
# 5 0.0000 0.0000 0.0000 0.0000 30.8178 0.0000
# 6 0.0000 0.0000 0.0000 0.0000 0.0000 26.6140
#
#
#
# Elastic Compliance Matrix: (Units=1/GPa)
#
#
# Indices 1 2 3 4 5 6 
#
# 1 0.013668 -0.004997 -0.001815 0.000000 0.000000 0.000000
# 2 -0.004997 0.010881 -0.004360 0.000000 0.000000 0.000000
# 3 -0.001815 -0.004360 0.008864 0.000000 0.000000 0.000000
# 4 0.000000 0.000000 0.000000 0.026610 0.000000 0.000000
# 5 0.000000 0.000000 0.000000 0.000000 0.032449 0.000000
# 6 0.000000 0.000000 0.000000 0.000000 0.000000 0.037574
#
#
# Mechanical properties :
#
#
# Convention : Reuss Voigt Hill
#
# Bulk Modulus (GPa) = 90.34803 99.06835 94.70819
# Shear Modulus (GPa) = 32.03473 33.46265 32.74869
#
# Velocity S-wave (km/s) = 4.21920 4.31221 4.26596
# Velocity P-wave (km/s) = 8.59895 8.93565 8.76891
#
# Compressibility (1/GPa) = 0.01106831
#
# Stress axis : x y z
#
# Youngs Moduli (GPa) = 73.16268 91.90251 112.81646
#
# Poissons Ratio (x) = 0.45927 0.20476
# Poissons Ratio (y) = 0.36562 0.49190
# Poissons Ratio (z) = 0.13279 0.40071
#
# Static dielectric constant tensor:
#      x y z
#    x 1.579320 0.000000 0.000000 
#    y 0.000000 1.637380 0.000000 
#    z 0.000000 0.000000 1.602470 
# 
# From -- ./inp_files/1249.got.cif
#   From: 2010.05.17/outbox.cif.g08.bks.cpg/sg57_1_cif.got.tgz:1249.got - 2010.06.03 13:58:18.
