data_PCOD9436108
_publ_section_title
;
Structure prediction by ZEFSAII (Michael W. Deem and Ramdas Pophale) SiO2 
 PCOD9436108
Probable space group: P B C M
;
_chemical_formula_sum "Si O2"
_cell_formula_units_Z 56
_cell_length_a 10.171777
_cell_length_b 17.937836
_cell_length_c 15.434705
_cell_angle_alpha 90.000000
_cell_angle_beta 90.000000
_cell_angle_gamma 90.000000
_cell_volume 2816.211145
_symmetry_space_group_name_H-M "P B C M"
_symmetry_group_IT_number 57
_symmetry_cell_setting 'orthorhombic'
loop_
_space_group_symop_operation_xyz
x,y,z
-x,-y,1/2+z
x,1/2-y,-z
-x,1/2+y,1/2-z
-x,-y,-z
x,y,1/2-z
-x,1/2+y,z
x,1/2-y,1/2+z
loop_
_atom_site_type_symbol
_atom_site_label
_atom_site_fract_x
_atom_site_fract_y
_atom_site_fract_z
Si Si1 0.781530 0.884204 0.964525
Si Si2 0.113548 0.122324 0.846281
Si Si3 0.637699 0.360591 0.345711
Si Si4 0.720882 0.186879 0.346863
Si Si5 0.992861 0.225903 0.405569
Si Si6 0.496207 0.838531 0.517202
Si Si7 0.866346 0.482351 0.152717
O O1 0.629688 0.870407 0.943577
O O2 0.875864 0.820450 0.925252
O O3 0.834689 0.959467 0.922015
O O4 0.796434 0.880929 0.068708
O O5 0.173948 0.119021 0.750000
O O6 0.032594 0.200016 0.854109
O O7 0.008175 0.055853 0.854938
O O8 0.577666 0.368590 0.250000
O O9 0.691983 0.275967 0.352459
O O10 0.539582 0.373314 0.424603
O O11 0.759499 0.416455 0.352094
O O12 0.686669 0.161896 0.250000
O O13 0.876341 0.179086 0.362580
O O14 0.627826 0.151514 0.419232
O O15 0.939303 0.250000 0.500000
O O16 0.515900 0.750000 0.500000
O O17 0.856108 0.516072 0.250000
#
# Coordination Sequence:
#
# PCOD9436108 Si02
#       7
#     8   8   8   8   8   8   8
#     4  11  24  37  57  90 127 154 179 233 309 353
#     4  10  20  37  61  85 114 153 201 241 276 338
#     4   9  18  35  62  84 105 150 206 242 272 332
#     4  10  19  34  59  86 111 146 197 246 281 328
#     4  10  19  34  60  88 113 148 195 242 284 336
#     4  10  21  37  56  85 119 149 186 237 292 344
#     4  10  21  38  59  83 112 154 200 240 287 342
#
# _framework density 19.884872999999999
#
# number of rings (size 3 to 8) (size 9 to 14) (size 15 to 20)
#    0.000    2.000    1.429    3.429    2.000    2.857 
#    0.000    2.857    0.000    0.000    0.000    0.000 
#    0.000    0.000    0.000    0.000    0.000    0.000 
#
# Total GULP energy -312627.344714 kJ/mol
# GULP energy per Si atom -5582.631156 kJ/mol
# Density = 1.983961 g / cm^3
# Si number density = 19.884873 Si / 1000 Ang^3
#
#
#
# Elastic Constant Matrix: (Units=GPa)
#
#
# Indices 1 2 3 4 5 6 
#
# 1 61.3629 -8.0290 23.7162 0.0000 0.0000 0.0000
# 2 -8.0290 13.1781 22.6408 0.0000 0.0000 0.0000
# 3 23.7162 22.6408 103.9029 0.0000 0.0000 0.0000
# 4 0.0000 0.0000 0.0000 18.7498 0.0000 0.0000
# 5 0.0000 0.0000 0.0000 0.0000 13.9334 0.0000
# 6 0.0000 0.0000 0.0000 0.0000 0.0000 12.7288
#
#
#
# Elastic Compliance Matrix: (Units=1/GPa)
#
#
# Indices 1 2 3 4 5 6 
#
# 1 0.028714 0.045961 -0.016569 0.000000 0.000000 0.000000
# 2 0.045961 0.194860 -0.052952 0.000000 0.000000 0.000000
# 3 -0.016569 -0.052952 0.024945 0.000000 0.000000 0.000000
# 4 0.000000 0.000000 0.000000 0.053334 0.000000 0.000000
# 5 0.000000 0.000000 0.000000 0.000000 0.071770 0.000000
# 6 0.000000 0.000000 0.000000 0.000000 0.000000 0.078562
#
#
# Mechanical properties :
#
#
# Convention : Reuss Voigt Hill
#
# Bulk Modulus (GPa) = 4.96525 28.34446 16.65485
# Shear Modulus (GPa) = 8.82712 18.42346 13.62529
#
# Velocity S-wave (km/s) = 2.10921 3.04716 2.62049
# Velocity P-wave (km/s) = 2.90415 5.16386 4.18924
#
# Compressibility (1/GPa) = 0.20139985
#
# Stress axis : x y z
#
# Youngs Moduli (GPa) = 34.82604 5.13190 40.08864
#
# Poissons Ratio (x) = -0.23587 0.66424
# Poissons Ratio (y) = -1.60066 2.12276
# Poissons Ratio (z) = 0.57704 0.27174
#
# Static dielectric constant tensor:
#      x y z
#    x 1.675580 0.000000 0.000000 
#    y 0.000000 1.688130 0.000000 
#    z 0.000000 0.000000 1.721130 
# 
# From -- ./inp_files/16713.got.cif
#   From: 2010.05.17/outbox.cif.g08.bks.cpg/sg57_9_cif.got.tgz:16713.got - 2010.06.03 13:58:18.
