data_PCOD9436712
_publ_section_title
;
Structure prediction by ZEFSAII (Michael W. Deem and Ramdas Pophale) SiO2 
 PCOD9436712
Probable space group: P B C M
;
_chemical_formula_sum "Si O2"
_cell_formula_units_Z 56
_cell_length_a 4.999723
_cell_length_b 18.828950
_cell_length_c 27.715732
_cell_angle_alpha 90.000000
_cell_angle_beta 90.000000
_cell_angle_gamma 90.000000
_cell_volume 2609.146106
_symmetry_space_group_name_H-M "P B C M"
_symmetry_group_IT_number 57
_symmetry_cell_setting 'orthorhombic'
loop_
_space_group_symop_operation_xyz
x,y,z
-x,-y,1/2+z
x,1/2-y,-z
-x,1/2+y,1/2-z
-x,-y,-z
x,y,1/2-z
-x,1/2+y,z
x,1/2-y,1/2+z
loop_
_atom_site_type_symbol
_atom_site_label
_atom_site_fract_x
_atom_site_fract_y
_atom_site_fract_z
Si Si1 0.644081 0.894457 0.694936
Si Si2 0.975371 0.983664 0.623839
Si Si3 0.410399 0.834475 0.152979
Si Si4 0.147425 0.799569 0.805426
Si Si5 0.793786 0.043741 0.033868
Si Si6 0.894315 0.908789 0.305831
Si Si7 0.619700 0.080986 0.560380
O O1 0.686382 0.920527 0.750000
O O2 0.342557 0.867542 0.690638
O O3 0.743461 0.949589 0.655537
O O4 0.846590 0.827287 0.688456
O O5 0.085167 0.928828 0.583980
O O6 0.171430 0.023080 0.660993
O O7 0.867205 0.046396 0.589261
O O8 0.270070 0.758707 0.159166
O O9 0.688283 0.846333 0.180817
O O10 0.465705 0.858394 0.097724
O O11 0.193336 0.885623 0.179370
O O12 0.173555 0.772111 0.750000
O O13 0.578930 0.985738 0.052323
O O14 0.682967 0.100334 0.995182
O O15 0.000000 0.000000 0.000000
O O16 0.877200 0.925771 0.250000
#
# Coordination Sequence:
#
# PCOD9436712 Si02
#       7
#     8   8   8   8   8   8   8
#     4  10  22  37  55  79 112 153 192 223 261 323
#     4  10  20  33  54  82 113 143 180 223 279 336
#     4  11  21  36  56  81 111 144 187 228 274 327
#     4  10  21  37  54  76 107 151 193 223 259 316
#     4   9  17  34  54  83 111 137 177 222 286 340
#     4  11  21  32  52  83 115 143 172 226 283 326
#     4   9  19  33  56  86 108 138 178 229 289 332
#
# _framework density 21.462959000000001
#
# number of rings (size 3 to 8) (size 9 to 14) (size 15 to 20)
#    0.000    2.000    1.429    2.571    2.000    1.143 
#    0.000    2.857    0.000    0.857    0.000    0.000 
#    0.000    0.000    0.000    0.000    0.000    0.000 
#
# Total GULP energy -312241.560325 kJ/mol
# GULP energy per Si atom -5575.742149 kJ/mol
# Density = 2.141411 g / cm^3
# Si number density = 21.462959 Si / 1000 Ang^3
#
#
#
# Elastic Constant Matrix: (Units=GPa)
#
#
# Indices 1 2 3 4 5 6 
#
# 1 59.6910 -12.8464 4.5066 0.0000 0.0000 0.0000
# 2 -12.8464 30.6416 5.2300 0.0000 0.0000 0.0000
# 3 4.5066 5.2300 115.4560 0.0000 0.0000 0.0000
# 4 0.0000 0.0000 0.0000 22.4205 0.0000 0.0000
# 5 0.0000 0.0000 0.0000 0.0000 17.3248 0.0000
# 6 0.0000 0.0000 0.0000 0.0000 0.0000 22.5859
#
#
#
# Elastic Compliance Matrix: (Units=1/GPa)
#
#
# Indices 1 2 3 4 5 6 
#
# 1 0.018548 0.007961 -0.001085 0.000000 0.000000 0.000000
# 2 0.007961 0.036307 -0.001955 0.000000 0.000000 0.000000
# 3 -0.001085 -0.001955 0.008792 0.000000 0.000000 0.000000
# 4 0.000000 0.000000 0.000000 0.044602 0.000000 0.000000
# 5 0.000000 0.000000 0.000000 0.000000 0.057721 0.000000
# 6 0.000000 0.000000 0.000000 0.000000 0.000000 0.044275
#
#
# Mechanical properties :
#
#
# Convention : Reuss Voigt Hill
#
# Bulk Modulus (GPa) = 13.60726 22.17434 17.89080
# Shear Modulus (GPa) = 22.23213 26.39278 24.31246
#
# Velocity S-wave (km/s) = 3.22193 3.51050 3.36931
# Velocity P-wave (km/s) = 4.49386 5.17545 4.84665
#
# Compressibility (1/GPa) = 0.07349018
#
# Stress axis : x y z
#
# Youngs Moduli (GPa) = 53.91338 27.54296 113.73691
#
# Poissons Ratio (x) = -0.21928 0.12336
# Poissons Ratio (y) = -0.42923 0.22240
# Poissons Ratio (z) = 0.05848 0.05386
#
# Static dielectric constant tensor:
#      x y z
#    x 1.862350 0.000000 0.000000 
#    y 0.000000 1.846460 0.000000 
#    z 0.000000 0.000000 1.858640 
# 
# From -- ./inp_files/28112.got.cif
#   From: 2010.05.17/outbox.cif.g08.bks.cpg/sg57_15_cif.got.tgz:28112.got - 2010.06.03 13:58:18.
