data_PCOD9436985
_publ_section_title
;
Structure prediction by ZEFSAII (Michael W. Deem and Ramdas Pophale) SiO2 
 PCOD9436985
Probable space group: P B C M
;
_chemical_formula_sum "Si O2"
_cell_formula_units_Z 56
_cell_length_a 21.981387
_cell_length_b 14.476988
_cell_length_c 8.889819
_cell_angle_alpha 90.000000
_cell_angle_beta 90.000000
_cell_angle_gamma 90.000000
_cell_volume 2828.956213
_symmetry_space_group_name_H-M "P B C M"
_symmetry_group_IT_number 57
_symmetry_cell_setting 'orthorhombic'
loop_
_space_group_symop_operation_xyz
x,y,z
-x,-y,1/2+z
x,1/2-y,-z
-x,1/2+y,1/2-z
-x,-y,-z
x,y,1/2-z
-x,1/2+y,z
x,1/2-y,1/2+z
loop_
_atom_site_type_symbol
_atom_site_label
_atom_site_fract_x
_atom_site_fract_y
_atom_site_fract_z
Si Si1 0.585314 0.549802 0.929755
Si Si2 0.831805 0.850214 0.931310
Si Si3 0.065838 0.486248 0.570954
Si Si4 0.872724 0.342623 0.920897
Si Si5 0.530889 0.149223 0.430385
Si Si6 0.273868 0.843191 0.921457
Si Si7 0.710602 0.961444 0.570675
O O1 0.580644 0.558639 0.750000
O O2 0.573393 0.440433 0.966836
O O3 0.534022 0.612793 0.007290
O O4 0.651427 0.578336 0.988652
O O5 0.832007 0.845768 0.750000
O O6 0.895217 0.897416 0.979500
O O7 0.773665 0.912557 0.974994
O O8 0.825297 0.750000 0.000000
O O9 0.060108 0.483419 0.750000
O O10 0.106885 0.572111 0.520502
O O11 0.000000 0.500000 0.500000
O O12 0.895541 0.351789 0.750000
O O13 0.799624 0.337139 0.913869
O O14 0.895634 0.250000 0.000000
O O15 0.545853 0.250000 0.500000
O O16 0.529330 0.158397 0.250000
O O17 0.296966 0.852778 0.750000
O O18 0.296649 0.750000 0.000000
O O19 0.286794 0.932405 0.020067
O O20 0.704150 0.954107 0.750000
#
# Coordination Sequence:
#
# PCOD9436985 Si02
#       7
#     8   8   8   8   8   8   8
#     4  10  22  39  60  90 124 161 207 254 302 361
#     4  10  24  43  64  88 119 158 202 250 302 358
#     4  11  23  41  62  88 120 155 200 251 305 364
#     4  10  20  35  58  86 114 149 189 236 294 355
#     4  10  21  39  63  89 121 161 205 253 307 359
#     4  10  20  34  56  85 116 152 193 239 296 360
#     4  11  22  39  61  88 124 162 202 252 306 362
#
# _framework density 19.795286000000001
#
# number of rings (size 3 to 8) (size 9 to 14) (size 15 to 20)
#    0.000    1.714    1.429    2.571    0.000    6.857 
#    0.000    4.286    0.000    0.000    0.000    0.000 
#    0.000    0.000    0.000    0.000    0.000    0.000 
#
# Total GULP energy -312805.597817 kJ/mol
# GULP energy per Si atom -5585.814247 kJ/mol
# Density = 1.975023 g / cm^3
# Si number density = 19.795286 Si / 1000 Ang^3
#
#
#
# Elastic Constant Matrix: (Units=GPa)
#
#
# Indices 1 2 3 4 5 6 
#
# 1 103.2606 28.7647 34.8734 0.0000 0.0000 0.0000
# 2 28.7647 91.1076 19.0650 0.0000 0.0000 0.0000
# 3 34.8734 19.0650 56.6623 0.0000 0.0000 0.0000
# 4 0.0000 0.0000 0.0000 36.5089 0.0000 0.0000
# 5 0.0000 0.0000 0.0000 0.0000 23.7374 0.0000
# 6 0.0000 0.0000 0.0000 0.0000 0.0000 -8.3249
#
#
#
# Elastic Compliance Matrix: (Units=1/GPa)
#
#
# Indices 1 2 3 4 5 6 
#
# 1 0.012760 -0.002566 -0.006990 0.000000 0.000000 0.000000
# 2 -0.002566 0.012323 -0.002567 0.000000 0.000000 0.000000
# 3 -0.006990 -0.002567 0.022814 0.000000 0.000000 0.000000
# 4 0.000000 0.000000 0.000000 0.027391 0.000000 0.000000
# 5 0.000000 0.000000 0.000000 0.000000 0.042128 0.000000
# 6 0.000000 0.000000 0.000000 0.000000 0.000000 -0.120122
#
#
# Mechanical properties :
#
#
# Convention : Reuss Voigt Hill
#
# Bulk Modulus (GPa) = 42.28064 46.27074 44.27569
# Shear Modulus (GPa) = 169.93866 21.60613 95.77239
#
# Velocity S-wave (km/s) = 9.27547 3.30734 6.96322
# Velocity P-wave (km/s) = 11.66696 6.16523 9.33081
#
# Compressibility (1/GPa) = 0.02365148
#
# Stress axis : x y z
#
# Youngs Moduli (GPa) = 78.37261 81.14688 43.83262
#
# Poissons Ratio (x) = 0.20821 0.30638
# Poissons Ratio (y) = 0.20109 0.11253
# Poissons Ratio (z) = 0.54780 0.20832
#
# Static dielectric constant tensor:
#      x y z
#    x 1.714680 0.000000 0.000000 
#    y 0.000000 1.677480 0.000000 
#    z 0.000000 0.000000 1.666450 
# 
# From -- ./inp_files/8170.got.cif
#   From: 2010.05.17/outbox.cif.g08.bks.cpg/sg57_5_cif.got.tgz:8170.got - 2010.06.03 13:58:18.
