data_PCOD9436012
_publ_section_title
;
Structure prediction by ZEFSAII (Michael W. Deem and Ramdas Pophale) SiO2 
 PCOD9436012
Probable space group: P B C M
;
_chemical_formula_sum "Si O2"
_cell_formula_units_Z 48
_cell_length_a 9.138851
_cell_length_b 31.951398
_cell_length_c 8.941486
_cell_angle_alpha 90.000000
_cell_angle_beta 90.000000
_cell_angle_gamma 90.000000
_cell_volume 2610.905557
_symmetry_space_group_name_H-M "P B C M"
_symmetry_group_IT_number 57
_symmetry_cell_setting 'orthorhombic'
loop_
_space_group_symop_operation_xyz
x,y,z
-x,-y,1/2+z
x,1/2-y,-z
-x,1/2+y,1/2-z
-x,-y,-z
x,y,1/2-z
-x,1/2+y,z
x,1/2-y,1/2+z
loop_
_atom_site_type_symbol
_atom_site_label
_atom_site_fract_x
_atom_site_fract_y
_atom_site_fract_z
Si Si1 0.072444 0.119104 0.070618
Si Si2 0.574588 0.707613 0.578891
Si Si3 0.931261 0.793212 0.423715
Si Si4 0.914346 0.039320 0.929903
Si Si5 0.592780 0.037685 0.430600
Si Si6 0.582544 0.621856 0.427639
O O1 0.053483 0.116133 0.250000
O O2 0.246034 0.114897 0.035927
O O3 0.025038 0.164877 0.011968
O O4 0.988557 0.082024 0.987783
O O5 0.523981 0.750000 0.500000
O O6 0.529867 0.708294 0.750000
O O7 0.528482 0.664293 0.503987
O O8 0.752896 0.707687 0.572248
O O9 0.981351 0.750000 0.500000
O O10 0.974778 0.795239 0.250000
O O11 0.915948 0.037103 0.750000
O O12 0.750930 0.037768 0.994231
O O13 0.000000 0.000000 0.000000
O O14 0.603011 0.033704 0.250000
O O15 0.510574 0.081152 0.465809
O O16 0.500000 0.000000 0.500000
O O17 0.575583 0.628168 0.250000
#
# Coordination Sequence:
#
# PCOD9436012 Si02
#       6
#     8   8   8   8   8   8
#     4  10  19  34  56  83 113 146 184 229 278 330
#     4   9  16  26  45  73 107 143 181 223 267 314
#     4   9  16  27  45  74 109 146 185 227 272 320
#     4  12  25  41  60  83 111 145 185 230 279 335
#     4  11  23  40  61  85 113 146 183 227 277 332
#     4   9  19  34  54  80 111 144 181 224 272 323
#
# _framework density 18.384426999999999
#
# number of rings (size 3 to 8) (size 9 to 14) (size 15 to 20)
#    0.000    2.000    0.000    4.500    0.000    7.333 
#    0.000    0.000    0.000    1.000    0.000    2.333 
#    0.000    0.000    0.000    0.000    0.000    0.000 
#
# Total GULP energy -268027.149556 kJ/mol
# GULP energy per Si atom -5583.898949 kJ/mol
# Density = 1.834258 g / cm^3
# Si number density = 18.384427 Si / 1000 Ang^3
#
#
#
# Elastic Constant Matrix: (Units=GPa)
#
#
# Indices 1 2 3 4 5 6 
#
# 1 75.3987 83.2315 64.5366 0.0000 0.0000 0.0000
# 2 83.2315 215.7702 110.3856 0.0000 0.0000 0.0000
# 3 64.5366 110.3856 120.7227 0.0000 0.0000 0.0000
# 4 0.0000 0.0000 0.0000 42.8869 0.0000 0.0000
# 5 0.0000 0.0000 0.0000 0.0000 22.2584 0.0000
# 6 0.0000 0.0000 0.0000 0.0000 0.0000 19.9410
#
#
#
# Elastic Compliance Matrix: (Units=1/GPa)
#
#
# Indices 1 2 3 4 5 6 
#
# 1 0.027941 -0.005893 -0.009548 0.000000 0.000000 0.000000
# 2 -0.005893 0.009951 -0.005949 0.000000 0.000000 0.000000
# 3 -0.009548 -0.005949 0.018827 0.000000 0.000000 0.000000
# 4 0.000000 0.000000 0.000000 0.023317 0.000000 0.000000
# 5 0.000000 0.000000 0.000000 0.000000 0.044927 0.000000
# 6 0.000000 0.000000 0.000000 0.000000 0.000000 0.050148
#
#
# Mechanical properties :
#
#
# Convention : Reuss Voigt Hill
#
# Bulk Modulus (GPa) = 71.74118 103.13323 87.43721
# Shear Modulus (GPa) = 22.46818 27.26646 24.86732
#
# Velocity S-wave (km/s) = 3.49969 3.85532 3.68180
# Velocity P-wave (km/s) = 7.44567 8.71997 8.10789
#
# Compressibility (1/GPa) = 0.01393900
#
# Stress axis : x y z
#
# Youngs Moduli (GPa) = 35.78978 100.49237 53.11540
#
# Poissons Ratio (x) = 0.59222 0.50716
# Poissons Ratio (y) = 0.21092 0.31596
# Poissons Ratio (z) = 0.34173 0.59778
#
# Static dielectric constant tensor:
#      x y z
#    x 1.630820 0.000000 0.000000 
#    y 0.000000 1.623210 0.000000 
#    z 0.000000 0.000000 1.611520 
# 
# From -- ./inp_files/2000.got.cif
#   From: 2010.05.17/outbox.cif.g08.bks.cpg/sg57_1_cif.got.tgz:2000.got - 2010.06.03 13:58:18.
