data_PCOD9436994
_publ_section_title
;
Structure prediction by ZEFSAII (Michael W. Deem and Ramdas Pophale) SiO2 
 PCOD9436994
Probable space group: P B C M
;
_chemical_formula_sum "Si O2"
_cell_formula_units_Z 40
_cell_length_a 12.109982
_cell_length_b 5.505118
_cell_length_c 26.053779
_cell_angle_alpha 90.000000
_cell_angle_beta 90.000000
_cell_angle_gamma 90.000000
_cell_volume 1736.924155
_symmetry_space_group_name_H-M "P B C M"
_symmetry_group_IT_number 57
_symmetry_cell_setting 'orthorhombic'
loop_
_space_group_symop_operation_xyz
x,y,z
-x,-y,1/2+z
x,1/2-y,-z
-x,1/2+y,1/2-z
-x,-y,-z
x,y,1/2-z
-x,1/2+y,z
x,1/2-y,1/2+z
loop_
_atom_site_type_symbol
_atom_site_label
_atom_site_fract_x
_atom_site_fract_y
_atom_site_fract_z
Si Si1 0.259248 0.250000 0.911543
Si Si2 0.744185 0.250000 0.346056
Si Si3 0.063912 0.250000 0.250000
Si Si4 0.425647 0.750000 0.250000
Si Si5 0.994403 0.250000 0.146712
Si Si6 0.565145 0.750000 0.000000
Si Si7 0.927659 0.750000 0.500000
O O1 0.266216 0.501295 0.879039
O O2 0.154366 0.250000 0.950292
O O3 0.266216 0.998704 0.879039
O O4 0.362180 0.250000 0.949209
O O5 0.656164 0.250000 0.299567
O O6 0.872391 0.250000 0.327905
O O7 1.000000 0.500000 0.250000
O O8 0.093451 0.250000 0.189310
O O9 0.500000 0.500000 0.250000
O O10 0.000000 0.500000 0.117631
O O11 0.500000 0.500000 0.000000
O O12 0.000000 0.500000 0.500000
#
# Coordination Sequence:
#
# PCOD9436994 Si02
#       7
#     8   8   4   4   8   4   4
#     4  11  26  43  68 106 137 175 232 285 346 426
#     4  12  25  44  68  99 141 182 232 291 343 415
#     4   8  15  28  45  68 102 144 193 242 279 324
#     4  12  29  50  71  98 136 190 249 302 365 428
#     4  10  20  34  56  87 122 163 208 253 312 379
#     4  11  24  45  72  98 126 161 212 287 364 418
#     4  11  24  45  72 106 152 195 230 279 348 436
#
# _framework density 23.029216999999999
#
# number of rings (size 3 to 8) (size 9 to 14) (size 15 to 20)
#    0.000    1.200    0.000    5.400    0.000   12.800 
#    0.000    6.000    0.000    0.000    0.000    1.400 
#    0.000    0.000    0.000    0.000    0.000    0.000 
#
# Total GULP energy -222712.742457 kJ/mol
# GULP energy per Si atom -5567.818561 kJ/mol
# Density = 2.297680 g / cm^3
# Si number density = 23.029217 Si / 1000 Ang^3
#
#
#
# Elastic Constant Matrix: (Units=GPa)
#
#
# Indices 1 2 3 4 5 6 
#
# 1 155.8703 93.7566 81.6393 0.0000 0.0000 0.0000
# 2 93.7566 320.6628 112.1701 0.0000 0.0000 0.0000
# 3 81.6393 112.1701 177.7524 0.0000 0.0000 0.0000
# 4 0.0000 0.0000 0.0000 54.1238 0.0000 0.0000
# 5 0.0000 0.0000 0.0000 0.0000 43.8717 0.0000
# 6 0.0000 0.0000 0.0000 0.0000 0.0000 42.9675
#
#
#
# Elastic Compliance Matrix: (Units=1/GPa)
#
#
# Indices 1 2 3 4 5 6 
#
# 1 0.008990 -0.001520 -0.003170 0.000000 0.000000 0.000000
# 2 -0.001520 0.004259 -0.001990 0.000000 0.000000 0.000000
# 3 -0.003170 -0.001990 0.008337 0.000000 0.000000 0.000000
# 4 0.000000 0.000000 0.000000 0.018476 0.000000 0.000000
# 5 0.000000 0.000000 0.000000 0.000000 0.022794 0.000000
# 6 0.000000 0.000000 0.000000 0.000000 0.000000 0.023273
#
#
# Mechanical properties :
#
#
# Convention : Reuss Voigt Hill
#
# Bulk Modulus (GPa) = 121.54169 136.60194 129.07182
# Shear Modulus (GPa) = 48.90914 52.64059 50.77486
#
# Velocity S-wave (km/s) = 4.61346 4.78621 4.70063
# Velocity P-wave (km/s) = 9.01501 9.48627 9.25364
#
# Compressibility (1/GPa) = 0.00822763
#
# Stress axis : x y z
#
# Youngs Moduli (GPa) = 111.23463 234.80683 119.94341
#
# Poissons Ratio (x) = 0.35682 0.38022
# Poissons Ratio (y) = 0.16904 0.23864
# Poissons Ratio (z) = 0.35262 0.46716
#
# Static dielectric constant tensor:
#      x y z
#    x 1.917920 0.000000 0.000000 
#    y 0.000000 1.857280 0.000000 
#    z 0.000000 0.000000 1.991370 
# 
# From -- ./inp_files/28483.got.cif
#   From: 2010.05.17/outbox.cif.g08.bks.cpg/sg57_15_cif.got.tgz:28483.got - 2010.06.03 13:58:18.
