data_PCOD9436956
_publ_section_title
;
Structure prediction by ZEFSAII (Michael W. Deem and Ramdas Pophale) SiO2 
 PCOD9436956
Probable space group: P B C M
;
_chemical_formula_sum "Si O2"
_cell_formula_units_Z 64
_cell_length_a 11.984053
_cell_length_b 31.965135
_cell_length_c 9.057073
_cell_angle_alpha 90.000000
_cell_angle_beta 90.000000
_cell_angle_gamma 90.000000
_cell_volume 3469.509909
_symmetry_space_group_name_H-M "P B C M"
_symmetry_group_IT_number 57
_symmetry_cell_setting 'orthorhombic'
loop_
_space_group_symop_operation_xyz
x,y,z
-x,-y,1/2+z
x,1/2-y,-z
-x,1/2+y,1/2-z
-x,-y,-z
x,y,1/2-z
-x,1/2+y,z
x,1/2-y,1/2+z
loop_
_atom_site_type_symbol
_atom_site_label
_atom_site_fract_x
_atom_site_fract_y
_atom_site_fract_z
Si Si1 0.880193 0.498626 0.922489
Si Si2 0.137756 0.077233 0.415022
Si Si3 0.947761 0.793830 0.074933
Si Si4 0.503488 0.546311 0.924511
Si Si5 0.636466 0.621239 0.079494
Si Si6 0.919242 0.368315 0.923144
Si Si7 0.749975 0.424441 0.422559
Si Si8 0.680779 0.705505 0.925554
O O1 0.889015 0.490719 0.750000
O O2 0.832980 0.544229 0.959620
O O3 0.805555 0.464222 0.999801
O O4 0.000000 0.500000 0.000000
O O5 0.144692 0.057684 0.250000
O O6 0.230323 0.112985 0.418507
O O7 0.014221 0.095477 0.434608
O O8 0.965247 0.792551 0.250000
O O9 0.814674 0.800163 0.050610
O O10 0.976533 0.750000 0.000000
O O11 0.023494 0.829471 0.003378
O O12 0.530794 0.541316 0.750000
O O13 0.381593 0.567954 0.935015
O O14 0.500000 0.500000 0.000000
O O15 0.583378 0.580129 0.003758
O O16 0.598941 0.623854 0.250000
O O17 0.620053 0.665107 0.995496
O O18 0.902492 0.360119 0.750000
O O19 0.806364 0.384759 0.998200
O O20 0.779983 0.423281 0.250000
O O21 0.661682 0.707292 0.750000
O O22 0.650566 0.750000 0.000000
#
# Coordination Sequence:
#
# PCOD9436956 Si02
#       8
#     8   8   8   8   8   8   8   8
#     4  12  23  34  52  77 109 146 186 231 281 337
#     4  10  21  35  52  80 115 149 188 233 283 338
#     4  10  20  34  55  84 122 161 197 236 288 350
#     4  11  25  44  64  87 116 154 203 255 303 357
#     4  11  22  38  61  86 118 156 196 244 296 352
#     4  11  21  35  57  84 117 151 190 235 286 347
#     4  11  24  41  59  81 113 150 193 241 289 341
#     4  10  20  34  56  87 123 159 197 242 295 354
#
# _framework density 18.446408000000002
#
# number of rings (size 3 to 8) (size 9 to 14) (size 15 to 20)
#    0.000    1.250    2.500    4.125    0.000    7.500 
#    0.000    0.000    0.000    0.750    0.000    0.000 
#    0.000    0.000    0.000    0.000    0.000    0.000 
#
# Total GULP energy -357356.631536 kJ/mol
# GULP energy per Si atom -5583.697368 kJ/mol
# Density = 1.840442 g / cm^3
# Si number density = 18.446408 Si / 1000 Ang^3
#
#
#
# Elastic Constant Matrix: (Units=GPa)
#
#
# Indices 1 2 3 4 5 6 
#
# 1 43.3329 22.2448 41.9634 0.0000 0.0000 0.0000
# 2 22.2448 128.9191 77.5167 0.0000 0.0000 0.0000
# 3 41.9634 77.5167 137.2956 0.0000 0.0000 0.0000
# 4 0.0000 0.0000 0.0000 38.4276 0.0000 0.0000
# 5 0.0000 0.0000 0.0000 0.0000 22.9722 0.0000
# 6 0.0000 0.0000 0.0000 0.0000 0.0000 29.9060
#
#
#
# Elastic Compliance Matrix: (Units=1/GPa)
#
#
# Indices 1 2 3 4 5 6 
#
# 1 0.032806 0.000558 -0.010342 0.000000 0.000000 0.000000
# 2 0.000558 0.011753 -0.006806 0.000000 0.000000 0.000000
# 3 -0.010342 -0.006806 0.014287 0.000000 0.000000 0.000000
# 4 0.000000 0.000000 0.000000 0.026023 0.000000 0.000000
# 5 0.000000 0.000000 0.000000 0.000000 0.043531 0.000000
# 6 0.000000 0.000000 0.000000 0.000000 0.000000 0.033438
#
#
# Mechanical properties :
#
#
# Convention : Reuss Voigt Hill
#
# Bulk Modulus (GPa) = 38.96273 65.88861 52.42567
# Shear Modulus (GPa) = 24.56116 29.44933 27.00524
#
# Velocity S-wave (km/s) = 3.65291 3.99993 3.83036
# Velocity P-wave (km/s) = 6.24177 7.55838 6.93141
#
# Compressibility (1/GPa) = 0.02566555
#
# Stress axis : x y z
#
# Youngs Moduli (GPa) = 30.48247 85.08471 69.99295
#
# Poissons Ratio (x) = -0.04745 0.72385
# Poissons Ratio (y) = -0.01700 0.47638
# Poissons Ratio (z) = 0.31524 0.57910
#
# Static dielectric constant tensor:
#      x y z
#    x 2.045140 0.000000 0.000000 
#    y 0.000000 1.658710 0.000000 
#    z 0.000000 0.000000 1.618120 
# 
# From -- ./inp_files/3834.got.cif
#   From: 2010.05.17/outbox.cif.g08.bks.cpg/sg57_2_cif.got.tgz:3834.got - 2010.06.03 13:58:18.
