data_PCOD9436204
_publ_section_title
;
Structure prediction by ZEFSAII (Michael W. Deem and Ramdas Pophale) SiO2 
 PCOD9436204
Probable space group: P B C M
;
_chemical_formula_sum "Si O2"
_cell_formula_units_Z 64
_cell_length_a 24.884219
_cell_length_b 15.061765
_cell_length_c 8.593151
_cell_angle_alpha 90.000000
_cell_angle_beta 90.000000
_cell_angle_gamma 90.000000
_cell_volume 3220.715219
_symmetry_space_group_name_H-M "P B C M"
_symmetry_group_IT_number 57
_symmetry_cell_setting 'orthorhombic'
loop_
_space_group_symop_operation_xyz
x,y,z
-x,-y,1/2+z
x,1/2-y,-z
-x,1/2+y,1/2-z
-x,-y,-z
x,y,1/2-z
-x,1/2+y,z
x,1/2-y,1/2+z
loop_
_atom_site_type_symbol
_atom_site_label
_atom_site_fract_x
_atom_site_fract_y
_atom_site_fract_z
Si Si1 0.614560 0.158382 0.934424
Si Si2 0.241917 0.042482 0.563613
Si Si3 0.869734 0.967979 0.563952
Si Si4 0.650789 0.850417 0.061064
Si Si5 0.035910 0.347608 0.063485
Si Si6 0.559387 0.514744 0.934646
Si Si7 0.088536 0.846613 0.437072
Si Si8 0.265165 0.660396 0.062599
O O1 0.606994 0.152621 0.750000
O O2 0.590439 0.250000 0.000000
O O3 0.677171 0.160420 0.978170
O O4 0.590850 0.074021 0.020419
O O5 0.240673 0.049734 0.750000
O O6 0.295748 0.094281 0.511118
O O7 0.185411 0.074987 0.496182
O O8 0.243804 0.937524 0.524882
O O9 0.868974 0.968407 0.750000
O O10 0.876528 0.070063 0.508099
O O11 0.921922 0.915980 0.506174
O O12 0.650833 0.849390 0.250000
O O13 0.596897 0.903347 0.009321
O O14 0.652177 0.750000 0.000000
O O15 0.039077 0.348888 0.250000
O O16 0.973793 0.365105 0.018528
O O17 0.049092 0.250000 0.000000
O O18 0.555192 0.523856 0.750000
O O19 0.500000 0.500000 0.000000
O O20 0.103359 0.750000 0.500000
O O21 0.090948 0.842933 0.250000
O O22 0.271046 0.666938 0.250000
O O23 0.236693 0.750000 0.000000
#
# Coordination Sequence:
#
# PCOD9436204 Si02
#       8
#     8   8   8   8   8   8   8   8
#     4  11  21  35  59  89 119 154 193 238 292 352
#     4  10  22  41  60  82 118 162 200 247 301 353
#     4  11  23  37  56  87 121 154 198 252 299 357
#     4  10  23  44  67  89 120 158 202 249 297 351
#     4  10  20  37  60  84 113 153 197 247 303 362
#     4  11  23  42  64  92 127 160 198 249 300 358
#     4   9  20  37  58  85 118 155 198 244 300 361
#     4  10  19  35  58  84 115 150 190 238 292 352
#
# _framework density 19.871362999999999
#
# number of rings (size 3 to 8) (size 9 to 14) (size 15 to 20)
#    0.000    1.750    1.250    3.750    0.000    5.500 
#    0.000    5.000    0.000    0.000    0.000    0.000 
#    0.000    0.000    0.000    0.000    0.000    0.000 
#
# Total GULP energy -357297.377279 kJ/mol
# GULP energy per Si atom -5582.771520 kJ/mol
# Density = 1.982614 g / cm^3
# Si number density = 19.871363 Si / 1000 Ang^3
#
#
#
# Elastic Constant Matrix: (Units=GPa)
#
#
# Indices 1 2 3 4 5 6 
#
# 1 123.7398 65.3796 25.3512 0.0000 0.0000 0.0000
# 2 65.3796 126.0923 18.6021 0.0000 0.0000 0.0000
# 3 25.3512 18.6021 15.9206 0.0000 0.0000 0.0000
# 4 0.0000 0.0000 0.0000 35.6749 0.0000 0.0000
# 5 0.0000 0.0000 0.0000 0.0000 14.3860 0.0000
# 6 0.0000 0.0000 0.0000 0.0000 0.0000 2.7169
#
#
#
# Elastic Compliance Matrix: (Units=1/GPa)
#
#
# Indices 1 2 3 4 5 6 
#
# 1 0.014061 -0.004818 -0.016760 0.000000 0.000000 0.000000
# 2 -0.004818 0.011233 -0.005453 0.000000 0.000000 0.000000
# 3 -0.016760 -0.005453 0.095872 0.000000 0.000000 0.000000
# 4 0.000000 0.000000 0.000000 0.028031 0.000000 0.000000
# 5 0.000000 0.000000 0.000000 0.000000 0.069512 0.000000
# 6 0.000000 0.000000 0.000000 0.000000 0.000000 0.368064
#
#
# Mechanical properties :
#
#
# Convention : Reuss Voigt Hill
#
# Bulk Modulus (GPa) = 14.90256 53.82427 34.36342
# Shear Modulus (GPa) = 7.53915 20.98355 14.26135
#
# Velocity S-wave (km/s) = 1.94993 3.25309 2.68187
# Velocity P-wave (km/s) = 3.54759 6.42303 5.18848
#
# Compressibility (1/GPa) = 0.06710257
#
# Stress axis : x y z
#
# Youngs Moduli (GPa) = 71.11899 89.02013 10.43060
#
# Poissons Ratio (x) = 0.42891 0.17482
# Poissons Ratio (y) = 0.34266 0.05688
# Poissons Ratio (z) = 1.19198 0.48546
#
# Static dielectric constant tensor:
#      x y z
#    x 1.568380 0.000000 0.000000 
#    y 0.000000 1.712000 0.000000 
#    z 0.000000 0.000000 1.677910 
# 
# From -- ./inp_files/9288.got.cif
#   From: 2010.05.17/outbox.cif.g08.bks.cpg/sg57_5_cif.got.tgz:9288.got - 2010.06.03 13:58:18.
