data_PCOD9436903
_publ_section_title
;
Structure prediction by ZEFSAII (Michael W. Deem and Ramdas Pophale) SiO2 
 PCOD9436903
Probable space group: P B C M
;
_chemical_formula_sum "Si O2"
_cell_formula_units_Z 64
_cell_length_a 12.293252
_cell_length_b 28.627778
_cell_length_c 10.245325
_cell_angle_alpha 90.000000
_cell_angle_beta 90.000000
_cell_angle_gamma 90.000000
_cell_volume 3605.621748
_symmetry_space_group_name_H-M "P B C M"
_symmetry_group_IT_number 57
_symmetry_cell_setting 'orthorhombic'
loop_
_space_group_symop_operation_xyz
x,y,z
-x,-y,1/2+z
x,1/2-y,-z
-x,1/2+y,1/2-z
-x,-y,-z
x,y,1/2-z
-x,1/2+y,z
x,1/2-y,1/2+z
loop_
_atom_site_type_symbol
_atom_site_label
_atom_site_fract_x
_atom_site_fract_y
_atom_site_fract_z
Si Si1 0.260004 0.792388 0.101431
Si Si2 0.196472 0.555114 0.904500
Si Si3 0.979976 0.195227 0.966444
Si Si4 0.353889 0.385904 0.093750
Si Si5 0.779439 0.708122 0.896557
Si Si6 0.969573 0.102112 0.103804
Si Si7 0.396106 0.882356 0.092672
Si Si8 0.793285 0.944195 0.900235
O O1 0.288677 0.778560 0.250000
O O2 0.135458 0.811017 0.104455
O O3 0.338054 0.833994 0.054742
O O4 0.265495 0.750000 0.000000
O O5 0.178186 0.565313 0.750000
O O6 0.314325 0.575912 0.942452
O O7 0.193564 0.499512 0.921069
O O8 0.107389 0.579990 0.994315
O O9 0.096896 0.188077 0.899832
O O10 0.981134 0.250000 0.000000
O O11 0.976223 0.157897 0.082986
O O12 0.346826 0.396060 0.250000
O O13 0.301944 0.334444 0.075357
O O14 0.479681 0.386636 0.050457
O O15 0.285752 0.421588 0.006231
O O16 0.758711 0.725812 0.750000
O O17 0.770354 0.750000 0.000000
O O18 0.929939 0.091575 0.250000
O O19 0.089436 0.080492 0.089310
O O20 0.399755 0.881312 0.250000
O O21 0.754851 0.937167 0.750000
#
# Coordination Sequence:
#
# PCOD9436903 Si02
#       8
#     8   8   8   8   8   8   8   8
#     4  10  20  35  56  81 112 149 186 229 280 338
#     4  10  21  39  61  84 114 153 190 231 289 351
#     4  10  20  34  54  82 112 150 177 221 275 342
#     4  10  21  38  59  82 111 150 196 237 279 334
#     4  10  21  35  55  83 112 148 188 229 279 339
#     4  11  22  37  59  88 119 148 182 235 286 335
#     4   9  19  37  58  81 111 150 191 234 282 333
#     4  10  22  39  59  85 116 149 188 237 293 340
#
# _framework density 17.750060999999999
#
# number of rings (size 3 to 8) (size 9 to 14) (size 15 to 20)
#    0.000    2.000    2.500    0.750    0.000    7.000 
#    0.000    1.250    0.000    0.000    0.000    0.000 
#    0.000    0.000    0.000    0.000    0.000    0.000 
#
# Total GULP energy -356744.910148 kJ/mol
# GULP energy per Si atom -5574.139221 kJ/mol
# Density = 1.770966 g / cm^3
# Si number density = 17.750061 Si / 1000 Ang^3
#
#
#
# Elastic Constant Matrix: (Units=GPa)
#
#
# Indices 1 2 3 4 5 6 
#
# 1 108.2443 51.3670 47.0969 0.0000 0.0000 0.0000
# 2 51.3670 103.5788 62.6417 0.0000 0.0000 0.0000
# 3 47.0969 62.6417 87.6003 0.0000 0.0000 0.0000
# 4 0.0000 0.0000 0.0000 30.3857 0.0000 0.0000
# 5 0.0000 0.0000 0.0000 0.0000 21.6932 0.0000
# 6 0.0000 0.0000 0.0000 0.0000 0.0000 16.5635
#
#
#
# Elastic Compliance Matrix: (Units=1/GPa)
#
#
# Indices 1 2 3 4 5 6 
#
# 1 0.012886 -0.003878 -0.004155 0.000000 0.000000 0.000000
# 2 -0.003878 0.018178 -0.010914 0.000000 0.000000 0.000000
# 3 -0.004155 -0.010914 0.021454 0.000000 0.000000 0.000000
# 4 0.000000 0.000000 0.000000 0.032910 0.000000 0.000000
# 5 0.000000 0.000000 0.000000 0.000000 0.046097 0.000000
# 6 0.000000 0.000000 0.000000 0.000000 0.000000 0.060374
#
#
# Mechanical properties :
#
#
# Convention : Reuss Voigt Hill
#
# Bulk Modulus (GPa) = 68.37899 69.07050 68.72475
# Shear Modulus (GPa) = 21.30662 22.94968 22.12815
#
# Velocity S-wave (km/s) = 3.46839 3.59964 3.53463
# Velocity P-wave (km/s) = 7.39233 7.50159 7.44716
#
# Compressibility (1/GPa) = 0.01462438
#
# Stress axis : x y z
#
# Youngs Moduli (GPa) = 77.60072 55.01145 46.61121
#
# Poissons Ratio (x) = 0.21331 0.19369
# Poissons Ratio (y) = 0.30091 0.50872
# Poissons Ratio (z) = 0.32246 0.60040
#
# Static dielectric constant tensor:
#      x y z
#    x 1.609790 0.000000 0.000000 
#    y 0.000000 1.599020 0.000000 
#    z 0.000000 0.000000 1.623220 
# 
# From -- ./inp_files/3898.got.cif
#   From: 2010.05.17/outbox.cif.g08.bks.cpg/sg57_2_cif.got.tgz:3898.got - 2010.06.03 13:58:18.
