data_PCOD9436482
_publ_section_title
;
Structure prediction by ZEFSAII (Michael W. Deem and Ramdas Pophale) SiO2 
 PCOD9436482
Probable space group: P B C M
;
_chemical_formula_sum "Si O2"
_cell_formula_units_Z 60
_cell_length_a 14.107959
_cell_length_b 20.932596
_cell_length_c 9.693550
_cell_angle_alpha 90.000000
_cell_angle_beta 90.000000
_cell_angle_gamma 90.000000
_cell_volume 2862.662410
_symmetry_space_group_name_H-M "P B C M"
_symmetry_group_IT_number 57
_symmetry_cell_setting 'orthorhombic'
loop_
_space_group_symop_operation_xyz
x,y,z
-x,-y,1/2+z
x,1/2-y,-z
-x,1/2+y,1/2-z
-x,-y,-z
x,y,1/2-z
-x,1/2+y,z
x,1/2-y,1/2+z
loop_
_atom_site_type_symbol
_atom_site_label
_atom_site_fract_x
_atom_site_fract_y
_atom_site_fract_z
Si Si1 0.967123 0.349113 0.996498
Si Si2 0.392908 0.132725 0.593154
Si Si3 0.777154 0.188174 0.906178
Si Si4 0.120364 0.061615 0.090920
Si Si5 0.989644 0.256047 0.250000
Si Si6 0.759211 0.693395 0.408827
Si Si7 0.724994 0.999162 0.407375
Si Si8 0.606406 0.405333 0.406759
O O1 0.004783 0.310994 0.129136
O O2 0.855790 0.358018 0.030207
O O3 0.020006 0.415225 0.967123
O O4 0.977442 0.300477 0.869263
O O5 0.393041 0.159555 0.750000
O O6 0.340188 0.176454 0.482104
O O7 0.332126 0.067774 0.597931
O O8 0.500494 0.115313 0.555710
O O9 0.810487 0.206179 0.750000
O O10 0.675983 0.155340 0.901165
O O11 0.775110 0.250000 0.000000
O O12 0.115492 0.039762 0.250000
O O13 0.178576 0.129247 0.089648
O O14 0.180775 0.014635 0.995390
O O15 0.802391 0.750000 0.500000
O O16 0.751155 0.713565 0.250000
O O17 0.744236 0.019529 0.250000
O O18 0.655217 0.046846 0.487405
O O19 0.603368 0.432737 0.250000
#
# Coordination Sequence:
#
# PCOD9436482 Si02
#       8
#     8   8   8   8   4   8   8   8
#     4  11  19  35  53  83 111 149 183 228 269 324
#     4   9  19  38  58  81 108 144 184 229 276 327
#     4  11  22  38  58  85 113 146 182 224 271 322
#     4  10  22  35  55  81 111 149 186 224 275 328
#     4  10  20  30  56  80 112 142 192 224 270 320
#     4  10  21  33  51  78 115 148 181 222 274 329
#     4  10  21  38  58  86 111 140 184 231 275 325
#     4  10  22  39  62  82 109 145 182 225 278 328
#
# _framework density 20.959510000000002
#
# number of rings (size 3 to 8) (size 9 to 14) (size 15 to 20)
#    0.000    1.867    2.667    1.200    2.800    2.667 
#    0.000    2.000    0.000    0.000    0.000    0.000 
#    0.000    0.000    0.000    0.000    0.000    0.000 
#
# Total GULP energy -334250.419915 kJ/mol
# GULP energy per Si atom -5570.840332 kJ/mol
# Density = 2.091181 g / cm^3
# Si number density = 20.959510 Si / 1000 Ang^3
#
#
#
# Elastic Constant Matrix: (Units=GPa)
#
#
# Indices 1 2 3 4 5 6 
#
# 1 70.9782 2.1182 16.2731 0.0000 0.0000 0.0000
# 2 2.1182 31.4394 20.3425 0.0000 0.0000 0.0000
# 3 16.2731 20.3425 150.3472 0.0000 0.0000 0.0000
# 4 0.0000 0.0000 0.0000 19.7743 0.0000 0.0000
# 5 0.0000 0.0000 0.0000 0.0000 16.4853 0.0000
# 6 0.0000 0.0000 0.0000 0.0000 0.0000 4.6515
#
#
#
# Elastic Compliance Matrix: (Units=1/GPa)
#
#
# Indices 1 2 3 4 5 6 
#
# 1 0.014447 0.000042 -0.001569 0.000000 0.000000 0.000000
# 2 0.000042 0.034859 -0.004721 0.000000 0.000000 0.000000
# 3 -0.001569 -0.004721 0.007460 0.000000 0.000000 0.000000
# 4 0.000000 0.000000 0.000000 0.050571 0.000000 0.000000
# 5 0.000000 0.000000 0.000000 0.000000 0.060660 0.000000
# 6 0.000000 0.000000 0.000000 0.000000 0.000000 0.214982
#
#
# Mechanical properties :
#
#
# Convention : Reuss Voigt Hill
#
# Bulk Modulus (GPa) = 22.58889 36.69250 29.64070
# Shear Modulus (GPa) = 12.18820 22.45097 17.31959
#
# Velocity S-wave (km/s) = 2.41407 3.27641 2.87772
# Velocity P-wave (km/s) = 4.30942 5.64425 5.02139
#
# Compressibility (1/GPa) = 0.04426956
#
# Stress axis : x y z
#
# Youngs Moduli (GPa) = 69.21659 28.68688 134.04960
#
# Poissons Ratio (x) = -0.00121 0.21038
# Poissons Ratio (y) = -0.00291 0.63286
# Poissons Ratio (z) = 0.10863 0.13543
#
# Static dielectric constant tensor:
#      x y z
#    x 1.815270 0.000000 0.000000 
#    y 0.000000 1.759610 0.000000 
#    z 0.000000 0.000000 1.735940 
# 
# From -- ./inp_files/5477.got.cif
#   From: 2010.05.17/outbox.cif.g08.bks.cpg/sg57_3_cif.got.tgz:5477.got - 2010.06.03 13:58:18.
