data_PCOD9436682
_publ_section_title
;
Structure prediction by ZEFSAII (Michael W. Deem and Ramdas Pophale) SiO2 
 PCOD9436682
Probable space group: P B C M
;
_chemical_formula_sum "Si O2"
_cell_formula_units_Z 64
_cell_length_a 11.080993
_cell_length_b 34.918444
_cell_length_c 8.513810
_cell_angle_alpha 90.000000
_cell_angle_beta 90.000000
_cell_angle_gamma 90.000000
_cell_volume 3294.257303
_symmetry_space_group_name_H-M "P B C M"
_symmetry_group_IT_number 57
_symmetry_cell_setting 'orthorhombic'
loop_
_space_group_symop_operation_xyz
x,y,z
-x,-y,1/2+z
x,1/2-y,-z
-x,1/2+y,1/2-z
-x,-y,-z
x,y,1/2-z
-x,1/2+y,z
x,1/2-y,1/2+z
loop_
_atom_site_type_symbol
_atom_site_label
_atom_site_fract_x
_atom_site_fract_y
_atom_site_fract_z
Si Si1 0.783862 0.208418 0.562288
Si Si2 0.694316 0.983443 0.560114
Si Si3 0.428860 0.091443 0.057945
Si Si4 0.948231 0.558072 0.437713
Si Si5 0.796728 0.059740 0.563829
Si Si6 0.816416 0.634098 0.061420
Si Si7 0.325266 0.631370 0.063249
Si Si8 0.061781 0.208742 0.562797
O O1 0.744048 0.250000 0.500000
O O2 0.784006 0.209527 0.750000
O O3 0.705224 0.172601 0.506728
O O4 0.923040 0.202535 0.506899
O O5 0.683188 0.985274 0.750000
O O6 0.597176 0.952228 0.503094
O O7 0.825741 0.964918 0.527501
O O8 0.704159 0.027031 0.502935
O O9 0.430992 0.090147 0.250000
O O10 0.313053 0.117042 0.012360
O O11 0.550599 0.111863 0.004377
O O12 0.969141 0.555274 0.250000
O O13 0.915571 0.601929 0.479139
O O14 0.067470 0.546062 0.528578
O O15 0.781093 0.064341 0.750000
O O16 0.775326 0.100080 0.480909
O O17 0.813792 0.636766 0.250000
O O18 0.853823 0.674486 0.992549
O O19 0.332452 0.635280 0.250000
O O20 0.101425 0.250000 0.500000
O O21 0.059622 0.209751 0.750000
#
# Coordination Sequence:
#
# PCOD9436682 Si02
#       8
#     8   8   8   8   8   8   8   8
#     4  10  21  38  59  83 111 138 167 206 255 308
#     4   8  16  32  52  74 102 137 175 217 266 313
#     4   8  17  35  55  73  97 135 180 221 258 299
#     4   9  17  31  52  75 100 133 172 213 261 319
#     4  11  21  31  48  76 109 140 172 216 265 311
#     4   9  17  32  54  75  97 129 169 211 256 305
#     4  11  22  36  55  77 103 138 181 221 257 303
#     4  10  20  33  52  79 108 134 160 197 248 306
#
# _framework density 19.427748999999999
#
# number of rings (size 3 to 8) (size 9 to 14) (size 15 to 20)
#    0.000    2.500    0.000    4.125    0.000    4.500 
#    0.000    2.500    0.000    5.250    0.000    0.000 
#    0.000    0.000    0.000    0.000    0.000    0.000 
#
# Total GULP energy -357116.188521 kJ/mol
# GULP energy per Si atom -5579.940446 kJ/mol
# Density = 1.938353 g / cm^3
# Si number density = 19.427749 Si / 1000 Ang^3
#
#
#
# Elastic Constant Matrix: (Units=GPa)
#
#
# Indices 1 2 3 4 5 6 
#
# 1 33.3369 -4.9061 -1.8602 0.0000 0.0000 0.0000
# 2 -4.9061 93.5698 11.1418 0.0000 0.0000 0.0000
# 3 -1.8602 11.1418 15.0087 0.0000 0.0000 0.0000
# 4 0.0000 0.0000 0.0000 19.8208 0.0000 0.0000
# 5 0.0000 0.0000 0.0000 0.0000 13.0618 0.0000
# 6 0.0000 0.0000 0.0000 0.0000 0.0000 20.7615
#
#
#
# Elastic Compliance Matrix: (Units=1/GPa)
#
#
# Indices 1 2 3 4 5 6 
#
# 1 0.030339 0.001254 0.002830 0.000000 0.000000 0.000000
# 2 0.001254 0.011775 -0.008586 0.000000 0.000000 0.000000
# 3 0.002830 -0.008586 0.073352 0.000000 0.000000 0.000000
# 4 0.000000 0.000000 0.000000 0.050452 0.000000 0.000000
# 5 0.000000 0.000000 0.000000 0.000000 0.076559 0.000000
# 6 0.000000 0.000000 0.000000 0.000000 0.000000 0.048166
#
#
# Mechanical properties :
#
#
# Convention : Reuss Voigt Hill
#
# Bulk Modulus (GPa) = 9.39305 16.74070 13.06688
# Shear Modulus (GPa) = 14.91929 19.89816 17.40872
#
# Velocity S-wave (km/s) = 2.77417 3.20380 2.99670
# Velocity P-wave (km/s) = 3.88674 4.72456 4.32598
#
# Compressibility (1/GPa) = 0.10646164
#
# Stress axis : x y z
#
# Youngs Moduli (GPa) = 32.96065 84.92333 13.63281
#
# Poissons Ratio (x) = -0.10648 -0.03857
# Poissons Ratio (y) = -0.04133 0.11705
# Poissons Ratio (z) = -0.09326 0.72916
#
# Static dielectric constant tensor:
#      x y z
#    x 1.700210 0.000000 0.000000 
#    y 0.000000 1.681720 0.000000 
#    z 0.000000 0.000000 1.655920 
# 
# From -- ./inp_files/3864.got.cif
#   From: 2010.05.17/outbox.cif.g08.bks.cpg/sg57_2_cif.got.tgz:3864.got - 2010.06.03 13:58:18.
