data_PCOD9436765
_publ_section_title
;
Structure prediction by ZEFSAII (Michael W. Deem and Ramdas Pophale) SiO2 
 PCOD9436765
Probable space group: P B C M
;
_chemical_formula_sum "Si O2"
_cell_formula_units_Z 48
_cell_length_a 9.628732
_cell_length_b 20.208133
_cell_length_c 10.680521
_cell_angle_alpha 90.000000
_cell_angle_beta 90.000000
_cell_angle_gamma 90.000000
_cell_volume 2078.201858
_symmetry_space_group_name_H-M "P B C M"
_symmetry_group_IT_number 57
_symmetry_cell_setting 'orthorhombic'
loop_
_space_group_symop_operation_xyz
x,y,z
-x,-y,1/2+z
x,1/2-y,-z
-x,1/2+y,1/2-z
-x,-y,-z
x,y,1/2-z
-x,1/2+y,z
x,1/2-y,1/2+z
loop_
_atom_site_type_symbol
_atom_site_label
_atom_site_fract_x
_atom_site_fract_y
_atom_site_fract_z
Si Si1 0.292332 0.535029 0.250000
Si Si2 0.007991 0.297739 0.609554
Si Si3 0.653661 0.802025 0.606898
Si Si4 0.469517 0.931363 0.250000
Si Si5 0.463817 0.921708 0.976759
Si Si6 0.938418 0.562487 0.750000
Si Si7 0.209656 0.015750 0.250000
Si Si8 0.062616 0.072345 0.021279
O O1 0.377464 0.464125 0.250000
O O2 0.341950 0.572765 0.125788
O O3 0.135734 0.509412 0.250000
O O4 0.959943 0.250000 0.500000
O O5 0.970191 0.277727 0.750000
O O6 0.177228 0.303177 0.602278
O O7 0.963354 0.372243 0.577793
O O8 0.610340 0.750000 0.500000
O O9 0.618011 0.782760 0.750000
O O10 0.578146 0.871451 0.577061
O O11 0.437712 0.896535 0.381380
O O12 0.365890 0.993644 0.250000
O O13 0.500000 0.000000 0.000000
O O14 0.896321 0.595806 0.618869
O O15 0.103528 0.547132 0.750000
O O16 0.175251 0.056546 0.126434
O O17 0.000000 0.000000 0.000000
#
# Coordination Sequence:
#
# PCOD9436765 Si02
#       8
#     4   8   8   4   8   4   4   8
#     4  10  20  34  51  87 119 151 195 254 304 346
#     4  10  22  37  57  84 123 166 204 253 315 378
#     4  10  22  39  57  83 126 171 205 247 313 381
#     4  10  22  30  55  85 119 155 193 244 308 362
#     4  10  21  34  53  86 119 158 196 248 302 362
#     4  10  22  34  55  89 123 153 199 254 306 362
#     4  10  20  38  55  83 123 163 195 246 310 370
#     4  10  21  36  59  85 119 162 205 254 311 374
#
# _framework density 23.096889000000001
#
# number of rings (size 3 to 8) (size 9 to 14) (size 15 to 20)
#    0.000    2.000    1.667    1.000   11.667    0.000 
#    0.000    0.000    0.000    0.000    0.000   28.000 
#    0.000    0.000    0.000    0.000    0.000    0.000 
#
# Total GULP energy -267853.340641 kJ/mol
# GULP energy per Si atom -5580.277930 kJ/mol
# Density = 2.304432 g / cm^3
# Si number density = 23.096889 Si / 1000 Ang^3
#
#
#
# Elastic Constant Matrix: (Units=GPa)
#
#
# Indices 1 2 3 4 5 6 
#
# 1 40.5312 19.1991 17.2902 0.0000 0.0000 0.0000
# 2 19.1991 84.4816 29.3773 0.0000 0.0000 0.0000
# 3 17.2902 29.3773 231.4591 0.0000 0.0000 0.0000
# 4 0.0000 0.0000 0.0000 35.3693 0.0000 0.0000
# 5 0.0000 0.0000 0.0000 0.0000 -9.9057 0.0000
# 6 0.0000 0.0000 0.0000 0.0000 0.0000 19.6415
#
#
#
# Elastic Compliance Matrix: (Units=1/GPa)
#
#
# Indices 1 2 3 4 5 6 
#
# 1 0.028044 -0.005905 -0.001345 0.000000 0.000000 0.000000
# 2 -0.005905 0.013627 -0.001288 0.000000 0.000000 0.000000
# 3 -0.001345 -0.001288 0.004584 0.000000 0.000000 0.000000
# 4 0.000000 0.000000 0.000000 0.028273 0.000000 0.000000
# 5 0.000000 0.000000 0.000000 0.000000 -0.100952 0.000000
# 6 0.000000 0.000000 0.000000 0.000000 0.000000 0.050912
#
#
# Mechanical properties :
#
#
# Convention : Reuss Voigt Hill
#
# Bulk Modulus (GPa) = 34.27381 54.24499 44.25940
# Shear Modulus (GPa) = 97.48094 28.39472 62.93783
#
# Velocity S-wave (km/s) = 6.50360 3.51005 5.22577
# Velocity P-wave (km/s) = 8.44199 6.32171 7.45759
#
# Compressibility (1/GPa) = 0.02917679
#
# Stress axis : x y z
#
# Youngs Moduli (GPa) = 35.65882 73.38398 218.12872
#
# Poissons Ratio (x) = 0.43335 0.29346
# Poissons Ratio (y) = 0.21058 0.28104
# Poissons Ratio (z) = 0.04797 0.09455
#
# Static dielectric constant tensor:
#      x y z
#    x 1.859340 0.000000 0.000000 
#    y 0.000000 1.881990 0.000000 
#    z 0.000000 0.000000 2.013400 
# 
# From -- ./inp_files/12978.got.cif
#   From: 2010.05.17/outbox.cif.g08.bks.cpg/sg57_7_cif.got.tgz:12978.got - 2010.06.03 13:58:18.
