data_PCOD9436674
_publ_section_title
;
Structure prediction by ZEFSAII (Michael W. Deem and Ramdas Pophale) SiO2 
 PCOD9436674
Probable space group: P B C M
;
_chemical_formula_sum "Si O2"
_cell_formula_units_Z 64
_cell_length_a 20.272086
_cell_length_b 20.661753
_cell_length_c 8.897937
_cell_angle_alpha 90.000000
_cell_angle_beta 90.000000
_cell_angle_gamma 90.000000
_cell_volume 3726.961719
_symmetry_space_group_name_H-M "P B C M"
_symmetry_group_IT_number 57
_symmetry_cell_setting 'orthorhombic'
loop_
_space_group_symop_operation_xyz
x,y,z
-x,-y,1/2+z
x,1/2-y,-z
-x,1/2+y,1/2-z
-x,-y,-z
x,y,1/2-z
-x,1/2+y,z
x,1/2-y,1/2+z
loop_
_atom_site_type_symbol
_atom_site_label
_atom_site_fract_x
_atom_site_fract_y
_atom_site_fract_z
Si Si1 0.199676 0.042852 0.930346
Si Si2 0.437824 0.461526 0.568872
Si Si3 0.786537 0.685070 0.570924
Si Si4 0.679975 0.456271 0.931578
Si Si5 0.067475 0.188742 0.427593
Si Si6 0.371372 0.817219 0.569833
Si Si7 0.526734 0.817774 0.569686
Si Si8 0.054972 0.455724 0.926956
O O1 0.190526 0.044835 0.750000
O O2 0.234323 0.111965 0.971658
O O3 0.248263 0.984382 0.968296
O O4 0.128085 0.036575 0.004459
O O5 0.500000 0.500000 0.500000
O O6 0.441916 0.464024 0.750000
O O7 0.373644 0.497871 0.508885
O O8 0.439848 0.385516 0.523843
O O9 0.755345 0.750000 0.500000
O O10 0.783770 0.691579 0.750000
O O11 0.862360 0.684749 0.513255
O O12 0.671301 0.460189 0.750000
O O13 0.666644 0.382134 0.976647
O O14 0.031576 0.250000 0.500000
O O15 0.079068 0.198562 0.250000
O O16 0.034951 0.119377 0.448830
O O17 0.347386 0.750000 0.500000
O O18 0.368061 0.812462 0.750000
O O19 0.448936 0.824657 0.529261
O O20 0.550913 0.750000 0.500000
O O21 0.531197 0.812564 0.750000
O O22 0.059107 0.467937 0.750000
O O23 0.000000 0.500000 0.000000
#
# Coordination Sequence:
#
# PCOD9436674 Si02
#       8
#     8   8   8   8   8   8   8   8
#     4   9  19  34  52  73 101 135 171 208 254 305
#     4  11  21  34  52  76 103 132 169 211 255 304
#     4   9  15  25  43  67  92 125 163 199 238 287
#     4  10  20  36  54  75 104 137 170 210 258 310
#     4   9  16  26  43  69  97 126 158 200 245 289
#     4   9  17  31  50  73  99 127 166 212 256 303
#     4   9  18  32  49  72 100 131 169 212 256 302
#     4  10  20  33  52  77 105 134 170 211 255 304
#
# _framework density 17.172163999999999
#
# number of rings (size 3 to 8) (size 9 to 14) (size 15 to 20)
#    0.000    2.500    1.250    2.250    0.000    4.000 
#    0.000    0.625    0.000    3.750    0.000    1.750 
#    0.000    0.000    0.000    0.000    0.000    0.000 
#
# Total GULP energy -356556.970697 kJ/mol
# GULP energy per Si atom -5571.202667 kJ/mol
# Density = 1.713308 g / cm^3
# Si number density = 17.172164 Si / 1000 Ang^3
#
#
#
# Elastic Constant Matrix: (Units=GPa)
#
#
# Indices 1 2 3 4 5 6 
#
# 1 56.6526 56.7560 26.8542 0.0000 0.0000 0.0000
# 2 56.7560 178.3473 50.8396 0.0000 0.0000 0.0000
# 3 26.8542 50.8396 37.0597 0.0000 0.0000 0.0000
# 4 0.0000 0.0000 0.0000 31.6800 0.0000 0.0000
# 5 0.0000 0.0000 0.0000 0.0000 16.1748 0.0000
# 6 0.0000 0.0000 0.0000 0.0000 0.0000 22.9715
#
#
#
# Elastic Compliance Matrix: (Units=1/GPa)
#
#
# Indices 1 2 3 4 5 6 
#
# 1 0.029814 -0.005468 -0.014104 0.000000 0.000000 0.000000
# 2 -0.005468 0.010210 -0.010045 0.000000 0.000000 0.000000
# 3 -0.014104 -0.010045 0.050983 0.000000 0.000000 0.000000
# 4 0.000000 0.000000 0.000000 0.031566 0.000000 0.000000
# 5 0.000000 0.000000 0.000000 0.000000 0.061825 0.000000
# 6 0.000000 0.000000 0.000000 0.000000 0.000000 0.043532
#
#
# Mechanical properties :
#
#
# Convention : Reuss Voigt Hill
#
# Bulk Modulus (GPa) = 31.47053 60.10657 45.78855
# Shear Modulus (GPa) = 16.79235 23.33925 20.06580
#
# Velocity S-wave (km/s) = 3.13050 3.69064 3.42205
# Velocity P-wave (km/s) = 5.60651 7.29653 6.50663
#
# Compressibility (1/GPa) = 0.03177576
#
# Stress axis : x y z
#
# Youngs Moduli (GPa) = 33.54101 97.93904 19.61425
#
# Poissons Ratio (x) = 0.53549 0.27663
# Poissons Ratio (y) = 0.18339 0.19703
# Poissons Ratio (z) = 0.47305 0.98381
#
# Static dielectric constant tensor:
#      x y z
#    x 1.558040 0.000000 0.000000 
#    y 0.000000 1.637620 0.000000 
#    z 0.000000 0.000000 1.539670 
# 
# From -- ./inp_files/7135.got.cif
#   From: 2010.05.17/outbox.cif.g08.bks.cpg/sg57_4_cif.got.tgz:7135.got - 2010.06.03 13:58:18.
