data_PCOD9436148
_publ_section_title
;
Structure prediction by ZEFSAII (Michael W. Deem and Ramdas Pophale) SiO2 
 PCOD9436148
Probable space group: P B C M
;
_chemical_formula_sum "Si O2"
_cell_formula_units_Z 48
_cell_length_a 9.792098
_cell_length_b 30.684126
_cell_length_c 9.110195
_cell_angle_alpha 90.000000
_cell_angle_beta 90.000000
_cell_angle_gamma 90.000000
_cell_volume 2737.267126
_symmetry_space_group_name_H-M "P B C M"
_symmetry_group_IT_number 57
_symmetry_cell_setting 'orthorhombic'
loop_
_space_group_symop_operation_xyz
x,y,z
-x,-y,1/2+z
x,1/2-y,-z
-x,1/2+y,1/2-z
-x,-y,-z
x,y,1/2-z
-x,1/2+y,z
x,1/2-y,1/2+z
loop_
_atom_site_type_symbol
_atom_site_label
_atom_site_fract_x
_atom_site_fract_y
_atom_site_fract_z
Si Si1 0.693373 0.063937 0.576148
Si Si2 0.519325 0.874896 0.924565
Si Si3 0.099915 0.855549 0.423801
Si Si4 0.144541 0.010619 0.575611
Si Si5 0.198664 0.386962 0.075808
Si Si6 0.313825 0.796061 0.575727
O O1 0.675595 0.057122 0.750000
O O2 0.560008 0.085863 0.505771
O O3 0.814797 0.099600 0.555350
O O4 0.741740 0.020295 0.496302
O O5 0.516975 0.882136 0.750000
O O6 0.433467 0.831007 0.956248
O O7 0.671638 0.871563 0.984894
O O8 0.106454 0.845615 0.250000
O O9 0.176663 0.818341 0.513463
O O10 0.943379 0.863774 0.465144
O O11 0.134827 0.002461 0.750000
O O12 0.178349 0.061321 0.553694
O O13 0.000000 0.000000 0.500000
O O14 0.221537 0.379979 0.250000
O O15 0.338571 0.750000 0.500000
O O16 0.304301 0.790715 0.750000
#
# Coordination Sequence:
#
# PCOD9436148 Si02
#       6
#     8   8   8   8   8   8
#     4  10  19  35  56  79 108 149 192 232 277 323
#     4  10  22  38  56  83 113 146 187 230 278 332
#     4   9  18  35  57  81 110 142 181 224 271 325
#     4  11  21  34  53  80 112 148 194 238 277 325
#     4  10  21  37  55  80 113 150 187 226 277 331
#     4  10  21  38  61  87 110 137 178 222 272 334
#
# _framework density 17.535737999999998
#
# number of rings (size 3 to 8) (size 9 to 14) (size 15 to 20)
#    0.000    2.000    1.667    2.000    0.000    5.333 
#    0.000    0.833    0.000    2.000    0.000    0.000 
#    0.000    0.000    0.000    0.000    0.000    0.000 
#
# Total GULP energy -268073.206464 kJ/mol
# GULP energy per Si atom -5584.858468 kJ/mol
# Density = 1.749583 g / cm^3
# Si number density = 17.535738 Si / 1000 Ang^3
#
#
#
# Elastic Constant Matrix: (Units=GPa)
#
#
# Indices 1 2 3 4 5 6 
#
# 1 120.0533 29.1885 58.6035 0.0000 0.0000 0.0000
# 2 29.1885 63.9283 55.8111 0.0000 0.0000 0.0000
# 3 58.6035 55.8111 78.5528 0.0000 0.0000 0.0000
# 4 0.0000 0.0000 0.0000 31.2665 0.0000 0.0000
# 5 0.0000 0.0000 0.0000 0.0000 33.7849 0.0000
# 6 0.0000 0.0000 0.0000 0.0000 0.0000 10.6318
#
#
#
# Elastic Compliance Matrix: (Units=1/GPa)
#
#
# Indices 1 2 3 4 5 6 
#
# 1 0.014296 0.007331 -0.015874 0.000000 0.000000 0.000000
# 2 0.007331 0.044954 -0.037409 0.000000 0.000000 0.000000
# 3 -0.015874 -0.037409 0.051152 0.000000 0.000000 0.000000
# 4 0.000000 0.000000 0.000000 0.031983 0.000000 0.000000
# 5 0.000000 0.000000 0.000000 0.000000 0.029599 0.000000
# 6 0.000000 0.000000 0.000000 0.000000 0.000000 0.094058
#
#
# Mechanical properties :
#
#
# Convention : Reuss Voigt Hill
#
# Bulk Modulus (GPa) = 54.05916 61.08231 57.57073
# Shear Modulus (GPa) = 13.73200 23.06540 18.39870
#
# Velocity S-wave (km/s) = 2.80140 3.63069 3.24267
# Velocity P-wave (km/s) = 6.43108 7.24462 6.84994
#
# Compressibility (1/GPa) = 0.01849825
#
# Stress axis : x y z
#
# Youngs Moduli (GPa) = 69.94870 22.24478 19.54950
#
# Poissons Ratio (x) = -0.16309 0.31034
# Poissons Ratio (y) = -0.51282 0.73133
# Poissons Ratio (z) = 1.11040 0.83216
#
# Static dielectric constant tensor:
#      x y z
#    x 1.585640 0.000000 0.000000 
#    y 0.000000 1.574410 0.000000 
#    z 0.000000 0.000000 1.580930 
# 
# From -- ./inp_files/1987.got.cif
#   From: 2010.05.17/outbox.cif.g08.bks.cpg/sg57_1_cif.got.tgz:1987.got - 2010.06.03 13:58:18.
