data_PCOD9436499
_publ_section_title
;
Structure prediction by ZEFSAII (Michael W. Deem and Ramdas Pophale) SiO2 
 PCOD9436499
Probable space group: P B C M
;
_chemical_formula_sum "Si O2"
_cell_formula_units_Z 64
_cell_length_a 22.359513
_cell_length_b 19.879741
_cell_length_c 9.051652
_cell_angle_alpha 90.000000
_cell_angle_beta 90.000000
_cell_angle_gamma 90.000000
_cell_volume 4023.471328
_symmetry_space_group_name_H-M "P B C M"
_symmetry_group_IT_number 57
_symmetry_cell_setting 'orthorhombic'
loop_
_space_group_symop_operation_xyz
x,y,z
-x,-y,1/2+z
x,1/2-y,-z
-x,1/2+y,1/2-z
-x,-y,-z
x,y,1/2-z
-x,1/2+y,z
x,1/2-y,1/2+z
loop_
_atom_site_type_symbol
_atom_site_label
_atom_site_fract_x
_atom_site_fract_y
_atom_site_fract_z
Si Si1 0.085191 0.962793 0.419147
Si Si2 0.807631 0.964609 0.073844
Si Si3 0.550782 0.955446 0.573285
Si Si4 0.129063 0.322478 0.428144
Si Si5 0.545211 0.685808 0.915686
Si Si6 0.018051 0.392676 0.580197
Si Si7 0.313343 0.045361 0.425690
Si Si8 0.312257 0.313791 0.416415
O O1 0.098757 0.944370 0.250000
O O2 0.044376 0.906733 0.497741
O O3 0.143404 0.984386 0.509739
O O4 0.048122 0.033038 0.414507
O O5 0.806760 0.967204 0.250000
O O6 0.827845 0.887021 0.034248
O O7 0.743495 0.985012 0.008081
O O8 0.546966 0.957029 0.750000
O O9 0.540263 0.880512 0.513165
O O10 0.619115 0.976278 0.532308
O O11 0.500000 0.000000 0.500000
O O12 0.144354 0.250000 0.500000
O O13 0.127625 0.316661 0.250000
O O14 0.064248 0.345612 0.491579
O O15 0.521070 0.676677 0.750000
O O16 0.616567 0.697814 0.899573
O O17 0.519359 0.750000 0.000000
O O18 0.010923 0.369890 0.750000
O O19 0.307218 0.039551 0.250000
O O20 0.308531 0.122518 0.478251
O O21 0.285666 0.250000 0.500000
O O22 0.287994 0.324662 0.250000
#
# Coordination Sequence:
#
# PCOD9436499 Si02
#       8
#     8   8   8   8   8   8   8   8
#     4   9  16  27  44  64  85 110 143 183 224 263
#     4  10  20  32  45  62  86 117 153 191 231 275
#     4  10  20  33  49  69  93 123 158 198 246 297
#     4  10  20  32  45  63  89 122 158 192 226 265
#     4   9  16  27  44  65  89 116 147 184 225 272
#     4   9  16  27  44  64  86 113 145 182 222 261
#     4  10  20  32  45  62  86 116 151 190 232 278
#     4   9  16  26  40  57  78 107 143 180 216 255
#
# _framework density 15.906661
#
# number of rings (size 3 to 8) (size 9 to 14) (size 15 to 20)
#    0.000    2.500    0.000    3.000    0.000    9.500 
#    0.000    1.250    0.000    0.000    0.000    0.000 
#    0.000    1.000    0.000    5.500    0.000    6.000 
#
# Total GULP energy -356488.156566 kJ/mol
# GULP energy per Si atom -5570.127446 kJ/mol
# Density = 1.587046 g / cm^3
# Si number density = 15.906661 Si / 1000 Ang^3
#
#
#
# Elastic Constant Matrix: (Units=GPa)
#
#
# Indices 1 2 3 4 5 6 
#
# 1 112.2724 40.1884 58.2480 0.0000 0.0000 0.0000
# 2 40.1884 35.6211 28.0129 0.0000 0.0000 0.0000
# 3 58.2480 28.0129 95.7191 0.0000 0.0000 0.0000
# 4 0.0000 0.0000 0.0000 19.4395 0.0000 0.0000
# 5 0.0000 0.0000 0.0000 0.0000 18.8585 0.0000
# 6 0.0000 0.0000 0.0000 0.0000 0.0000 -2.8313
#
#
#
# Elastic Compliance Matrix: (Units=1/GPa)
#
#
# Indices 1 2 3 4 5 6 
#
# 1 0.017453 -0.014728 -0.006310 0.000000 0.000000 0.000000
# 2 -0.014728 0.048895 -0.005347 0.000000 0.000000 0.000000
# 3 -0.006310 -0.005347 0.015852 0.000000 0.000000 0.000000
# 4 0.000000 0.000000 0.000000 0.051442 0.000000 0.000000
# 5 0.000000 0.000000 0.000000 0.000000 0.053026 0.000000
# 6 0.000000 0.000000 0.000000 0.000000 0.000000 -0.353200
#
#
# Mechanical properties :
#
#
# Convention : Reuss Voigt Hill
#
# Bulk Modulus (GPa) = 33.98011 55.16789 44.57400
# Shear Modulus (GPa) = -48.09889 14.90423 -16.59733
#
# Velocity S-wave (km/s) = -5.50489 3.06433 -3.23371
# Velocity P-wave (km/s) = 4.35851 6.87588 3.76040
#
# Compressibility (1/GPa) = 0.02942898
#
# Stress axis : x y z
#
# Youngs Moduli (GPa) = 57.29784 20.45215 63.08350
#
# Poissons Ratio (x) = 0.30122 0.39807
# Poissons Ratio (y) = 0.84388 0.33730
# Poissons Ratio (z) = 0.36156 0.10936
#
# Static dielectric constant tensor:
#      x y z
#    x 1.564820 0.000000 0.000000 
#    y 0.000000 1.529620 0.000000 
#    z 0.000000 0.000000 1.546630 
# 
# From -- ./inp_files/8699.got.cif
#   From: 2010.05.17/outbox.cif.g08.bks.cpg/sg57_5_cif.got.tgz:8699.got - 2010.06.03 13:58:18.
