data_PCOD9436017
_publ_section_title
;
Structure prediction by ZEFSAII (Michael W. Deem and Ramdas Pophale) SiO2 
 PCOD9436017
Probable space group: P B C M
;
_chemical_formula_sum "Si O2"
_cell_formula_units_Z 64
_cell_length_a 14.955983
_cell_length_b 24.545848
_cell_length_c 8.441207
_cell_angle_alpha 90.000000
_cell_angle_beta 90.000000
_cell_angle_gamma 90.000000
_cell_volume 3098.828587
_symmetry_space_group_name_H-M "P B C M"
_symmetry_group_IT_number 57
_symmetry_cell_setting 'orthorhombic'
loop_
_space_group_symop_operation_xyz
x,y,z
-x,-y,1/2+z
x,1/2-y,-z
-x,1/2+y,1/2-z
-x,-y,-z
x,y,1/2-z
-x,1/2+y,z
x,1/2-y,1/2+z
loop_
_atom_site_type_symbol
_atom_site_label
_atom_site_fract_x
_atom_site_fract_y
_atom_site_fract_z
Si Si1 0.125509 0.890413 0.936050
Si Si2 0.559559 0.339461 0.940359
Si Si3 0.742033 0.307236 0.434440
Si Si4 0.027014 0.188946 0.938475
Si Si5 0.642038 0.809327 0.939113
Si Si6 0.785135 0.000686 0.443954
Si Si7 0.414593 0.533057 0.439467
Si Si8 0.197273 0.122176 0.559149
O O1 0.105525 0.892998 0.750000
O O2 0.147942 0.951156 0.995727
O O3 0.215724 0.856024 0.965270
O O4 0.049375 0.854573 0.017849
O O5 0.572142 0.331300 0.750000
O O6 0.460613 0.320325 0.984603
O O7 0.570847 0.403447 0.975531
O O8 0.636354 0.309294 0.036737
O O9 0.777521 0.250000 0.500000
O O10 0.763840 0.313265 0.250000
O O11 0.031657 0.192878 0.750000
O O12 0.119965 0.162863 0.999573
O O13 0.011073 0.250000 0.000000
O O14 0.647360 0.810706 0.750000
O O15 0.669905 0.750000 0.000000
O O16 0.707337 0.854725 0.008089
O O17 0.784509 0.002358 0.250000
O O18 0.813598 0.940278 0.494361
O O19 0.683062 0.013096 0.497239
O O20 0.500000 0.500000 0.500000
O O21 0.412951 0.527525 0.250000
O O22 0.193176 0.121769 0.750000
#
# Coordination Sequence:
#
# PCOD9436017 Si02
#       8
#     8   8   8   8   8   8   8   8
#     4  11  22  41  66  90 123 162 200 244 303 366
#     4  10  21  38  57  84 121 161 204 253 305 362
#     4  12  24  38  59  87 120 158 201 248 300 361
#     4  11  24  42  64  93 124 157 204 256 307 368
#     4  11  23  38  59  87 122 161 208 260 311 365
#     4   9  19  38  63  89 122 164 201 243 303 366
#     4  10  19  34  56  83 119 161 206 250 296 354
#     4  10  22  41  65  91 123 161 204 253 308 368
#
# _framework density 20.652965999999999
#
# number of rings (size 3 to 8) (size 9 to 14) (size 15 to 20)
#    0.000    1.500    1.250    4.125    0.000    5.000 
#    0.000    1.250    0.000    0.000    0.000    0.000 
#    0.000    0.000    0.000    0.000    0.000    0.000 
#
# Total GULP energy -357732.010540 kJ/mol
# GULP energy per Si atom -5589.562665 kJ/mol
# Density = 2.060596 g / cm^3
# Si number density = 20.652966 Si / 1000 Ang^3
#
#
#
# Elastic Constant Matrix: (Units=GPa)
#
#
# Indices 1 2 3 4 5 6 
#
# 1 71.8155 18.4321 3.3788 0.0000 0.0000 0.0000
# 2 18.4321 114.0057 17.6109 0.0000 0.0000 0.0000
# 3 3.3788 17.6109 14.7222 0.0000 0.0000 0.0000
# 4 0.0000 0.0000 0.0000 9.2479 0.0000 0.0000
# 5 0.0000 0.0000 0.0000 0.0000 15.9543 0.0000
# 6 0.0000 0.0000 0.0000 0.0000 0.0000 36.2392
#
#
#
# Elastic Compliance Matrix: (Units=1/GPa)
#
#
# Indices 1 2 3 4 5 6 
#
# 1 0.014532 -0.002250 -0.000644 0.000000 0.000000 0.000000
# 2 -0.002250 0.011108 -0.012771 0.000000 0.000000 0.000000
# 3 -0.000644 -0.012771 0.083350 0.000000 0.000000 0.000000
# 4 0.000000 0.000000 0.000000 0.108133 0.000000 0.000000
# 5 0.000000 0.000000 0.000000 0.000000 0.062679 0.000000
# 6 0.000000 0.000000 0.000000 0.000000 0.000000 0.027594
#
#
# Mechanical properties :
#
#
# Convention : Reuss Voigt Hill
#
# Bulk Modulus (GPa) = 12.87662 31.04300 21.95981
# Shear Modulus (GPa) = 13.71317 23.02971 18.37144
#
# Velocity S-wave (km/s) = 2.57958 3.34290 2.98574
# Velocity P-wave (km/s) = 3.88852 5.47388 4.74784
#
# Compressibility (1/GPa) = 0.07766010
#
# Stress axis : x y z
#
# Youngs Moduli (GPa) = 68.81194 90.02415 11.99766
#
# Poissons Ratio (x) = 0.20257 0.00772
# Poissons Ratio (y) = 0.15484 0.15323
# Poissons Ratio (z) = 0.04428 1.14973
#
# Static dielectric constant tensor:
#      x y z
#    x 1.744740 0.000000 0.000000 
#    y 0.000000 1.756590 0.000000 
#    z 0.000000 0.000000 1.710120 
# 
# From -- ./inp_files/5725.got.cif
#   From: 2010.05.17/outbox.cif.g08.bks.cpg/sg57_3_cif.got.tgz:5725.got - 2010.06.03 13:58:18.
