data_PCOD9436066
_publ_section_title
;
Structure prediction by ZEFSAII (Michael W. Deem and Ramdas Pophale) SiO2 
 PCOD9436066
Probable space group: P B C M
;
_chemical_formula_sum "Si O2"
_cell_formula_units_Z 64
_cell_length_a 15.162902
_cell_length_b 9.025945
_cell_length_c 25.821390
_cell_angle_alpha 90.000000
_cell_angle_beta 90.000000
_cell_angle_gamma 90.000000
_cell_volume 3533.903028
_symmetry_space_group_name_H-M "P B C M"
_symmetry_group_IT_number 57
_symmetry_cell_setting 'orthorhombic'
loop_
_space_group_symop_operation_xyz
x,y,z
-x,-y,1/2+z
x,1/2-y,-z
-x,1/2+y,1/2-z
-x,-y,-z
x,y,1/2-z
-x,1/2+y,z
x,1/2-y,1/2+z
loop_
_atom_site_type_symbol
_atom_site_label
_atom_site_fract_x
_atom_site_fract_y
_atom_site_fract_z
Si Si1 0.262789 0.898842 0.188437
Si Si2 0.387626 0.420760 0.312981
Si Si3 0.052057 0.429082 0.190754
Si Si4 0.067850 0.366753 0.954281
Si Si5 0.568023 0.582555 0.187487
Si Si6 0.863788 0.397224 0.529935
Si Si7 0.893102 0.889646 0.841688
Si Si8 0.220010 0.582238 0.360905
O O1 0.264284 0.862111 0.250000
O O2 0.357615 0.963671 0.172034
O O3 0.194424 0.033878 0.179598
O O4 0.235698 0.752683 0.156646
O O5 0.375063 0.425942 0.250000
O O6 0.408775 0.250568 0.328085
O O7 0.471444 0.523696 0.326598
O O8 0.302298 0.485400 0.341269
O O9 0.200094 0.569236 0.077771
O O10 0.072617 0.254551 0.188188
O O11 0.134689 0.518494 0.168600
O O12 0.965756 0.479525 0.159579
O O13 0.113027 0.330821 0.900348
O O14 0.963262 0.392132 0.945723
O O15 0.069112 0.250000 0.000000
O O16 0.121301 0.496818 0.981116
O O17 0.570097 0.584598 0.250000
O O18 0.837607 0.250000 0.500000
O O19 0.035564 0.471104 0.250000
#
# Coordination Sequence:
#
# PCOD9436066 Si02
#       8
#     8   8   8   8   8   8   8   8
#     4  11  22  36  54  81 118 156 194 232 277 344
#     4  10  19  34  57  85 118 152 189 233 283 344
#     4  12  24  37  52  79 117 153 189 224 278 344
#     4  10  21  37  58  76 102 139 190 247 291 330
#     4   9  19  35  55  83 118 156 194 233 275 329
#     4  10  21  37  56  78 105 139 188 246 292 331
#     4  12  24  38  55  79 109 153 192 236 285 340
#     4  12  22  36  58  84 112 152 191 235 290 344
#
# _framework density 18.110287
#
# number of rings (size 3 to 8) (size 9 to 14) (size 15 to 20)
#    0.000    1.250    1.250    6.000    3.500    3.000 
#    0.000    0.000    0.000    0.000    0.000    8.750 
#    0.000    0.000    0.000    0.250    0.000    0.000 
#
# Total GULP energy -357157.903352 kJ/mol
# GULP energy per Si atom -5580.592240 kJ/mol
# Density = 1.806907 g / cm^3
# Si number density = 18.110287 Si / 1000 Ang^3
#
#
#
# Elastic Constant Matrix: (Units=GPa)
#
#
# Indices 1 2 3 4 5 6 
#
# 1 79.2311 16.3143 25.2075 0.0000 0.0000 0.0000
# 2 16.3143 64.9387 13.3715 0.0000 0.0000 0.0000
# 3 25.2075 13.3715 87.1945 0.0000 0.0000 0.0000
# 4 0.0000 0.0000 0.0000 34.1233 0.0000 0.0000
# 5 0.0000 0.0000 0.0000 0.0000 5.3852 0.0000
# 6 0.0000 0.0000 0.0000 0.0000 0.0000 23.9125
#
#
#
# Elastic Compliance Matrix: (Units=1/GPa)
#
#
# Indices 1 2 3 4 5 6 
#
# 1 0.014393 -0.002849 -0.003724 0.000000 0.000000 0.000000
# 2 -0.002849 0.016465 -0.001701 0.000000 0.000000 0.000000
# 3 -0.003724 -0.001701 0.012806 0.000000 0.000000 0.000000
# 4 0.000000 0.000000 0.000000 0.029305 0.000000 0.000000
# 5 0.000000 0.000000 0.000000 0.000000 0.185694 0.000000
# 6 0.000000 0.000000 0.000000 0.000000 0.000000 0.041819
#
#
# Mechanical properties :
#
#
# Convention : Reuss Voigt Hill
#
# Bulk Modulus (GPa) = 36.87945 37.90565 37.39255
# Shear Modulus (GPa) = 15.33415 24.44894 19.89154
#
# Velocity S-wave (km/s) = 2.91298 3.67822 3.31774
# Velocity P-wave (km/s) = 5.63223 6.24620 5.94714
#
# Compressibility (1/GPa) = 0.02711537
#
# Stress axis : x y z
#
# Youngs Moduli (GPa) = 69.47949 60.73415 78.08780
#
# Poissons Ratio (x) = 0.17303 0.29080
# Poissons Ratio (y) = 0.19795 0.13285
# Poissons Ratio (z) = 0.25874 0.10333
#
# Static dielectric constant tensor:
#      x y z
#    x 1.527780 0.000000 0.000000 
#    y 0.000000 1.628850 0.000000 
#    z 0.000000 0.000000 1.608830 
# 
# From -- ./inp_files/27453.got.cif
#   From: 2010.05.17/outbox.cif.g08.bks.cpg/sg57_14_cif.got.tgz:27453.got - 2010.06.03 13:58:18.
