data_PCOD9436858
_publ_section_title
;
Structure prediction by ZEFSAII (Michael W. Deem and Ramdas Pophale) SiO2 
 PCOD9436858
Probable space group: P B C M
;
_chemical_formula_sum "Si O2"
_cell_formula_units_Z 48
_cell_length_a 20.896792
_cell_length_b 14.316629
_cell_length_c 8.696703
_cell_angle_alpha 90.000000
_cell_angle_beta 90.000000
_cell_angle_gamma 90.000000
_cell_volume 2601.806711
_symmetry_space_group_name_H-M "P B C M"
_symmetry_group_IT_number 57
_symmetry_cell_setting 'orthorhombic'
loop_
_space_group_symop_operation_xyz
x,y,z
-x,-y,1/2+z
x,1/2-y,-z
-x,1/2+y,1/2-z
-x,-y,-z
x,y,1/2-z
-x,1/2+y,z
x,1/2-y,1/2+z
loop_
_atom_site_type_symbol
_atom_site_label
_atom_site_fract_x
_atom_site_fract_y
_atom_site_fract_z
Si Si1 0.885209 0.351332 0.433737
Si Si2 0.717894 0.646032 0.565507
Si Si3 0.404313 0.456421 0.934439
Si Si4 0.155012 0.035769 0.564793
Si Si5 0.031628 0.351902 0.064511
Si Si6 0.528268 0.147345 0.934500
O O1 0.869122 0.250000 0.500000
O O2 0.883961 0.348379 0.250000
O O3 0.840515 0.432892 0.495816
O O4 0.958827 0.373111 0.484456
O O5 0.710570 0.750000 0.500000
O O6 0.714616 0.649834 0.750000
O O7 0.661795 0.580005 0.502997
O O8 0.786406 0.602299 0.520458
O O9 0.403542 0.448671 0.750000
O O10 0.421867 0.564019 0.974158
O O11 0.460974 0.390731 0.999376
O O12 0.154066 0.029701 0.750000
O O13 0.087349 0.079176 0.511979
O O14 0.032376 0.349691 0.250000
O O15 0.046962 0.250000 0.000000
O O16 0.524000 0.152920 0.750000
O O17 0.542889 0.250000 0.000000
#
# Coordination Sequence:
#
# PCOD9436858 Si02
#       6
#     8   8   8   8   8   8
#     4  10  20  34  54  77 102 135 174 220 271 322
#     4  11  23  38  57  80 109 144 179 218 263 314
#     4  10  21  37  57  82 113 148 184 221 263 313
#     4  10  21  36  53  76 106 139 177 220 265 315
#     4   9  18  32  51  77 106 135 171 217 269 321
#     4  10  20  35  58  86 114 144 179 222 268 313
#
# _framework density 18.448719000000001
#
# number of rings (size 3 to 8) (size 9 to 14) (size 15 to 20)
#    0.000    2.000    0.000    3.500    0.000    4.667 
#    0.000    0.833    0.000    2.000    0.000    0.000 
#    0.000    0.000    0.000    0.000    0.000    0.000 
#
# Total GULP energy -268013.480321 kJ/mol
# GULP energy per Si atom -5583.614173 kJ/mol
# Density = 1.840673 g / cm^3
# Si number density = 18.448719 Si / 1000 Ang^3
#
#
#
# Elastic Constant Matrix: (Units=GPa)
#
#
# Indices 1 2 3 4 5 6 
#
# 1 19.5561 46.4867 19.3056 0.0000 0.0000 0.0000
# 2 46.4867 147.5932 36.5340 0.0000 0.0000 0.0000
# 3 19.3056 36.5340 31.8005 0.0000 0.0000 0.0000
# 4 0.0000 0.0000 0.0000 35.0303 0.0000 0.0000
# 5 0.0000 0.0000 0.0000 0.0000 20.2623 0.0000
# 6 0.0000 0.0000 0.0000 0.0000 0.0000 24.8440
#
#
#
# Elastic Compliance Matrix: (Units=1/GPa)
#
#
# Indices 1 2 3 4 5 6 
#
# 1 0.446035 -0.102650 -0.152851 0.000000 0.000000 0.000000
# 2 -0.102650 0.033091 0.024300 0.000000 0.000000 0.000000
# 3 -0.152851 0.024300 0.096322 0.000000 0.000000 0.000000
# 4 0.000000 0.000000 0.000000 0.028547 0.000000 0.000000
# 5 0.000000 0.000000 0.000000 0.000000 0.049353 0.000000
# 6 0.000000 0.000000 0.000000 0.000000 0.000000 0.040251
#
#
# Mechanical properties :
#
#
# Convention : Reuss Voigt Hill
#
# Bulk Modulus (GPa) = 8.84590 44.84471 26.84530
# Shear Modulus (GPa) = 4.18872 22.46888 13.32880
#
# Velocity S-wave (km/s) = 1.50844 3.49364 2.69081
# Velocity P-wave (km/s) = 2.79984 6.37453 4.92309
#
# Compressibility (1/GPa) = 0.11304671
#
# Stress axis : x y z
#
# Youngs Moduli (GPa) = 2.24198 30.21930 10.38180
#
# Poissons Ratio (x) = 3.10200 1.58687
# Poissons Ratio (y) = 0.23014 -0.25228
# Poissons Ratio (z) = 0.34269 -0.73432
#
# Static dielectric constant tensor:
#      x y z
#    x 1.630190 0.000000 0.000000 
#    y 0.000000 1.626280 0.000000 
#    z 0.000000 0.000000 1.614810 
# 
# From -- ./inp_files/7875.got.cif
#   From: 2010.05.17/outbox.cif.g08.bks.cpg/sg57_4_cif.got.tgz:7875.got - 2010.06.03 13:58:18.
