data_PCOD9436264
_publ_section_title
;
Structure prediction by ZEFSAII (Michael W. Deem and Ramdas Pophale) SiO2 
 PCOD9436264
Probable space group: P B C M
;
_chemical_formula_sum "Si O2"
_cell_formula_units_Z 64
_cell_length_a 10.692731
_cell_length_b 16.497607
_cell_length_c 19.065635
_cell_angle_alpha 90.000000
_cell_angle_beta 90.000000
_cell_angle_gamma 90.000000
_cell_volume 3363.263310
_symmetry_space_group_name_H-M "P B C M"
_symmetry_group_IT_number 57
_symmetry_cell_setting 'orthorhombic'
loop_
_space_group_symop_operation_xyz
x,y,z
-x,-y,1/2+z
x,1/2-y,-z
-x,1/2+y,1/2-z
-x,-y,-z
x,y,1/2-z
-x,1/2+y,z
x,1/2-y,1/2+z
loop_
_atom_site_type_symbol
_atom_site_label
_atom_site_fract_x
_atom_site_fract_y
_atom_site_fract_z
Si Si1 0.049211 0.945627 0.565066
Si Si2 0.426900 0.147585 0.824751
Si Si3 0.731719 0.013796 0.328349
Si Si4 0.650968 0.050179 0.623351
Si Si5 0.669871 0.780330 0.575352
Si Si6 0.242398 0.654671 0.990613
Si Si7 0.177404 0.099141 0.332570
Si Si8 0.466353 0.920191 0.922214
O O1 0.113093 0.868030 0.528253
O O2 0.940029 0.925242 0.619353
O O3 0.160770 0.982555 0.612945
O O4 0.000000 0.000000 0.500000
O O5 0.415294 0.191231 0.750000
O O6 0.325339 0.076096 0.827595
O O7 0.561586 0.105498 0.829779
O O8 0.401073 0.206164 0.888602
O O9 0.776938 0.034300 0.250000
O O10 0.612300 0.069807 0.349498
O O11 0.746721 0.111786 0.585238
O O12 0.724884 0.976115 0.659246
O O13 0.547795 0.002603 0.574670
O O14 0.719895 0.750000 0.500000
O O15 0.766990 0.820697 0.629617
O O16 0.566966 0.850243 0.566901
O O17 0.265708 0.750000 0.000000
O O18 0.353220 0.605189 0.028135
O O19 0.151534 0.111180 0.250000
#
# Coordination Sequence:
#
# PCOD9436264 Si02
#       8
#     8   8   8   8   8   8   8   8
#     4  11  23  41  62  84 113 161 215 264 306 359
#     4  10  20  35  57  89 125 156 190 241 310 375
#     4   9  20  37  60  84 114 157 204 251 304 368
#     4  10  19  35  61  89 123 157 201 247 308 379
#     4  11  23  36  59  91 128 161 197 246 311 374
#     4  11  21  36  58  89 124 157 200 260 312 365
#     4  11  24  42  63  88 120 164 215 263 313 376
#     4   9  19  33  57  88 121 159 198 241 303 374
#
# _framework density 19.029138
#
# number of rings (size 3 to 8) (size 9 to 14) (size 15 to 20)
#    0.000    1.750    1.250    3.375    1.750    6.000 
#    0.000    0.000    0.000    2.250    0.000    0.000 
#    0.000    0.000    0.000    0.000    0.000    0.000 
#
# Total GULP energy -356335.718277 kJ/mol
# GULP energy per Si atom -5567.745598 kJ/mol
# Density = 1.898583 g / cm^3
# Si number density = 19.029138 Si / 1000 Ang^3
#
#
#
# Elastic Constant Matrix: (Units=GPa)
#
#
# Indices 1 2 3 4 5 6 
#
# 1 82.7223 20.6828 40.6165 0.0000 0.0000 0.0000
# 2 20.6828 69.3483 48.8666 0.0000 0.0000 0.0000
# 3 40.6165 48.8666 133.2381 0.0000 0.0000 0.0000
# 4 0.0000 0.0000 0.0000 19.5512 0.0000 0.0000
# 5 0.0000 0.0000 0.0000 0.0000 12.4199 0.0000
# 6 0.0000 0.0000 0.0000 0.0000 0.0000 17.6352
#
#
#
# Elastic Compliance Matrix: (Units=1/GPa)
#
#
# Indices 1 2 3 4 5 6 
#
# 1 0.014349 -0.001615 -0.003782 0.000000 0.000000 0.000000
# 2 -0.001615 0.019627 -0.006706 0.000000 0.000000 0.000000
# 3 -0.003782 -0.006706 0.011118 0.000000 0.000000 0.000000
# 4 0.000000 0.000000 0.000000 0.051148 0.000000 0.000000
# 5 0.000000 0.000000 0.000000 0.000000 0.080516 0.000000
# 6 0.000000 0.000000 0.000000 0.000000 0.000000 0.056705
#
#
# Mechanical properties :
#
#
# Convention : Reuss Voigt Hill
#
# Bulk Modulus (GPa) = 47.87331 56.18229 52.02780
# Shear Modulus (GPa) = 18.89418 21.59744 20.24581
#
# Velocity S-wave (km/s) = 3.15446 3.37258 3.26534
# Velocity P-wave (km/s) = 6.20323 6.68986 6.45113
#
# Compressibility (1/GPa) = 0.02088847
#
# Stress axis : x y z
#
# Youngs Moduli (GPa) = 69.68969 50.94987 89.94487
#
# Poissons Ratio (x) = 0.08226 0.34018
# Poissons Ratio (y) = 0.11252 0.60320
# Poissons Ratio (z) = 0.26357 0.34169
#
# Static dielectric constant tensor:
#      x y z
#    x 1.669350 0.000000 0.000000 
#    y 0.000000 1.643350 0.000000 
#    z 0.000000 0.000000 1.732310 
# 
# From -- ./inp_files/22171.got.cif
#   From: 2010.05.17/outbox.cif.g08.bks.cpg/sg57_12_cif.got.tgz:22171.got - 2010.06.03 13:58:18.
