data_PCOD9436702
_publ_section_title
;
Structure prediction by ZEFSAII (Michael W. Deem and Ramdas Pophale) SiO2 
 PCOD9436702
Probable space group: P B C M
;
_chemical_formula_sum "Si O2"
_cell_formula_units_Z 40
_cell_length_a 14.578765
_cell_length_b 14.962012
_cell_length_c 8.885693
_cell_angle_alpha 90.000000
_cell_angle_beta 90.000000
_cell_angle_gamma 90.000000
_cell_volume 1938.215394
_symmetry_space_group_name_H-M "P B C M"
_symmetry_group_IT_number 57
_symmetry_cell_setting 'orthorhombic'
loop_
_space_group_symop_operation_xyz
x,y,z
-x,-y,1/2+z
x,1/2-y,-z
-x,1/2+y,1/2-z
-x,-y,-z
x,y,1/2-z
-x,1/2+y,z
x,1/2-y,1/2+z
loop_
_atom_site_type_symbol
_atom_site_label
_atom_site_fract_x
_atom_site_fract_y
_atom_site_fract_z
Si Si1 0.265138 0.348377 0.927959
Si Si2 0.918555 0.060375 0.576857
Si Si3 0.399705 0.511781 0.569220
Si Si4 0.257950 0.850271 0.930966
Si Si5 0.093409 0.342687 0.420181
O O1 0.257055 0.335717 0.750000
O O2 0.343809 0.420046 0.960565
O O3 0.284162 0.250000 0.000000
O O4 0.169844 0.396162 0.985113
O O5 0.898764 0.033035 0.750000
O O6 0.831012 0.092993 0.485377
O O7 0.985406 0.146032 0.585818
O O8 0.000000 0.000000 0.500000
O O9 0.500000 0.500000 0.500000
O O10 0.402895 0.524579 0.750000
O O11 0.344696 0.594006 0.494199
O O12 0.259670 0.845429 0.750000
O O13 0.254946 0.750000 0.000000
O O14 0.107151 0.250000 0.500000
O O15 0.126631 0.347982 0.250000
#
# Coordination Sequence:
#
# PCOD9436702 Si02
#       5
#     8   8   8   8   8
#     4  10  21  37  61  91 124 161 203 255 316 382
#     4  11  23  38  59  90 127 170 217 264 318 383
#     4  11  25  45  68  95 126 164 213 271 335 405
#     4  12  26  45  69  97 133 179 228 283 344 409
#     4  10  20  33  53  81 114 152 193 237 289 351
#
# _framework density 20.637540999999999
#
# number of rings (size 3 to 8) (size 9 to 14) (size 15 to 20)
#    0.000    1.200    0.000    7.200    0.000   12.000 
#    0.000    2.000    0.000    0.000    0.000    0.000 
#    0.000    0.000    0.000    0.000    0.000    0.000 
#
# Total GULP energy -222856.294423 kJ/mol
# GULP energy per Si atom -5571.407361 kJ/mol
# Density = 2.059057 g / cm^3
# Si number density = 20.637541 Si / 1000 Ang^3
#
#
#
# Elastic Constant Matrix: (Units=GPa)
#
#
# Indices 1 2 3 4 5 6 
#
# 1 152.4770 38.7290 64.5808 0.0000 0.0000 0.0000
# 2 38.7290 105.0251 56.6528 0.0000 0.0000 0.0000
# 3 64.5808 56.6528 152.2332 0.0000 0.0000 0.0000
# 4 0.0000 0.0000 0.0000 30.6228 0.0000 0.0000
# 5 0.0000 0.0000 0.0000 0.0000 38.2052 0.0000
# 6 0.0000 0.0000 0.0000 0.0000 0.0000 31.5278
#
#
#
# Elastic Compliance Matrix: (Units=1/GPa)
#
#
# Indices 1 2 3 4 5 6 
#
# 1 0.008163 -0.001429 -0.002931 0.000000 0.000000 0.000000
# 2 -0.001429 0.012163 -0.003920 0.000000 0.000000 0.000000
# 3 -0.002931 -0.003920 0.009271 0.000000 0.000000 0.000000
# 4 0.000000 0.000000 0.000000 0.032655 0.000000 0.000000
# 5 0.000000 0.000000 0.000000 0.000000 0.026174 0.000000
# 6 0.000000 0.000000 0.000000 0.000000 0.000000 0.031718
#
#
# Mechanical properties :
#
#
# Convention : Reuss Voigt Hill
#
# Bulk Modulus (GPa) = 76.70759 81.07336 78.89047
# Shear Modulus (GPa) = 35.44816 36.72268 36.08542
#
# Velocity S-wave (km/s) = 4.14896 4.22288 4.18608
# Velocity P-wave (km/s) = 7.75896 7.94649 7.85328
#
# Compressibility (1/GPa) = 0.01303652
#
# Stress axis : x y z
#
# Youngs Moduli (GPa) = 122.50768 82.21546 107.86132
#
# Poissons Ratio (x) = 0.11749 0.31614
# Poissons Ratio (y) = 0.17507 0.42284
# Poissons Ratio (z) = 0.35907 0.32230
#
# Static dielectric constant tensor:
#      x y z
#    x 1.512630 0.000000 0.000000 
#    y 0.000000 1.549440 0.000000 
#    z 0.000000 0.000000 1.653540 
# 
# From -- ./inp_files/2689.got.cif
#   From: 2010.05.17/outbox.cif.g08.bks.cpg/sg57_2_cif.got.tgz:2689.got - 2010.06.03 13:58:18.
