data_PCOD9436891
_publ_section_title
;
Structure prediction by ZEFSAII (Michael W. Deem and Ramdas Pophale) SiO2 
 PCOD9436891
Probable space group: P B C M
;
_chemical_formula_sum "Si O2"
_cell_formula_units_Z 48
_cell_length_a 16.878315
_cell_length_b 18.206412
_cell_length_c 8.853311
_cell_angle_alpha 90.000000
_cell_angle_beta 90.000000
_cell_angle_gamma 90.000000
_cell_volume 2720.565426
_symmetry_space_group_name_H-M "P B C M"
_symmetry_group_IT_number 57
_symmetry_cell_setting 'orthorhombic'
loop_
_space_group_symop_operation_xyz
x,y,z
-x,-y,1/2+z
x,1/2-y,-z
-x,1/2+y,1/2-z
-x,-y,-z
x,y,1/2-z
-x,1/2+y,z
x,1/2-y,1/2+z
loop_
_atom_site_type_symbol
_atom_site_label
_atom_site_fract_x
_atom_site_fract_y
_atom_site_fract_z
Si Si1 0.257477 0.051508 0.572224
Si Si2 0.661102 0.171980 0.929987
Si Si3 0.816219 0.108895 0.429336
Si Si4 0.992399 0.081375 0.432510
Si Si5 0.851606 0.830002 0.929822
Si Si6 0.418203 0.971900 0.931586
O O1 0.253829 0.069493 0.750000
O O2 0.219613 0.116957 0.479160
O O3 0.206875 0.976845 0.549626
O O4 0.347117 0.028997 0.533246
O O5 0.654517 0.172790 0.750000
O O6 0.637765 0.250000 0.000000
O O7 0.751823 0.154990 0.979265
O O8 0.609244 0.105753 0.999055
O O9 0.807028 0.124958 0.250000
O O10 0.907640 0.116513 0.474504
O O11 0.992939 0.075109 0.250000
O O12 0.066752 0.130580 0.480618
O O13 0.000000 0.000000 0.500000
O O14 0.853951 0.824115 0.750000
O O15 0.844159 0.750000 0.000000
O O16 0.422456 0.965290 0.750000
O O17 0.500000 0.000000 0.000000
#
# Coordination Sequence:
#
# PCOD9436891 Si02
#       6
#     8   8   8   8   8   8
#     4   9  18  35  58  80 109 144 178 224 275 327
#     4  11  22  37  58  85 118 153 189 234 287 339
#     4   9  18  34  55  80 111 146 186 231 281 337
#     4  10  20  34  54  80 110 147 192 238 283 334
#     4  11  23  36  53  78 110 148 192 236 282 331
#     4  10  21  39  63  91 119 148 185 227 278 341
#
# _framework density 17.643391000000001
#
# number of rings (size 3 to 8) (size 9 to 14) (size 15 to 20)
#    0.000    2.000    1.667    3.500    0.000    5.333 
#    0.000    2.500    0.000    4.000    0.000    0.000 
#    0.000    0.000    0.000    0.000    0.000    0.000 
#
# Total GULP energy -268015.087897 kJ/mol
# GULP energy per Si atom -5583.647665 kJ/mol
# Density = 1.760323 g / cm^3
# Si number density = 17.643391 Si / 1000 Ang^3
#
#
#
# Elastic Constant Matrix: (Units=GPa)
#
#
# Indices 1 2 3 4 5 6 
#
# 1 142.5978 73.2693 61.4342 0.0000 0.0000 0.0000
# 2 73.2693 113.6895 62.7375 0.0000 0.0000 0.0000
# 3 61.4342 62.7375 76.5054 0.0000 0.0000 0.0000
# 4 0.0000 0.0000 0.0000 30.1450 0.0000 0.0000
# 5 0.0000 0.0000 0.0000 0.0000 28.8978 0.0000
# 6 0.0000 0.0000 0.0000 0.0000 0.0000 14.7044
#
#
#
# Elastic Compliance Matrix: (Units=1/GPa)
#
#
# Indices 1 2 3 4 5 6 
#
# 1 0.011786 -0.004334 -0.005910 0.000000 0.000000 0.000000
# 2 -0.004334 0.017660 -0.011002 0.000000 0.000000 0.000000
# 3 -0.005910 -0.011002 0.026838 0.000000 0.000000 0.000000
# 4 0.000000 0.000000 0.000000 0.033173 0.000000 0.000000
# 5 0.000000 0.000000 0.000000 0.000000 0.034605 0.000000
# 6 0.000000 0.000000 0.000000 0.000000 0.000000 0.068007
#
#
# Mechanical properties :
#
#
# Convention : Reuss Voigt Hill
#
# Bulk Modulus (GPa) = 72.50075 80.85275 76.67675
# Shear Modulus (GPa) = 20.90665 23.77287 22.33976
#
# Velocity S-wave (km/s) = 3.44605 3.67469 3.56221
# Velocity P-wave (km/s) = 7.55084 7.99563 7.77641
#
# Compressibility (1/GPa) = 0.01379296
#
# Stress axis : x y z
#
# Youngs Moduli (GPa) = 84.84728 56.62389 37.26029
#
# Poissons Ratio (x) = 0.24544 0.22020
# Poissons Ratio (y) = 0.36777 0.40992
# Poissons Ratio (z) = 0.50142 0.62295
#
# Static dielectric constant tensor:
#      x y z
#    x 1.602090 0.000000 0.000000 
#    y 0.000000 1.570940 0.000000 
#    z 0.000000 0.000000 1.580650 
# 
# From -- ./inp_files/4593.got.cif
#   From: 2010.05.17/outbox.cif.g08.bks.cpg/sg57_3_cif.got.tgz:4593.got - 2010.06.03 13:58:18.
