data_PCOD9436777
_publ_section_title
;
Structure prediction by ZEFSAII (Michael W. Deem and Ramdas Pophale) SiO2 
 PCOD9436777
Probable space group: P B C M
;
_chemical_formula_sum "Si O2"
_cell_formula_units_Z 64
_cell_length_a 23.117123
_cell_length_b 18.102917
_cell_length_c 8.781480
_cell_angle_alpha 90.000000
_cell_angle_beta 90.000000
_cell_angle_gamma 90.000000
_cell_volume 3674.938373
_symmetry_space_group_name_H-M "P B C M"
_symmetry_group_IT_number 57
_symmetry_cell_setting 'orthorhombic'
loop_
_space_group_symop_operation_xyz
x,y,z
-x,-y,1/2+z
x,1/2-y,-z
-x,1/2+y,1/2-z
-x,-y,-z
x,y,1/2-z
-x,1/2+y,z
x,1/2-y,1/2+z
loop_
_atom_site_type_symbol
_atom_site_label
_atom_site_fract_x
_atom_site_fract_y
_atom_site_fract_z
Si Si1 0.240986 0.510369 0.067642
Si Si2 0.462770 0.932512 0.432525
Si Si3 0.045263 0.326845 0.933184
Si Si4 0.207045 0.826462 0.567381
Si Si5 0.080513 0.621178 0.434006
Si Si6 0.119069 0.031196 0.432736
Si Si7 0.553515 0.830547 0.932825
Si Si8 0.360841 0.034095 0.067267
O O1 0.236470 0.507629 0.250000
O O2 0.238782 0.597451 0.021971
O O3 0.183975 0.473687 0.996372
O O4 0.299294 0.472062 0.011888
O O5 0.468715 0.929726 0.250000
O O6 0.491809 0.860386 0.504722
O O7 0.500000 0.000000 0.500000
O O8 0.397977 0.959866 0.468444
O O9 0.045037 0.323302 0.750000
O O10 0.085705 0.394832 0.978835
O O11 0.979083 0.341568 0.983767
O O12 0.066043 0.250000 0.000000
O O13 0.229572 0.750000 0.500000
O O14 0.208700 0.821840 0.750000
O O15 0.139687 0.837646 0.520091
O O16 0.080642 0.616570 0.250000
O O17 0.085494 0.539353 0.501100
O O18 0.120201 0.026820 0.250000
O O19 0.551615 0.827636 0.750000
O O20 0.601212 0.893390 0.975961
O O21 0.566503 0.750000 0.000000
O O22 0.353874 0.036957 0.250000
#
# Coordination Sequence:
#
# PCOD9436777 Si02
#       8
#     8   8   8   8   8   8   8   8
#     4  10  21  36  54  75 100 135 177 217 256 303
#     4   9  17  31  52  78 107 137 168 205 252 303
#     4  10  21  34  50  74 102 131 165 208 257 310
#     4   9  18  31  48  72  99 126 159 202 251 303
#     4   9  18  33  51  74 101 126 161 206 253 312
#     4  10  20  34  52  74  99 131 171 212 256 307
#     4  10  20  34  54  82 113 142 175 217 262 306
#     4   9  19  35  55  79 105 136 176 217 255 302
#
# _framework density 17.415257
#
# number of rings (size 3 to 8) (size 9 to 14) (size 15 to 20)
#    0.000    2.500    0.000    3.750    0.000    7.000 
#    0.000    1.250    0.000    1.500    0.000    0.000 
#    0.000    0.000    0.000    0.000    0.000    0.000 
#
# Total GULP energy -356814.940802 kJ/mol
# GULP energy per Si atom -5575.233450 kJ/mol
# Density = 1.737562 g / cm^3
# Si number density = 17.415257 Si / 1000 Ang^3
#
#
#
# Elastic Constant Matrix: (Units=GPa)
#
#
# Indices 1 2 3 4 5 6 
#
# 1 56.2540 35.1815 16.1595 0.0000 0.0000 0.0000
# 2 35.1815 109.8890 22.5534 0.0000 0.0000 0.0000
# 3 16.1595 22.5534 19.3252 0.0000 0.0000 0.0000
# 4 0.0000 0.0000 0.0000 32.1136 0.0000 0.0000
# 5 0.0000 0.0000 0.0000 0.0000 21.4675 0.0000
# 6 0.0000 0.0000 0.0000 0.0000 0.0000 15.6997
#
#
#
# Elastic Compliance Matrix: (Units=1/GPa)
#
#
# Indices 1 2 3 4 5 6 
#
# 1 0.025282 -0.004938 -0.015378 0.000000 0.000000 0.000000
# 2 -0.004938 0.012931 -0.010962 0.000000 0.000000 0.000000
# 3 -0.015378 -0.010962 0.077398 0.000000 0.000000 0.000000
# 4 0.000000 0.000000 0.000000 0.031139 0.000000 0.000000
# 5 0.000000 0.000000 0.000000 0.000000 0.046582 0.000000
# 6 0.000000 0.000000 0.000000 0.000000 0.000000 0.063696
#
#
# Mechanical properties :
#
#
# Convention : Reuss Voigt Hill
#
# Bulk Modulus (GPa) = 18.84817 37.02855 27.93836
# Shear Modulus (GPa) = 14.82501 21.29441 18.05971
#
# Velocity S-wave (km/s) = 2.92081 3.50057 3.22375
# Velocity P-wave (km/s) = 4.71393 6.13571 5.47120
#
# Compressibility (1/GPa) = 0.05305555
#
# Stress axis : x y z
#
# Youngs Moduli (GPa) = 39.55346 77.33459 12.92031
#
# Poissons Ratio (x) = 0.38189 0.19868
# Poissons Ratio (y) = 0.19532 0.14163
# Poissons Ratio (z) = 0.60824 0.84772
#
# Static dielectric constant tensor:
#      x y z
#    x 1.577320 0.000000 0.000000 
#    y 0.000000 1.579570 0.000000 
#    z 0.000000 0.000000 1.579850 
# 
# From -- ./inp_files/8436.got.cif
#   From: 2010.05.17/outbox.cif.g08.bks.cpg/sg57_5_cif.got.tgz:8436.got - 2010.06.03 13:58:18.
