data_PCOD9436949
_publ_section_title
;
Structure prediction by ZEFSAII (Michael W. Deem and Ramdas Pophale) SiO2 
 PCOD9436949
Probable space group: P B C M
;
_chemical_formula_sum "Si O2"
_cell_formula_units_Z 64
_cell_length_a 21.243282
_cell_length_b 9.240107
_cell_length_c 17.263244
_cell_angle_alpha 90.000000
_cell_angle_beta 90.000000
_cell_angle_gamma 90.000000
_cell_volume 3388.605595
_symmetry_space_group_name_H-M "P B C M"
_symmetry_group_IT_number 57
_symmetry_cell_setting 'orthorhombic'
loop_
_space_group_symop_operation_xyz
x,y,z
-x,-y,1/2+z
x,1/2-y,-z
-x,1/2+y,1/2-z
-x,-y,-z
x,y,1/2-z
-x,1/2+y,z
x,1/2-y,1/2+z
loop_
_atom_site_type_symbol
_atom_site_label
_atom_site_fract_x
_atom_site_fract_y
_atom_site_fract_z
Si Si1 0.445563 0.598235 0.155520
Si Si2 0.061704 0.522564 0.157490
Si Si3 0.200272 0.014141 0.839546
Si Si4 0.430304 0.928895 0.157449
Si Si5 0.327190 0.430400 0.412891
Si Si6 0.050242 0.205770 0.410261
Si Si7 0.822004 0.862102 0.840244
Si Si8 0.687824 0.903447 0.596670
O O1 0.440860 0.590507 0.250000
O O2 0.440103 0.764825 0.130490
O O3 0.512386 0.530836 0.130910
O O4 0.389011 0.508288 0.118041
O O5 0.055980 0.546410 0.250000
O O6 0.134220 0.553427 0.133754
O O7 0.049945 0.353633 0.139374
O O8 0.011378 0.615511 0.110984
O O9 0.209395 0.975089 0.750000
O O10 0.264470 0.987551 0.884318
O O11 0.189304 0.188081 0.843367
O O12 0.434307 0.925319 0.250000
O O13 0.363126 0.993623 0.135513
O O14 0.326167 0.264588 0.382249
O O15 0.321727 0.420018 0.505090
O O16 0.053376 0.250000 0.500000
O O17 0.112838 0.116902 0.385770
O O18 0.828170 0.902895 0.750000
O O19 0.759845 0.931138 0.877977
#
# Coordination Sequence:
#
# PCOD9436949 Si02
#       8
#     8   8   8   8   8   8   8   8
#     4  10  21  37  60  83 111 147 188 235 284 342
#     4  10  20  37  58  82 114 155 197 240 294 353
#     4   8  16  31  55  79 107 145 189 231 276 341
#     4  10  21  38  58  83 111 146 190 236 284 341
#     4  10  20  34  55  84 111 145 188 230 290 339
#     4  11  22  35  58  87 119 152 195 249 295 349
#     4   9  18  33  55  81 110 150 189 233 287 342
#     4  10  21  34  56  83 114 146 184 239 283 341
#
# _framework density 18.886825000000002
#
# number of rings (size 3 to 8) (size 9 to 14) (size 15 to 20)
#    0.000    2.250    0.000    3.750    5.250    3.500 
#    0.000    1.250    0.000    3.000    0.000    0.000 
#    0.000    0.000    0.000    0.000    0.000    0.000 
#
# Total GULP energy -357112.553769 kJ/mol
# GULP energy per Si atom -5579.883653 kJ/mol
# Density = 1.884384 g / cm^3
# Si number density = 18.886825 Si / 1000 Ang^3
#
#
#
# Elastic Constant Matrix: (Units=GPa)
#
#
# Indices 1 2 3 4 5 6 
#
# 1 129.7069 38.5634 38.2800 0.0000 0.0000 0.0000
# 2 38.5634 49.9991 16.2028 0.0000 0.0000 0.0000
# 3 38.2800 16.2028 39.1840 0.0000 0.0000 0.0000
# 4 0.0000 0.0000 0.0000 -1.8226 0.0000 0.0000
# 5 0.0000 0.0000 0.0000 0.0000 -61.4346 0.0000
# 6 0.0000 0.0000 0.0000 0.0000 0.0000 31.4761
#
#
#
# Elastic Compliance Matrix: (Units=1/GPa)
#
#
# Indices 1 2 3 4 5 6 
#
# 1 0.012442 -0.006533 -0.009454 0.000000 0.000000 0.000000
# 2 -0.006533 0.026525 -0.004586 0.000000 0.000000 0.000000
# 3 -0.009454 -0.004586 0.036653 0.000000 0.000000 0.000000
# 4 0.000000 0.000000 0.000000 -0.548681 0.000000 0.000000
# 5 0.000000 0.000000 0.000000 0.000000 -0.016277 0.000000
# 6 0.000000 0.000000 0.000000 0.000000 0.000000 0.031770
#
#
# Mechanical properties :
#
#
# Convention : Reuss Voigt Hill
#
# Bulk Modulus (GPa) = 29.00696 44.99805 37.00251
# Shear Modulus (GPa) = -12.34775 2.03335 -5.15720
#
# Velocity S-wave (km/s) = -2.55968 1.03872 -1.65424
# Velocity P-wave (km/s) = 2.57987 5.03144 3.99819
#
# Compressibility (1/GPa) = 0.03447448
#
# Stress axis : x y z
#
# Youngs Moduli (GPa) = 80.37313 37.70003 27.28317
#
# Poissons Ratio (x) = 0.24628 0.25792
# Poissons Ratio (y) = 0.52505 0.12513
# Poissons Ratio (z) = 0.75982 0.17290
#
# Static dielectric constant tensor:
#      x y z
#    x 1.652100 0.000000 0.000000 
#    y 0.000000 1.652180 0.000000 
#    z 0.000000 0.000000 1.666140 
# 
# From -- ./inp_files/23050.got.cif
#   From: 2010.05.17/outbox.cif.g08.bks.cpg/sg57_12_cif.got.tgz:23050.got - 2010.06.03 13:58:18.
