data_PCOD9436099
_publ_section_title
;
Structure prediction by ZEFSAII (Michael W. Deem and Ramdas Pophale) SiO2 
 PCOD9436099
Probable space group: P B C M
;
_chemical_formula_sum "Si O2"
_cell_formula_units_Z 60
_cell_length_a 18.512388
_cell_length_b 9.335538
_cell_length_c 18.400382
_cell_angle_alpha 90.000000
_cell_angle_beta 90.000000
_cell_angle_gamma 90.000000
_cell_volume 3180.011089
_symmetry_space_group_name_H-M "P B C M"
_symmetry_group_IT_number 57
_symmetry_cell_setting 'orthorhombic'
loop_
_space_group_symop_operation_xyz
x,y,z
-x,-y,1/2+z
x,1/2-y,-z
-x,1/2+y,1/2-z
-x,-y,-z
x,y,1/2-z
-x,1/2+y,z
x,1/2-y,1/2+z
loop_
_atom_site_type_symbol
_atom_site_label
_atom_site_fract_x
_atom_site_fract_y
_atom_site_fract_z
Si Si1 0.418994 0.630667 0.381579
Si Si2 0.851168 0.360700 0.836835
Si Si3 0.677720 0.250000 0.000000
Si Si4 0.712737 0.956588 0.332864
Si Si5 0.199321 0.920275 0.086055
Si Si6 0.556089 0.039937 0.836944
Si Si7 0.298368 0.364028 0.662271
Si Si8 0.929867 0.414042 0.522809
O O1 0.376175 0.645887 0.456993
O O2 0.358996 0.551353 0.333487
O O3 0.435676 0.792258 0.355382
O O4 0.490335 0.535171 0.378806
O O5 0.863165 0.372981 0.750000
O O6 0.779520 0.449723 0.860549
O O7 0.835724 0.196191 0.859346
O O8 0.912841 0.417417 0.891184
O O9 0.731694 0.160187 0.949274
O O10 0.733096 0.927461 0.250000
O O11 0.698410 0.799858 0.365290
O O12 0.141228 0.957302 0.023783
O O13 0.230233 0.056133 0.127896
O O14 0.542747 0.026190 0.750000
O O15 0.629167 0.953495 0.854735
O O16 0.293433 0.367671 0.750000
O O17 0.941341 0.250000 0.500000
O O18 0.000000 0.500000 0.500000
#
# Coordination Sequence:
#
# PCOD9436099 Si02
#       8
#     8   8   4   8   8   8   8   8
#     4  12  23  38  58  83 118 160 205 256 312 371
#     4  10  19  36  63  90 118 159 208 256 304 359
#     4  12  22  40  64  86 120 156 212 252 306 382
#     4  10  19  34  58  88 118 149 198 257 309 360
#     4  11  19  41  65  89 121 162 208 253 307 383
#     4  11  22  37  57  81 111 152 203 256 315 364
#     4  10  21  36  58  91 120 154 207 263 313 369
#     4  10  22  40  63  90 127 164 204 245 310 384
#
# _framework density 18.867857000000001
#
# number of rings (size 3 to 8) (size 9 to 14) (size 15 to 20)
#    0.000    1.333    4.667    2.400    0.000    4.800 
#    0.000    5.333    0.000    0.000    0.000    0.000 
#    0.000    0.000    0.000    0.000    0.000    0.000 
#
# Total GULP energy -334702.728200 kJ/mol
# GULP energy per Si atom -5578.378803 kJ/mol
# Density = 1.882491 g / cm^3
# Si number density = 18.867857 Si / 1000 Ang^3
#
#
#
# Elastic Constant Matrix: (Units=GPa)
#
#
# Indices 1 2 3 4 5 6 
#
# 1 112.6795 49.1957 57.4596 0.0000 0.0000 0.0000
# 2 49.1957 97.9321 25.0987 0.0000 0.0000 0.0000
# 3 57.4596 25.0987 83.1815 0.0000 0.0000 0.0000
# 4 0.0000 0.0000 0.0000 19.3212 0.0000 0.0000
# 5 0.0000 0.0000 0.0000 0.0000 15.2525 0.0000
# 6 0.0000 0.0000 0.0000 0.0000 0.0000 34.5681
#
#
#
# Elastic Compliance Matrix: (Units=1/GPa)
#
#
# Indices 1 2 3 4 5 6 
#
# 1 0.016193 -0.005709 -0.009463 0.000000 0.000000 0.000000
# 2 -0.005709 0.013080 -0.000003 0.000000 0.000000 0.000000
# 3 -0.009463 -0.000003 0.018560 0.000000 0.000000 0.000000
# 4 0.000000 0.000000 0.000000 0.051757 0.000000 0.000000
# 5 0.000000 0.000000 0.000000 0.000000 0.065563 0.000000
# 6 0.000000 0.000000 0.000000 0.000000 0.000000 0.028928
#
#
# Mechanical properties :
#
#
# Convention : Reuss Voigt Hill
#
# Bulk Modulus (GPa) = 57.20094 61.92234 59.56164
# Shear Modulus (GPa) = 21.71481 24.63098 23.17289
#
# Velocity S-wave (km/s) = 3.39616 3.61702 3.50832
# Velocity P-wave (km/s) = 6.76468 7.09464 6.93163
#
# Compressibility (1/GPa) = 0.01748223
#
# Stress axis : x y z
#
# Youngs Moduli (GPa) = 61.75552 76.45333 53.88066
#
# Poissons Ratio (x) = 0.43649 0.50987
# Poissons Ratio (y) = 0.35257 0.00016
# Poissons Ratio (z) = 0.58439 0.00022
#
# Static dielectric constant tensor:
#      x y z
#    x 1.648860 0.000000 0.000000 
#    y 0.000000 1.678330 0.000000 
#    z 0.000000 0.000000 1.796270 
# 
# From -- ./inp_files/22878.got.cif
#   From: 2010.05.17/outbox.cif.g08.bks.cpg/sg57_12_cif.got.tgz:22878.got - 2010.06.03 13:58:18.
