data_PCOD9436920
_publ_section_title
;
Structure prediction by ZEFSAII (Michael W. Deem and Ramdas Pophale) SiO2 
 PCOD9436920
Probable space group: P B C M
;
_chemical_formula_sum "Si O2"
_cell_formula_units_Z 48
_cell_length_a 7.070914
_cell_length_b 21.266738
_cell_length_c 14.167739
_cell_angle_alpha 90.000000
_cell_angle_beta 90.000000
_cell_angle_gamma 90.000000
_cell_volume 2130.477655
_symmetry_space_group_name_H-M "P B C M"
_symmetry_group_IT_number 57
_symmetry_cell_setting 'orthorhombic'
loop_
_space_group_symop_operation_xyz
x,y,z
-x,-y,1/2+z
x,1/2-y,-z
-x,1/2+y,1/2-z
-x,-y,-z
x,y,1/2-z
-x,1/2+y,z
x,1/2-y,1/2+z
loop_
_atom_site_type_symbol
_atom_site_label
_atom_site_fract_x
_atom_site_fract_y
_atom_site_fract_z
Si Si1 0.091046 0.817927 0.506664
Si Si2 0.234719 0.159193 0.636970
Si Si3 0.334069 0.426953 0.859198
Si Si4 0.270731 0.204713 0.363079
Si Si5 0.584317 0.966983 0.141950
Si Si6 0.080283 0.951051 0.577744
O O1 0.196420 0.750000 0.500000
O O2 0.968877 0.835291 0.413024
O O3 0.928403 0.801173 0.583599
O O4 0.169777 0.885934 0.537965
O O5 0.209588 0.153020 0.750000
O O6 0.340769 0.224975 0.617233
O O7 0.348723 0.099075 0.599775
O O8 0.394280 0.428820 0.750000
O O9 0.386056 0.356937 0.893147
O O10 0.422191 0.489760 0.903206
O O11 0.108565 0.431993 0.866284
O O12 0.244585 0.200580 0.250000
O O13 0.528505 0.951669 0.250000
O O14 0.767537 0.011531 0.138182
O O15 0.000000 0.000000 0.500000
#
# Coordination Sequence:
#
# PCOD9436920 Si02
#       6
#     8   8   8   8   8   8
#     4   9  17  31  51  74 106 138 177 218 260 316
#     4   9  16  29  50  76 104 139 177 217 263 315
#     4   9  19  35  54  76 102 137 178 222 263 314
#     4   8  15  29  51  74 100 136 178 217 261 313
#     4  10  20  34  55  80 106 137 178 221 267 320
#     4  11  20  33  53  79 106 138 173 216 270 317
#
# _framework density 22.530159999999999
#
# number of rings (size 3 to 8) (size 9 to 14) (size 15 to 20)
#    0.000    2.667    1.667    0.500    0.000    1.333 
#    0.000    0.000    3.667    1.000    0.000    0.000 
#    0.000    0.000    0.000    0.000    0.000    0.000 
#
# Total GULP energy -267310.858814 kJ/mol
# GULP energy per Si atom -5568.976225 kJ/mol
# Density = 2.247888 g / cm^3
# Si number density = 22.530160 Si / 1000 Ang^3
#
#
#
# Elastic Constant Matrix: (Units=GPa)
#
#
# Indices 1 2 3 4 5 6 
#
# 1 35.8532 9.0098 -1.5373 0.0000 0.0000 0.0000
# 2 9.0098 195.2451 28.7032 0.0000 0.0000 0.0000
# 3 -1.5373 28.7032 64.1601 0.0000 0.0000 0.0000
# 4 0.0000 0.0000 0.0000 21.2454 0.0000 0.0000
# 5 0.0000 0.0000 0.0000 0.0000 -5.4058 0.0000
# 6 0.0000 0.0000 0.0000 0.0000 0.0000 15.1779
#
#
#
# Elastic Compliance Matrix: (Units=1/GPa)
#
#
# Indices 1 2 3 4 5 6 
#
# 1 0.028328 -0.001506 0.001353 0.000000 0.000000 0.000000
# 2 -0.001506 0.005562 -0.002525 0.000000 0.000000 0.000000
# 3 0.001353 -0.002525 0.016748 0.000000 0.000000 0.000000
# 4 0.000000 0.000000 0.000000 0.047069 0.000000 0.000000
# 5 0.000000 0.000000 0.000000 0.000000 -0.184985 0.000000
# 6 0.000000 0.000000 0.000000 0.000000 0.000000 0.065885
#
#
# Mechanical properties :
#
#
# Convention : Reuss Voigt Hill
#
# Bulk Modulus (GPa) = 22.08382 40.84555 31.46468
# Shear Modulus (GPa) = -5302.77637 23.47567 -2639.65035
#
# Velocity S-wave (km/s) = -48.56690 3.23145 -34.26589
# Velocity P-wave (km/s) = 55.99258 5.66495 39.38958
#
# Compressibility (1/GPa) = 0.04528203
#
# Stress axis : x y z
#
# Youngs Moduli (GPa) = 35.30080 179.77847 59.70928
#
# Poissons Ratio (x) = 0.27076 -0.08076
# Poissons Ratio (y) = 0.05317 0.15074
# Poissons Ratio (z) = -0.04775 0.45386
#
# Static dielectric constant tensor:
#      x y z
#    x 1.816480 0.000000 0.000000 
#    y 0.000000 1.951960 0.000000 
#    z 0.000000 0.000000 1.880000 
# 
# From -- ./inp_files/16526.got.cif
#   From: 2010.05.17/outbox.cif.g08.bks.cpg/sg57_9_cif.got.tgz:16526.got - 2010.06.03 13:58:18.
