data_PCOD9436487
_publ_section_title
;
Structure prediction by ZEFSAII (Michael W. Deem and Ramdas Pophale) SiO2 
 PCOD9436487
Probable space group: P B C M
;
_chemical_formula_sum "Si O2"
_cell_formula_units_Z 64
_cell_length_a 5.497038
_cell_length_b 27.468660
_cell_length_c 23.402462
_cell_angle_alpha 90.000000
_cell_angle_beta 90.000000
_cell_angle_gamma 90.000000
_cell_volume 3533.684420
_symmetry_space_group_name_H-M "P B C M"
_symmetry_group_IT_number 57
_symmetry_cell_setting 'orthorhombic'
loop_
_space_group_symop_operation_xyz
x,y,z
-x,-y,1/2+z
x,1/2-y,-z
-x,1/2+y,1/2-z
-x,-y,-z
x,y,1/2-z
-x,1/2+y,z
x,1/2-y,1/2+z
loop_
_atom_site_type_symbol
_atom_site_label
_atom_site_fract_x
_atom_site_fract_y
_atom_site_fract_z
Si Si1 0.604783 0.007523 0.593446
Si Si2 0.009644 0.077499 0.383127
Si Si3 0.576638 0.265928 0.819012
Si Si4 0.994854 0.397130 0.319353
Si Si5 0.501799 0.845515 0.319874
Si Si6 0.235014 0.494338 0.182500
Si Si7 0.200034 0.541554 0.488265
Si Si8 0.923603 0.821775 0.680696
O O1 0.398424 0.984068 0.552203
O O2 0.777172 0.961935 0.607741
O O3 0.477950 0.023335 0.651537
O O4 0.706675 0.049956 0.552294
O O5 0.903073 0.083456 0.447311
O O6 0.073873 0.126952 0.351969
O O7 0.827940 0.047244 0.341945
O O8 0.586302 0.264436 0.750000
O O9 0.539346 0.210326 0.838109
O O10 0.330906 0.295291 0.833572
O O11 0.832863 0.291158 0.835812
O O12 0.995333 0.395075 0.250000
O O13 0.237678 0.367744 0.338332
O O14 0.035215 0.453835 0.334299
O O15 0.740033 0.374556 0.337954
O O16 0.507711 0.846583 0.250000
O O17 0.260237 0.495352 0.250000
O O18 0.000000 0.500000 0.500000
O O19 0.930688 0.828654 0.750000
#
# Coordination Sequence:
#
# PCOD9436487 Si02
#       8
#     8   8   8   8   8   8   8   8
#     4   9  18  32  51  67  94 136 169 214 247 296
#     4  10  20  31  47  68 101 142 169 213 252 308
#     4   9  18  31  47  66  93 131 175 217 254 299
#     4   9  18  29  45  67  93 129 174 212 247 302
#     4   9  16  30  48  64  87 127 173 217 259 290
#     4  10  21  31  43  70 106 144 175 204 251 315
#     4   8  16  33  51  69  87 126 170 220 262 283
#     4  10  20  31  45  70 103 139 176 207 247 311
#
# _framework density 18.111408000000001
#
# number of rings (size 3 to 8) (size 9 to 14) (size 15 to 20)
#    0.000    2.750    0.000    1.125    5.250    4.000 
#    0.000    0.000    0.000    0.000    0.000    0.000 
#    0.000    1.000    5.500    0.000    0.000    0.000 
#
# Total GULP energy -356276.389092 kJ/mol
# GULP energy per Si atom -5566.818580 kJ/mol
# Density = 1.807019 g / cm^3
# Si number density = 18.111408 Si / 1000 Ang^3
#
#
#
# Elastic Constant Matrix: (Units=GPa)
#
#
# Indices 1 2 3 4 5 6 
#
# 1 95.6863 28.4866 11.4370 0.0000 0.0000 0.0000
# 2 28.4866 79.2675 7.6023 0.0000 0.0000 0.0000
# 3 11.4370 7.6023 43.1579 0.0000 0.0000 0.0000
# 4 0.0000 0.0000 0.0000 7.7041 0.0000 0.0000
# 5 0.0000 0.0000 0.0000 0.0000 22.9315 0.0000
# 6 0.0000 0.0000 0.0000 0.0000 0.0000 24.4295
#
#
#
# Elastic Compliance Matrix: (Units=1/GPa)
#
#
# Indices 1 2 3 4 5 6 
#
# 1 0.011953 -0.004060 -0.002452 0.000000 0.000000 0.000000
# 2 -0.004060 0.014212 -0.001427 0.000000 0.000000 0.000000
# 3 -0.002452 -0.001427 0.024072 0.000000 0.000000 0.000000
# 4 0.000000 0.000000 0.000000 0.129802 0.000000 0.000000
# 5 0.000000 0.000000 0.000000 0.000000 0.043608 0.000000
# 6 0.000000 0.000000 0.000000 0.000000 0.000000 0.040934
#
#
# Mechanical properties :
#
#
# Convention : Reuss Voigt Hill
#
# Bulk Modulus (GPa) = 29.10669 34.79597 31.95133
# Shear Modulus (GPa) = 17.12844 22.38540 19.75692
#
# Velocity S-wave (km/s) = 3.07860 3.51947 3.30639
# Velocity P-wave (km/s) = 5.36124 5.98076 5.67945
#
# Compressibility (1/GPa) = 0.03435636
#
# Stress axis : x y z
#
# Youngs Moduli (GPa) = 83.66303 70.36515 41.54195
#
# Poissons Ratio (x) = 0.28570 0.10187
# Poissons Ratio (y) = 0.33970 0.05930
# Poissons Ratio (z) = 0.20517 0.10044
#
# Static dielectric constant tensor:
#      x y z
#    x 1.715630 0.000000 0.000000 
#    y 0.000000 1.621540 0.000000 
#    z 0.000000 0.000000 1.626820 
# 
# From -- ./inp_files/26419.got.cif
#   From: 2010.05.17/outbox.cif.g08.bks.cpg/sg57_14_cif.got.tgz:26419.got - 2010.06.03 13:58:18.
