data_PCOD9436511
_publ_section_title
;
Structure prediction by ZEFSAII (Michael W. Deem and Ramdas Pophale) SiO2 
 PCOD9436511
Probable space group: P B C M
;
_chemical_formula_sum "Si O2"
_cell_formula_units_Z 40
_cell_length_a 14.319005
_cell_length_b 18.570138
_cell_length_c 9.101738
_cell_angle_alpha 90.000000
_cell_angle_beta 90.000000
_cell_angle_gamma 90.000000
_cell_volume 2420.205824
_symmetry_space_group_name_H-M "P B C M"
_symmetry_group_IT_number 57
_symmetry_cell_setting 'orthorhombic'
loop_
_space_group_symop_operation_xyz
x,y,z
-x,-y,1/2+z
x,1/2-y,-z
-x,1/2+y,1/2-z
-x,-y,-z
x,y,1/2-z
-x,1/2+y,z
x,1/2-y,1/2+z
loop_
_atom_site_type_symbol
_atom_site_label
_atom_site_fract_x
_atom_site_fract_y
_atom_site_fract_z
Si Si1 0.541429 0.927646 0.073500
Si Si2 0.721581 0.533890 0.419524
Si Si3 0.350976 0.867833 0.416980
Si Si4 0.902555 0.479375 0.573346
Si Si5 0.172448 0.679117 0.076905
O O1 0.548295 0.936877 0.250000
O O2 0.460780 0.868464 0.045557
O O3 0.643025 0.918940 0.001780
O O4 0.500000 0.000000 0.000000
O O5 0.734183 0.555782 0.250000
O O6 0.680981 0.451914 0.417222
O O7 0.818673 0.527125 0.505966
O O8 0.337998 0.841108 0.250000
O O9 0.279834 0.829950 0.525669
O O10 0.905106 0.486587 0.750000
O O11 0.878088 0.395871 0.537709
O O12 0.000000 0.500000 0.500000
O O13 0.167947 0.687791 0.250000
O O14 0.132927 0.750000 0.000000
#
# Coordination Sequence:
#
# PCOD9436511 Si02
#       5
#     8   8   8   8   8
#     4   9  15  23  37  59  87 118 148 179 216 261
#     4   9  16  26  41  62  89 120 151 188 231 275
#     4   8  15  26  40  60  88 119 149 182 222 268
#     4  10  20  33  49  70  95 125 161 204 251 297
#     4  10  20  32  48  69  94 124 158 195 239 291
#
# _framework density 16.527519000000002
#
# number of rings (size 3 to 8) (size 9 to 14) (size 15 to 20)
#    0.000    2.800    0.000    3.600    0.000    8.000 
#    0.000    0.000    0.000    0.000    0.000    1.400 
#    0.000    3.200    0.000    0.000    0.000    0.000 
#
# Total GULP energy -222710.140703 kJ/mol
# GULP energy per Si atom -5567.753518 kJ/mol
# Density = 1.648990 g / cm^3
# Si number density = 16.527519 Si / 1000 Ang^3
#
#
#
# Elastic Constant Matrix: (Units=GPa)
#
#
# Indices 1 2 3 4 5 6 
#
# 1 147.2015 31.8020 65.1600 0.0000 0.0000 0.0000
# 2 31.8020 38.7500 33.1879 0.0000 0.0000 0.0000
# 3 65.1600 33.1879 86.3206 0.0000 0.0000 0.0000
# 4 0.0000 0.0000 0.0000 18.6490 0.0000 0.0000
# 5 0.0000 0.0000 0.0000 0.0000 32.1865 0.0000
# 6 0.0000 0.0000 0.0000 0.0000 0.0000 8.4517
#
#
#
# Elastic Compliance Matrix: (Units=1/GPa)
#
#
# Indices 1 2 3 4 5 6 
#
# 1 0.010388 -0.002698 -0.006804 0.000000 0.000000 0.000000
# 2 -0.002698 0.039177 -0.013026 0.000000 0.000000 0.000000
# 3 -0.006804 -0.013026 0.021729 0.000000 0.000000 0.000000
# 4 0.000000 0.000000 0.000000 0.053622 0.000000 0.000000
# 5 0.000000 0.000000 0.000000 0.000000 0.031069 0.000000
# 6 0.000000 0.000000 0.000000 0.000000 0.000000 0.118320
#
#
# Mechanical properties :
#
#
# Convention : Reuss Voigt Hill
#
# Bulk Modulus (GPa) = 38.11285 59.17467 48.64376
# Shear Modulus (GPa) = 15.23890 21.33223 18.28557
#
# Velocity S-wave (km/s) = 3.03979 3.59654 3.32982
# Velocity P-wave (km/s) = 5.95237 7.28891 6.65428
#
# Compressibility (1/GPa) = 0.02623787
#
# Stress axis : x y z
#
# Youngs Moduli (GPa) = 96.26187 25.52535 46.02101
#
# Poissons Ratio (x) = 0.06887 0.31315
# Poissons Ratio (y) = 0.25971 0.59946
# Poissons Ratio (z) = 0.65501 0.33249
#
# Static dielectric constant tensor:
#      x y z
#    x 1.573860 0.000000 0.000000 
#    y 0.000000 1.574390 0.000000 
#    z 0.000000 0.000000 1.557450 
# 
# From -- ./inp_files/2893.got.cif
#   From: 2010.05.17/outbox.cif.g08.bks.cpg/sg57_2_cif.got.tgz:2893.got - 2010.06.03 13:58:18.
