data_PCOD9436102
_publ_section_title
;
Structure prediction by ZEFSAII (Michael W. Deem and Ramdas Pophale) SiO2 
 PCOD9436102
Probable space group: P B C M
;
_chemical_formula_sum "Si O2"
_cell_formula_units_Z 64
_cell_length_a 15.970589
_cell_length_b 24.490030
_cell_length_c 8.425375
_cell_angle_alpha 90.000000
_cell_angle_beta 90.000000
_cell_angle_gamma 90.000000
_cell_volume 3295.334386
_symmetry_space_group_name_H-M "P B C M"
_symmetry_group_IT_number 57
_symmetry_cell_setting 'orthorhombic'
loop_
_space_group_symop_operation_xyz
x,y,z
-x,-y,1/2+z
x,1/2-y,-z
-x,1/2+y,1/2-z
-x,-y,-z
x,y,1/2-z
-x,1/2+y,z
x,1/2-y,1/2+z
loop_
_atom_site_type_symbol
_atom_site_label
_atom_site_fract_x
_atom_site_fract_y
_atom_site_fract_z
Si Si1 0.342301 0.620284 0.556378
Si Si2 0.658899 0.886360 0.060312
Si Si3 0.155656 0.878907 0.057980
Si Si4 0.095255 0.998063 0.058333
Si Si5 0.997030 0.811622 0.939982
Si Si6 0.404630 0.998666 0.440325
Si Si7 0.839687 0.884741 0.941803
Si Si8 0.496499 0.311683 0.442033
O O1 0.342782 0.620587 0.750000
O O2 0.249185 0.636835 0.505321
O O3 0.362379 0.558096 0.507369
O O4 0.417566 0.659333 0.503591
O O5 0.656956 0.887215 0.250000
O O6 0.582929 0.847706 0.004498
O O7 0.749447 0.866834 0.003116
O O8 0.642252 0.947527 0.999285
O O9 0.153722 0.877719 0.250000
O O10 0.137004 0.941329 0.007102
O O11 0.081955 0.840603 0.996585
O O12 0.095252 0.998544 0.250000
O O13 0.141867 0.053035 0.005129
O O14 0.000000 0.000000 0.000000
O O15 0.996269 0.811812 0.750000
O O16 0.916689 0.846847 0.995132
O O17 0.992286 0.750000 0.000000
O O18 0.404678 0.998986 0.250000
O O19 0.500000 0.000000 0.500000
O O20 0.838092 0.884376 0.750000
O O21 0.490962 0.250000 0.500000
O O22 0.496652 0.312084 0.250000
#
# Coordination Sequence:
#
# PCOD9436102 Si02
#       8
#     8   8   8   8   8   8   8   8
#     4   9  19  38  61  85 120 156 189 238 294 348
#     4  11  23  39  60  89 121 155 198 246 295 352
#     4  10  20  36  62  89 116 155 194 234 295 353
#     4  10  19  34  58  88 120 153 190 233 292 354
#     4  11  24  42  62  84 117 155 199 249 296 350
#     4  11  20  36  62  90 125 160 194 238 296 358
#     4  10  22  40  61  87 119 156 194 239 299 354
#     4  10  22  41  60  82 114 152 197 245 294 345
#
# _framework density 19.421396999999999
#
# number of rings (size 3 to 8) (size 9 to 14) (size 15 to 20)
#    0.000    1.750    2.500    1.875    0.000    5.500 
#    0.000    6.875    0.000    0.000    0.000    0.000 
#    0.000    0.000    0.000    0.000    0.000    0.000 
#
# Total GULP energy -357579.202961 kJ/mol
# GULP energy per Si atom -5587.175046 kJ/mol
# Density = 1.937719 g / cm^3
# Si number density = 19.421397 Si / 1000 Ang^3
#
#
#
# Elastic Constant Matrix: (Units=GPa)
#
#
# Indices 1 2 3 4 5 6 
#
# 1 178.9611 68.5825 23.1686 0.0000 0.0000 0.0000
# 2 68.5825 133.6079 20.1112 0.0000 0.0000 0.0000
# 3 23.1686 20.1112 14.3883 0.0000 0.0000 0.0000
# 4 0.0000 0.0000 0.0000 18.0234 0.0000 0.0000
# 5 0.0000 0.0000 0.0000 0.0000 29.2516 0.0000
# 6 0.0000 0.0000 0.0000 0.0000 0.0000 1.6185
#
#
#
# Elastic Compliance Matrix: (Units=1/GPa)
#
#
# Indices 1 2 3 4 5 6 
#
# 1 0.007738 -0.002655 -0.008749 0.000000 0.000000 0.000000
# 2 -0.002655 0.010390 -0.010247 0.000000 0.000000 0.000000
# 3 -0.008749 -0.010247 0.097912 0.000000 0.000000 0.000000
# 4 0.000000 0.000000 0.000000 0.055483 0.000000 0.000000
# 5 0.000000 0.000000 0.000000 0.000000 0.034186 0.000000
# 6 0.000000 0.000000 0.000000 0.000000 0.000000 0.617866
#
#
# Mechanical properties :
#
#
# Convention : Reuss Voigt Hill
#
# Bulk Modulus (GPa) = 13.74806 61.18688 37.46747
# Shear Modulus (GPa) = 5.61090 24.11836 14.86463
#
# Velocity S-wave (km/s) = 1.70156 3.52781 2.76954
# Velocity P-wave (km/s) = 3.30977 6.94026 5.43699
#
# Compressibility (1/GPa) = 0.07273754
#
# Stress axis : x y z
#
# Youngs Moduli (GPa) = 129.23352 96.24721 10.21326
#
# Poissons Ratio (x) = 0.25554 0.08935
# Poissons Ratio (y) = 0.34312 0.10466
# Poissons Ratio (z) = 1.13064 0.98627
#
# Static dielectric constant tensor:
#      x y z
#    x 1.671430 0.000000 0.000000 
#    y 0.000000 1.655780 0.000000 
#    z 0.000000 0.000000 1.669920 
# 
# From -- ./inp_files/5692.got.cif
#   From: 2010.05.17/outbox.cif.g08.bks.cpg/sg57_3_cif.got.tgz:5692.got - 2010.06.03 13:58:18.
