data_PCOD9436408
_publ_section_title
;
Structure prediction by ZEFSAII (Michael W. Deem and Ramdas Pophale) SiO2 
 PCOD9436408
Probable space group: P B C M
;
_chemical_formula_sum "Si O2"
_cell_formula_units_Z 44
_cell_length_a 6.938246
_cell_length_b 13.716548
_cell_length_c 23.839743
_cell_angle_alpha 90.000000
_cell_angle_beta 90.000000
_cell_angle_gamma 90.000000
_cell_volume 2268.799359
_symmetry_space_group_name_H-M "P B C M"
_symmetry_group_IT_number 57
_symmetry_cell_setting 'orthorhombic'
loop_
_space_group_symop_operation_xyz
x,y,z
-x,-y,1/2+z
x,1/2-y,-z
-x,1/2+y,1/2-z
-x,-y,-z
x,y,1/2-z
-x,1/2+y,z
x,1/2-y,1/2+z
loop_
_atom_site_type_symbol
_atom_site_label
_atom_site_fract_x
_atom_site_fract_y
_atom_site_fract_z
Si Si1 0.074112 0.887581 0.503348
Si Si2 0.380249 0.209209 0.119529
Si Si3 0.976578 0.915127 0.627459
Si Si4 0.053583 0.142060 0.884910
Si Si5 0.229430 0.731044 0.314644
Si Si6 0.572347 0.250000 0.500000
O O1 0.288220 0.845049 0.490864
O O2 0.044363 0.865998 0.568687
O O3 0.955763 0.841580 0.452143
O O4 0.000000 0.000000 0.500000
O O5 0.248935 0.112583 0.127450
O O6 0.241894 0.300273 0.135131
O O7 0.565054 0.206417 0.158931
O O8 0.450899 0.225485 0.055574
O O9 0.088005 0.861088 0.676917
O O10 0.038049 0.026985 0.625318
O O11 0.871585 0.186961 0.852667
O O12 0.242773 0.759141 0.250000
#
# Coordination Sequence:
#
# PCOD9436408 Si02
#       6
#     8   8   8   8   8   4
#     4  10  19  37  63  94 129 156 192 245 310 378
#     4  11  22  37  64  90 118 163 204 251 308 370
#     4  10  22  42  63  91 127 160 198 254 315 368
#     4  10  22  42  63  91 127 160 198 254 315 368
#     4  11  24  42  61  88 120 163 217 257 297 363
#     4  12  18  38  64  92 130 168 198 246 308 368
#
# _framework density 19.393519000000001
#
# number of rings (size 3 to 8) (size 9 to 14) (size 15 to 20)
#    0.000    1.455    3.636    2.182    0.000    5.091 
#    0.000    5.455    0.000    0.000    0.000    0.000 
#    0.000    0.000    0.000    0.000    0.000    0.000 
#
# Total GULP energy -245123.881310 kJ/mol
# GULP energy per Si atom -5570.997302 kJ/mol
# Density = 1.934938 g / cm^3
# Si number density = 19.393519 Si / 1000 Ang^3
#
#
#
# Elastic Constant Matrix: (Units=GPa)
#
#
# Indices 1 2 3 4 5 6 
#
# 1 95.7180 7.7105 10.8563 0.0000 0.0000 0.0000
# 2 7.7105 97.3854 -11.5030 0.0000 0.0000 0.0000
# 3 10.8563 -11.5030 82.4647 0.0000 0.0000 0.0000
# 4 0.0000 0.0000 0.0000 17.6343 0.0000 0.0000
# 5 0.0000 0.0000 0.0000 0.0000 6.1438 0.0000
# 6 0.0000 0.0000 0.0000 0.0000 0.0000 16.3244
#
#
#
# Elastic Compliance Matrix: (Units=1/GPa)
#
#
# Indices 1 2 3 4 5 6 
#
# 1 0.010707 -0.001031 -0.001553 0.000000 0.000000 0.000000
# 2 -0.001031 0.010540 0.001606 0.000000 0.000000 0.000000
# 3 -0.001553 0.001606 0.012555 0.000000 0.000000 0.000000
# 4 0.000000 0.000000 0.000000 0.056708 0.000000 0.000000
# 5 0.000000 0.000000 0.000000 0.000000 0.162767 0.000000
# 6 0.000000 0.000000 0.000000 0.000000 0.000000 0.061258
#
#
# Mechanical properties :
#
#
# Convention : Reuss Voigt Hill
#
# Bulk Modulus (GPa) = 31.40288 32.18840 31.79564
# Shear Modulus (GPa) = 15.28557 25.92078 20.60318
#
# Velocity S-wave (km/s) = 2.81050 3.65988 3.26294
# Velocity P-wave (km/s) = 5.17296 5.87309 5.53410
#
# Compressibility (1/GPa) = 0.03184421
#
# Stress axis : x y z
#
# Youngs Moduli (GPa) = 93.40030 94.87836 79.65015
#
# Poissons Ratio (x) = 0.09784 0.12372
# Poissons Ratio (y) = 0.09631 -0.12791
# Poissons Ratio (z) = 0.14508 -0.15237
#
# Static dielectric constant tensor:
#      x y z
#    x 1.697680 0.000000 0.000000 
#    y 0.000000 1.840890 0.000000 
#    z 0.000000 0.000000 1.678030 
# 
# From -- ./inp_files/27896.got.cif
#   From: 2010.05.17/outbox.cif.g08.bks.cpg/sg57_14_cif.got.tgz:27896.got - 2010.06.03 13:58:18.
