data_PCOD9436284
_publ_section_title
;
Structure prediction by ZEFSAII (Michael W. Deem and Ramdas Pophale) SiO2 
 PCOD9436284
Probable space group: P B C M
;
_chemical_formula_sum "Si O2"
_cell_formula_units_Z 64
_cell_length_a 16.056111
_cell_length_b 7.525684
_cell_length_c 26.357237
_cell_angle_alpha 90.000000
_cell_angle_beta 90.000000
_cell_angle_gamma 90.000000
_cell_volume 3184.829755
_symmetry_space_group_name_H-M "P B C M"
_symmetry_group_IT_number 57
_symmetry_cell_setting 'orthorhombic'
loop_
_space_group_symop_operation_xyz
x,y,z
-x,-y,1/2+z
x,1/2-y,-z
-x,1/2+y,1/2-z
-x,-y,-z
x,y,1/2-z
-x,1/2+y,z
x,1/2-y,1/2+z
loop_
_atom_site_type_symbol
_atom_site_label
_atom_site_fract_x
_atom_site_fract_y
_atom_site_fract_z
Si Si1 0.945431 0.384095 0.807684
Si Si2 0.706595 0.681289 0.830214
Si Si3 0.624735 0.034924 0.694548
Si Si4 0.288470 0.663303 0.450741
Si Si5 0.615188 0.839984 0.065481
Si Si6 0.768719 0.196202 0.336821
Si Si7 0.119400 0.213022 0.191122
Si Si8 0.570865 0.058760 0.919829
O O1 0.960376 0.324312 0.750000
O O2 0.866025 0.273191 0.826353
O O3 0.912556 0.584113 0.807946
O O4 0.037930 0.383637 0.830805
O O5 0.652690 0.829645 0.802399
O O6 0.649566 0.635361 0.877787
O O7 0.736280 0.488375 0.810902
O O8 0.794768 0.782183 0.840010
O O9 0.589091 0.086409 0.750000
O O10 0.572120 0.057167 0.642332
O O11 0.707288 0.152554 0.683468
O O12 0.246823 0.750000 0.500000
O O13 0.319096 0.035768 0.536751
O O14 0.239633 0.671956 0.397661
O O15 0.370692 0.782058 0.438719
O O16 0.522427 0.915063 0.061056
O O17 0.606643 0.628747 0.060609
O O18 0.139345 0.159976 0.250000
#
# Coordination Sequence:
#
# PCOD9436284 Si02
#       8
#     8   8   8   8   8   8   8   8
#     4   9  17  28  46  72 102 133 167 207 252 297
#     4   9  19  33  51  68 101 142 171 204 254 298
#     4  10  20  32  51  73  99 137 176 209 248 300
#     4  10  21  36  57  81 102 130 169 216 274 320
#     4  10  19  36  56  72 106 136 163 216 259 307
#     4   9  19  35  52  73 103 135 169 212 259 311
#     4   9  17  28  43  70 101 129 170 213 245 291
#     4  10  20  36  53  75 106 132 172 213 257 308
#
# _framework density 20.095267
#
# number of rings (size 3 to 8) (size 9 to 14) (size 15 to 20)
#    0.000    2.500    1.250    0.750    1.750    2.500 
#    0.000    3.125    0.000    0.000    0.000    7.875 
#    0.000    0.000    0.000    0.000    0.000    0.000 
#
# Total GULP energy -356398.512640 kJ/mol
# GULP energy per Si atom -5568.726760 kJ/mol
# Density = 2.004953 g / cm^3
# Si number density = 20.095267 Si / 1000 Ang^3
#
#
#
# Elastic Constant Matrix: (Units=GPa)
#
#
# Indices 1 2 3 4 5 6 
#
# 1 34.7238 -5.2722 -14.2803 0.0000 0.0000 0.0000
# 2 -5.2722 52.2200 3.7157 0.0000 0.0000 0.0000
# 3 -14.2803 3.7157 74.3789 0.0000 0.0000 0.0000
# 4 0.0000 0.0000 0.0000 15.5073 0.0000 0.0000
# 5 0.0000 0.0000 0.0000 0.0000 19.0292 0.0000
# 6 0.0000 0.0000 0.0000 0.0000 0.0000 23.9517
#
#
#
# Elastic Compliance Matrix: (Units=1/GPa)
#
#
# Indices 1 2 3 4 5 6 
#
# 1 0.031663 0.002774 0.005940 0.000000 0.000000 0.000000
# 2 0.002774 0.019461 -0.000440 0.000000 0.000000 0.000000
# 3 0.005940 -0.000440 0.014607 0.000000 0.000000 0.000000
# 4 0.000000 0.000000 0.000000 0.064486 0.000000 0.000000
# 5 0.000000 0.000000 0.000000 0.000000 0.052551 0.000000
# 6 0.000000 0.000000 0.000000 0.000000 0.000000 0.041751
#
#
# Mechanical properties :
#
#
# Convention : Reuss Voigt Hill
#
# Bulk Modulus (GPa) = 12.15347 14.40547 13.27947
# Shear Modulus (GPa) = 21.24083 23.50827 22.37455
#
# Velocity S-wave (km/s) = 3.25469 3.42400 3.34042
# Velocity P-wave (km/s) = 4.49278 4.77660 4.63686
#
# Compressibility (1/GPa) = 0.08228102
#
# Stress axis : x y z
#
# Youngs Moduli (GPa) = 31.58270 51.38457 68.45956
#
# Poissons Ratio (x) = -0.14254 -0.40668
# Poissons Ratio (y) = -0.08761 0.03010
# Poissons Ratio (z) = -0.18762 0.02259
#
# Static dielectric constant tensor:
#      x y z
#    x 1.704520 0.000000 0.000000 
#    y 0.000000 1.775470 0.000000 
#    z 0.000000 0.000000 1.751810 
# 
# From -- ./inp_files/27487.got.cif
#   From: 2010.05.17/outbox.cif.g08.bks.cpg/sg57_14_cif.got.tgz:27487.got - 2010.06.03 13:58:18.
