data_PCOD9436776
_publ_section_title
;
Structure prediction by ZEFSAII (Michael W. Deem and Ramdas Pophale) SiO2 
 PCOD9436776
Probable space group: P B C M
;
_chemical_formula_sum "Si O2"
_cell_formula_units_Z 56
_cell_length_a 20.004048
_cell_length_b 18.783267
_cell_length_c 8.259695
_cell_angle_alpha 90.000000
_cell_angle_beta 90.000000
_cell_angle_gamma 90.000000
_cell_volume 3103.509154
_symmetry_space_group_name_H-M "P B C M"
_symmetry_group_IT_number 57
_symmetry_cell_setting 'orthorhombic'
loop_
_space_group_symop_operation_xyz
x,y,z
-x,-y,1/2+z
x,1/2-y,-z
-x,1/2+y,1/2-z
-x,-y,-z
x,y,1/2-z
-x,1/2+y,z
x,1/2-y,1/2+z
loop_
_atom_site_type_symbol
_atom_site_label
_atom_site_fract_x
_atom_site_fract_y
_atom_site_fract_z
Si Si1 0.588642 0.832146 0.445993
Si Si2 0.928793 0.527612 0.942437
Si Si3 0.443475 0.832263 0.054819
Si Si4 0.860995 0.828505 0.055203
Si Si5 0.795694 0.044124 0.943161
Si Si6 0.297240 0.668459 0.945930
Si Si7 0.725295 0.902236 0.446195
O O1 0.594579 0.750000 0.500000
O O2 0.589384 0.832972 0.250000
O O3 0.515699 0.861023 0.500711
O O4 0.653095 0.875659 0.503043
O O5 0.930710 0.532442 0.750000
O O6 0.907398 0.606332 0.004716
O O7 0.868349 0.475049 0.988935
O O8 0.000000 0.500000 0.000000
O O9 0.443547 0.835368 0.250000
O O10 0.370883 0.859606 0.999662
O O11 0.443856 0.750000 0.000000
O O12 0.862305 0.829493 0.250000
O O13 0.785019 0.848358 0.004866
O O14 0.880023 0.750000 0.000000
O O15 0.801276 0.047646 0.750000
O O16 0.761343 0.116570 0.003477
O O17 0.747210 0.978846 0.989419
O O18 0.297079 0.667685 0.750000
O O19 0.289558 0.750000 0.000000
O O20 0.725105 0.905158 0.250000
#
# Coordination Sequence:
#
# PCOD9436776 Si02
#       7
#     8   8   8   8   8   8   8
#     4   9  16  26  43  66  94 128 167 208 250 293
#     4  10  21  38  58  80 105 133 163 196 237 290
#     4   8  14  26  43  64  91 124 161 205 252 294
#     4   9  18  31  49  74 102 129 162 199 234 278
#     4  10  20  34  52  74  98 127 162 200 242 292
#     4   9  18  32  51  73  96 124 164 210 253 295
#     4   9  18  31  45  67  99 133 166 202 244 292
#
# _framework density 18.044089
#
# number of rings (size 3 to 8) (size 9 to 14) (size 15 to 20)
#    0.000    2.857    0.000    2.143    0.000    4.571 
#    0.000    1.429    0.000    0.000    0.000    0.000 
#    0.000    0.000    0.000    0.000    0.000    0.000 
#
# Total GULP energy -311914.010558 kJ/mol
# GULP energy per Si atom -5569.893046 kJ/mol
# Density = 1.800302 g / cm^3
# Si number density = 18.044089 Si / 1000 Ang^3
#
#
#
# Elastic Constant Matrix: (Units=GPa)
#
#
# Indices 1 2 3 4 5 6 
#
# 1 172.9183 90.0976 21.3174 0.0000 0.0000 0.0000
# 2 90.0976 89.8677 10.4539 0.0000 0.0000 0.0000
# 3 21.3174 10.4539 11.8831 0.0000 0.0000 0.0000
# 4 0.0000 0.0000 0.0000 23.0262 0.0000 0.0000
# 5 0.0000 0.0000 0.0000 0.0000 7.1388 0.0000
# 6 0.0000 0.0000 0.0000 0.0000 0.0000 21.8638
#
#
#
# Elastic Compliance Matrix: (Units=1/GPa)
#
#
# Indices 1 2 3 4 5 6 
#
# 1 0.013970 -0.012355 -0.014192 0.000000 0.000000 0.000000
# 2 -0.012355 0.023323 0.001646 0.000000 0.000000 0.000000
# 3 -0.014192 0.001646 0.108165 0.000000 0.000000 0.000000
# 4 0.000000 0.000000 0.000000 0.043429 0.000000 0.000000
# 5 0.000000 0.000000 0.000000 0.000000 0.140079 0.000000
# 6 0.000000 0.000000 0.000000 0.000000 0.000000 0.045738
#
#
# Mechanical properties :
#
#
# Convention : Reuss Voigt Hill
#
# Bulk Modulus (GPa) = 10.45415 57.60075 34.02745
# Shear Modulus (GPa) = 10.95553 20.59245 15.77399
#
# Velocity S-wave (km/s) = 2.46672 3.38187 2.95988
# Velocity P-wave (km/s) = 3.73084 6.87321 5.52993
#
# Compressibility (1/GPa) = 0.09565581
#
# Stress axis : x y z
#
# Youngs Moduli (GPa) = 71.58107 42.87705 9.24512
#
# Poissons Ratio (x) = 0.52974 0.13121
# Poissons Ratio (y) = 0.88438 -0.01522
# Poissons Ratio (z) = 1.01591 -0.07060
#
# Static dielectric constant tensor:
#      x y z
#    x 1.665730 0.000000 0.000000 
#    y 0.000000 1.599230 0.000000 
#    z 0.000000 0.000000 1.619990 
# 
# From -- ./inp_files/8050.got.cif
#   From: 2010.05.17/outbox.cif.g08.bks.cpg/sg57_5_cif.got.tgz:8050.got - 2010.06.03 13:58:18.
