data_PCOD9436929
_publ_section_title
;
Structure prediction by ZEFSAII (Michael W. Deem and Ramdas Pophale) SiO2 
 PCOD9436929
Probable space group: P B C M
;
_chemical_formula_sum "Si O2"
_cell_formula_units_Z 64
_cell_length_a 14.798733
_cell_length_b 26.374452
_cell_length_c 8.388591
_cell_angle_alpha 90.000000
_cell_angle_beta 90.000000
_cell_angle_gamma 90.000000
_cell_volume 3274.138145
_symmetry_space_group_name_H-M "P B C M"
_symmetry_group_IT_number 57
_symmetry_cell_setting 'orthorhombic'
loop_
_space_group_symop_operation_xyz
x,y,z
-x,-y,1/2+z
x,1/2-y,-z
-x,1/2+y,1/2-z
-x,-y,-z
x,y,1/2-z
-x,1/2+y,z
x,1/2-y,1/2+z
loop_
_atom_site_type_symbol
_atom_site_label
_atom_site_fract_x
_atom_site_fract_y
_atom_site_fract_z
Si Si1 0.413340 0.306880 0.941309
Si Si2 0.880995 0.098552 0.056813
Si Si3 0.206847 0.193670 0.057810
Si Si4 0.762509 0.193688 0.439799
Si Si5 0.211149 0.495405 0.557382
Si Si6 0.910702 0.598789 0.055058
Si Si7 0.594353 0.477680 0.057672
Si Si8 0.587445 0.138378 0.940161
O O1 0.417525 0.308389 0.750000
O O2 0.310208 0.318189 0.991908
O O3 0.433930 0.250000 0.000000
O O4 0.487819 0.344196 0.010688
O O5 0.879247 0.098009 0.250000
O O6 0.831061 0.149890 0.001778
O O7 0.985300 0.096541 0.004397
O O8 0.829033 0.049098 0.996061
O O9 0.206192 0.194095 0.250000
O O10 0.138523 0.150338 0.002984
O O11 0.183969 0.250000 0.000000
O O12 0.782305 0.250000 0.500000
O O13 0.767507 0.194558 0.250000
O O14 0.662441 0.175781 0.489151
O O15 0.210977 0.494132 0.750000
O O16 0.147888 0.449498 0.501224
O O17 0.315754 0.492423 0.504833
O O18 0.910343 0.598484 0.250000
O O19 0.593086 0.477961 0.250000
O O20 0.604061 0.419219 0.004626
O O21 0.500000 0.500000 0.000000
O O22 0.595875 0.139793 0.750000
#
# Coordination Sequence:
#
# PCOD9436929 Si02
#       8
#     8   8   8   8   8   8   8   8
#     4  10  20  34  55  81 109 146 186 226 275 333
#     4  10  21  38  59  85 115 147 187 236 287 335
#     4   9  19  36  57  81 113 149 185 229 279 333
#     4  11  23  38  58  84 115 153 194 238 288 344
#     4  10  20  38  62  85 114 150 188 231 282 339
#     4   9  19  36  60  86 112 147 189 232 280 340
#     4  10  23  38  57  85 116 151 187 230 281 337
#     4  11  22  38  57  81 114 148 187 235 283 336
#
# _framework density 19.547128000000001
#
# number of rings (size 3 to 8) (size 9 to 14) (size 15 to 20)
#    0.000    2.000    1.250    1.875    1.750    3.000 
#    0.000    1.250    0.000    0.000    0.000    0.000 
#    0.000    0.000    0.000    0.000    0.000    0.000 
#
# Total GULP energy -357469.087256 kJ/mol
# GULP energy per Si atom -5585.454488 kJ/mol
# Density = 1.950264 g / cm^3
# Si number density = 19.547128 Si / 1000 Ang^3
#
#
#
# Elastic Constant Matrix: (Units=GPa)
#
#
# Indices 1 2 3 4 5 6 
#
# 1 149.9085 82.0680 11.8743 0.0000 0.0000 0.0000
# 2 82.0680 121.9122 12.7648 0.0000 0.0000 0.0000
# 3 11.8743 12.7648 10.1421 0.0000 0.0000 0.0000
# 4 0.0000 0.0000 0.0000 26.3556 0.0000 0.0000
# 5 0.0000 0.0000 0.0000 0.0000 -4.5096 0.0000
# 6 0.0000 0.0000 0.0000 0.0000 0.0000 20.7332
#
#
#
# Elastic Compliance Matrix: (Units=1/GPa)
#
#
# Indices 1 2 3 4 5 6 
#
# 1 0.010702 -0.006787 -0.003988 0.000000 0.000000 0.000000
# 2 -0.006787 0.013752 -0.009362 0.000000 0.000000 0.000000
# 3 -0.003988 -0.009362 0.115050 0.000000 0.000000 0.000000
# 4 0.000000 0.000000 0.000000 0.037943 0.000000 0.000000
# 5 0.000000 0.000000 0.000000 0.000000 -0.221748 0.000000
# 6 0.000000 0.000000 0.000000 0.000000 0.000000 0.048232
#
#
# Mechanical properties :
#
#
# Convention : Reuss Voigt Hill
#
# Bulk Modulus (GPa) = 10.07751 55.04188 32.55969
# Shear Modulus (GPa) = 64.69973 20.19956 42.44964
#
# Velocity S-wave (km/s) = 5.75945 3.21811 4.66516
# Velocity P-wave (km/s) = 7.02815 6.48290 6.76102
#
# Compressibility (1/GPa) = 0.09923089
#
# Stress axis : x y z
#
# Youngs Moduli (GPa) = 93.43975 72.71931 8.69185
#
# Poissons Ratio (x) = 0.49353 0.03466
# Poissons Ratio (y) = 0.63415 0.08137
# Poissons Ratio (z) = 0.37265 0.68077
#
# Static dielectric constant tensor:
#      x y z
#    x 1.675930 0.000000 0.000000 
#    y 0.000000 1.660440 0.000000 
#    z 0.000000 0.000000 1.671850 
# 
# From -- ./inp_files/5617.got.cif
#   From: 2010.05.17/outbox.cif.g08.bks.cpg/sg57_3_cif.got.tgz:5617.got - 2010.06.03 13:58:18.
