data_PCOD9436021
_publ_section_title
;
Structure prediction by ZEFSAII (Michael W. Deem and Ramdas Pophale) SiO2 
 PCOD9436021
Probable space group: P B C M
;
_chemical_formula_sum "Si O2"
_cell_formula_units_Z 56
_cell_length_a 22.224988
_cell_length_b 14.225389
_cell_length_c 8.901846
_cell_angle_alpha 90.000000
_cell_angle_beta 90.000000
_cell_angle_gamma 90.000000
_cell_volume 2814.399618
_symmetry_space_group_name_H-M "P B C M"
_symmetry_group_IT_number 57
_symmetry_cell_setting 'orthorhombic'
loop_
_space_group_symop_operation_xyz
x,y,z
-x,-y,1/2+z
x,1/2-y,-z
-x,1/2+y,1/2-z
-x,-y,-z
x,y,1/2-z
-x,1/2+y,z
x,1/2-y,1/2+z
loop_
_atom_site_type_symbol
_atom_site_label
_atom_site_fract_x
_atom_site_fract_y
_atom_site_fract_z
Si Si1 0.585015 0.558143 0.930129
Si Si2 0.832870 0.852727 0.930262
Si Si3 0.062486 0.472021 0.423078
Si Si4 0.866204 0.334820 0.919586
Si Si5 0.533334 0.148472 0.430490
Si Si6 0.271863 0.845839 0.568576
Si Si7 0.707526 0.955324 0.569953
O O1 0.583706 0.567531 0.750000
O O2 0.572326 0.446497 0.964351
O O3 0.531762 0.618720 0.004073
O O4 0.648938 0.591153 0.995912
O O5 0.835630 0.849065 0.750000
O O6 0.772421 0.911138 0.972229
O O7 0.826921 0.750000 0.000000
O O8 0.894240 0.899157 0.992134
O O9 0.052938 0.442350 0.250000
O O10 0.100009 0.568326 0.424102
O O11 0.000000 0.500000 0.500000
O O12 0.858548 0.303276 0.750000
O O13 0.798775 0.347334 0.978479
O O14 0.899450 0.250000 0.000000
O O15 0.551291 0.250000 0.500000
O O16 0.531877 0.157953 0.250000
O O17 0.297765 0.750000 0.500000
O O18 0.277704 0.848227 0.750000
O O19 0.295741 0.939548 0.494314
O O20 0.703047 0.954057 0.750000
#
# Coordination Sequence:
#
# PCOD9436021 Si02
#       7
#     8   8   8   8   8   8   8
#     4  10  22  39  61  90 124 164 208 256 307 363
#     4  11  25  44  66  91 121 162 208 256 311 367
#     4  11  23  41  63  90 122 159 202 252 305 363
#     4   9  19  34  56  83 112 146 186 233 289 349
#     4  10  21  39  63  90 122 162 207 256 309 363
#     4  10  19  34  56  84 116 152 193 239 297 361
#     4  11  23  39  61  90 125 163 206 255 307 368
#
# _framework density 19.897670999999999
#
# number of rings (size 3 to 8) (size 9 to 14) (size 15 to 20)
#    0.000    1.714    1.429    2.571    0.000    6.857 
#    0.000    4.286    0.000    0.000    0.000    0.000 
#    0.000    0.000    0.000    0.000    0.000    0.000 
#
# Total GULP energy -312514.137162 kJ/mol
# GULP energy per Si atom -5580.609592 kJ/mol
# Density = 1.985238 g / cm^3
# Si number density = 19.897671 Si / 1000 Ang^3
#
#
#
# Elastic Constant Matrix: (Units=GPa)
#
#
# Indices 1 2 3 4 5 6 
#
# 1 127.8893 25.7603 46.2720 0.0000 0.0000 0.0000
# 2 25.7603 79.5318 39.4034 0.0000 0.0000 0.0000
# 3 46.2720 39.4034 70.2566 0.0000 0.0000 0.0000
# 4 0.0000 0.0000 0.0000 36.7309 0.0000 0.0000
# 5 0.0000 0.0000 0.0000 0.0000 17.0104 0.0000
# 6 0.0000 0.0000 0.0000 0.0000 0.0000 -0.2213
#
#
#
# Elastic Compliance Matrix: (Units=1/GPa)
#
#
# Indices 1 2 3 4 5 6 
#
# 1 0.010266 0.000034 -0.006780 0.000000 0.000000 0.000000
# 2 0.000034 0.017412 -0.009788 0.000000 0.000000 0.000000
# 3 -0.006780 -0.009788 0.024189 0.000000 0.000000 0.000000
# 4 0.000000 0.000000 0.000000 0.027225 0.000000 0.000000
# 5 0.000000 0.000000 0.000000 0.000000 0.058788 0.000000
# 6 0.000000 0.000000 0.000000 0.000000 0.000000 -4.518829
#
#
# Mechanical properties :
#
#
# Convention : Reuss Voigt Hill
#
# Bulk Modulus (GPa) = 53.19681 55.61656 54.40668
# Shear Modulus (GPa) = -1.15164 21.78681 10.31758
#
# Velocity S-wave (km/s) = -0.76160 3.31258 2.27960
# Velocity P-wave (km/s) = 5.10097 6.53015 5.85930
#
# Compressibility (1/GPa) = 0.01879812
#
# Stress axis : x y z
#
# Youngs Moduli (GPa) = 97.41338 57.43207 41.34178
#
# Poissons Ratio (x) = -0.00196 0.28030
# Poissons Ratio (y) = -0.00333 0.40465
# Poissons Ratio (z) = 0.66048 0.56214
#
# Static dielectric constant tensor:
#      x y z
#    x 1.727480 0.000000 0.000000 
#    y 0.000000 1.726870 0.000000 
#    z 0.000000 0.000000 1.683950 
# 
# From -- ./inp_files/8190.got.cif
#   From: 2010.05.17/outbox.cif.g08.bks.cpg/sg57_5_cif.got.tgz:8190.got - 2010.06.03 13:58:18.
