data_PCOD9436427
_publ_section_title
;
Structure prediction by ZEFSAII (Michael W. Deem and Ramdas Pophale) SiO2 
 PCOD9436427
Probable space group: P B C M
;
_chemical_formula_sum "Si O2"
_cell_formula_units_Z 36
_cell_length_a 9.004305
_cell_length_b 14.442765
_cell_length_c 14.959447
_cell_angle_alpha 90.000000
_cell_angle_beta 90.000000
_cell_angle_gamma 90.000000
_cell_volume 1945.432118
_symmetry_space_group_name_H-M "P B C M"
_symmetry_group_IT_number 57
_symmetry_cell_setting 'orthorhombic'
loop_
_space_group_symop_operation_xyz
x,y,z
-x,-y,1/2+z
x,1/2-y,-z
-x,1/2+y,1/2-z
-x,-y,-z
x,y,1/2-z
-x,1/2+y,z
x,1/2-y,1/2+z
loop_
_atom_site_type_symbol
_atom_site_label
_atom_site_fract_x
_atom_site_fract_y
_atom_site_fract_z
Si Si1 0.336860 0.822813 0.921449
Si Si2 0.320983 0.161654 0.433978
Si Si3 0.185345 0.795849 0.750000
Si Si4 0.907905 0.000394 0.250000
Si Si5 0.154840 0.010981 0.551684
Si Si6 0.860045 0.656301 0.250000
O O1 0.506949 0.853098 0.908323
O O2 0.269437 0.767334 0.837863
O O3 0.335148 0.750000 0.000000
O O4 0.233631 0.911083 0.941200
O O5 0.309361 0.250000 0.500000
O O6 0.229508 0.171293 0.341490
O O7 0.256367 0.078229 0.493142
O O8 0.198307 0.908575 0.750000
O O9 0.009272 0.780524 0.750000
O O10 0.877133 0.954455 0.346061
O O11 0.069197 0.051620 0.250000
O O12 0.000000 0.000000 0.500000
#
# Coordination Sequence:
#
# PCOD9436427 Si02
#       6
#     8   8   4   4   8   4
#     4  10  21  38  58  85 120 154 195 241 297 352
#     4  11  23  37  59  88 118 157 194 240 297 354
#     4   8  17  35  56  80 109 151 186 244 287 339
#     4   8  18  35  56  82 113 145 192 244 283 334
#     4  11  20  38  61  84 118 153 201 243 289 347
#     4  10  19  38  60  82 118 150 196 240 294 339
#
# _framework density 18.504885999999999
#
# number of rings (size 3 to 8) (size 9 to 14) (size 15 to 20)
#    0.667    1.333    2.222    1.333    0.000    4.444 
#    0.000    3.333    0.000    0.000    0.000    0.000 
#    0.000    0.000    0.000    0.000    0.000    0.000 
#
# Total GULP energy -200489.560711 kJ/mol
# GULP energy per Si atom -5569.154464 kJ/mol
# Density = 1.846277 g / cm^3
# Si number density = 18.504886 Si / 1000 Ang^3
#
#
#
# Elastic Constant Matrix: (Units=GPa)
#
#
# Indices 1 2 3 4 5 6 
#
# 1 154.2668 24.0505 83.2546 0.0000 0.0000 0.0000
# 2 24.0505 27.7334 9.7772 0.0000 0.0000 0.0000
# 3 83.2546 9.7772 165.2534 0.0000 0.0000 0.0000
# 4 0.0000 0.0000 0.0000 19.9253 0.0000 0.0000
# 5 0.0000 0.0000 0.0000 0.0000 46.7960 0.0000
# 6 0.0000 0.0000 0.0000 0.0000 0.0000 -12.4369
#
#
#
# Elastic Compliance Matrix: (Units=1/GPa)
#
#
# Indices 1 2 3 4 5 6 
#
# 1 0.010116 -0.007124 -0.004675 0.000000 0.000000 0.000000
# 2 -0.007124 0.041843 0.001114 0.000000 0.000000 0.000000
# 3 -0.004675 0.001114 0.008341 0.000000 0.000000 0.000000
# 4 0.000000 0.000000 0.000000 0.050188 0.000000 0.000000
# 5 0.000000 0.000000 0.000000 0.000000 0.021369 0.000000
# 6 0.000000 0.000000 0.000000 0.000000 0.000000 -0.080406
#
#
# Mechanical properties :
#
#
# Convention : Reuss Voigt Hill
#
# Bulk Modulus (GPa) = 25.68811 64.60201 45.14506
# Shear Modulus (GPa) = 58.27590 26.20162 42.23876
#
# Velocity S-wave (km/s) = 5.61788 3.76697 4.78281
# Velocity P-wave (km/s) = 7.48282 7.34211 7.41280
#
# Compressibility (1/GPa) = 0.03892852
#
# Stress axis : x y z
#
# Youngs Moduli (GPa) = 98.85393 23.89864 119.89508
#
# Poissons Ratio (x) = 0.17027 0.56050
# Poissons Ratio (y) = 0.70428 -0.13352
# Poissons Ratio (z) = 0.46213 -0.02661
#
# Static dielectric constant tensor:
#      x y z
#    x 1.633670 0.000000 0.000000 
#    y 0.000000 1.637590 0.000000 
#    z 0.000000 0.000000 1.643710 
# 
# From -- ./inp_files/15820.got.cif
#   From: 2010.05.17/outbox.cif.g08.bks.cpg/sg57_8_cif.got.tgz:15820.got - 2010.06.03 13:58:18.
