data_PCOD9436640
_publ_section_title
;
Structure prediction by ZEFSAII (Michael W. Deem and Ramdas Pophale) SiO2 
 PCOD9436640
Probable space group: P B C M
;
_chemical_formula_sum "Si O2"
_cell_formula_units_Z 48
_cell_length_a 12.207556
_cell_length_b 14.442329
_cell_length_c 11.287816
_cell_angle_alpha 90.000000
_cell_angle_beta 90.000000
_cell_angle_gamma 90.000000
_cell_volume 1990.104496
_symmetry_space_group_name_H-M "P B C M"
_symmetry_group_IT_number 57
_symmetry_cell_setting 'orthorhombic'
loop_
_space_group_symop_operation_xyz
x,y,z
-x,-y,1/2+z
x,1/2-y,-z
-x,1/2+y,1/2-z
-x,-y,-z
x,y,1/2-z
-x,1/2+y,z
x,1/2-y,1/2+z
loop_
_atom_site_type_symbol
_atom_site_label
_atom_site_fract_x
_atom_site_fract_y
_atom_site_fract_z
Si Si1 0.669581 0.380532 0.623204
Si Si2 0.941241 0.473230 0.378510
Si Si3 0.929741 0.701252 0.875325
Si Si4 0.297025 0.920846 0.120734
Si Si5 0.412525 0.394182 0.880046
Si Si6 0.302862 0.103450 0.622590
O O1 0.713484 0.345828 0.750000
O O2 0.708926 0.354941 0.492050
O O3 0.539047 0.367520 0.621564
O O4 0.691173 0.491967 0.622893
O O5 0.981175 0.511279 0.250000
O O6 0.811291 0.485797 0.384434
O O7 0.000000 0.500000 0.500000
O O8 0.964642 0.363957 0.372025
O O9 0.925193 0.755305 0.750000
O O10 0.822542 0.636000 0.876441
O O11 0.929134 0.750000 0.000000
O O12 0.299911 0.876263 0.250000
O O13 0.398132 0.993317 0.114721
O O14 0.365103 0.367115 0.750000
O O15 0.357694 0.360919 0.001724
O O16 0.352357 0.134243 0.750000
#
# Coordination Sequence:
#
# PCOD9436640 Si02
#       6
#     8   8   8   8   8   8
#     4   9  16  26  42  68 103 134 157 190 240 296
#     4  10  20  33  51  76 103 130 166 213 262 312
#     4  10  22  38  53  72 101 138 178 217 262 318
#     4   9  16  25  39  62  91 122 157 196 238 285
#     4   9  16  25  41  70 104 132 157 190 239 297
#     4   9  16  27  44  64  89 124 163 200 240 290
#
# _framework density 24.119336000000001
#
# number of rings (size 3 to 8) (size 9 to 14) (size 15 to 20)
#    0.000    2.667    0.000    4.000    0.000    5.333 
#    0.000    0.000    0.000    0.000    0.000    4.667 
#    0.000    8.000    0.000    0.000    0.000    0.000 
#
# Total GULP energy -267532.871367 kJ/mol
# GULP energy per Si atom -5573.601487 kJ/mol
# Density = 2.406444 g / cm^3
# Si number density = 24.119336 Si / 1000 Ang^3
#
#
#
# Elastic Constant Matrix: (Units=GPa)
#
#
# Indices 1 2 3 4 5 6 
#
# 1 30.6330 -5.9495 29.5640 0.0000 0.0000 0.0000
# 2 -5.9495 41.2458 15.1744 0.0000 0.0000 0.0000
# 3 29.5640 15.1744 312.2388 0.0000 0.0000 0.0000
# 4 0.0000 0.0000 0.0000 1.2385 0.0000 0.0000
# 5 0.0000 0.0000 0.0000 0.0000 37.0332 0.0000
# 6 0.0000 0.0000 0.0000 0.0000 0.0000 -5.8648
#
#
#
# Elastic Compliance Matrix: (Units=1/GPa)
#
#
# Indices 1 2 3 4 5 6 
#
# 1 0.037754 0.006884 -0.003909 0.000000 0.000000 0.000000
# 2 0.006884 0.025941 -0.001913 0.000000 0.000000 0.000000
# 3 -0.003909 -0.001913 0.003666 0.000000 0.000000 0.000000
# 4 0.000000 0.000000 0.000000 0.807455 0.000000 0.000000
# 5 0.000000 0.000000 0.000000 0.000000 0.027003 0.000000
# 6 0.000000 0.000000 0.000000 0.000000 0.000000 -0.170508
#
#
# Mechanical properties :
#
#
# Convention : Reuss Voigt Hill
#
# Bulk Modulus (GPa) = 14.39135 51.29949 32.84542
# Shear Modulus (GPa) = 6.64585 29.50328 18.07456
#
# Velocity S-wave (km/s) = 1.66174 3.50125 2.74045
# Velocity P-wave (km/s) = 3.10830 6.13679 4.86424
#
# Compressibility (1/GPa) = 0.06948619
#
# Stress axis : x y z
#
# Youngs Moduli (GPa) = 26.48700 38.54828 272.79396
#
# Poissons Ratio (x) = -0.26537 1.06643
# Poissons Ratio (y) = -0.18234 0.52173
# Poissons Ratio (z) = 0.10355 0.07372
#
# Static dielectric constant tensor:
#      x y z
#    x 1.910340 0.000000 0.000000 
#    y 0.000000 1.884820 0.000000 
#    z 0.000000 0.000000 2.081220 
# 
# From -- ./inp_files/12895.got.cif
#   From: 2010.05.17/outbox.cif.g08.bks.cpg/sg57_7_cif.got.tgz:12895.got - 2010.06.03 13:58:18.
