data_PCOD9436817
_publ_section_title
;
Structure prediction by ZEFSAII (Michael W. Deem and Ramdas Pophale) SiO2 
 PCOD9436817
Probable space group: P B C M
;
_chemical_formula_sum "Si O2"
_cell_formula_units_Z 40
_cell_length_a 17.972057
_cell_length_b 11.341824
_cell_length_c 8.873395
_cell_angle_alpha 90.000000
_cell_angle_beta 90.000000
_cell_angle_gamma 90.000000
_cell_volume 1808.716522
_symmetry_space_group_name_H-M "P B C M"
_symmetry_group_IT_number 57
_symmetry_cell_setting 'orthorhombic'
loop_
_space_group_symop_operation_xyz
x,y,z
-x,-y,1/2+z
x,1/2-y,-z
-x,1/2+y,1/2-z
-x,-y,-z
x,y,1/2-z
-x,1/2+y,z
x,1/2-y,1/2+z
loop_
_atom_site_type_symbol
_atom_site_label
_atom_site_fract_x
_atom_site_fract_y
_atom_site_fract_z
Si Si1 0.569565 0.363449 0.578068
Si Si2 0.022540 0.875077 0.924578
Si Si3 0.603055 0.600401 0.417657
Si Si4 0.202067 0.873039 0.924491
Si Si5 0.749684 0.631006 0.574173
O O1 0.602851 0.250000 0.500000
O O2 0.594244 0.386184 0.750000
O O3 0.587296 0.466493 0.462930
O O4 0.480033 0.348904 0.586009
O O5 0.998522 0.875506 0.750000
O O6 0.112401 0.874027 0.929480
O O7 0.997786 0.750000 0.000000
O O8 0.000000 0.000000 0.000000
O O9 0.636142 0.613806 0.250000
O O10 0.661006 0.638793 0.544886
O O11 0.225748 0.869538 0.750000
O O12 0.227874 0.001038 0.987273
O O13 0.225827 0.750000 0.000000
O O14 0.782267 0.750000 0.500000
O O15 0.767676 0.632558 0.750000
#
# Coordination Sequence:
#
# PCOD9436817 Si02
#       5
#     8   8   8   8   8
#     4  10  20  34  53  76 103 136 177 226 280 340
#     4  10  20  37  60  89 122 157 196 239 287 338
#     4  10  21  36  54  77 105 139 179 227 282 337
#     4   9  21  40  61  85 116 153 194 237 283 337
#     4  11  23  39  58  83 114 150 192 237 285 341
#
# _framework density 22.115131000000002
#
# number of rings (size 3 to 8) (size 9 to 14) (size 15 to 20)
#    0.000    2.000    0.000    3.000    0.000    8.000 
#    0.000    4.000    0.000    0.000    0.000    0.000 
#    0.000    0.000    0.000    0.000    0.000    0.000 
#
# Total GULP energy -223063.740638 kJ/mol
# GULP energy per Si atom -5576.593516 kJ/mol
# Density = 2.206480 g / cm^3
# Si number density = 22.115131 Si / 1000 Ang^3
#
#
#
# Elastic Constant Matrix: (Units=GPa)
#
#
# Indices 1 2 3 4 5 6 
#
# 1 30.7721 23.2398 8.5486 0.0000 0.0000 0.0000
# 2 23.2398 205.1168 78.5680 0.0000 0.0000 0.0000
# 3 8.5486 78.5680 102.4232 0.0000 0.0000 0.0000
# 4 0.0000 0.0000 0.0000 36.2680 0.0000 0.0000
# 5 0.0000 0.0000 0.0000 0.0000 17.1562 0.0000
# 6 0.0000 0.0000 0.0000 0.0000 0.0000 -157.3580
#
#
#
# Elastic Compliance Matrix: (Units=1/GPa)
#
#
# Indices 1 2 3 4 5 6 
#
# 1 0.035540 -0.004093 0.000174 0.000000 0.000000 0.000000
# 2 -0.004093 0.007375 -0.005316 0.000000 0.000000 0.000000
# 3 0.000174 -0.005316 0.013827 0.000000 0.000000 0.000000
# 4 0.000000 0.000000 0.000000 0.027573 0.000000 0.000000
# 5 0.000000 0.000000 0.000000 0.000000 0.058288 0.000000
# 6 0.000000 0.000000 0.000000 0.000000 0.000000 -0.006355
#
#
# Mechanical properties :
#
#
# Convention : Reuss Voigt Hill
#
# Bulk Modulus (GPa) = 26.12949 62.11390 44.12170
# Shear Modulus (GPa) = 29.85518 -5.58970 12.13274
#
# Velocity S-wave (km/s) = 3.67821 -1.59155 2.34480
# Velocity P-wave (km/s) = 5.46624 4.97697 5.22733
#
# Compressibility (1/GPa) = 0.03827093
#
# Stress axis : x y z
#
# Youngs Moduli (GPa) = 28.13732 135.58947 72.32406
#
# Poissons Ratio (x) = 0.55499 -0.01255
# Poissons Ratio (y) = 0.11517 0.38446
# Poissons Ratio (z) = -0.00488 0.72077
#
# Static dielectric constant tensor:
#      x y z
#    x 1.825960 0.000000 0.000000 
#    y 0.000000 1.967040 0.000000 
#    z 0.000000 0.000000 1.803990 
# 
# From -- ./inp_files/6245.got.cif
#   From: 2010.05.17/outbox.cif.g08.bks.cpg/sg57_4_cif.got.tgz:6245.got - 2010.06.03 13:58:18.
