data_PCOD9436611
_publ_section_title
;
Structure prediction by ZEFSAII (Michael W. Deem and Ramdas Pophale) SiO2 
 PCOD9436611
Probable space group: P B C M
;
_chemical_formula_sum "Si O2"
_cell_formula_units_Z 48
_cell_length_a 5.144621
_cell_length_b 31.284654
_cell_length_c 16.325045
_cell_angle_alpha 90.000000
_cell_angle_beta 90.000000
_cell_angle_gamma 90.000000
_cell_volume 2627.478248
_symmetry_space_group_name_H-M "P B C M"
_symmetry_group_IT_number 57
_symmetry_cell_setting 'orthorhombic'
loop_
_space_group_symop_operation_xyz
x,y,z
-x,-y,1/2+z
x,1/2-y,-z
-x,1/2+y,1/2-z
-x,-y,-z
x,y,1/2-z
-x,1/2+y,z
x,1/2-y,1/2+z
loop_
_atom_site_type_symbol
_atom_site_label
_atom_site_fract_x
_atom_site_fract_y
_atom_site_fract_z
Si Si1 0.018210 0.656406 0.576416
Si Si2 0.516703 0.865772 0.979002
Si Si3 0.463020 0.543182 0.949718
Si Si4 0.120508 0.247442 0.848628
Si Si5 0.034689 0.433917 0.345752
Si Si6 0.379418 0.699108 0.347957
O O1 0.809536 0.644983 0.505852
O O2 0.943909 0.702020 0.612559
O O3 0.988880 0.617362 0.640489
O O4 0.311261 0.655219 0.542694
O O5 0.472384 0.916241 0.988819
O O6 0.446915 0.844713 0.892987
O O7 0.695010 0.550998 0.885169
O O8 0.195449 0.545433 0.899328
O O9 0.500000 0.500000 0.000000
O O10 0.113550 0.242994 0.750000
O O11 0.399699 0.266449 0.871787
O O12 0.898591 0.281556 0.871966
O O13 0.015847 0.443885 0.250000
O O14 0.386358 0.694153 0.250000
#
# Coordination Sequence:
#
# PCOD9436611 Si02
#       6
#     8   8   8   8   8   8
#     4  10  20  33  53  79 105 135 171 214 261 313
#     4  10  21  35  53  76 101 136 174 213 266 310
#     4  10  21  38  59  81 110 142 174 220 273 323
#     4  10  20  33  50  73 104 140 173 210 255 299
#     4  10  20  36  58  84 112 139 173 218 269 322
#     4  10  21  35  49  69 102 140 177 215 252 299
#
# _framework density 18.268467999999999
#
# number of rings (size 3 to 8) (size 9 to 14) (size 15 to 20)
#    0.000    2.000    0.000    3.500    0.000    4.000 
#    0.000    6.667    0.000    2.000    0.000    0.000 
#    0.000    0.000    0.000    0.000    0.000    0.000 
#
# Total GULP energy -268080.155337 kJ/mol
# GULP energy per Si atom -5585.003236 kJ/mol
# Density = 1.822689 g / cm^3
# Si number density = 18.268468 Si / 1000 Ang^3
#
#
#
# Elastic Constant Matrix: (Units=GPa)
#
#
# Indices 1 2 3 4 5 6 
#
# 1 56.9942 -11.0623 -10.4126 0.0000 0.0000 0.0000
# 2 -11.0623 75.6933 32.8421 0.0000 0.0000 0.0000
# 3 -10.4126 32.8421 33.1138 0.0000 0.0000 0.0000
# 4 0.0000 0.0000 0.0000 14.0498 0.0000 0.0000
# 5 0.0000 0.0000 0.0000 0.0000 15.2389 0.0000
# 6 0.0000 0.0000 0.0000 0.0000 0.0000 16.6221
#
#
#
# Elastic Compliance Matrix: (Units=1/GPa)
#
#
# Indices 1 2 3 4 5 6 
#
# 1 0.018619 0.000317 0.005540 0.000000 0.000000 0.000000
# 2 0.000317 0.023196 -0.022906 0.000000 0.000000 0.000000
# 3 0.005540 -0.022906 0.054659 0.000000 0.000000 0.000000
# 4 0.000000 0.000000 0.000000 0.071176 0.000000 0.000000
# 5 0.000000 0.000000 0.000000 0.000000 0.065622 0.000000
# 6 0.000000 0.000000 0.000000 0.000000 0.000000 0.060161
#
#
# Mechanical properties :
#
#
# Convention : Reuss Voigt Hill
#
# Bulk Modulus (GPa) = 16.03143 20.94839 18.48991
# Shear Modulus (GPa) = 14.35453 19.47775 16.91614
#
# Velocity S-wave (km/s) = 2.80617 3.26881 3.04628
# Velocity P-wave (km/s) = 4.39249 5.07333 4.74514
#
# Compressibility (1/GPa) = 0.06237749
#
# Stress axis : x y z
#
# Youngs Moduli (GPa) = 53.70741 43.11063 18.29527
#
# Poissons Ratio (x) = -0.01368 -0.10136
# Poissons Ratio (y) = -0.01705 0.41907
# Poissons Ratio (z) = -0.29754 0.98749
#
# Static dielectric constant tensor:
#      x y z
#    x 1.624490 0.000000 0.000000 
#    y 0.000000 1.599530 0.000000 
#    z 0.000000 0.000000 1.611720 
# 
# From -- ./inp_files/15100.got.cif
#   From: 2010.05.17/outbox.cif.g08.bks.cpg/sg57_8_cif.got.tgz:15100.got - 2010.06.03 13:58:18.
