data_PCOD9436161
_publ_section_title
;
Structure prediction by ZEFSAII (Michael W. Deem and Ramdas Pophale) SiO2 
 PCOD9436161
Probable space group: P B C M
;
_chemical_formula_sum "Si O2"
_cell_formula_units_Z 64
_cell_length_a 11.122465
_cell_length_b 34.835595
_cell_length_c 8.562060
_cell_angle_alpha 90.000000
_cell_angle_beta 90.000000
_cell_angle_gamma 90.000000
_cell_volume 3317.435956
_symmetry_space_group_name_H-M "P B C M"
_symmetry_group_IT_number 57
_symmetry_cell_setting 'orthorhombic'
loop_
_space_group_symop_operation_xyz
x,y,z
-x,-y,1/2+z
x,1/2-y,-z
-x,1/2+y,1/2-z
-x,-y,-z
x,y,1/2-z
-x,1/2+y,z
x,1/2-y,1/2+z
loop_
_atom_site_type_symbol
_atom_site_label
_atom_site_fract_x
_atom_site_fract_y
_atom_site_fract_z
Si Si1 0.935884 0.054378 0.564902
Si Si2 0.673813 0.872511 0.438944
Si Si3 0.182454 0.633219 0.937268
Si Si4 0.304686 0.983682 0.566107
Si Si5 0.946792 0.291329 0.438917
Si Si6 0.421732 0.590006 0.560929
Si Si7 0.773476 0.708587 0.561854
Si Si8 0.195584 0.055788 0.065155
O O1 0.923388 0.046386 0.750000
O O2 0.915776 0.099886 0.539655
O O3 0.825450 0.034649 0.476490
O O4 0.067178 0.043772 0.506020
O O5 0.680116 0.873376 0.250000
O O6 0.544803 0.889586 0.486339
O O7 0.699386 0.828870 0.489301
O O8 0.771298 0.902127 0.504132
O O9 0.196384 0.637444 0.750000
O O10 0.134646 0.673630 0.998036
O O11 0.308819 0.616017 0.994410
O O12 0.319380 0.987547 0.750000
O O13 0.399725 0.953049 0.500050
O O14 0.296824 0.025652 0.490466
O O15 0.906738 0.250000 0.500000
O O16 0.944378 0.291289 0.250000
O O17 0.086583 0.296668 0.485884
O O18 0.417897 0.588119 0.750000
O O19 0.732309 0.750000 0.500000
O O20 0.770228 0.709876 0.750000
O O21 0.187406 0.055106 0.250000
#
# Coordination Sequence:
#
# PCOD9436161 Si02
#       8
#     8   8   8   8   8   8   8   8
#     4  10  19  35  57  80 107 139 178 222 270 324
#     4  10  21  38  58  79 105 141 186 230 272 320
#     4   8  15  30  53  75  98 132 170 211 260 314
#     4  11  22  37  56  79 109 143 178 219 271 325
#     4   9  16  28  47  73 104 134 166 205 257 317
#     4   9  19  37  58  77 100 137 184 228 270 318
#     4   9  18  33  54  79 107 140 175 216 269 325
#     4  12  24  36  53  80 111 142 179 223 272 324
#
# _framework density 19.292009
#
# number of rings (size 3 to 8) (size 9 to 14) (size 15 to 20)
#    0.000    2.250    0.000    4.500    0.000    3.500 
#    0.000    6.250    0.000    0.000    0.000    0.000 
#    0.000    0.000    0.000    0.000    0.000    0.000 
#
# Total GULP energy -357284.975159 kJ/mol
# GULP energy per Si atom -5582.577737 kJ/mol
# Density = 1.924810 g / cm^3
# Si number density = 19.292009 Si / 1000 Ang^3
#
#
#
# Elastic Constant Matrix: (Units=GPa)
#
#
# Indices 1 2 3 4 5 6 
#
# 1 48.4907 9.1292 1.2942 0.0000 0.0000 0.0000
# 2 9.1292 95.3469 -1.6479 0.0000 0.0000 0.0000
# 3 1.2942 -1.6479 10.7548 0.0000 0.0000 0.0000
# 4 0.0000 0.0000 0.0000 30.3885 0.0000 0.0000
# 5 0.0000 0.0000 0.0000 0.0000 17.1545 0.0000
# 6 0.0000 0.0000 0.0000 0.0000 0.0000 25.9457
#
#
#
# Elastic Compliance Matrix: (Units=1/GPa)
#
#
# Indices 1 2 3 4 5 6 
#
# 1 0.021088 -0.002068 -0.002855 0.000000 0.000000 0.000000
# 2 -0.002068 0.010719 0.001891 0.000000 0.000000 0.000000
# 3 -0.002855 0.001891 0.093615 0.000000 0.000000 0.000000
# 4 0.000000 0.000000 0.000000 0.032907 0.000000 0.000000
# 5 0.000000 0.000000 0.000000 0.000000 0.058294 0.000000
# 6 0.000000 0.000000 0.000000 0.000000 0.000000 0.038542
#
#
# Mechanical properties :
#
#
# Convention : Reuss Voigt Hill
#
# Bulk Modulus (GPa) = 8.37816 19.12706 13.75261
# Shear Modulus (GPa) = 16.61049 24.41886 20.51467
#
# Velocity S-wave (km/s) = 2.93747 3.56160 3.26448
# Velocity P-wave (km/s) = 3.98211 5.18163 4.62096
#
# Compressibility (1/GPa) = 0.11935802
#
# Stress axis : x y z
#
# Youngs Moduli (GPa) = 47.42010 93.29445 10.68206
#
# Poissons Ratio (x) = 0.19298 0.03049
# Poissons Ratio (y) = 0.09809 -0.02020
# Poissons Ratio (z) = 0.13537 -0.17645
#
# Static dielectric constant tensor:
#      x y z
#    x 1.679400 0.000000 0.000000 
#    y 0.000000 1.687750 0.000000 
#    z 0.000000 0.000000 1.650390 
# 
# From -- ./inp_files/3853.got.cif
#   From: 2010.05.17/outbox.cif.g08.bks.cpg/sg57_2_cif.got.tgz:3853.got - 2010.06.03 13:58:18.
