data_PCOD9436395
_publ_section_title
;
Structure prediction by ZEFSAII (Michael W. Deem and Ramdas Pophale) SiO2 
 PCOD9436395
Probable space group: P B C M
;
_chemical_formula_sum "Si O2"
_cell_formula_units_Z 56
_cell_length_a 19.330103
_cell_length_b 7.681620
_cell_length_c 15.897040
_cell_angle_alpha 90.000000
_cell_angle_beta 90.000000
_cell_angle_gamma 90.000000
_cell_volume 2360.495922
_symmetry_space_group_name_H-M "P B C M"
_symmetry_group_IT_number 57
_symmetry_cell_setting 'orthorhombic'
loop_
_space_group_symop_operation_xyz
x,y,z
-x,-y,1/2+z
x,1/2-y,-z
-x,1/2+y,1/2-z
-x,-y,-z
x,y,1/2-z
-x,1/2+y,z
x,1/2-y,1/2+z
loop_
_atom_site_type_symbol
_atom_site_label
_atom_site_fract_x
_atom_site_fract_y
_atom_site_fract_z
Si Si1 0.777109 0.682803 0.348997
Si Si2 0.961304 0.288848 0.346583
Si Si3 0.315386 0.815736 0.910028
Si Si4 0.632832 0.713583 0.592522
Si Si5 0.395953 0.736860 0.750000
Si Si6 0.824594 0.416984 0.652230
Si Si7 0.085630 0.118395 0.421928
Si Si8 0.451830 0.365684 0.250000
O O1 0.770464 0.647513 0.250000
O O2 0.702345 0.674513 0.391629
O O3 0.836895 0.573727 0.392558
O O4 0.808285 0.878941 0.359088
O O5 0.950075 0.353449 0.250000
O O6 0.903210 0.140775 0.361917
O O7 0.950958 0.430749 0.419987
O O8 0.038561 0.217466 0.353344
O O9 0.350368 0.714164 0.833137
O O10 0.232680 0.815816 0.900884
O O11 0.339567 0.015760 0.902616
O O12 0.338110 0.750000 0.000000
O O13 0.604496 0.750000 0.500000
O O14 0.578130 0.729487 0.667361
O O15 0.465955 0.628600 0.750000
O O16 0.421874 0.938556 0.750000
O O17 0.808653 0.379147 0.750000
O O18 0.087923 0.250000 0.500000
#
# Coordination Sequence:
#
# PCOD9436395 Si02
#       8
#     8   8   8   8   4   8   8   4
#     4  10  19  37  62  85 115 160 202 244 300 357
#     4  11  23  40  60  83 114 157 203 247 299 362
#     4  10  21  38  63  90 123 162 199 250 303 358
#     4  10  21  39  62  91 124 159 207 249 301 363
#     4  10  22  42  64  88 127 158 209 238 301 366
#     4   9  19  37  62  86 114 153 199 249 298 355
#     4  12  25  39  56  84 121 155 198 255 304 354
#     4  10  22  42  64  90 121 170 195 252 299 362
#
# _framework density 23.723828000000001
#
# number of rings (size 3 to 8) (size 9 to 14) (size 15 to 20)
#    0.000    1.714    1.429    3.000    0.000    6.857 
#    0.000    2.857    0.000    0.000    0.000    0.000 
#    0.000    0.000    0.000    0.000    0.000    0.000 
#
# Total GULP energy -313301.328632 kJ/mol
# GULP energy per Si atom -5594.666583 kJ/mol
# Density = 2.366983 g / cm^3
# Si number density = 23.723828 Si / 1000 Ang^3
#
#
#
# Elastic Constant Matrix: (Units=GPa)
#
#
# Indices 1 2 3 4 5 6 
#
# 1 62.5733 8.2184 31.1497 0.0000 0.0000 0.0000
# 2 8.2184 42.6286 14.1343 0.0000 0.0000 0.0000
# 3 31.1497 14.1343 129.0330 0.0000 0.0000 0.0000
# 4 0.0000 0.0000 0.0000 21.9806 0.0000 0.0000
# 5 0.0000 0.0000 0.0000 0.0000 -3.2090 0.0000
# 6 0.0000 0.0000 0.0000 0.0000 0.0000 30.9229
#
#
#
# Elastic Compliance Matrix: (Units=1/GPa)
#
#
# Indices 1 2 3 4 5 6 
#
# 1 0.018352 -0.002147 -0.004195 0.000000 0.000000 0.000000
# 2 -0.002147 0.024594 -0.002176 0.000000 0.000000 0.000000
# 3 -0.004195 -0.002176 0.009001 0.000000 0.000000 0.000000
# 4 0.000000 0.000000 0.000000 0.045495 0.000000 0.000000
# 5 0.000000 0.000000 0.000000 0.000000 -0.311623 0.000000
# 6 0.000000 0.000000 0.000000 0.000000 0.000000 0.032339
#
#
# Mechanical properties :
#
#
# Convention : Reuss Voigt Hill
#
# Bulk Modulus (GPa) = 28.64448 37.91552 33.28000
# Shear Modulus (GPa) = -32.64327 21.98773 -5.32777
#
# Velocity S-wave (km/s) = -3.71343 3.04768 -1.50021
# Velocity P-wave (km/s) = 2.50714 5.32927 3.32531
#
# Compressibility (1/GPa) = 0.03491074
#
# Stress axis : x y z
#
# Youngs Moduli (GPa) = 54.49115 40.66075 111.09878
#
# Poissons Ratio (x) = 0.08730 0.46606
# Poissons Ratio (y) = 0.11700 0.24172
# Poissons Ratio (z) = 0.22859 0.08846
#
# Static dielectric constant tensor:
#      x y z
#    x 1.861090 0.000000 0.000000 
#    y 0.000000 1.973280 0.000000 
#    z 0.000000 0.000000 1.878730 
# 
# From -- ./inp_files/19392.got.cif
#   From: 2010.05.17/outbox.cif.g08.bks.cpg/sg57_10_cif.got.tgz:19392.got - 2010.06.03 13:58:18.
