data_PCOD9436137
_publ_section_title
;
Structure prediction by ZEFSAII (Michael W. Deem and Ramdas Pophale) SiO2 
 PCOD9436137
Probable space group: P B C M
;
_chemical_formula_sum "Si O2"
_cell_formula_units_Z 52
_cell_length_a 20.319573
_cell_length_b 5.656769
_cell_length_c 22.510926
_cell_angle_alpha 90.000000
_cell_angle_beta 90.000000
_cell_angle_gamma 90.000000
_cell_volume 2587.476308
_symmetry_space_group_name_H-M "P B C M"
_symmetry_group_IT_number 57
_symmetry_cell_setting 'orthorhombic'
loop_
_space_group_symop_operation_xyz
x,y,z
-x,-y,1/2+z
x,1/2-y,-z
-x,1/2+y,1/2-z
-x,-y,-z
x,y,1/2-z
-x,1/2+y,z
x,1/2-y,1/2+z
loop_
_atom_site_type_symbol
_atom_site_label
_atom_site_fract_x
_atom_site_fract_y
_atom_site_fract_z
Si Si1 0.967100 0.637744 0.822313
Si Si2 0.278693 0.925186 0.314067
Si Si3 0.347890 0.250000 0.500000
Si Si4 0.534736 0.586817 0.077380
Si Si5 0.401060 0.223706 0.815723
Si Si6 0.303284 0.536191 0.107324
Si Si7 0.183532 0.186196 0.818533
O O1 0.969624 0.639331 0.750000
O O2 0.890307 0.648660 0.839573
O O3 0.998564 0.385717 0.841360
O O4 0.285241 0.791170 0.250000
O O5 0.334858 0.122183 0.309599
O O6 0.292462 0.806618 0.377042
O O7 0.206852 0.041183 0.316073
O O8 0.396319 0.397009 0.542976
O O9 0.308456 0.427142 0.457477
O O10 0.502177 0.335490 0.062876
O O11 0.547814 0.617467 0.147860
O O12 0.422230 0.149319 0.750000
O O13 0.373026 0.019838 0.859068
O O14 0.239479 0.431368 0.141238
O O15 0.187461 0.102377 0.750000
#
# Coordination Sequence:
#
# PCOD9436137 Si02
#       7
#     8   8   4   8   8   8   8
#     4   9  18  30  47  76 117 159 190 220 266 331
#     4   9  17  31  55  81 109 142 178 229 289 343
#     4  10  24  42  60  82 112 144 196 248 286 342
#     4  11  25  44  63  85 110 149 187 229 282 341
#     4   9  20  36  55  84 113 140 180 229 286 352
#     4  10  19  35  55  80 108 148 187 239 295 333
#     4   9  18  31  50  82 116 147 188 230 280 342
#
# _framework density 20.096803999999999
#
# number of rings (size 3 to 8) (size 9 to 14) (size 15 to 20)
#    0.000    2.462    0.000    2.769    6.462    0.615 
#    5.538    0.000    0.000    0.000    0.000    1.077 
#    0.000    0.000    0.000    0.000    0.000    0.000 
#
# Total GULP energy -289567.739954 kJ/mol
# GULP energy per Si atom -5568.610384 kJ/mol
# Density = 2.005106 g / cm^3
# Si number density = 20.096804 Si / 1000 Ang^3
#
#
#
# Elastic Constant Matrix: (Units=GPa)
#
#
# Indices 1 2 3 4 5 6 
#
# 1 73.8122 32.2516 17.6694 0.0000 0.0000 0.0000
# 2 32.2516 70.4528 7.6271 0.0000 0.0000 0.0000
# 3 17.6694 7.6271 57.9652 0.0000 0.0000 0.0000
# 4 0.0000 0.0000 0.0000 17.1772 0.0000 0.0000
# 5 0.0000 0.0000 0.0000 0.0000 14.5618 0.0000
# 6 0.0000 0.0000 0.0000 0.0000 0.0000 18.2984
#
#
#
# Elastic Compliance Matrix: (Units=1/GPa)
#
#
# Indices 1 2 3 4 5 6 
#
# 1 0.018008 -0.007760 -0.004468 0.000000 0.000000 0.000000
# 2 -0.007760 0.017743 0.000031 0.000000 0.000000 0.000000
# 3 -0.004468 0.000031 0.018610 0.000000 0.000000 0.000000
# 4 0.000000 0.000000 0.000000 0.058217 0.000000 0.000000
# 5 0.000000 0.000000 0.000000 0.000000 0.068673 0.000000
# 6 0.000000 0.000000 0.000000 0.000000 0.000000 0.054650
#
#
# Mechanical properties :
#
#
# Convention : Reuss Voigt Hill
#
# Bulk Modulus (GPa) = 33.37127 35.25846 34.31486
# Shear Modulus (GPa) = 18.49911 19.65296 19.07604
#
# Velocity S-wave (km/s) = 3.03727 3.13056 3.08426
# Velocity P-wave (km/s) = 5.37971 5.53621 5.45852
#
# Compressibility (1/GPa) = 0.02996590
#
# Stress axis : x y z
#
# Youngs Moduli (GPa) = 55.53028 56.36057 53.73527
#
# Poissons Ratio (x) = 0.43736 0.24011
# Poissons Ratio (y) = 0.43091 -0.00166
# Poissons Ratio (z) = 0.24813 -0.00174
#
# Static dielectric constant tensor:
#      x y z
#    x 1.696040 0.000000 0.000000 
#    y 0.000000 1.855820 0.000000 
#    z 0.000000 0.000000 1.800160 
# 
# From -- ./inp_files/25732.got.cif
#   From: 2010.05.17/outbox.cif.g08.bks.cpg/sg57_13_cif.got.tgz:25732.got - 2010.06.03 13:58:18.
