data_PCOD9436168
_publ_section_title
;
Structure prediction by ZEFSAII (Michael W. Deem and Ramdas Pophale) SiO2 
 PCOD9436168
Probable space group: P B C M
;
_chemical_formula_sum "Si O2"
_cell_formula_units_Z 64
_cell_length_a 20.470682
_cell_length_b 20.547730
_cell_length_c 8.740168
_cell_angle_alpha 90.000000
_cell_angle_beta 90.000000
_cell_angle_gamma 90.000000
_cell_volume 3676.342313
_symmetry_space_group_name_H-M "P B C M"
_symmetry_group_IT_number 57
_symmetry_cell_setting 'orthorhombic'
loop_
_space_group_symop_operation_xyz
x,y,z
-x,-y,1/2+z
x,1/2-y,-z
-x,1/2+y,1/2-z
-x,-y,-z
x,y,1/2-z
-x,1/2+y,z
x,1/2-y,1/2+z
loop_
_atom_site_type_symbol
_atom_site_label
_atom_site_fract_x
_atom_site_fract_y
_atom_site_fract_z
Si Si1 0.930777 0.820528 0.065403
Si Si2 0.310358 0.932595 0.066057
Si Si3 0.335097 0.080703 0.434099
Si Si4 0.802928 0.605308 0.567238
Si Si5 0.402522 0.679003 0.066262
Si Si6 0.553858 0.820632 0.565473
Si Si7 0.969178 0.066082 0.566228
Si Si8 0.170336 0.953595 0.567650
O O1 0.929912 0.818258 0.250000
O O2 0.859381 0.845928 0.014487
O O3 0.984665 0.873844 0.020533
O O4 0.944959 0.750000 0.000000
O O5 0.310504 0.930325 0.250000
O O6 0.334388 0.005001 0.016375
O O7 0.356477 0.876884 0.999741
O O8 0.236482 0.925701 0.005088
O O9 0.335500 0.080449 0.250000
O O10 0.267276 0.111954 0.489817
O O11 0.396640 0.123206 0.487136
O O12 0.795058 0.611840 0.750000
O O13 0.827436 0.531526 0.538045
O O14 0.398096 0.680401 0.250000
O O15 0.478431 0.666314 0.022820
O O16 0.385228 0.750000 0.000000
O O17 0.572166 0.750000 0.500000
O O18 0.556646 0.817456 0.750000
O O19 0.968675 0.061858 0.750000
O O20 0.895935 0.073344 0.504181
O O21 0.000000 0.000000 0.500000
O O22 0.170669 0.944061 0.750000
#
# Coordination Sequence:
#
# PCOD9436168 Si02
#       8
#     8   8   8   8   8   8   8   8
#     4  10  22  38  53  77 111 144 180 224 269 321
#     4  10  20  35  55  82 112 142 179 225 273 327
#     4   9  19  34  52  78 110 143 180 223 268 320
#     4   9  18  34  52  74 106 140 176 219 264 318
#     4  10  20  36  57  79 105 142 182 226 277 330
#     4   9  19  35  53  75 106 142 184 226 270 325
#     4  11  21  36  58  83 109 141 183 228 274 328
#     4  10  19  35  57  82 109 138 179 226 271 322
#
# _framework density 17.408605999999999
#
# number of rings (size 3 to 8) (size 9 to 14) (size 15 to 20)
#    0.000    2.250    1.250    1.500    0.000    4.500 
#    0.000    3.125    0.000    1.500    0.000    0.000 
#    0.000    0.000    0.000    0.000    0.000    0.000 
#
# Total GULP energy -357152.176665 kJ/mol
# GULP energy per Si atom -5580.502760 kJ/mol
# Density = 1.736898 g / cm^3
# Si number density = 17.408606 Si / 1000 Ang^3
#
#
#
# Elastic Constant Matrix: (Units=GPa)
#
#
# Indices 1 2 3 4 5 6 
#
# 1 146.1490 107.0755 41.0395 0.0000 0.0000 0.0000
# 2 107.0755 133.8040 39.8497 0.0000 0.0000 0.0000
# 3 41.0395 39.8497 34.5167 0.0000 0.0000 0.0000
# 4 0.0000 0.0000 0.0000 27.6297 0.0000 0.0000
# 5 0.0000 0.0000 0.0000 0.0000 30.1415 0.0000
# 6 0.0000 0.0000 0.0000 0.0000 0.0000 30.8588
#
#
#
# Elastic Compliance Matrix: (Units=1/GPa)
#
#
# Indices 1 2 3 4 5 6 
#
# 1 0.017616 -0.011978 -0.007117 0.000000 0.000000 0.000000
# 2 -0.011978 0.019534 -0.008311 0.000000 0.000000 0.000000
# 3 -0.007117 -0.008311 0.047028 0.000000 0.000000 0.000000
# 4 0.000000 0.000000 0.000000 0.036193 0.000000 0.000000
# 5 0.000000 0.000000 0.000000 0.000000 0.033177 0.000000
# 6 0.000000 0.000000 0.000000 0.000000 0.000000 0.032406
#
#
# Mechanical properties :
#
#
# Convention : Reuss Voigt Hill
#
# Bulk Modulus (GPa) = 34.05125 76.71102 55.38113
# Shear Modulus (GPa) = 19.95584 26.15967 23.05775
#
# Velocity S-wave (km/s) = 3.38941 3.88065 3.64332
# Velocity P-wave (km/s) = 5.90931 8.01498 7.04130
#
# Compressibility (1/GPa) = 0.02936750
#
# Stress axis : x y z
#
# Youngs Moduli (GPa) = 56.76608 51.19361 21.26383
#
# Poissons Ratio (x) = 0.61318 0.15133
# Poissons Ratio (y) = 0.67992 0.17672
# Poissons Ratio (z) = 0.40400 0.42546
#
# Static dielectric constant tensor:
#      x y z
#    x 1.581520 0.000000 0.000000 
#    y 0.000000 1.570560 0.000000 
#    z 0.000000 0.000000 1.587410 
# 
# From -- ./inp_files/7167.got.cif
#   From: 2010.05.17/outbox.cif.g08.bks.cpg/sg57_4_cif.got.tgz:7167.got - 2010.06.03 13:58:18.
