data_PCOD9436944
_publ_section_title
;
Structure prediction by ZEFSAII (Michael W. Deem and Ramdas Pophale) SiO2 
 PCOD9436944
Probable space group: P B C M
;
_chemical_formula_sum "Si O2"
_cell_formula_units_Z 40
_cell_length_a 26.762535
_cell_length_b 9.229192
_cell_length_c 8.690507
_cell_angle_alpha 90.000000
_cell_angle_beta 90.000000
_cell_angle_gamma 90.000000
_cell_volume 2146.525455
_symmetry_space_group_name_H-M "P B C M"
_symmetry_group_IT_number 57
_symmetry_cell_setting 'orthorhombic'
loop_
_space_group_symop_operation_xyz
x,y,z
-x,-y,1/2+z
x,1/2-y,-z
-x,1/2+y,1/2-z
-x,-y,-z
x,y,1/2-z
-x,1/2+y,z
x,1/2-y,1/2+z
loop_
_atom_site_type_symbol
_atom_site_label
_atom_site_fract_x
_atom_site_fract_y
_atom_site_fract_z
Si Si1 0.953004 0.411761 0.934196
Si Si2 0.353839 0.087086 0.565923
Si Si3 0.859707 0.586243 0.435129
Si Si4 0.251359 0.086797 0.433780
Si Si5 0.546838 0.411589 0.934811
O O1 0.955109 0.409444 0.750000
O O2 0.954599 0.250000 0.000000
O O3 0.902681 0.490239 0.990656
O O4 0.000000 0.500000 0.000000
O O5 0.359172 0.250000 0.500000
O O6 0.351328 0.096813 0.750000
O O7 0.301644 0.021248 0.504482
O O8 0.401788 0.992807 0.521542
O O9 0.863379 0.750000 0.500000
O O10 0.865224 0.590719 0.250000
O O11 0.803771 0.527209 0.470662
O O12 0.250373 0.250000 0.500000
O O13 0.256364 0.092114 0.250000
O O14 0.543858 0.407878 0.750000
O O15 0.546284 0.250000 0.000000
O O16 0.500000 0.500000 0.000000
#
# Coordination Sequence:
#
# PCOD9436944 Si02
#       5
#     8   8   8   8   8
#     4  12  25  42  62  85 114 149 188 233 283 336
#     4  10  20  34  55  83 113 146 186 229 276 328
#     4  10  20  36  58  87 118 151 191 233 278 330
#     4   9  17  30  53  82 113 148 186 227 272 324
#     4  11  24  40  59  83 111 146 186 232 282 336
#
# _framework density 18.634765999999999
#
# number of rings (size 3 to 8) (size 9 to 14) (size 15 to 20)
#    0.000    1.600    0.000    6.600    0.000    7.200 
#    0.000    1.000    0.000    2.400    0.000    0.000 
#    0.000    0.000    0.000    0.000    0.000    0.000 
#
# Total GULP energy -223431.880697 kJ/mol
# GULP energy per Si atom -5585.797017 kJ/mol
# Density = 1.859235 g / cm^3
# Si number density = 18.634766 Si / 1000 Ang^3
#
#
#
# Elastic Constant Matrix: (Units=GPa)
#
#
# Indices 1 2 3 4 5 6 
#
# 1 229.1555 97.0196 88.2031 0.0000 0.0000 0.0000
# 2 97.0196 112.6843 50.7548 0.0000 0.0000 0.0000
# 3 88.2031 50.7548 111.0920 0.0000 0.0000 0.0000
# 4 0.0000 0.0000 0.0000 30.6224 0.0000 0.0000
# 5 0.0000 0.0000 0.0000 0.0000 35.7746 0.0000
# 6 0.0000 0.0000 0.0000 0.0000 0.0000 31.2180
#
#
#
# Elastic Compliance Matrix: (Units=1/GPa)
#
#
# Indices 1 2 3 4 5 6 
#
# 1 0.008119 -0.005145 -0.004095 0.000000 0.000000 0.000000
# 2 -0.005145 0.014435 -0.002510 0.000000 0.000000 0.000000
# 3 -0.004095 -0.002510 0.013399 0.000000 0.000000 0.000000
# 4 0.000000 0.000000 0.000000 0.032656 0.000000 0.000000
# 5 0.000000 0.000000 0.000000 0.000000 0.027953 0.000000
# 6 0.000000 0.000000 0.000000 0.000000 0.000000 0.032033
#
#
# Mechanical properties :
#
#
# Convention : Reuss Voigt Hill
#
# Bulk Modulus (GPa) = 80.30379 102.76518 91.53448
# Shear Modulus (GPa) = 32.00099 33.98663 32.99381
#
# Velocity S-wave (km/s) = 4.14850 4.27526 4.21236
# Velocity P-wave (km/s) = 8.13227 8.92397 8.53730
#
# Compressibility (1/GPa) = 0.01245271
#
# Stress axis : x y z
#
# Youngs Moduli (GPa) = 123.17513 69.27665 74.63037
#
# Poissons Ratio (x) = 0.35646 0.30561
# Poissons Ratio (y) = 0.63380 0.18729
# Poissons Ratio (z) = 0.50440 0.17385
#
# Static dielectric constant tensor:
#      x y z
#    x 1.673400 0.000000 0.000000 
#    y 0.000000 1.612460 0.000000 
#    z 0.000000 0.000000 1.622840 
# 
# From -- ./inp_files/8912.got.cif
#   From: 2010.05.17/outbox.cif.g08.bks.cpg/sg57_5_cif.got.tgz:8912.got - 2010.06.03 13:58:18.
