data_PCOD9436166
_publ_section_title
;
Structure prediction by ZEFSAII (Michael W. Deem and Ramdas Pophale) SiO2 
 PCOD9436166
Probable space group: P B C M
;
_chemical_formula_sum "Si O2"
_cell_formula_units_Z 56
_cell_length_a 17.659502
_cell_length_b 20.185490
_cell_length_c 8.862529
_cell_angle_alpha 90.000000
_cell_angle_beta 90.000000
_cell_angle_gamma 90.000000
_cell_volume 3159.187613
_symmetry_space_group_name_H-M "P B C M"
_symmetry_group_IT_number 57
_symmetry_cell_setting 'orthorhombic'
loop_
_space_group_symop_operation_xyz
x,y,z
-x,-y,1/2+z
x,1/2-y,-z
-x,1/2+y,1/2-z
-x,-y,-z
x,y,1/2-z
-x,1/2+y,z
x,1/2-y,1/2+z
loop_
_atom_site_type_symbol
_atom_site_label
_atom_site_fract_x
_atom_site_fract_y
_atom_site_fract_z
Si Si1 0.691110 0.914328 0.932188
Si Si2 0.379597 0.821287 0.569117
Si Si3 0.723804 0.435025 0.431830
Si Si4 0.819949 0.821642 0.070537
Si Si5 0.049237 0.098499 0.071282
Si Si6 0.101546 0.947876 0.069897
Si Si7 0.445533 0.179224 0.068878
O O1 0.700264 0.910523 0.750000
O O2 0.612821 0.878245 0.974406
O O3 0.695215 0.991420 0.973869
O O4 0.758883 0.873635 0.007258
O O5 0.358900 0.750000 0.500000
O O6 0.375878 0.818077 0.750000
O O7 0.325756 0.878490 0.507799
O O8 0.467477 0.834370 0.524599
O O9 0.718470 0.429185 0.250000
O O10 0.812670 0.430736 0.472369
O O11 0.815996 0.818315 0.250000
O O12 0.804359 0.750000 0.000000
O O13 0.901721 0.847740 0.016642
O O14 0.053684 0.110528 0.250000
O O15 0.085933 0.025885 0.040742
O O16 0.962923 0.092615 0.016573
O O17 0.092459 0.938277 0.250000
O O18 0.443424 0.185181 0.250000
O O19 0.422646 0.250000 0.000000
#
# Coordination Sequence:
#
# PCOD9436166 Si02
#       7
#     8   8   8   8   8   8   8
#     4  10  20  37  57  82 115 150 188 230 282 337
#     4  10  21  38  58  82 109 144 189 235 284 339
#     4  10  20  36  58  84 116 150 182 228 284 336
#     4  12  24  37  55  81 116 154 192 235 283 335
#     4  10  19  35  57  81 109 145 186 228 274 326
#     4   9  18  34  56  82 111 144 182 224 274 330
#     4   9  19  35  56  79 110 149 190 233 279 333
#
# _framework density 17.726077
#
# number of rings (size 3 to 8) (size 9 to 14) (size 15 to 20)
#    0.000    2.000    1.429    2.571    0.000    4.571 
#    0.000    0.714    0.000    3.429    0.000    0.000 
#    0.000    0.000    0.000    0.000    0.000    0.000 
#
# Total GULP energy -312708.106066 kJ/mol
# GULP energy per Si atom -5584.073323 kJ/mol
# Density = 1.768573 g / cm^3
# Si number density = 17.726077 Si / 1000 Ang^3
#
#
#
# Elastic Constant Matrix: (Units=GPa)
#
#
# Indices 1 2 3 4 5 6 
#
# 1 124.3095 90.6893 46.0350 0.0000 0.0000 0.0000
# 2 90.6893 135.8782 55.1508 0.0000 0.0000 0.0000
# 3 46.0350 55.1508 46.2766 0.0000 0.0000 0.0000
# 4 0.0000 0.0000 0.0000 29.2540 0.0000 0.0000
# 5 0.0000 0.0000 0.0000 0.0000 27.7869 0.0000
# 6 0.0000 0.0000 0.0000 0.0000 0.0000 21.5417
#
#
#
# Elastic Compliance Matrix: (Units=1/GPa)
#
#
# Indices 1 2 3 4 5 6 
#
# 1 0.016606 -0.008481 -0.006412 0.000000 0.000000 0.000000
# 2 -0.008481 0.018586 -0.013714 0.000000 0.000000 0.000000
# 3 -0.006412 -0.013714 0.044331 0.000000 0.000000 0.000000
# 4 0.000000 0.000000 0.000000 0.034183 0.000000 0.000000
# 5 0.000000 0.000000 0.000000 0.000000 0.035988 0.000000
# 6 0.000000 0.000000 0.000000 0.000000 0.000000 0.046421
#
#
# Mechanical properties :
#
#
# Convention : Reuss Voigt Hill
#
# Bulk Modulus (GPa) = 44.82279 76.69050 60.75665
# Shear Modulus (GPa) = 19.17420 23.35582 21.26501
#
# Velocity S-wave (km/s) = 3.29248 3.63381 3.46735
# Velocity P-wave (km/s) = 6.30834 7.80796 7.09787
#
# Compressibility (1/GPa) = 0.02231008
#
# Stress axis : x y z
#
# Youngs Moduli (GPa) = 60.21818 53.80392 22.55735
#
# Poissons Ratio (x) = 0.45630 0.14465
# Poissons Ratio (y) = 0.51070 0.30934
# Poissons Ratio (z) = 0.38615 0.73784
#
# Static dielectric constant tensor:
#      x y z
#    x 1.604590 0.000000 0.000000 
#    y 0.000000 1.574920 0.000000 
#    z 0.000000 0.000000 1.592270 
# 
# From -- ./inp_files/5214.got.cif
#   From: 2010.05.17/outbox.cif.g08.bks.cpg/sg57_3_cif.got.tgz:5214.got - 2010.06.03 13:58:18.
