data_PCOD9436423
_publ_section_title
;
Structure prediction by ZEFSAII (Michael W. Deem and Ramdas Pophale) SiO2 
 PCOD9436423
Probable space group: P B C M
;
_chemical_formula_sum "Si O2"
_cell_formula_units_Z 56
_cell_length_a 5.415414
_cell_length_b 28.436561
_cell_length_c 17.068950
_cell_angle_alpha 90.000000
_cell_angle_beta 90.000000
_cell_angle_gamma 90.000000
_cell_volume 2628.545766
_symmetry_space_group_name_H-M "P B C M"
_symmetry_group_IT_number 57
_symmetry_cell_setting 'orthorhombic'
loop_
_space_group_symop_operation_xyz
x,y,z
-x,-y,1/2+z
x,1/2-y,-z
-x,1/2+y,1/2-z
-x,-y,-z
x,y,1/2-z
-x,1/2+y,z
x,1/2-y,1/2+z
loop_
_atom_site_type_symbol
_atom_site_label
_atom_site_fract_x
_atom_site_fract_y
_atom_site_fract_z
Si Si1 0.200331 0.702949 0.054868
Si Si2 0.912006 0.488085 0.659146
Si Si3 0.879850 0.415211 0.164325
Si Si4 0.578952 0.535903 0.069199
Si Si5 0.236467 0.331980 0.336477
Si Si6 0.294102 0.266674 0.591336
Si Si7 0.439907 0.617861 0.966487
O O1 0.435802 0.713388 0.109892
O O2 0.933690 0.697776 0.093693
O O3 0.177909 0.750000 0.000000
O O4 0.265689 0.656703 0.006101
O O5 0.949304 0.475156 0.750000
O O6 0.654372 0.467930 0.628009
O O7 0.908809 0.545416 0.655697
O O8 0.155944 0.474409 0.608953
O O9 0.762873 0.424448 0.250000
O O10 0.707300 0.417630 0.089763
O O11 0.988250 0.362664 0.164710
O O12 0.500000 0.500000 0.000000
O O13 0.582190 0.587514 0.030342
O O14 0.350275 0.337955 0.250000
O O15 0.215571 0.277479 0.356441
O O16 0.390111 0.353664 0.406968
O O17 0.318795 0.250000 0.500000
#
# Coordination Sequence:
#
# PCOD9436423 Si02
#       7
#     8   8   8   8   8   8   8
#     4  10  20  36  61  86 117 160 210 256 307 380
#     4  11  25  47  67  93 137 187 223 280 343 400
#     4  10  22  37  60  92 134 173 210 266 345 407
#     4  12  25  42  69 103 136 170 234 280 332 403
#     4  11  23  38  61  97 134 171 209 271 348 409
#     4  10  19  38  58  85 123 159 212 249 306 386
#     4  12  23  37  66  95 133 167 221 277 329 394
#
# _framework density 21.304552999999999
#
# number of rings (size 3 to 8) (size 9 to 14) (size 15 to 20)
#    0.000    1.143    4.286    3.857    2.000    0.000 
#    0.000    0.000    0.000    5.143    0.000    0.000 
#    0.000    0.000    0.000    0.000    0.000    0.000 
#
# Total GULP energy -312630.438104 kJ/mol
# GULP energy per Si atom -5582.686395 kJ/mol
# Density = 2.125606 g / cm^3
# Si number density = 21.304553 Si / 1000 Ang^3
#
#
#
# Elastic Constant Matrix: (Units=GPa)
#
#
# Indices 1 2 3 4 5 6 
#
# 1 86.3561 -7.6110 14.4988 0.0000 0.0000 0.0000
# 2 -7.6110 52.5429 27.6087 0.0000 0.0000 0.0000
# 3 14.4988 27.6087 68.5713 0.0000 0.0000 0.0000
# 4 0.0000 0.0000 0.0000 29.9873 0.0000 0.0000
# 5 0.0000 0.0000 0.0000 0.0000 21.8916 0.0000
# 6 0.0000 0.0000 0.0000 0.0000 0.0000 31.6600
#
#
#
# Elastic Compliance Matrix: (Units=1/GPa)
#
#
# Indices 1 2 3 4 5 6 
#
# 1 0.012670 0.004113 -0.004335 0.000000 0.000000 0.000000
# 2 0.004113 0.025474 -0.011126 0.000000 0.000000 0.000000
# 3 -0.004335 -0.011126 0.019980 0.000000 0.000000 0.000000
# 4 0.000000 0.000000 0.000000 0.033347 0.000000 0.000000
# 5 0.000000 0.000000 0.000000 0.000000 0.045680 0.000000
# 6 0.000000 0.000000 0.000000 0.000000 0.000000 0.031586
#
#
# Mechanical properties :
#
#
# Convention : Reuss Voigt Hill
#
# Bulk Modulus (GPa) = 28.22638 30.71813 29.47226
# Shear Modulus (GPa) = 24.60113 28.23936 26.42025
#
# Velocity S-wave (km/s) = 3.40183 3.64470 3.52536
# Velocity P-wave (km/s) = 5.35795 5.67113 5.51676
#
# Compressibility (1/GPa) = 0.03542785
#
# Stress axis : x y z
#
# Youngs Moduli (GPa) = 78.92460 39.25537 50.05068
#
# Poissons Ratio (x) = -0.16147 0.21698
# Poissons Ratio (y) = -0.32463 0.55688
# Poissons Ratio (z) = 0.34215 0.43677
#
# Static dielectric constant tensor:
#      x y z
#    x 1.830480 0.000000 0.000000 
#    y 0.000000 1.773240 0.000000 
#    z 0.000000 0.000000 1.786220 
# 
# From -- ./inp_files/15259.got.cif
#   From: 2010.05.17/outbox.cif.g08.bks.cpg/sg57_8_cif.got.tgz:15259.got - 2010.06.03 13:58:18.
