data_PCOD9436249
_publ_section_title
;
Structure prediction by ZEFSAII (Michael W. Deem and Ramdas Pophale) SiO2 
 PCOD9436249
Probable space group: P B C M
;
_chemical_formula_sum "Si O2"
_cell_formula_units_Z 64
_cell_length_a 16.859815
_cell_length_b 10.924257
_cell_length_c 15.782379
_cell_angle_alpha 90.000000
_cell_angle_beta 90.000000
_cell_angle_gamma 90.000000
_cell_volume 2906.813590
_symmetry_space_group_name_H-M "P B C M"
_symmetry_group_IT_number 57
_symmetry_cell_setting 'orthorhombic'
loop_
_space_group_symop_operation_xyz
x,y,z
-x,-y,1/2+z
x,1/2-y,-z
-x,1/2+y,1/2-z
-x,-y,-z
x,y,1/2-z
-x,1/2+y,z
x,1/2-y,1/2+z
loop_
_atom_site_type_symbol
_atom_site_label
_atom_site_fract_x
_atom_site_fract_y
_atom_site_fract_z
Si Si1 0.070497 0.742785 0.602407
Si Si2 0.322019 0.842412 0.845148
Si Si3 0.420810 0.243121 0.146581
Si Si4 0.771599 0.113129 0.912461
Si Si5 0.890736 0.795383 0.150536
Si Si6 0.175766 0.959828 0.599701
Si Si7 0.475125 0.988567 0.853497
Si Si8 0.742571 0.851979 0.851092
O O1 0.064051 0.750000 0.500000
O O2 0.141519 0.648676 0.625868
O O3 0.105412 0.872495 0.630836
O O4 0.983695 0.720943 0.637226
O O5 0.342658 0.800536 0.750000
O O6 0.287037 0.725708 0.893981
O O7 0.251255 0.940955 0.841592
O O8 0.396301 0.915012 0.881176
O O9 0.423393 0.246794 0.250000
O O10 0.466298 0.368442 0.118515
O O11 0.457251 0.110160 0.121652
O O12 0.328492 0.236358 0.118346
O O13 0.732412 0.991302 0.877768
O O14 0.792865 0.088789 0.009791
O O15 0.877220 0.822645 0.250000
O O16 0.832229 0.685418 0.125614
O O17 0.858436 0.906792 0.095725
O O18 0.476455 0.993638 0.750000
O O19 0.738268 0.847000 0.750000
#
# Coordination Sequence:
#
# PCOD9436249 Si02
#       8
#     8   8   8   8   8   8   8   8
#     4   9  22  39  58  81 113 152 199 247 306 371
#     4  10  19  35  60  88 117 150 197 252 309 361
#     4   9  18  33  53  84 125 161 202 256 316 380
#     4  10  22  38  59  87 114 159 204 245 301 377
#     4  11  24  37  58  86 115 155 199 252 311 364
#     4  10  22  40  59  83 116 157 203 244 300 375
#     4   9  18  31  56  88 121 160 202 252 314 378
#     4  10  22  37  55  86 123 152 197 260 315 360
#
# _framework density 22.017236
#
# number of rings (size 3 to 8) (size 9 to 14) (size 15 to 20)
#    0.000    2.250    0.000    2.625    5.250    6.000 
#    0.000    0.000    0.000    0.750    3.250    0.000 
#    0.000    0.000    0.000    0.000    0.000    0.000 
#
# Total GULP energy -356874.630132 kJ/mol
# GULP energy per Si atom -5576.166096 kJ/mol
# Density = 2.196712 g / cm^3
# Si number density = 22.017236 Si / 1000 Ang^3
#
#
#
# Elastic Constant Matrix: (Units=GPa)
#
#
# Indices 1 2 3 4 5 6 
#
# 1 56.2189 47.9409 13.4549 0.0000 0.0000 0.0000
# 2 47.9409 102.6489 2.9729 0.0000 0.0000 0.0000
# 3 13.4549 2.9729 14.7373 0.0000 0.0000 0.0000
# 4 0.0000 0.0000 0.0000 26.3515 0.0000 0.0000
# 5 0.0000 0.0000 0.0000 0.0000 -87.2766 0.0000
# 6 0.0000 0.0000 0.0000 0.0000 0.0000 12.9307
#
#
#
# Elastic Compliance Matrix: (Units=1/GPa)
#
#
# Indices 1 2 3 4 5 6 
#
# 1 0.041857 -0.018550 -0.034472 0.000000 0.000000 0.000000
# 2 -0.018550 0.018020 0.013301 0.000000 0.000000 0.000000
# 3 -0.034472 0.013301 0.096645 0.000000 0.000000 0.000000
# 4 0.000000 0.000000 0.000000 0.037948 0.000000 0.000000
# 5 0.000000 0.000000 0.000000 0.000000 -0.011458 0.000000
# 6 0.000000 0.000000 0.000000 0.000000 0.000000 0.077335
#
#
# Mechanical properties :
#
#
# Convention : Reuss Voigt Hill
#
# Bulk Modulus (GPa) = 12.97384 33.59363 23.28373
# Shear Modulus (GPa) = 13.68051 -2.31645 5.68203
#
# Velocity S-wave (km/s) = 2.49540 -1.02684 1.60820
# Velocity P-wave (km/s) = 3.76936 3.72628 3.74788
#
# Compressibility (1/GPa) = 0.07707820
#
# Stress axis : x y z
#
# Youngs Moduli (GPa) = 23.89106 55.49268 10.34719
#
# Poissons Ratio (x) = 1.02940 0.35669
# Poissons Ratio (y) = 0.44319 -0.13763
# Poissons Ratio (z) = 0.82358 -0.73810
#
# Static dielectric constant tensor:
#      x y z
#    x 1.829950 0.000000 0.000000 
#    y 0.000000 1.816430 0.000000 
#    z 0.000000 0.000000 1.827180 
# 
# From -- ./inp_files/22646.got.cif
#   From: 2010.05.17/outbox.cif.g08.bks.cpg/sg57_12_cif.got.tgz:22646.got - 2010.06.03 13:58:18.
