data_PCOD9436277
_publ_section_title
;
Structure prediction by ZEFSAII (Michael W. Deem and Ramdas Pophale) SiO2 
 PCOD9436277
Probable space group: P B C M
;
_chemical_formula_sum "Si O2"
_cell_formula_units_Z 40
_cell_length_a 5.605085
_cell_length_b 20.973975
_cell_length_c 14.625288
_cell_angle_alpha 90.000000
_cell_angle_beta 90.000000
_cell_angle_gamma 90.000000
_cell_volume 1719.362205
_symmetry_space_group_name_H-M "P B C M"
_symmetry_group_IT_number 57
_symmetry_cell_setting 'orthorhombic'
loop_
_space_group_symop_operation_xyz
x,y,z
-x,-y,1/2+z
x,1/2-y,-z
-x,1/2+y,1/2-z
-x,-y,-z
x,y,1/2-z
-x,1/2+y,z
x,1/2-y,1/2+z
loop_
_atom_site_type_symbol
_atom_site_label
_atom_site_fract_x
_atom_site_fract_y
_atom_site_fract_z
Si Si1 0.735402 0.932765 0.996044
Si Si2 0.413478 0.988068 0.647694
Si Si3 0.972696 0.234292 0.608238
Si Si4 0.933348 0.121662 0.152901
Si Si5 0.521855 0.808024 0.426137
O O1 0.558950 0.875099 0.023342
O O2 0.776610 0.969737 0.090789
O O3 0.633201 0.982558 0.921498
O O4 0.944149 0.898857 0.941043
O O5 0.457612 0.011708 0.750000
O O6 0.313385 0.916291 0.654334
O O7 0.987977 0.250000 0.500000
O O8 0.925351 0.302704 0.652497
O O9 0.734016 0.193132 0.623517
O O10 0.232913 0.205041 0.630095
O O11 0.056768 0.101962 0.250000
O O12 0.509129 0.750000 0.500000
#
# Coordination Sequence:
#
# PCOD9436277 Si02
#       5
#     8   8   8   8   8
#     4  11  21  39  65  90 125 175 210 282 332 391
#     4  10  23  40  61  92 125 166 226 273 331 397
#     4  10  19  36  60  89 123 160 205 264 324 380
#     4  11  22  38  62  92 126 169 220 271 323 398
#     4  10  19  35  64  89 123 163 208 261 325 398
#
# _framework density 23.264441000000001
#
# number of rings (size 3 to 8) (size 9 to 14) (size 15 to 20)
#    0.000    1.600    4.000    3.600    0.000    0.000 
#    0.000    2.000    0.000    0.000    0.000    0.000 
#    0.000    0.000    0.000    0.000    0.000    0.000 
#
# Total GULP energy -223001.664405 kJ/mol
# GULP energy per Si atom -5575.041610 kJ/mol
# Density = 2.321149 g / cm^3
# Si number density = 23.264441 Si / 1000 Ang^3
#
#
#
# Elastic Constant Matrix: (Units=GPa)
#
#
# Indices 1 2 3 4 5 6 
#
# 1 106.4047 -2.6253 3.6741 0.0000 0.0000 0.0000
# 2 -2.6253 63.5278 31.8301 0.0000 0.0000 0.0000
# 3 3.6741 31.8301 123.9556 0.0000 0.0000 0.0000
# 4 0.0000 0.0000 0.0000 16.9334 0.0000 0.0000
# 5 0.0000 0.0000 0.0000 0.0000 4.4536 0.0000
# 6 0.0000 0.0000 0.0000 0.0000 0.0000 7.0073
#
#
#
# Elastic Compliance Matrix: (Units=1/GPa)
#
#
# Indices 1 2 3 4 5 6 
#
# 1 0.009428 0.000608 -0.000436 0.000000 0.000000 0.000000
# 2 0.000608 0.018105 -0.004667 0.000000 0.000000 0.000000
# 3 -0.000436 -0.004667 0.009279 0.000000 0.000000 0.000000
# 4 0.000000 0.000000 0.000000 0.059055 0.000000 0.000000
# 5 0.000000 0.000000 0.000000 0.000000 0.224539 0.000000
# 6 0.000000 0.000000 0.000000 0.000000 0.000000 0.142709
#
#
# Mechanical properties :
#
#
# Convention : Reuss Voigt Hill
#
# Bulk Modulus (GPa) = 35.94275 39.96065 37.95170
# Shear Modulus (GPa) = 10.38684 23.07945 16.73315
#
# Velocity S-wave (km/s) = 2.11527 3.15310 2.68481
# Velocity P-wave (km/s) = 4.63131 5.51997 5.09505
#
# Compressibility (1/GPa) = 0.02782202
#
# Stress axis : x y z
#
# Youngs Moduli (GPa) = 106.06570 55.23452 107.77319
#
# Poissons Ratio (x) = -0.03357 0.04694
# Poissons Ratio (y) = -0.06447 0.50298
# Poissons Ratio (z) = 0.04620 0.25778
#
# Static dielectric constant tensor:
#      x y z
#    x 1.972080 0.000000 0.000000 
#    y 0.000000 1.872680 0.000000 
#    z 0.000000 0.000000 1.916940 
# 
# From -- ./inp_files/14961.got.cif
#   From: 2010.05.17/outbox.cif.g08.bks.cpg/sg57_8_cif.got.tgz:14961.got - 2010.06.03 13:58:18.
