data_PCOD9436970
_publ_section_title
;
Structure prediction by ZEFSAII (Michael W. Deem and Ramdas Pophale) SiO2 
 PCOD9436970
Probable space group: P B C M
;
_chemical_formula_sum "Si O2"
_cell_formula_units_Z 56
_cell_length_a 10.188941
_cell_length_b 20.176213
_cell_length_c 15.413466
_cell_angle_alpha 90.000000
_cell_angle_beta 90.000000
_cell_angle_gamma 90.000000
_cell_volume 3168.611618
_symmetry_space_group_name_H-M "P B C M"
_symmetry_group_IT_number 57
_symmetry_cell_setting 'orthorhombic'
loop_
_space_group_symop_operation_xyz
x,y,z
-x,-y,1/2+z
x,1/2-y,-z
-x,1/2+y,1/2-z
-x,-y,-z
x,y,1/2-z
-x,1/2+y,z
x,1/2-y,1/2+z
loop_
_atom_site_type_symbol
_atom_site_label
_atom_site_fract_x
_atom_site_fract_y
_atom_site_fract_z
Si Si1 0.100310 0.890750 0.416832
Si Si2 0.404890 0.650717 0.345810
Si Si3 0.193039 0.409889 0.032687
Si Si4 0.676236 0.198284 0.649514
Si Si5 0.552179 0.672295 0.516682
Si Si6 0.180892 0.943717 0.602975
Si Si7 0.886235 0.538088 0.154271
O O1 0.182760 0.831277 0.376022
O O2 0.157969 0.906290 0.511826
O O3 0.944715 0.881360 0.431035
O O4 0.121164 0.958897 0.363115
O O5 0.466642 0.652914 0.250000
O O6 0.334826 0.722206 0.360418
O O7 0.503602 0.642023 0.425465
O O8 0.296252 0.593833 0.349151
O O9 0.213056 0.480510 0.079378
O O10 0.316222 0.363119 0.046916
O O11 0.175588 0.426154 0.929827
O O12 0.649140 0.182658 0.750000
O O13 0.565740 0.167967 0.586199
O O14 0.576728 0.750000 0.500000
O O15 0.040766 0.944154 0.650132
O O16 0.833531 0.554077 0.250000
#
# Coordination Sequence:
#
# PCOD9436970 Si02
#       7
#     8   8   8   8   8   8   8
#     4   9  17  34  55  80 105 139 180 223 269 320
#     4  10  20  34  56  81 106 144 188 224 271 324
#     4   9  20  35  55  80 112 147 179 218 280 332
#     4  10  20  36  58  79 105 143 190 230 267 322
#     4  10  21  39  55  77 112 151 177 226 277 321
#     4   9  17  33  54  77 109 141 175 229 273 320
#     4   9  17  31  53  80 113 143 174 220 277 324
#
# _framework density 17.673355999999998
#
# number of rings (size 3 to 8) (size 9 to 14) (size 15 to 20)
#    0.000    2.571    1.429    2.571    0.000    1.143 
#    5.143    4.286    0.000    0.000    0.000    0.000 
#    0.000    0.000    0.000    0.000    0.000    0.000 
#
# Total GULP energy -312180.728888 kJ/mol
# GULP energy per Si atom -5574.655873 kJ/mol
# Density = 1.763313 g / cm^3
# Si number density = 17.673356 Si / 1000 Ang^3
#
#
#
# Elastic Constant Matrix: (Units=GPa)
#
#
# Indices 1 2 3 4 5 6 
#
# 1 95.2977 44.6563 35.7521 0.0000 0.0000 0.0000
# 2 44.6563 31.7467 24.7867 0.0000 0.0000 0.0000
# 3 35.7521 24.7867 91.4743 0.0000 0.0000 0.0000
# 4 0.0000 0.0000 0.0000 15.5530 0.0000 0.0000
# 5 0.0000 0.0000 0.0000 0.0000 7.4528 0.0000
# 6 0.0000 0.0000 0.0000 0.0000 0.0000 23.4151
#
#
#
# Elastic Compliance Matrix: (Units=1/GPa)
#
#
# Indices 1 2 3 4 5 6 
#
# 1 0.030796 -0.043024 -0.000378 0.000000 0.000000 0.000000
# 2 -0.043024 0.100059 -0.010297 0.000000 0.000000 0.000000
# 3 -0.000378 -0.010297 0.013870 0.000000 0.000000 0.000000
# 4 0.000000 0.000000 0.000000 0.064296 0.000000 0.000000
# 5 0.000000 0.000000 0.000000 0.000000 0.134177 0.000000
# 6 0.000000 0.000000 0.000000 0.000000 0.000000 0.042708
#
#
# Mechanical properties :
#
#
# Convention : Reuss Voigt Hill
#
# Bulk Modulus (GPa) = 26.79107 47.65655 37.22381
# Shear Modulus (GPa) = 9.88635 16.83908 13.36271
#
# Velocity S-wave (km/s) = 2.36771 3.09009 2.75270
# Velocity P-wave (km/s) = 4.76095 6.30518 5.58668
#
# Compressibility (1/GPa) = 0.03732587
#
# Stress axis : x y z
#
# Youngs Moduli (GPa) = 32.47125 9.99413 72.09754
#
# Poissons Ratio (x) = 0.42999 0.02728
# Poissons Ratio (y) = 1.39705 0.74240
# Poissons Ratio (z) = 0.01228 0.10291
#
# Static dielectric constant tensor:
#      x y z
#    x 1.574990 0.000000 0.000000 
#    y 0.000000 1.585700 0.000000 
#    z 0.000000 0.000000 1.634990 
# 
# From -- ./inp_files/16715.got.cif
#   From: 2010.05.17/outbox.cif.g08.bks.cpg/sg57_9_cif.got.tgz:16715.got - 2010.06.03 13:58:18.
