data_PCOD9436883
_publ_section_title
;
Structure prediction by ZEFSAII (Michael W. Deem and Ramdas Pophale) SiO2 
 PCOD9436883
Probable space group: P B C M
;
_chemical_formula_sum "Si O2"
_cell_formula_units_Z 48
_cell_length_a 31.995410
_cell_length_b 9.574771
_cell_length_c 8.669389
_cell_angle_alpha 90.000000
_cell_angle_beta 90.000000
_cell_angle_gamma 90.000000
_cell_volume 2655.856256
_symmetry_space_group_name_H-M "P B C M"
_symmetry_group_IT_number 57
_symmetry_cell_setting 'orthorhombic'
loop_
_space_group_symop_operation_xyz
x,y,z
-x,-y,1/2+z
x,1/2-y,-z
-x,1/2+y,1/2-z
-x,-y,-z
x,y,1/2-z
-x,1/2+y,z
x,1/2-y,1/2+z
loop_
_atom_site_type_symbol
_atom_site_label
_atom_site_fract_x
_atom_site_fract_y
_atom_site_fract_z
Si Si1 0.283725 0.093434 0.065402
Si Si2 0.375813 0.407922 0.935098
Si Si3 0.789641 0.404639 0.565078
Si Si4 0.037734 0.406533 0.064189
Si Si5 0.537587 0.591984 0.934420
Si Si6 0.884461 0.404697 0.935673
O O1 0.281075 0.099170 0.250000
O O2 0.329946 0.032373 0.026406
O O3 0.281552 0.250000 0.000000
O O4 0.245789 0.005212 0.998987
O O5 0.380445 0.404822 0.750000
O O6 0.374318 0.250000 0.000000
O O7 0.417665 0.469108 0.009571
O O8 0.782569 0.250000 0.500000
O O9 0.787859 0.402611 0.750000
O O10 0.837135 0.444701 0.518222
O O11 0.035685 0.402802 0.250000
O O12 0.080782 0.483672 0.016807
O O13 0.035532 0.250000 0.000000
O O14 0.000000 0.500000 0.000000
O O15 0.536513 0.596905 0.750000
O O16 0.534361 0.750000 0.000000
O O17 0.500000 0.500000 0.000000
O O18 0.885408 0.395564 0.750000
O O19 0.893558 0.250000 0.000000
#
# Coordination Sequence:
#
# PCOD9436883 Si02
#       6
#     8   8   8   8   8   8
#     4  10  20  34  54  80 108 139 177 221 265 313
#     4   9  17  31  51  75 103 136 175 216 262 315
#     4  10  20  36  56  79 109 144 180 219 267 320
#     4  11  23  39  58  83 113 145 182 223 270 320
#     4  11  21  35  55  79 107 139 176 218 266 318
#     4   9  20  37  57  80 107 141 180 221 266 318
#
# _framework density 18.073266
#
# number of rings (size 3 to 8) (size 9 to 14) (size 15 to 20)
#    0.000    2.000    0.000    5.000    0.000    6.000 
#    0.000    2.500    0.000    4.000    0.000    0.000 
#    0.000    0.000    0.000    0.000    0.000    0.000 
#
# Total GULP energy -267859.623719 kJ/mol
# GULP energy per Si atom -5580.408827 kJ/mol
# Density = 1.803213 g / cm^3
# Si number density = 18.073266 Si / 1000 Ang^3
#
#
#
# Elastic Constant Matrix: (Units=GPa)
#
#
# Indices 1 2 3 4 5 6 
#
# 1 196.8032 105.9602 68.8512 0.0000 0.0000 0.0000
# 2 105.9602 93.3635 41.9138 0.0000 0.0000 0.0000
# 3 68.8512 41.9138 89.9885 0.0000 0.0000 0.0000
# 4 0.0000 0.0000 0.0000 31.9288 0.0000 0.0000
# 5 0.0000 0.0000 0.0000 0.0000 30.5500 0.0000
# 6 0.0000 0.0000 0.0000 0.0000 0.0000 37.4313
#
#
#
# Elastic Compliance Matrix: (Units=1/GPa)
#
#
# Indices 1 2 3 4 5 6 
#
# 1 0.014248 -0.014258 -0.004261 0.000000 0.000000 0.000000
# 2 -0.014258 0.027810 -0.002044 0.000000 0.000000 0.000000
# 3 -0.004261 -0.002044 0.015325 0.000000 0.000000 0.000000
# 4 0.000000 0.000000 0.000000 0.031320 0.000000 0.000000
# 5 0.000000 0.000000 0.000000 0.000000 0.032733 0.000000
# 6 0.000000 0.000000 0.000000 0.000000 0.000000 0.026716
#
#
# Mechanical properties :
#
#
# Convention : Reuss Voigt Hill
#
# Bulk Modulus (GPa) = 61.51020 90.40060 75.95540
# Shear Modulus (GPa) = 25.68093 30.87734 28.27914
#
# Velocity S-wave (km/s) = 3.77362 4.13783 3.95991
# Velocity P-wave (km/s) = 7.28661 8.54145 7.93886
#
# Compressibility (1/GPa) = 0.01625747
#
# Stress axis : x y z
#
# Youngs Moduli (GPa) = 70.18284 35.95785 65.25493
#
# Poissons Ratio (x) = 0.51269 0.27803
# Poissons Ratio (y) = 1.00068 0.13339
# Poissons Ratio (z) = 0.29903 0.07350
#
# Static dielectric constant tensor:
#      x y z
#    x 1.656780 0.000000 0.000000 
#    y 0.000000 1.585660 0.000000 
#    z 0.000000 0.000000 1.605440 
# 
# From -- ./inp_files/9916.got.cif
#   From: 2010.05.17/outbox.cif.g08.bks.cpg/sg57_5_cif.got.tgz:9916.got - 2010.06.03 13:58:18.
