data_PCOD9436366
_publ_section_title
;
Structure prediction by ZEFSAII (Michael W. Deem and Ramdas Pophale) SiO2 
 PCOD9436366
Probable space group: P B C M
;
_chemical_formula_sum "Si O2"
_cell_formula_units_Z 64
_cell_length_a 6.999055
_cell_length_b 16.968879
_cell_length_c 27.113924
_cell_angle_alpha 90.000000
_cell_angle_beta 90.000000
_cell_angle_gamma 90.000000
_cell_volume 3220.215481
_symmetry_space_group_name_H-M "P B C M"
_symmetry_group_IT_number 57
_symmetry_cell_setting 'orthorhombic'
loop_
_space_group_symop_operation_xyz
x,y,z
-x,-y,1/2+z
x,1/2-y,-z
-x,1/2+y,1/2-z
-x,-y,-z
x,y,1/2-z
-x,1/2+y,z
x,1/2-y,1/2+z
loop_
_atom_site_type_symbol
_atom_site_label
_atom_site_fract_x
_atom_site_fract_y
_atom_site_fract_z
Si Si1 0.089136 0.328879 0.693147
Si Si2 0.789386 0.809991 0.541717
Si Si3 0.636261 0.546033 0.613837
Si Si4 0.318402 0.802509 0.646996
Si Si5 0.669616 0.789303 0.139133
Si Si6 0.534896 0.090148 0.514598
Si Si7 0.422380 0.438348 0.808627
Si Si8 0.829917 0.398310 0.560358
O O1 0.045700 0.340260 0.750000
O O2 0.228938 0.256177 0.683462
O O3 0.210783 0.406214 0.677281
O O4 0.895859 0.306611 0.666053
O O5 0.867206 0.750000 0.500000
O O6 0.724938 0.759821 0.589524
O O7 0.615608 0.855456 0.514780
O O8 0.950959 0.872147 0.558579
O O9 0.739671 0.621396 0.636811
O O10 0.507999 0.588868 0.572087
O O11 0.505128 0.504156 0.654755
O O12 0.773194 0.481418 0.586938
O O13 0.442341 0.723467 0.646615
O O14 0.438105 0.864773 0.679566
O O15 0.294289 0.836146 0.591910
O O16 0.746168 0.106031 0.494802
O O17 0.500000 0.000000 0.500000
O O18 0.426569 0.456675 0.750000
#
# Coordination Sequence:
#
# PCOD9436366 Si02
#       8
#     8   8   8   8   8   8   8   8
#     4  10  21  39  65  93 121 159 212 264 312 378
#     4  12  23  39  63  91 128 167 214 261 311 374
#     4  10  22  40  62  92 134 168 206 266 320 378
#     4  10  19  36  65  87 116 161 211 255 313 370
#     4  11  22  39  61  93 130 163 205 264 320 375
#     4  10  22  39  58  85 125 163 206 263 318 374
#     4   9  20  39  63  88 118 161 209 258 317 380
#     4  10  22  39  63  88 121 170 212 252 308 382
#
# _framework density 19.874445999999999
#
# number of rings (size 3 to 8) (size 9 to 14) (size 15 to 20)
#    0.000    1.750    3.750    0.375    1.750    4.500 
#    0.000    5.000    0.000    3.000    0.000    0.000 
#    0.000    0.000    0.000    0.000    0.000    0.000 
#
# Total GULP energy -356603.948352 kJ/mol
# GULP energy per Si atom -5571.936693 kJ/mol
# Density = 1.982921 g / cm^3
# Si number density = 19.874446 Si / 1000 Ang^3
#
#
#
# Elastic Constant Matrix: (Units=GPa)
#
#
# Indices 1 2 3 4 5 6 
#
# 1 81.3785 38.3048 27.8297 0.0000 0.0000 0.0000
# 2 38.3048 77.3318 10.2399 0.0000 0.0000 0.0000
# 3 27.8297 10.2399 65.1446 0.0000 0.0000 0.0000
# 4 0.0000 0.0000 0.0000 20.3300 0.0000 0.0000
# 5 0.0000 0.0000 0.0000 0.0000 27.2772 0.0000
# 6 0.0000 0.0000 0.0000 0.0000 0.0000 17.6216
#
#
#
# Elastic Compliance Matrix: (Units=1/GPa)
#
#
# Indices 1 2 3 4 5 6 
#
# 1 0.018421 -0.008254 -0.006572 0.000000 0.000000 0.000000
# 2 -0.008254 0.016905 0.000869 0.000000 0.000000 0.000000
# 3 -0.006572 0.000869 0.018021 0.000000 0.000000 0.000000
# 4 0.000000 0.000000 0.000000 0.049188 0.000000 0.000000
# 5 0.000000 0.000000 0.000000 0.000000 0.036661 0.000000
# 6 0.000000 0.000000 0.000000 0.000000 0.000000 0.056748
#
#
# Mechanical properties :
#
#
# Convention : Reuss Voigt Hill
#
# Bulk Modulus (GPa) = 39.31939 41.84487 40.58213
# Shear Modulus (GPa) = 21.52047 22.87778 22.19912
#
# Velocity S-wave (km/s) = 3.29419 3.39649 3.34573
# Velocity P-wave (km/s) = 5.85626 6.04002 5.94885
#
# Compressibility (1/GPa) = 0.02543274
#
# Stress axis : x y z
#
# Youngs Moduli (GPa) = 54.28590 59.15482 55.48952
#
# Poissons Ratio (x) = 0.48828 0.36468
# Poissons Ratio (y) = 0.44809 -0.04822
# Poissons Ratio (z) = 0.35677 -0.05140
#
# Static dielectric constant tensor:
#      x y z
#    x 1.724340 0.000000 0.000000 
#    y 0.000000 1.957600 0.000000 
#    z 0.000000 0.000000 -1.613310 
# 
# From -- ./inp_files/29287.got.cif
#   From: 2010.05.17/outbox.cif.g08.bks.cpg/sg57_15_cif.got.tgz:29287.got - 2010.06.03 13:58:18.
