data_PCOD9436884
_publ_section_title
;
Structure prediction by ZEFSAII (Michael W. Deem and Ramdas Pophale) SiO2 
 PCOD9436884
Probable space group: P B C M
;
_chemical_formula_sum "Si O2"
_cell_formula_units_Z 64
_cell_length_a 19.752423
_cell_length_b 8.400910
_cell_length_c 17.831467
_cell_angle_alpha 90.000000
_cell_angle_beta 90.000000
_cell_angle_gamma 90.000000
_cell_volume 2958.923818
_symmetry_space_group_name_H-M "P B C M"
_symmetry_group_IT_number 57
_symmetry_cell_setting 'orthorhombic'
loop_
_space_group_symop_operation_xyz
x,y,z
-x,-y,1/2+z
x,1/2-y,-z
-x,1/2+y,1/2-z
-x,-y,-z
x,y,1/2-z
-x,1/2+y,z
x,1/2-y,1/2+z
loop_
_atom_site_type_symbol
_atom_site_label
_atom_site_fract_x
_atom_site_fract_y
_atom_site_fract_z
Si Si1 0.600901 0.167743 0.836941
Si Si2 0.097265 0.336684 0.341473
Si Si3 0.473438 0.495413 0.162349
Si Si4 0.277117 0.674736 0.421603
Si Si5 0.832738 0.165984 0.660206
Si Si6 0.351040 0.165060 0.578433
Si Si7 0.768469 0.667945 0.340494
Si Si8 0.035729 0.671592 0.158609
O O1 0.622140 0.143572 0.750000
O O2 0.550917 0.027933 0.862968
O O3 0.553603 0.325225 0.840788
O O4 0.664735 0.211174 0.886741
O O5 0.098945 0.337511 0.250000
O O6 0.172380 0.289764 0.365266
O O7 0.067726 0.505515 0.366137
O O8 0.040460 0.208597 0.365012
O O9 0.472577 0.447313 0.250000
O O10 0.420504 0.387160 0.117897
O O11 0.256033 0.750000 0.500000
O O12 0.213500 0.687533 0.366405
O O13 0.308738 0.500143 0.429816
O O14 0.833180 0.161552 0.750000
O O15 0.910101 0.192984 0.636321
O O16 0.796393 0.004313 0.634907
O O17 0.363515 0.250000 0.500000
O O18 0.303336 0.280925 0.627073
O O19 0.764224 0.668902 0.250000
O O20 0.034104 0.668266 0.250000
#
# Coordination Sequence:
#
# PCOD9436884 Si02
#       8
#     8   8   8   8   8   8   8   8
#     4   9  19  36  58  82 107 137 174 217 265 317
#     4   9  16  27  46  74 107 140 175 219 269 317
#     4   9  19  36  58  82 107 137 174 217 265 317
#     4  11  23  38  55  77 108 144 182 223 268 318
#     4  10  20  34  54  80 108 140 180 224 270 321
#     4  11  23  38  55  77 108 144 182 223 268 318
#     4  10  20  34  54  80 108 140 180 224 270 321
#     4   9  16  27  46  74 107 140 175 219 269 317
#
# _framework density 21.629486
#
# number of rings (size 3 to 8) (size 9 to 14) (size 15 to 20)
#    0.000    2.250    0.000    3.000    0.000    8.000 
#    0.000    5.000    0.000    0.750    0.000    5.250 
#    0.000    0.000    0.000    0.000    0.000    0.000 
#
# Total GULP energy -357551.801191 kJ/mol
# GULP energy per Si atom -5586.746894 kJ/mol
# Density = 2.158026 g / cm^3
# Si number density = 21.629486 Si / 1000 Ang^3
#
#
#
# Elastic Constant Matrix: (Units=GPa)
#
#
# Indices 1 2 3 4 5 6 
#
# 1 65.3533 -1.1629 1.3753 0.0000 0.0000 0.0000
# 2 -1.1629 55.4109 4.7790 0.0000 0.0000 0.0000
# 3 1.3753 4.7790 9.2053 0.0000 0.0000 0.0000
# 4 0.0000 0.0000 0.0000 43.0266 0.0000 0.0000
# 5 0.0000 0.0000 0.0000 0.0000 -61.3839 0.0000
# 6 0.0000 0.0000 0.0000 0.0000 0.0000 34.1250
#
#
#
# Elastic Compliance Matrix: (Units=1/GPa)
#
#
# Indices 1 2 3 4 5 6 
#
# 1 0.015365 0.000545 -0.002579 0.000000 0.000000 0.000000
# 2 0.000545 0.018912 -0.009900 0.000000 0.000000 0.000000
# 3 -0.002579 -0.009900 0.114158 0.000000 0.000000 0.000000
# 4 0.000000 0.000000 0.000000 0.023241 0.000000 0.000000
# 5 0.000000 0.000000 0.000000 0.000000 -0.016291 0.000000
# 6 0.000000 0.000000 0.000000 0.000000 0.000000 0.029304
#
#
# Mechanical properties :
#
#
# Convention : Reuss Voigt Hill
#
# Bulk Modulus (GPa) = 8.02769 15.55025 11.78897
# Shear Modulus (GPa) = 19.99357 11.48539 15.73948
#
# Velocity S-wave (km/s) = 3.04364 2.30686 2.70049
# Velocity P-wave (km/s) = 4.00888 3.78159 3.89690
#
# Compressibility (1/GPa) = 0.12456882
#
# Stress axis : x y z
#
# Youngs Moduli (GPa) = 65.08125 52.87575 8.75978
#
# Poissons Ratio (x) = -0.02881 0.02259
# Poissons Ratio (y) = -0.03546 0.08672
# Poissons Ratio (z) = 0.16781 0.52346
#
# Static dielectric constant tensor:
#      x y z
#    x 1.768230 0.000000 0.000000 
#    y 0.000000 1.838280 0.000000 
#    z 0.000000 0.000000 1.747430 
# 
# From -- ./inp_files/23006.got.cif
#   From: 2010.05.17/outbox.cif.g08.bks.cpg/sg57_12_cif.got.tgz:23006.got - 2010.06.03 13:58:18.
