data_PCOD9436031
_publ_section_title
;
Structure prediction by ZEFSAII (Michael W. Deem and Ramdas Pophale) SiO2 
 PCOD9436031
Probable space group: P B C M
;
_chemical_formula_sum "Si O2"
_cell_formula_units_Z 64
_cell_length_a 12.228120
_cell_length_b 31.881381
_cell_length_c 8.514913
_cell_angle_alpha 90.000000
_cell_angle_beta 90.000000
_cell_angle_gamma 90.000000
_cell_volume 3319.533321
_symmetry_space_group_name_H-M "P B C M"
_symmetry_group_IT_number 57
_symmetry_cell_setting 'orthorhombic'
loop_
_space_group_symop_operation_xyz
x,y,z
-x,-y,1/2+z
x,1/2-y,-z
-x,1/2+y,1/2-z
-x,-y,-z
x,y,1/2-z
-x,1/2+y,z
x,1/2-y,1/2+z
loop_
_atom_site_type_symbol
_atom_site_label
_atom_site_fract_x
_atom_site_fract_y
_atom_site_fract_z
Si Si1 0.237658 0.048998 0.559870
Si Si2 0.233711 0.794576 0.937456
Si Si3 0.767623 0.455328 0.560781
Si Si4 0.623308 0.626780 0.438146
Si Si5 0.996321 0.324301 0.060529
Si Si6 0.628634 0.375403 0.558127
Si Si7 0.236673 0.295423 0.438145
Si Si8 0.995395 0.077475 0.939112
O O1 0.242362 0.051301 0.750000
O O2 0.314784 0.084917 0.492567
O O3 0.112103 0.058502 0.513403
O O4 0.266623 0.001833 0.508740
O O5 0.236868 0.794013 0.750000
O O6 0.305160 0.834170 0.993658
O O7 0.274077 0.750000 0.000000
O O8 0.109187 0.801719 0.991491
O O9 0.764261 0.455209 0.750000
O O10 0.690810 0.417420 0.504224
O O11 0.891512 0.445811 0.510268
O O12 0.624847 0.628767 0.250000
O O13 0.497224 0.625975 0.491358
O O14 0.686647 0.667143 0.503486
O O15 0.991494 0.321882 0.250000
O O16 0.111928 0.305006 0.008729
O O17 0.992652 0.373426 0.015865
O O18 0.630499 0.375681 0.750000
O O19 0.270918 0.250000 0.500000
O O20 0.237060 0.295395 0.250000
O O21 0.988466 0.075225 0.750000
#
# Coordination Sequence:
#
# PCOD9436031 Si02
#       8
#     8   8   8   8   8   8   8   8
#     4  10  21  38  59  86 120 154 189 237 292 343
#     4  11  22  38  60  85 117 150 190 234 285 345
#     4  10  20  37  61  86 116 154 193 234 289 350
#     4  11  23  40  61  83 114 154 199 243 286 336
#     4  10  20  36  59  86 119 151 183 230 284 341
#     4   9  21  40  58  82 114 150 193 245 288 334
#     4  11  23  41  62  88 121 152 190 236 290 345
#     4  10  19  34  56  86 122 150 183 235 289 343
#
# _framework density 19.279819
#
# number of rings (size 3 to 8) (size 9 to 14) (size 15 to 20)
#    0.000    1.750    2.500    1.875    0.000    4.000 
#    0.000    5.000    0.000    0.000    0.000    0.000 
#    0.000    0.000    0.000    0.000    0.000    0.000 
#
# Total GULP energy -357616.824143 kJ/mol
# GULP energy per Si atom -5587.762877 kJ/mol
# Density = 1.923594 g / cm^3
# Si number density = 19.279819 Si / 1000 Ang^3
#
#
#
# Elastic Constant Matrix: (Units=GPa)
#
#
# Indices 1 2 3 4 5 6 
#
# 1 153.8597 89.9145 24.0965 0.0000 0.0000 0.0000
# 2 89.9145 200.6328 32.9359 0.0000 0.0000 0.0000
# 3 24.0965 32.9359 19.1812 0.0000 0.0000 0.0000
# 4 0.0000 0.0000 0.0000 26.9652 0.0000 0.0000
# 5 0.0000 0.0000 0.0000 0.0000 -26.2494 0.0000
# 6 0.0000 0.0000 0.0000 0.0000 0.0000 -1.8486
#
#
#
# Elastic Compliance Matrix: (Units=1/GPa)
#
#
# Indices 1 2 3 4 5 6 
#
# 1 0.009325 -0.003142 -0.006320 0.000000 0.000000 0.000000
# 2 -0.003142 0.007999 -0.009788 0.000000 0.000000 0.000000
# 3 -0.006320 -0.009788 0.076882 0.000000 0.000000 0.000000
# 4 0.000000 0.000000 0.000000 0.037085 0.000000 0.000000
# 5 0.000000 0.000000 0.000000 0.000000 -0.038096 0.000000
# 6 0.000000 0.000000 0.000000 0.000000 0.000000 -0.540938
#
#
# Mechanical properties :
#
#
# Convention : Reuss Voigt Hill
#
# Bulk Modulus (GPa) = 17.95159 74.17416 46.06287
# Shear Modulus (GPa) = -12.79842 14.88855 1.04506
#
# Velocity S-wave (km/s) = -2.57927 2.78193 0.73704
# Velocity P-wave (km/s) = 0.67903 6.99105 4.96668
#
# Compressibility (1/GPa) = 0.05570538
#
# Stress axis : x y z
#
# Youngs Moduli (GPa) = 107.23624 125.01560 13.00693
#
# Poissons Ratio (x) = 0.39274 0.08221
# Poissons Ratio (y) = 0.33689 0.12732
# Poissons Ratio (z) = 0.67778 1.22371
#
# Static dielectric constant tensor:
#      x y z
#    x 1.642860 0.000000 0.000000 
#    y 0.000000 1.669040 0.000000 
#    z 0.000000 0.000000 1.660540 
# 
# From -- ./inp_files/3743.got.cif
#   From: 2010.05.17/outbox.cif.g08.bks.cpg/sg57_2_cif.got.tgz:3743.got - 2010.06.03 13:58:18.
