data_PCOD9436801
_publ_section_title
;
Structure prediction by ZEFSAII (Michael W. Deem and Ramdas Pophale) SiO2 
 PCOD9436801
Probable space group: P B C M
;
_chemical_formula_sum "Si O2"
_cell_formula_units_Z 48
_cell_length_a 16.702398
_cell_length_b 18.831488
_cell_length_c 8.735309
_cell_angle_alpha 90.000000
_cell_angle_beta 90.000000
_cell_angle_gamma 90.000000
_cell_volume 2747.525541
_symmetry_space_group_name_H-M "P B C M"
_symmetry_group_IT_number 57
_symmetry_cell_setting 'orthorhombic'
loop_
_space_group_symop_operation_xyz
x,y,z
-x,-y,1/2+z
x,1/2-y,-z
-x,1/2+y,1/2-z
-x,-y,-z
x,y,1/2-z
-x,1/2+y,z
x,1/2-y,1/2+z
loop_
_atom_site_type_symbol
_atom_site_label
_atom_site_fract_x
_atom_site_fract_y
_atom_site_fract_z
Si Si1 0.653466 0.827683 0.066951
Si Si2 0.671635 0.096698 0.566019
Si Si3 0.164328 0.673256 0.566362
Si Si4 0.916344 0.473406 0.434066
Si Si5 0.517695 0.170950 0.066985
Si Si6 0.758056 0.538326 0.933219
O O1 0.643443 0.822555 0.250000
O O2 0.722303 0.884407 0.032984
O O3 0.670873 0.750000 0.000000
O O4 0.569193 0.852208 0.994491
O O5 0.665966 0.095003 0.750000
O O6 0.744967 0.149856 0.524038
O O7 0.589209 0.122433 0.493694
O O8 0.698828 0.020606 0.503159
O O9 0.144238 0.750000 0.500000
O O10 0.161372 0.677258 0.750000
O O11 0.107465 0.607448 0.518991
O O12 0.917498 0.475364 0.250000
O O13 0.844360 0.522480 0.495054
O O14 0.000000 0.500000 0.500000
O O15 0.517370 0.173582 0.250000
O O16 0.530573 0.250000 0.000000
O O17 0.761967 0.529531 0.750000
#
# Coordination Sequence:
#
# PCOD9436801 Si02
#       6
#     8   8   8   8   8   8
#     4  10  21  37  56  77 104 139 181 226 269 316
#     4  10  20  34  52  77 109 143 180 221 264 316
#     4   9  19  33  52  79 108 138 172 211 257 310
#     4  10  21  38  59  83 110 140 175 216 263 318
#     4  11  21  33  51  75 106 144 184 225 269 315
#     4  10  21  37  57  81 106 136 175 218 268 323
#
# _framework density 17.470265000000001
#
# number of rings (size 3 to 8) (size 9 to 14) (size 15 to 20)
#    0.000    2.000    0.000    6.000    0.000    8.667 
#    0.000    0.833    0.000    0.000    0.000    0.000 
#    0.000    0.000    0.000    0.000    0.000    0.000 
#
# Total GULP energy -268009.576729 kJ/mol
# GULP energy per Si atom -5583.532849 kJ/mol
# Density = 1.743050 g / cm^3
# Si number density = 17.470265 Si / 1000 Ang^3
#
#
#
# Elastic Constant Matrix: (Units=GPa)
#
#
# Indices 1 2 3 4 5 6 
#
# 1 136.9912 100.4936 65.3035 0.0000 0.0000 0.0000
# 2 100.4936 113.7797 58.7026 0.0000 0.0000 0.0000
# 3 65.3035 58.7026 89.0709 0.0000 0.0000 0.0000
# 4 0.0000 0.0000 0.0000 31.3141 0.0000 0.0000
# 5 0.0000 0.0000 0.0000 0.0000 31.5643 0.0000
# 6 0.0000 0.0000 0.0000 0.0000 0.0000 19.1376
#
#
#
# Elastic Compliance Matrix: (Units=1/GPa)
#
#
# Indices 1 2 3 4 5 6 
#
# 1 0.022147 -0.016946 -0.005069 0.000000 0.000000 0.000000
# 2 -0.016946 0.026283 -0.004898 0.000000 0.000000 0.000000
# 3 -0.005069 -0.004898 0.018172 0.000000 0.000000 0.000000
# 4 0.000000 0.000000 0.000000 0.031935 0.000000 0.000000
# 5 0.000000 0.000000 0.000000 0.000000 0.031681 0.000000
# 6 0.000000 0.000000 0.000000 0.000000 0.000000 0.052253
#
#
# Mechanical properties :
#
#
# Convention : Reuss Voigt Hill
#
# Bulk Modulus (GPa) = 78.27286 87.64902 82.96094
# Shear Modulus (GPa) = 20.78525 24.09266 22.43896
#
# Velocity S-wave (km/s) = 3.45302 3.71761 3.58775
# Velocity P-wave (km/s) = 7.79734 8.28896 8.04690
#
# Compressibility (1/GPa) = 0.01277582
#
# Stress axis : x y z
#
# Youngs Moduli (GPa) = 45.15242 38.04784 55.03059
#
# Poissons Ratio (x) = 0.64474 0.27897
# Poissons Ratio (y) = 0.76513 0.26953
# Poissons Ratio (z) = 0.22890 0.18635
#
# Static dielectric constant tensor:
#      x y z
#    x 1.575240 0.000000 0.000000 
#    y 0.000000 1.588640 0.000000 
#    z 0.000000 0.000000 1.583750 
# 
# From -- ./inp_files/4675.got.cif
#   From: 2010.05.17/outbox.cif.g08.bks.cpg/sg57_3_cif.got.tgz:4675.got - 2010.06.03 13:58:18.
