data_PCOD9436466
_publ_section_title
;
Structure prediction by ZEFSAII (Michael W. Deem and Ramdas Pophale) SiO2 
 PCOD9436466
Probable space group: P B C M
;
_chemical_formula_sum "Si O2"
_cell_formula_units_Z 48
_cell_length_a 6.055893
_cell_length_b 14.261483
_cell_length_c 25.704220
_cell_angle_alpha 90.000000
_cell_angle_beta 90.000000
_cell_angle_gamma 90.000000
_cell_volume 2219.971052
_symmetry_space_group_name_H-M "P B C M"
_symmetry_group_IT_number 57
_symmetry_cell_setting 'orthorhombic'
loop_
_space_group_symop_operation_xyz
x,y,z
-x,-y,1/2+z
x,1/2-y,-z
-x,1/2+y,1/2-z
-x,-y,-z
x,y,1/2-z
-x,1/2+y,z
x,1/2-y,1/2+z
loop_
_atom_site_type_symbol
_atom_site_label
_atom_site_fract_x
_atom_site_fract_y
_atom_site_fract_z
Si Si1 0.844305 0.211809 0.413629
Si Si2 0.455031 0.784716 0.335460
Si Si3 0.740511 0.641440 0.750000
Si Si4 0.528869 0.916898 0.959513
Si Si5 0.232067 0.105994 0.144649
Si Si6 0.929584 0.972528 0.750000
Si Si7 0.828282 0.750000 0.500000
Si Si8 0.882728 0.222270 0.250000
O O1 0.670743 0.287406 0.390311
O O2 0.699136 0.134549 0.443966
O O3 0.999097 0.152356 0.373603
O O4 0.014385 0.264480 0.450706
O O5 0.596185 0.860421 0.302976
O O6 0.609476 0.693436 0.341786
O O7 0.252235 0.761324 0.298005
O O8 0.935865 0.567684 0.750000
O O9 0.867614 0.741122 0.750000
O O10 0.654224 0.942741 0.905332
O O11 0.679741 0.838405 0.986593
O O12 0.500000 0.000000 0.000000
O O13 0.202297 0.043199 0.196155
O O14 0.109036 0.888916 0.750000
#
# Coordination Sequence:
#
# PCOD9436466 Si02
#       8
#     8   8   4   8   8   4   4   4
#     4  10  20  40  68  92 126 177 220 276 356 398
#     4  10  19  40  65  88 126 177 221 268 343 394
#     4  11  23  37  61 105 129 177 231 273 331 418
#     4  10  23  44  69 100 137 175 234 284 350 413
#     4  10  21  41  69  92 128 183 220 278 345 402
#     4  12  21  42  65  93 141 179 228 273 341 406
#     4  10  22  40  68 102 128 176 224 284 354 424
#     4  11  20  41  66  82 136 178 203 292 318 388
#
# _framework density 21.621901999999999
#
# number of rings (size 3 to 8) (size 9 to 14) (size 15 to 20)
#    0.000    1.667    3.333    1.000    0.000    2.667 
#    6.000   21.667    0.000    0.000    0.000    0.000 
#    0.000    0.000    0.000    0.000    0.000    0.000 
#
# Total GULP energy -267887.987500 kJ/mol
# GULP energy per Si atom -5580.999740 kJ/mol
# Density = 2.157269 g / cm^3
# Si number density = 21.621902 Si / 1000 Ang^3
#
#
#
# Elastic Constant Matrix: (Units=GPa)
#
#
# Indices 1 2 3 4 5 6 
#
# 1 111.6634 25.8801 55.2207 0.0000 0.0000 0.0000
# 2 25.8801 46.8470 50.3253 0.0000 0.0000 0.0000
# 3 55.2207 50.3253 141.9793 0.0000 0.0000 0.0000
# 4 0.0000 0.0000 0.0000 19.0411 0.0000 0.0000
# 5 0.0000 0.0000 0.0000 0.0000 48.8579 0.0000
# 6 0.0000 0.0000 0.0000 0.0000 0.0000 8.6526
#
#
#
# Elastic Compliance Matrix: (Units=1/GPa)
#
#
# Indices 1 2 3 4 5 6 
#
# 1 0.011259 -0.002448 -0.003511 0.000000 0.000000 0.000000
# 2 -0.002448 0.035004 -0.011455 0.000000 0.000000 0.000000
# 3 -0.003511 -0.011455 0.012469 0.000000 0.000000 0.000000
# 4 0.000000 0.000000 0.000000 0.052518 0.000000 0.000000
# 5 0.000000 0.000000 0.000000 0.000000 0.020468 0.000000
# 6 0.000000 0.000000 0.000000 0.000000 0.000000 0.115572
#
#
# Mechanical properties :
#
#
# Convention : Reuss Voigt Hill
#
# Bulk Modulus (GPa) = 41.83470 62.59352 52.21411
# Shear Modulus (GPa) = 17.23615 26.58124 21.90869
#
# Velocity S-wave (km/s) = 2.82647 3.51004 3.18663
# Velocity P-wave (km/s) = 5.48108 6.74085 6.14334
#
# Compressibility (1/GPa) = 0.02390360
#
# Stress axis : x y z
#
# Youngs Moduli (GPa) = 88.81497 28.56785 80.19597
#
# Poissons Ratio (x) = 0.06993 0.28161
# Poissons Ratio (y) = 0.21741 0.91868
# Poissons Ratio (z) = 0.31187 0.32726
#
# Static dielectric constant tensor:
#      x y z
#    x 1.777430 0.000000 0.000000 
#    y 0.000000 1.760160 0.000000 
#    z 0.000000 0.000000 1.897860 
# 
# From -- ./inp_files/28015.got.cif
#   From: 2010.05.17/outbox.cif.g08.bks.cpg/sg57_15_cif.got.tgz:28015.got - 2010.06.03 13:58:18.
