data_PCOD9436175
_publ_section_title
;
Structure prediction by ZEFSAII (Michael W. Deem and Ramdas Pophale) SiO2 
 PCOD9436175
Probable space group: P B C M
;
_chemical_formula_sum "Si O2"
_cell_formula_units_Z 32
_cell_length_a 13.887767
_cell_length_b 25.116480
_cell_length_c 5.341244
_cell_angle_alpha 90.000000
_cell_angle_beta 90.000000
_cell_angle_gamma 90.000000
_cell_volume 1863.089052
_symmetry_space_group_name_H-M "P B C M"
_symmetry_group_IT_number 57
_symmetry_cell_setting 'orthorhombic'
loop_
_space_group_symop_operation_xyz
x,y,z
-x,-y,1/2+z
x,1/2-y,-z
-x,1/2+y,1/2-z
-x,-y,-z
x,y,1/2-z
-x,1/2+y,z
x,1/2-y,1/2+z
loop_
_atom_site_type_symbol
_atom_site_label
_atom_site_fract_x
_atom_site_fract_y
_atom_site_fract_z
Si Si1 0.706480 0.598158 0.250000
Si Si2 0.101225 0.042112 0.250000
Si Si3 0.115995 0.529400 0.250000
Si Si4 0.438401 0.733777 0.750000
Si Si5 0.347541 0.278687 0.750000
Si Si6 0.323666 0.924952 0.750000
Si Si7 0.384716 0.047292 0.750000
Si Si8 0.578474 0.388144 0.250000
O O1 0.821016 0.588902 0.250000
O O2 0.676056 0.659462 0.250000
O O3 0.664168 0.570438 0.498838
O O4 0.119279 0.006884 0.499602
O O5 0.988653 0.057109 0.250000
O O6 0.209200 0.566432 0.250000
O O7 0.384249 0.750000 0.500000
O O8 0.536721 0.768716 0.750000
O O9 0.463736 0.671558 0.750000
O O10 0.310838 0.250000 0.500000
O O11 0.359782 0.896154 0.500131
O O12 0.371076 0.984036 0.750000
O O13 0.493701 0.068341 0.750000
#
# Coordination Sequence:
#
# PCOD9436175 Si02
#       8
#     4   4   4   4   4   4   4   4
#     4  12  20  35  59  83 110 145 187 222 285 339
#     4  10  19  35  57  84 104 148 176 226 270 331
#     4  10  20  36  56  77 116 141 186 220 266 312
#     4  10  19  36  52  71  97 134 182 236 272 310
#     4  10  20  33  51  77 105 136 175 230 280 320
#     4  12  22  37  51  79 114 154 185 224 260 324
#     4  12  22  35  51  79 116 154 180 223 256 335
#     4  12  24  35  53  76 110 152 191 219 277 323
#
# _framework density 17.175774000000001
#
# number of rings (size 3 to 8) (size 9 to 14) (size 15 to 20)
#    0.000    1.000    2.500    7.500    0.000    0.000 
#    0.000    0.000    0.000    0.000    0.000    5.250 
#    0.000    0.000    0.000    0.000    0.000    0.000 
#
# Total GULP energy -178729.393918 kJ/mol
# GULP energy per Si atom -5585.293560 kJ/mol
# Density = 1.713668 g / cm^3
# Si number density = 17.175774 Si / 1000 Ang^3
#
#
#
# Elastic Constant Matrix: (Units=GPa)
#
#
# Indices 1 2 3 4 5 6 
#
# 1 114.6593 16.3922 27.9399 0.0000 0.0000 0.0000
# 2 16.3922 79.8752 33.3579 0.0000 0.0000 0.0000
# 3 27.9399 33.3579 167.1494 0.0000 0.0000 0.0000
# 4 0.0000 0.0000 0.0000 16.4352 0.0000 0.0000
# 5 0.0000 0.0000 0.0000 0.0000 -22.3614 0.0000
# 6 0.0000 0.0000 0.0000 0.0000 0.0000 17.1490
#
#
#
# Elastic Compliance Matrix: (Units=1/GPa)
#
#
# Indices 1 2 3 4 5 6 
#
# 1 0.009226 -0.001363 -0.001270 0.000000 0.000000 0.000000
# 2 -0.001363 0.013859 -0.002538 0.000000 0.000000 0.000000
# 3 -0.001270 -0.002538 0.006702 0.000000 0.000000 0.000000
# 4 0.000000 0.000000 0.000000 0.060845 0.000000 0.000000
# 5 0.000000 0.000000 0.000000 0.000000 -0.044720 0.000000
# 6 0.000000 0.000000 0.000000 0.000000 0.000000 0.058312
#
#
# Mechanical properties :
#
#
# Convention : Reuss Voigt Hill
#
# Bulk Modulus (GPa) = 51.42893 57.45153 54.44023
# Shear Modulus (GPa) = 41.30599 21.17748 31.24174
#
# Velocity S-wave (km/s) = 4.90930 3.51520 4.26953
# Velocity P-wave (km/s) = 7.88306 7.07088 7.48799
#
# Compressibility (1/GPa) = 0.01944431
#
# Stress axis : x y z
#
# Youngs Moduli (GPa) = 108.39119 72.15438 149.22026
#
# Poissons Ratio (x) = 0.09834 0.18953
# Poissons Ratio (y) = 0.14773 0.37873
# Poissons Ratio (z) = 0.13767 0.18313
#
# Static dielectric constant tensor:
#      x y z
#    x 1.576400 0.000000 0.000000 
#    y 0.000000 1.559020 0.000000 
#    z 0.000000 0.000000 1.642320 
# 
# From -- ./inp_files/350.got.cif
#   From: 2010.05.17/outbox.cif.g08.bks.cpg/sg57_1_cif.got.tgz:350.got - 2010.06.03 13:58:18.
