data_PCOD9436825
_publ_section_title
;
Structure prediction by ZEFSAII (Michael W. Deem and Ramdas Pophale) SiO2 
 PCOD9436825
Probable space group: P B C M
;
_chemical_formula_sum "Si O2"
_cell_formula_units_Z 64
_cell_length_a 19.821622
_cell_length_b 20.845235
_cell_length_c 8.879100
_cell_angle_alpha 90.000000
_cell_angle_beta 90.000000
_cell_angle_gamma 90.000000
_cell_volume 3668.723086
_symmetry_space_group_name_H-M "P B C M"
_symmetry_group_IT_number 57
_symmetry_cell_setting 'orthorhombic'
loop_
_space_group_symop_operation_xyz
x,y,z
-x,-y,1/2+z
x,1/2-y,-z
-x,1/2+y,1/2-z
-x,-y,-z
x,y,1/2-z
-x,1/2+y,z
x,1/2-y,1/2+z
loop_
_atom_site_type_symbol
_atom_site_label
_atom_site_fract_x
_atom_site_fract_y
_atom_site_fract_z
Si Si1 0.667402 0.431577 0.930197
Si Si2 0.825777 0.074704 0.070707
Si Si3 0.181099 0.428118 0.068148
Si Si4 0.328514 0.430017 0.930012
Si Si5 0.419034 0.318864 0.429128
Si Si6 0.923978 0.681624 0.931193
Si Si7 0.920144 0.318528 0.070099
Si Si8 0.420619 0.681210 0.571037
O O1 0.660122 0.436907 0.750000
O O2 0.746238 0.416761 0.962455
O O3 0.651777 0.500156 0.005063
O O4 0.620953 0.375674 0.994918
O O5 0.834978 0.082818 0.250000
O O6 0.841940 0.000655 0.032190
O O7 0.871888 0.125353 0.986268
O O8 0.191081 0.425680 0.250000
O O9 0.126192 0.375280 0.024096
O O10 0.252718 0.417035 0.989293
O O11 0.329999 0.431002 0.750000
O O12 0.377359 0.375455 0.994137
O O13 0.400767 0.250000 0.500000
O O14 0.406772 0.318106 0.250000
O O15 0.499218 0.328256 0.453925
O O16 0.922047 0.686323 0.750000
O O17 0.001792 0.668871 0.975298
O O18 0.903909 0.750000 0.000000
O O19 0.917558 0.313994 0.250000
O O20 0.900512 0.250000 0.000000
O O21 0.402255 0.750000 0.500000
O O22 0.408562 0.682287 0.750000
#
# Coordination Sequence:
#
# PCOD9436825 Si02
#       8
#     8   8   8   8   8   8   8   8
#     4  10  21  38  58  79 108 144 180 221 269 318
#     4   9  19  35  54  76 103 138 175 214 263 314
#     4   9  19  37  56  75 106 142 175 216 266 317
#     4  11  22  36  56  82 110 141 180 222 266 318
#     4  10  21  38  58  81 110 143 179 220 267 317
#     4   9  19  35  54  77 105 138 175 215 261 312
#     4  10  20  34  53  77 105 137 174 217 262 311
#     4  10  21  37  58  83 110 141 179 222 267 318
#
# _framework density 17.444762000000001
#
# number of rings (size 3 to 8) (size 9 to 14) (size 15 to 20)
#    0.000    2.250    0.000    3.375    0.000    7.000 
#    0.000    1.250    0.000    0.000    0.000    0.000 
#    0.000    0.000    0.000    0.000    0.000    0.000 
#
# Total GULP energy -357296.631619 kJ/mol
# GULP energy per Si atom -5582.759869 kJ/mol
# Density = 1.740506 g / cm^3
# Si number density = 17.444762 Si / 1000 Ang^3
#
#
#
# Elastic Constant Matrix: (Units=GPa)
#
#
# Indices 1 2 3 4 5 6 
#
# 1 81.2876 113.6587 65.5466 0.0000 0.0000 0.0000
# 2 113.6587 192.1599 89.7430 0.0000 0.0000 0.0000
# 3 65.5466 89.7430 80.8364 0.0000 0.0000 0.0000
# 4 0.0000 0.0000 0.0000 36.3448 0.0000 0.0000
# 5 0.0000 0.0000 0.0000 0.0000 17.8549 0.0000
# 6 0.0000 0.0000 0.0000 0.0000 0.0000 40.8801
#
#
#
# Elastic Compliance Matrix: (Units=1/GPa)
#
#
# Indices 1 2 3 4 5 6 
#
# 1 0.099317 -0.043890 -0.031806 0.000000 0.000000 0.000000
# 2 -0.043890 0.030203 0.002057 0.000000 0.000000 0.000000
# 3 -0.031806 0.002057 0.035877 0.000000 0.000000 0.000000
# 4 0.000000 0.000000 0.000000 0.027514 0.000000 0.000000
# 5 0.000000 0.000000 0.000000 0.000000 0.056007 0.000000
# 6 0.000000 0.000000 0.000000 0.000000 0.000000 0.024462
#
#
# Mechanical properties :
#
#
# Convention : Reuss Voigt Hill
#
# Bulk Modulus (GPa) = 55.18822 99.13116 77.15969
# Shear Modulus (GPa) = 11.71795 24.70500 18.21147
#
# Velocity S-wave (km/s) = 2.59456 3.76731 3.23453
# Velocity P-wave (km/s) = 6.37811 8.71049 7.63390
#
# Compressibility (1/GPa) = 0.01811981
#
# Stress axis : x y z
#
# Youngs Moduli (GPa) = 10.06880 33.10919 27.87335
#
# Poissons Ratio (x) = 1.45316 0.88654
# Poissons Ratio (y) = 0.44192 -0.05735
# Poissons Ratio (z) = 0.32025 -0.06812
#
# Static dielectric constant tensor:
#      x y z
#    x 1.576350 0.000000 0.000000 
#    y 0.000000 1.562630 0.000000 
#    z 0.000000 0.000000 1.582010 
# 
# From -- ./inp_files/7267.got.cif
#   From: 2010.05.17/outbox.cif.g08.bks.cpg/sg57_4_cif.got.tgz:7267.got - 2010.06.03 13:58:18.
