data_PCOD9436390
_publ_section_title
;
Structure prediction by ZEFSAII (Michael W. Deem and Ramdas Pophale) SiO2 
 PCOD9436390
Probable space group: P B C M
;
_chemical_formula_sum "Si O2"
_cell_formula_units_Z 48
_cell_length_a 14.675728
_cell_length_b 8.412090
_cell_length_c 15.549853
_cell_angle_alpha 90.000000
_cell_angle_beta 90.000000
_cell_angle_gamma 90.000000
_cell_volume 1919.684473
_symmetry_space_group_name_H-M "P B C M"
_symmetry_group_IT_number 57
_symmetry_cell_setting 'orthorhombic'
loop_
_space_group_symop_operation_xyz
x,y,z
-x,-y,1/2+z
x,1/2-y,-z
-x,1/2+y,1/2-z
-x,-y,-z
x,y,1/2-z
-x,1/2+y,z
x,1/2-y,1/2+z
loop_
_atom_site_type_symbol
_atom_site_label
_atom_site_fract_x
_atom_site_fract_y
_atom_site_fract_z
Si Si1 0.862900 0.995005 0.653547
Si Si2 0.189736 0.996298 0.850371
Si Si3 0.292024 0.685260 0.906161
Si Si4 0.543903 0.513988 0.351587
Si Si5 0.967919 0.685681 0.905583
Si Si6 0.370943 0.338945 0.355580
O O1 0.825184 0.999540 0.750000
O O2 0.778824 0.038085 0.592529
O O3 0.941067 0.127597 0.640628
O O4 0.912009 0.827110 0.639346
O O5 0.165893 0.021551 0.750000
O O6 0.100111 0.033927 0.905087
O O7 0.268868 0.117707 0.879205
O O8 0.236816 0.825127 0.858650
O O9 0.385445 0.630099 0.863233
O O10 0.311006 0.750000 0.000000
O O11 0.532098 0.541205 0.250000
O O12 0.444579 0.469036 0.385903
O O13 0.591425 0.670993 0.387229
O O14 0.988162 0.750000 0.000000
O O15 0.370803 0.339182 0.250000
#
# Coordination Sequence:
#
# PCOD9436390 Si02
#       6
#     8   8   8   8   8   8
#     4  12  24  42  66  92 121 163 211 253 297 364
#     4  11  22  40  63  90 122 164 210 253 300 366
#     4  12  25  41  60  89 124 162 204 258 317 366
#     4  10  19  37  61  88 119 158 204 254 307 370
#     4  12  25  43  65  95 130 162 197 252 313 364
#     4   9  19  35  62  92 120 155 204 256 304 360
#
# _framework density 25.004109
#
# number of rings (size 3 to 8) (size 9 to 14) (size 15 to 20)
#    0.000    1.000    0.000    8.000    0.000    4.000 
#    0.000    4.167    0.000    0.000    0.000    0.000 
#    0.000    0.000    0.000    0.000    0.000    0.000 
#
# Total GULP energy -269065.141870 kJ/mol
# GULP energy per Si atom -5605.523789 kJ/mol
# Density = 2.494720 g / cm^3
# Si number density = 25.004109 Si / 1000 Ang^3
#
#
#
# Elastic Constant Matrix: (Units=GPa)
#
#
# Indices 1 2 3 4 5 6 
#
# 1 100.3317 3.0764 -8.5991 0.0000 0.0000 0.0000
# 2 3.0764 77.4707 6.9118 0.0000 0.0000 0.0000
# 3 -8.5991 6.9118 41.1439 0.0000 0.0000 0.0000
# 4 0.0000 0.0000 0.0000 29.1412 0.0000 0.0000
# 5 0.0000 0.0000 0.0000 0.0000 -31.8275 0.0000
# 6 0.0000 0.0000 0.0000 0.0000 0.0000 39.4257
#
#
#
# Elastic Compliance Matrix: (Units=1/GPa)
#
#
# Indices 1 2 3 4 5 6 
#
# 1 0.010176 -0.000603 0.002228 0.000000 0.000000 0.000000
# 2 -0.000603 0.013140 -0.002333 0.000000 0.000000 0.000000
# 3 0.002228 -0.002333 0.025163 0.000000 0.000000 0.000000
# 4 0.000000 0.000000 0.000000 0.034316 0.000000 0.000000
# 5 0.000000 0.000000 0.000000 0.000000 -0.031419 0.000000
# 6 0.000000 0.000000 0.000000 0.000000 0.000000 0.025364
#
#
# Mechanical properties :
#
#
# Convention : Reuss Voigt Hill
#
# Bulk Modulus (GPa) = 21.24819 24.63605 22.94212
# Shear Modulus (GPa) = 53.28007 21.85169 37.56588
#
# Velocity S-wave (km/s) = 4.62112 2.95943 3.88027
# Velocity P-wave (km/s) = 6.08189 4.64239 5.41023
#
# Compressibility (1/GPa) = 0.04706284
#
# Stress axis : x y z
#
# Youngs Moduli (GPa) = 98.26663 76.10212 39.74153
#
# Poissons Ratio (x) = 0.04588 -0.08855
# Poissons Ratio (y) = 0.05924 0.09273
# Poissons Ratio (z) = -0.21895 0.17758
#
# Static dielectric constant tensor:
#      x y z
#    x 1.906610 0.000000 0.000000 
#    y 0.000000 2.047550 0.000000 
#    z 0.000000 0.000000 1.921550 
# 
# From -- ./inp_files/22442.got.cif
#   From: 2010.05.17/outbox.cif.g08.bks.cpg/sg57_12_cif.got.tgz:22442.got - 2010.06.03 13:58:18.
