data_PCOD9436218
_publ_section_title
;
Structure prediction by ZEFSAII (Michael W. Deem and Ramdas Pophale) SiO2 
 PCOD9436218
Probable space group: P B C M
;
_chemical_formula_sum "Si O2"
_cell_formula_units_Z 64
_cell_length_a 10.807572
_cell_length_b 15.420665
_cell_length_c 18.876227
_cell_angle_alpha 90.000000
_cell_angle_beta 90.000000
_cell_angle_gamma 90.000000
_cell_volume 3145.910997
_symmetry_space_group_name_H-M "P B C M"
_symmetry_group_IT_number 57
_symmetry_cell_setting 'orthorhombic'
loop_
_space_group_symop_operation_xyz
x,y,z
-x,-y,1/2+z
x,1/2-y,-z
-x,1/2+y,1/2-z
-x,-y,-z
x,y,1/2-z
-x,1/2+y,z
x,1/2-y,1/2+z
loop_
_atom_site_type_symbol
_atom_site_label
_atom_site_fract_x
_atom_site_fract_y
_atom_site_fract_z
Si Si1 0.416202 0.216795 0.126606
Si Si2 0.610952 0.539087 0.175237
Si Si3 0.229952 0.487935 0.060093
Si Si4 0.364946 0.658699 0.021949
Si Si5 0.529329 0.598328 0.898994
Si Si6 0.865957 0.788097 0.836576
Si Si7 0.956396 0.594529 0.665598
Si Si8 0.862177 0.534169 0.093460
O O1 0.508537 0.187437 0.063089
O O2 0.455967 0.313483 0.144067
O O3 0.266686 0.223854 0.123462
O O4 0.433395 0.137261 0.178400
O O5 0.663649 0.510325 0.250000
O O6 0.498928 0.480141 0.152132
O O7 0.720247 0.535342 0.118995
O O8 0.279081 0.587386 0.059831
O O9 0.350519 0.426403 0.055915
O O10 0.158524 0.456191 0.129758
O O11 0.144187 0.471142 0.991421
O O12 0.302877 0.750000 0.000000
O O13 0.415726 0.611674 0.952061
O O14 0.848799 0.799733 0.750000
O O15 0.939913 0.698166 0.846649
O O16 0.917571 0.876795 0.872120
O O17 0.961055 0.581301 0.750000
O O18 0.072191 0.549227 0.627345
#
# Coordination Sequence:
#
# PCOD9436218 Si02
#       8
#     8   8   8   8   8   8   8   8
#     4  10  19  35  58  90 126 168 207 256 312 382
#     4  11  22  36  61  92 128 175 213 260 318 386
#     4  12  22  41  66  95 129 164 213 266 325 383
#     4  10  21  37  59  89 131 166 201 259 318 376
#     4  11  20  36  60  92 127 163 207 263 320 378
#     4  10  21  40  64  93 127 169 218 266 314 377
#     4  11  25  45  66  94 130 169 215 274 327 376
#     4  11  23  43  67  90 125 167 222 270 313 380
#
# _framework density 20.343868000000001
#
# number of rings (size 3 to 8) (size 9 to 14) (size 15 to 20)
#    0.000    1.250    3.750    4.500    0.000    2.000 
#    2.250    0.000    0.000    0.000    0.000    0.000 
#    0.000    0.000    0.000    0.000    0.000    0.000 
#
# Total GULP energy -356533.143892 kJ/mol
# GULP energy per Si atom -5570.830373 kJ/mol
# Density = 2.029756 g / cm^3
# Si number density = 20.343868 Si / 1000 Ang^3
#
#
#
# Elastic Constant Matrix: (Units=GPa)
#
#
# Indices 1 2 3 4 5 6 
#
# 1 29.9714 48.3307 11.0527 0.0000 0.0000 0.0000
# 2 48.3307 166.3945 47.4172 0.0000 0.0000 0.0000
# 3 11.0527 47.4172 46.6011 0.0000 0.0000 0.0000
# 4 0.0000 0.0000 0.0000 6.3942 0.0000 0.0000
# 5 0.0000 0.0000 0.0000 0.0000 -183.3589 0.0000
# 6 0.0000 0.0000 0.0000 0.0000 0.0000 32.8454
#
#
#
# Elastic Compliance Matrix: (Units=1/GPa)
#
#
# Indices 1 2 3 4 5 6 
#
# 1 0.063655 -0.019980 0.005233 0.000000 0.000000 0.000000
# 2 -0.019980 0.014735 -0.010255 0.000000 0.000000 0.000000
# 3 0.005233 -0.010255 0.030652 0.000000 0.000000 0.000000
# 4 0.000000 0.000000 0.000000 0.156392 0.000000 0.000000
# 5 0.000000 0.000000 0.000000 0.000000 -0.005454 0.000000
# 6 0.000000 0.000000 0.000000 0.000000 0.000000 0.030446
#
#
# Mechanical properties :
#
#
# Convention : Reuss Voigt Hill
#
# Bulk Modulus (GPa) = 16.93834 50.72978 33.83406
# Shear Modulus (GPa) = 13.88465 -19.74611 -2.93073
#
# Velocity S-wave (km/s) = 2.61530 -3.11885 -1.20155
# Velocity P-wave (km/s) = 4.17897 3.46708 3.83956
#
# Compressibility (1/GPa) = 0.05903766
#
# Stress axis : x y z
#
# Youngs Moduli (GPa) = 15.70975 67.86338 32.62435
#
# Poissons Ratio (x) = 1.35592 -0.17071
# Poissons Ratio (y) = 0.31388 0.33455
# Poissons Ratio (z) = -0.08220 0.69592
#
# Static dielectric constant tensor:
#      x y z
#    x 1.742020 0.000000 0.000000 
#    y 0.000000 1.752990 0.000000 
#    z 0.000000 0.000000 1.720930 
# 
# From -- ./inp_files/22014.got.cif
#   From: 2010.05.17/outbox.cif.g08.bks.cpg/sg57_12_cif.got.tgz:22014.got - 2010.06.03 13:58:18.
