data_PCOD9436008
_publ_section_title
;
Structure prediction by ZEFSAII (Michael W. Deem and Ramdas Pophale) SiO2 
 PCOD9436008
Probable space group: P B C M
;
_chemical_formula_sum "Si O2"
_cell_formula_units_Z 56
_cell_length_a 18.102974
_cell_length_b 19.715694
_cell_length_c 8.823715
_cell_angle_alpha 90.000000
_cell_angle_beta 90.000000
_cell_angle_gamma 90.000000
_cell_volume 3149.295908
_symmetry_space_group_name_H-M "P B C M"
_symmetry_group_IT_number 57
_symmetry_cell_setting 'orthorhombic'
loop_
_space_group_symop_operation_xyz
x,y,z
-x,-y,1/2+z
x,1/2-y,-z
-x,1/2+y,1/2-z
-x,-y,-z
x,y,1/2-z
-x,1/2+y,z
x,1/2-y,1/2+z
loop_
_atom_site_type_symbol
_atom_site_label
_atom_site_fract_x
_atom_site_fract_y
_atom_site_fract_z
Si Si1 0.357319 0.927184 0.568122
Si Si2 0.912478 0.823041 0.431193
Si Si3 0.383952 0.417768 0.068200
Si Si4 0.772702 0.603328 0.426985
Si Si5 0.513682 0.325724 0.567375
Si Si6 0.036074 0.567490 0.932580
Si Si7 0.799191 0.057391 0.573216
O O1 0.355874 0.928898 0.750000
O O2 0.412784 0.867629 0.521070
O O3 0.274153 0.917321 0.509749
O O4 0.385588 0.002481 0.519167
O O5 0.926031 0.750000 0.500000
O O6 0.905251 0.820367 0.250000
O O7 0.837633 0.852873 0.501653
O O8 0.980901 0.871772 0.469286
O O9 0.391313 0.415126 0.250000
O O10 0.303817 0.390921 0.016915
O O11 0.446073 0.371759 0.991544
O O12 0.761730 0.620034 0.250000
O O13 0.796631 0.524478 0.436464
O O14 0.511708 0.250000 0.500000
O O15 0.511164 0.321841 0.750000
O O16 0.039648 0.559892 0.750000
O O17 0.120260 0.578600 0.986188
O O18 0.000000 0.500000 0.000000
O O19 0.793485 0.076340 0.750000
#
# Coordination Sequence:
#
# PCOD9436008 Si02
#       7
#     8   8   8   8   8   8   8
#     4   9  20  37  58  84 113 144 184 231 278 331
#     4  11  23  37  54  78 113 152 189 230 279 335
#     4  10  20  36  59  86 114 144 183 229 279 333
#     4  10  19  34  56  82 112 144 180 224 276 332
#     4  11  23  39  57  81 112 148 189 230 279 334
#     4  10  20  35  57  84 111 144 186 232 278 328
#     4   9  18  33  56  85 112 140 179 227 277 329
#
# _framework density 17.781753999999999
#
# number of rings (size 3 to 8) (size 9 to 14) (size 15 to 20)
#    0.000    2.000    1.429    2.143    0.000    4.000 
#    0.000    3.571    0.000    3.429    0.000    0.000 
#    0.000    0.000    0.000    0.000    0.000    0.000 
#
# Total GULP energy -312582.598769 kJ/mol
# GULP energy per Si atom -5581.832121 kJ/mol
# Density = 1.774128 g / cm^3
# Si number density = 17.781754 Si / 1000 Ang^3
#
#
#
# Elastic Constant Matrix: (Units=GPa)
#
#
# Indices 1 2 3 4 5 6 
#
# 1 141.4566 71.9241 33.1889 0.0000 0.0000 0.0000
# 2 71.9241 83.7849 36.4687 0.0000 0.0000 0.0000
# 3 33.1889 36.4687 39.7798 0.0000 0.0000 0.0000
# 4 0.0000 0.0000 0.0000 22.9898 0.0000 0.0000
# 5 0.0000 0.0000 0.0000 0.0000 29.9804 0.0000
# 6 0.0000 0.0000 0.0000 0.0000 0.0000 23.7150
#
#
#
# Elastic Compliance Matrix: (Units=1/GPa)
#
#
# Indices 1 2 3 4 5 6 
#
# 1 0.012568 -0.010358 -0.000990 0.000000 0.000000 0.000000
# 2 -0.010358 0.028397 -0.017391 0.000000 0.000000 0.000000
# 3 -0.000990 -0.017391 0.041908 0.000000 0.000000 0.000000
# 4 0.000000 0.000000 0.000000 0.043498 0.000000 0.000000
# 5 0.000000 0.000000 0.000000 0.000000 0.033355 0.000000
# 6 0.000000 0.000000 0.000000 0.000000 0.000000 0.042167
#
#
# Mechanical properties :
#
#
# Convention : Reuss Voigt Hill
#
# Bulk Modulus (GPa) = 39.37865 60.90941 50.14403
# Shear Modulus (GPa) = 18.66805 23.56634 21.11719
#
# Velocity S-wave (km/s) = 3.24364 3.64443 3.44986
# Velocity P-wave (km/s) = 6.01846 7.21370 6.64302
#
# Compressibility (1/GPa) = 0.02539447
#
# Stress axis : x y z
#
# Youngs Moduli (GPa) = 79.56592 35.21486 23.86170
#
# Poissons Ratio (x) = 0.36476 0.02362
# Poissons Ratio (y) = 0.82416 0.41499
# Poissons Ratio (z) = 0.07876 0.61244
#
# Static dielectric constant tensor:
#      x y z
#    x 1.601640 0.000000 0.000000 
#    y 0.000000 1.582590 0.000000 
#    z 0.000000 0.000000 1.607040 
# 
# From -- ./inp_files/5118.got.cif
#   From: 2010.05.17/outbox.cif.g08.bks.cpg/sg57_3_cif.got.tgz:5118.got - 2010.06.03 13:58:18.
