data_PCOD9436265
_publ_section_title
;
Structure prediction by ZEFSAII (Michael W. Deem and Ramdas Pophale) SiO2 
 PCOD9436265
Probable space group: P B C M
;
_chemical_formula_sum "Si O2"
_cell_formula_units_Z 56
_cell_length_a 7.855958
_cell_length_b 22.875014
_cell_length_c 14.154330
_cell_angle_alpha 90.000000
_cell_angle_beta 90.000000
_cell_angle_gamma 90.000000
_cell_volume 2543.605985
_symmetry_space_group_name_H-M "P B C M"
_symmetry_group_IT_number 57
_symmetry_cell_setting 'orthorhombic'
loop_
_space_group_symop_operation_xyz
x,y,z
-x,-y,1/2+z
x,1/2-y,-z
-x,1/2+y,1/2-z
-x,-y,-z
x,y,1/2-z
-x,1/2+y,z
x,1/2-y,1/2+z
loop_
_atom_site_type_symbol
_atom_site_label
_atom_site_fract_x
_atom_site_fract_y
_atom_site_fract_z
Si Si1 0.881375 0.099014 0.993425
Si Si2 0.468585 0.133508 0.351321
Si Si3 0.308683 0.811654 0.362840
Si Si4 0.387830 0.983511 0.910667
Si Si5 0.331424 0.309988 0.462014
Si Si6 0.830881 0.587824 0.644422
Si Si7 0.848443 0.310174 0.643177
O O1 0.760177 0.131850 0.917688
O O2 0.031635 0.070989 0.933897
O O3 0.776150 0.052123 0.052403
O O4 0.940604 0.149929 0.066002
O O5 0.390940 0.150448 0.250000
O O6 0.506444 0.064483 0.353194
O O7 0.369840 0.151160 0.445328
O O8 0.653305 0.165109 0.357018
O O9 0.327652 0.819655 0.250000
O O10 0.488531 0.795652 0.410899
O O11 0.176924 0.758155 0.378075
O O12 0.324178 0.042133 0.860811
O O13 0.500000 0.000000 0.000000
O O14 0.253504 0.250000 0.500000
O O15 0.228171 0.347919 0.387121
O O16 0.901445 0.588294 0.750000
O O17 0.914623 0.317314 0.750000
#
# Coordination Sequence:
#
# PCOD9436265 Si02
#       7
#     8   8   8   8   8   8   8
#     4  11  22  40  61  90 128 168 210 255 316 387
#     4  10  19  35  61  91 120 153 201 264 319 360
#     4  11  19  34  62  94 125 165 218 267 316 375
#     4  11  21  42  71  90 117 159 214 271 320 365
#     4  12  22  39  63  95 127 166 210 269 315 370
#     4  12  27  44  61  90 133 174 208 255 321 389
#     4   9  18  33  62  92 120 159 208 262 314 366
#
# _framework density 22.015986999999999
#
# number of rings (size 3 to 8) (size 9 to 14) (size 15 to 20)
#    0.000    1.143    5.714    2.143    0.000    2.286 
#    0.000    2.857    0.000    0.000    0.000    0.000 
#    0.000    0.000    0.000    0.000    0.000    0.000 
#
# Total GULP energy -313049.471593 kJ/mol
# GULP energy per Si atom -5590.169136 kJ/mol
# Density = 2.196588 g / cm^3
# Si number density = 22.015987 Si / 1000 Ang^3
#
#
#
# Elastic Constant Matrix: (Units=GPa)
#
#
# Indices 1 2 3 4 5 6 
#
# 1 19.5156 -3.2013 5.5331 0.0000 0.0000 0.0000
# 2 -3.2013 77.9176 3.1212 0.0000 0.0000 0.0000
# 3 5.5331 3.1212 126.1294 0.0000 0.0000 0.0000
# 4 0.0000 0.0000 0.0000 16.6461 0.0000 0.0000
# 5 0.0000 0.0000 0.0000 0.0000 14.6625 0.0000
# 6 0.0000 0.0000 0.0000 0.0000 0.0000 23.6515
#
#
#
# Elastic Compliance Matrix: (Units=1/GPa)
#
#
# Indices 1 2 3 4 5 6 
#
# 1 0.052275 0.002242 -0.002349 0.000000 0.000000 0.000000
# 2 0.002242 0.012943 -0.000419 0.000000 0.000000 0.000000
# 3 -0.002349 -0.000419 0.008042 0.000000 0.000000 0.000000
# 4 0.000000 0.000000 0.000000 0.060074 0.000000 0.000000
# 5 0.000000 0.000000 0.000000 0.000000 0.068201 0.000000
# 6 0.000000 0.000000 0.000000 0.000000 0.000000 0.042281
#
#
# Mechanical properties :
#
#
# Convention : Reuss Voigt Hill
#
# Bulk Modulus (GPa) = 13.84878 26.05207 19.95042
# Shear Modulus (GPa) = 18.59177 25.53265 22.06221
#
# Velocity S-wave (km/s) = 2.90912 3.40918 3.16903
# Velocity P-wave (km/s) = 4.19380 5.23026 4.74044
#
# Compressibility (1/GPa) = 0.07220855
#
# Stress axis : x y z
#
# Youngs Moduli (GPa) = 19.12967 77.26213 124.35096
#
# Poissons Ratio (x) = -0.17321 0.29206
# Poissons Ratio (y) = -0.04289 0.05206
# Poissons Ratio (z) = 0.04493 0.03234
#
# Static dielectric constant tensor:
#      x y z
#    x 1.835660 0.000000 0.000000 
#    y 0.000000 1.825720 0.000000 
#    z 0.000000 0.000000 1.841460 
# 
# From -- ./inp_files/16767.got.cif
#   From: 2010.05.17/outbox.cif.g08.bks.cpg/sg57_9_cif.got.tgz:16767.got - 2010.06.03 13:58:18.
