data_PCOD9436923
_publ_section_title
;
Structure prediction by ZEFSAII (Michael W. Deem and Ramdas Pophale) SiO2 
 PCOD9436923
Probable space group: P B C M
;
_chemical_formula_sum "Si O2"
_cell_formula_units_Z 56
_cell_length_a 16.992422
_cell_length_b 21.911299
_cell_length_c 8.882161
_cell_angle_alpha 90.000000
_cell_angle_beta 90.000000
_cell_angle_gamma 90.000000
_cell_volume 3307.059824
_symmetry_space_group_name_H-M "P B C M"
_symmetry_group_IT_number 57
_symmetry_cell_setting 'orthorhombic'
loop_
_space_group_symop_operation_xyz
x,y,z
-x,-y,1/2+z
x,1/2-y,-z
-x,1/2+y,1/2-z
-x,-y,-z
x,y,1/2-z
-x,1/2+y,z
x,1/2-y,1/2+z
loop_
_atom_site_type_symbol
_atom_site_label
_atom_site_fract_x
_atom_site_fract_y
_atom_site_fract_z
Si Si1 0.040431 0.315495 0.430525
Si Si2 0.204645 0.123158 0.930269
Si Si3 0.621366 0.031269 0.427550
Si Si4 0.641346 0.683534 0.071252
Si Si5 0.042836 0.940702 0.430527
Si Si6 0.476095 0.094586 0.926533
Si Si7 0.789887 0.491065 0.070125
O O1 0.019616 0.250000 0.500000
O O2 0.031979 0.311247 0.250000
O O3 0.991433 0.375356 0.482060
O O4 0.131384 0.332563 0.463568
O O5 0.213013 0.118109 0.750000
O O6 0.284175 0.148332 0.001845
O O7 0.189328 0.056627 0.998806
O O8 0.624896 0.044843 0.250000
O O9 0.561428 0.076023 0.512347
O O10 0.580996 0.964461 0.443566
O O11 0.707788 0.030074 0.498482
O O12 0.648638 0.686170 0.250000
O O13 0.640433 0.750000 0.000000
O O14 0.563480 0.647642 0.022036
O O15 0.030488 0.943752 0.250000
O O16 0.135840 0.947450 0.460107
O O17 0.000000 0.000000 0.500000
O O18 0.478779 0.109892 0.750000
O O19 0.780678 0.497433 0.250000
#
# Coordination Sequence:
#
# PCOD9436923 Si02
#       7
#     8   8   8   8   8   8   8
#     4  10  22  38  56  79 111 148 190 234 280 336
#     4  11  21  35  54  79 113 149 186 227 278 335
#     4  10  20  34  55  80 110 142 177 222 274 327
#     4  12  24  37  54  78 113 151 189 225 271 329
#     4  10  21  37  56  82 112 147 188 235 285 338
#     4  10  20  35  55  79 109 142 181 224 270 321
#     4  11  21  33  55  83 113 146 184 231 284 336
#
# _framework density 16.933471000000001
#
# number of rings (size 3 to 8) (size 9 to 14) (size 15 to 20)
#    0.000    1.429    2.857    3.429    0.000    4.571 
#    0.000    0.000    0.000    0.857    0.000    4.000 
#    0.000    0.000    0.000    0.000    0.000    0.000 
#
# Total GULP energy -312773.530509 kJ/mol
# GULP energy per Si atom -5585.241616 kJ/mol
# Density = 1.689493 g / cm^3
# Si number density = 16.933471 Si / 1000 Ang^3
#
#
#
# Elastic Constant Matrix: (Units=GPa)
#
#
# Indices 1 2 3 4 5 6 
#
# 1 100.6199 47.1387 46.2224 0.0000 0.0000 0.0000
# 2 47.1387 99.8819 29.2983 0.0000 0.0000 0.0000
# 3 46.2224 29.2983 67.4925 0.0000 0.0000 0.0000
# 4 0.0000 0.0000 0.0000 29.6802 0.0000 0.0000
# 5 0.0000 0.0000 0.0000 0.0000 21.9941 0.0000
# 6 0.0000 0.0000 0.0000 0.0000 0.0000 15.7311
#
#
#
# Elastic Compliance Matrix: (Units=1/GPa)
#
#
# Indices 1 2 3 4 5 6 
#
# 1 0.016514 -0.005129 -0.009083 0.000000 0.000000 0.000000
# 2 -0.005129 0.013066 -0.002159 0.000000 0.000000 0.000000
# 3 -0.009083 -0.002159 0.021974 0.000000 0.000000 0.000000
# 4 0.000000 0.000000 0.000000 0.033692 0.000000 0.000000
# 5 0.000000 0.000000 0.000000 0.000000 0.045467 0.000000
# 6 0.000000 0.000000 0.000000 0.000000 0.000000 0.063568
#
#
# Mechanical properties :
#
#
# Convention : Reuss Voigt Hill
#
# Bulk Modulus (GPa) = 53.15948 57.03479 55.09714
# Shear Modulus (GPa) = 21.43213 23.17008 22.30110
#
# Velocity S-wave (km/s) = 3.56148 3.70307 3.63296
# Velocity P-wave (km/s) = 6.95510 7.21377 7.08562
#
# Compressibility (1/GPa) = 0.01881132
#
# Stress axis : x y z
#
# Youngs Moduli (GPa) = 60.55514 76.53518 45.50806
#
# Poissons Ratio (x) = 0.39257 0.41335
# Poissons Ratio (y) = 0.31061 0.09825
# Poissons Ratio (z) = 0.55002 0.16524
#
# Static dielectric constant tensor:
#      x y z
#    x 1.573430 0.000000 0.000000 
#    y 0.000000 1.546900 0.000000 
#    z 0.000000 0.000000 1.563350 
# 
# From -- ./inp_files/5128.got.cif
#   From: 2010.05.17/outbox.cif.g08.bks.cpg/sg57_3_cif.got.tgz:5128.got - 2010.06.03 13:58:18.
