data_PCOD9436026
_publ_section_title
;
Structure prediction by ZEFSAII (Michael W. Deem and Ramdas Pophale) SiO2 
 PCOD9436026
Probable space group: P B C M
;
_chemical_formula_sum "Si O2"
_cell_formula_units_Z 64
_cell_length_a 24.790472
_cell_length_b 15.046529
_cell_length_c 8.555246
_cell_angle_alpha 90.000000
_cell_angle_beta 90.000000
_cell_angle_gamma 90.000000
_cell_volume 3191.197066
_symmetry_space_group_name_H-M "P B C M"
_symmetry_group_IT_number 57
_symmetry_cell_setting 'orthorhombic'
loop_
_space_group_symop_operation_xyz
x,y,z
-x,-y,1/2+z
x,1/2-y,-z
-x,1/2+y,1/2-z
-x,-y,-z
x,y,1/2-z
-x,1/2+y,z
x,1/2-y,1/2+z
loop_
_atom_site_type_symbol
_atom_site_label
_atom_site_fract_x
_atom_site_fract_y
_atom_site_fract_z
Si Si1 0.531702 0.347291 0.437323
Si Si2 0.412272 0.347636 0.563105
Si Si3 0.255131 0.958004 0.937322
Si Si4 0.876553 0.836521 0.564848
Si Si5 0.366522 0.531546 0.561579
Si Si6 0.242484 0.157409 0.566868
Si Si7 0.151617 0.850458 0.438428
Si Si8 0.940834 0.482248 0.065194
O O1 0.546875 0.250000 0.500000
O O2 0.525565 0.344497 0.250000
O O3 0.473587 0.368320 0.511031
O O4 0.578732 0.416028 0.477188
O O5 0.398448 0.250000 0.500000
O O6 0.410351 0.344693 0.750000
O O7 0.375426 0.429415 0.508401
O O8 0.249483 0.958811 0.750000
O O9 0.256597 0.060249 0.998537
O O10 0.314043 0.923861 0.986132
O O11 0.204698 0.904528 0.006607
O O12 0.907237 0.750000 0.500000
O O13 0.864978 0.827418 0.750000
O O14 0.821492 0.839523 0.467278
O O15 0.907804 0.927190 0.540458
O O16 0.360507 0.532391 0.750000
O O17 0.265270 0.250000 0.500000
O O18 0.253710 0.157524 0.750000
O O19 0.153067 0.750000 0.500000
O O20 0.151490 0.850305 0.250000
O O21 0.097592 0.902590 0.494870
O O22 0.946599 0.467722 0.250000
O O23 0.000000 0.500000 0.000000
#
# Coordination Sequence:
#
# PCOD9436026 Si02
#       8
#     8   8   8   8   8   8   8   8
#     4  10  20  36  58  84 113 150 195 244 300 357
#     4  10  20  36  58  85 117 156 197 242 301 360
#     4  11  24  40  61  89 119 158 204 250 301 357
#     4  10  19  34  56  85 115 149 187 228 284 342
#     4  10  23  39  57  83 118 158 198 246 301 356
#     4  10  20  34  56  85 113 147 189 233 286 347
#     4  11  24  45  68  91 122 162 206 251 301 356
#     4  10  23  40  62  90 123 159 196 243 297 350
#
# _framework density 20.055171000000001
#
# number of rings (size 3 to 8) (size 9 to 14) (size 15 to 20)
#    0.000    1.750    1.250    4.125    0.000    7.000 
#    0.000    6.250    0.000    0.000    0.000    0.000 
#    0.000    0.000    0.000    0.000    0.000    0.000 
#
# Total GULP energy -357298.873203 kJ/mol
# GULP energy per Si atom -5582.794894 kJ/mol
# Density = 2.000952 g / cm^3
# Si number density = 20.055171 Si / 1000 Ang^3
#
#
#
# Elastic Constant Matrix: (Units=GPa)
#
#
# Indices 1 2 3 4 5 6 
#
# 1 122.5310 64.3477 19.6532 0.0000 0.0000 0.0000
# 2 64.3477 121.9089 31.8391 0.0000 0.0000 0.0000
# 3 19.6532 31.8391 26.4204 0.0000 0.0000 0.0000
# 4 0.0000 0.0000 0.0000 29.5498 0.0000 0.0000
# 5 0.0000 0.0000 0.0000 0.0000 18.0532 0.0000
# 6 0.0000 0.0000 0.0000 0.0000 0.0000 -30.6175
#
#
#
# Elastic Compliance Matrix: (Units=1/GPa)
#
#
# Indices 1 2 3 4 5 6 
#
# 1 0.011348 -0.005524 -0.001785 0.000000 0.000000 0.000000
# 2 -0.005524 0.014659 -0.013557 0.000000 0.000000 0.000000
# 3 -0.001785 -0.013557 0.055514 0.000000 0.000000 0.000000
# 4 0.000000 0.000000 0.000000 0.033841 0.000000 0.000000
# 5 0.000000 0.000000 0.000000 0.000000 0.055392 0.000000
# 6 0.000000 0.000000 0.000000 0.000000 0.000000 -0.032661
#
#
# Mechanical properties :
#
#
# Convention : Reuss Voigt Hill
#
# Bulk Modulus (GPa) = 25.13126 55.83780 40.48453
# Shear Modulus (GPa) = 25.89490 13.73179 19.81335
#
# Velocity S-wave (km/s) = 3.59720 2.61952 3.14656
# Velocity P-wave (km/s) = 5.45998 6.08701 5.78200
#
# Compressibility (1/GPa) = 0.03979108
#
# Stress axis : x y z
#
# Youngs Moduli (GPa) = 88.11821 68.21675 18.01339
#
# Poissons Ratio (x) = 0.37682 0.03215
# Poissons Ratio (y) = 0.48676 0.24420
# Poissons Ratio (z) = 0.15727 0.92479
#
# Static dielectric constant tensor:
#      x y z
#    x 1.710040 0.000000 0.000000 
#    y 0.000000 1.749680 0.000000 
#    z 0.000000 0.000000 1.690840 
# 
# From -- ./inp_files/9254.got.cif
#   From: 2010.05.17/outbox.cif.g08.bks.cpg/sg57_5_cif.got.tgz:9254.got - 2010.06.03 13:58:18.
