data_PCOD9436727
_publ_section_title
;
Structure prediction by ZEFSAII (Michael W. Deem and Ramdas Pophale) SiO2 
 PCOD9436727
Probable space group: P B C M
;
_chemical_formula_sum "Si O2"
_cell_formula_units_Z 52
_cell_length_a 22.086445
_cell_length_b 5.169045
_cell_length_c 24.568653
_cell_angle_alpha 90.000000
_cell_angle_beta 90.000000
_cell_angle_gamma 90.000000
_cell_volume 2804.900615
_symmetry_space_group_name_H-M "P B C M"
_symmetry_group_IT_number 57
_symmetry_cell_setting 'orthorhombic'
loop_
_space_group_symop_operation_xyz
x,y,z
-x,-y,1/2+z
x,1/2-y,-z
-x,1/2+y,1/2-z
-x,-y,-z
x,y,1/2-z
-x,1/2+y,z
x,1/2-y,1/2+z
loop_
_atom_site_type_symbol
_atom_site_label
_atom_site_fract_x
_atom_site_fract_y
_atom_site_fract_z
Si Si1 0.749963 0.750000 0.000000
Si Si2 0.961642 0.559980 0.867389
Si Si3 0.898533 0.958334 0.250000
Si Si4 0.670923 0.382040 0.440269
Si Si5 0.184901 0.960740 0.250000
Si Si6 0.835556 0.659958 0.588666
Si Si7 0.466965 0.724465 0.565825
Si Si8 0.778371 0.179959 0.864923
O O1 0.702917 0.653364 0.045763
O O2 0.798523 0.920040 0.034083
O O3 0.937192 0.580352 0.805162
O O4 0.907318 0.632071 0.908567
O O5 0.985671 0.270300 0.874888
O O6 0.847183 0.737670 0.250000
O O7 0.868066 0.242264 0.250000
O O8 0.676271 0.250000 0.500000
O O9 0.601320 0.367616 0.423755
O O10 0.714375 0.273351 0.393974
O O11 0.224101 0.918428 0.303754
O O12 0.813266 0.450674 0.632635
O O13 0.815173 0.952764 0.603037
O O14 0.471348 0.750000 0.500000
O O15 0.513867 0.507289 0.585647
#
# Coordination Sequence:
#
# PCOD9436727 Si02
#       8
#     4   8   4   8   4   8   8   8
#     4  10  22  36  58  80 108 144 182 232 264 328
#     4  12  23  38  55  78 104 135 179 220 267 339
#     4  12  22  37  56  80 106 137 168 220 280 340
#     4  10  20  33  56  82 111 144 189 214 262 322
#     4  12  20  37  58  82 114 135 174 220 288 322
#     4  11  22  39  56  79 106 138 180 221 281 313
#     4   9  19  30  47  75 114 147 172 214 262 308
#     4  11  21  36  56  82 109 144 174 228 270 325
#
# _framework density 18.538982000000001
#
# number of rings (size 3 to 8) (size 9 to 14) (size 15 to 20)
#    0.000    1.231    4.615    2.308    5.385    0.000 
#    0.000    0.769    0.000    0.000    0.000    1.077 
#    0.000    0.000    0.000    0.000    0.000    0.000 
#
# Total GULP energy -289765.756783 kJ/mol
# GULP energy per Si atom -5572.418400 kJ/mol
# Density = 1.849679 g / cm^3
# Si number density = 18.538982 Si / 1000 Ang^3
#
#
#
# Elastic Constant Matrix: (Units=GPa)
#
#
# Indices 1 2 3 4 5 6 
#
# 1 99.3121 10.8666 20.8967 0.0000 0.0000 0.0000
# 2 10.8666 64.2066 -3.8877 0.0000 0.0000 0.0000
# 3 20.8967 -3.8877 33.3961 0.0000 0.0000 0.0000
# 4 0.0000 0.0000 0.0000 17.7750 0.0000 0.0000
# 5 0.0000 0.0000 0.0000 0.0000 18.8257 0.0000
# 6 0.0000 0.0000 0.0000 0.0000 0.0000 22.4478
#
#
#
# Elastic Compliance Matrix: (Units=1/GPa)
#
#
# Indices 1 2 3 4 5 6 
#
# 1 0.011981 -0.002499 -0.007788 0.000000 0.000000 0.000000
# 2 -0.002499 0.016207 0.003451 0.000000 0.000000 0.000000
# 3 -0.007788 0.003451 0.035218 0.000000 0.000000 0.000000
# 4 0.000000 0.000000 0.000000 0.056259 0.000000 0.000000
# 5 0.000000 0.000000 0.000000 0.000000 0.053119 0.000000
# 6 0.000000 0.000000 0.000000 0.000000 0.000000 0.044548
#
#
# Mechanical properties :
#
#
# Convention : Reuss Voigt Hill
#
# Bulk Modulus (GPa) = 20.10741 28.07400 24.09071
# Shear Modulus (GPa) = 20.19523 23.07899 21.63711
#
# Velocity S-wave (km/s) = 3.30409 3.53213 3.42001
# Velocity P-wave (km/s) = 5.04238 5.64009 5.34959
#
# Compressibility (1/GPa) = 0.04973291
#
# Stress axis : x y z
#
# Youngs Moduli (GPa) = 83.46229 61.70300 28.39423
#
# Poissons Ratio (x) = 0.15422 0.22113
# Poissons Ratio (y) = 0.20860 -0.09798
# Poissons Ratio (z) = 0.65001 -0.21291
#
# Static dielectric constant tensor:
#      x y z
#    x 1.631230 0.000000 0.000000 
#    y 0.000000 1.715420 0.000000 
#    z 0.000000 0.000000 1.672010 
# 
# From -- ./inp_files/28849.got.cif
#   From: 2010.05.17/outbox.cif.g08.bks.cpg/sg57_15_cif.got.tgz:28849.got - 2010.06.03 13:58:18.
