data_PCOD9436211
_publ_section_title
;
Structure prediction by ZEFSAII (Michael W. Deem and Ramdas Pophale) SiO2 
 PCOD9436211
Probable space group: P B C M
;
_chemical_formula_sum "Si O2"
_cell_formula_units_Z 64
_cell_length_a 21.487544
_cell_length_b 19.015600
_cell_length_c 8.633838
_cell_angle_alpha 90.000000
_cell_angle_beta 90.000000
_cell_angle_gamma 90.000000
_cell_volume 3527.773616
_symmetry_space_group_name_H-M "P B C M"
_symmetry_group_IT_number 57
_symmetry_cell_setting 'orthorhombic'
loop_
_space_group_symop_operation_xyz
x,y,z
-x,-y,1/2+z
x,1/2-y,-z
-x,1/2+y,1/2-z
-x,-y,-z
x,y,1/2-z
-x,1/2+y,z
x,1/2-y,1/2+z
loop_
_atom_site_type_symbol
_atom_site_label
_atom_site_fract_x
_atom_site_fract_y
_atom_site_fract_z
Si Si1 0.119060 0.826830 0.063612
Si Si2 0.936908 0.466803 0.935242
Si Si3 0.505183 0.078143 0.435192
Si Si4 0.611947 0.674474 0.435192
Si Si5 0.749379 0.107104 0.937568
Si Si6 0.187906 0.035713 0.436427
Si Si7 0.250824 0.327017 0.065514
Si Si8 0.617873 0.171219 0.563505
O O1 0.116351 0.827881 0.250000
O O2 0.189849 0.848057 0.015553
O O3 0.104105 0.750000 0.000000
O O4 0.075002 0.887882 0.997440
O O5 0.937410 0.466696 0.750000
O O6 0.878319 0.511540 0.997451
O O7 0.000000 0.500000 0.000000
O O8 0.512553 0.076752 0.250000
O O9 0.440923 0.118348 0.470896
O O10 0.562335 0.121293 0.507151
O O11 0.500000 0.000000 0.500000
O O12 0.591437 0.750000 0.500000
O O13 0.620193 0.678875 0.250000
O O14 0.678427 0.658548 0.510812
O O15 0.747838 0.108206 0.750000
O O16 0.684321 0.139407 0.991263
O O17 0.763503 0.026393 0.982717
O O18 0.185061 0.036918 0.250000
O O19 0.208846 0.110642 0.499500
O O20 0.248073 0.325270 0.250000
O O21 0.234082 0.250000 0.000000
O O22 0.610085 0.250000 0.500000
O O23 0.617869 0.173414 0.750000
#
# Coordination Sequence:
#
# PCOD9436211 Si02
#       8
#     8   8   8   8   8   8   8   8
#     4  10  19  35  58  87 120 157 197 242 289 340
#     4  11  22  39  61  88 120 159 201 240 286 342
#     4  11  25  41  57  80 109 147 190 240 292 348
#     4  10  21  38  59  80 106 143 187 236 292 347
#     4   8  18  34  56  84 116 152 188 230 284 338
#     4  10  20  38  61  87 120 155 191 237 288 339
#     4  11  22  37  59  88 116 149 191 239 292 348
#     4  11  22  38  58  83 114 151 189 234 286 345
#
# _framework density 18.141753999999999
#
# number of rings (size 3 to 8) (size 9 to 14) (size 15 to 20)
#    0.000    1.750    0.000    6.375    1.750    3.000 
#    0.000    6.875    0.000    0.000    0.000    0.000 
#    0.000    0.000    0.000    0.000    0.000    0.000 
#
# Total GULP energy -357577.364491 kJ/mol
# GULP energy per Si atom -5587.146320 kJ/mol
# Density = 1.810046 g / cm^3
# Si number density = 18.141754 Si / 1000 Ang^3
#
#
#
# Elastic Constant Matrix: (Units=GPa)
#
#
# Indices 1 2 3 4 5 6 
#
# 1 97.3628 115.6550 53.3874 0.0000 0.0000 0.0000
# 2 115.6550 189.4262 76.5962 0.0000 0.0000 0.0000
# 3 53.3874 76.5962 105.1380 0.0000 0.0000 0.0000
# 4 0.0000 0.0000 0.0000 32.3051 0.0000 0.0000
# 5 0.0000 0.0000 0.0000 0.0000 28.3945 0.0000
# 6 0.0000 0.0000 0.0000 0.0000 0.0000 27.4374
#
#
#
# Elastic Compliance Matrix: (Units=1/GPa)
#
#
# Indices 1 2 3 4 5 6 
#
# 1 0.038229 -0.021961 -0.003413 0.000000 0.000000 0.000000
# 2 -0.021961 0.020099 -0.003491 0.000000 0.000000 0.000000
# 3 -0.003413 -0.003491 0.013788 0.000000 0.000000 0.000000
# 4 0.000000 0.000000 0.000000 0.030955 0.000000 0.000000
# 5 0.000000 0.000000 0.000000 0.000000 0.035218 0.000000
# 6 0.000000 0.000000 0.000000 0.000000 0.000000 0.036447
#
#
# Mechanical properties :
#
#
# Convention : Reuss Voigt Hill
#
# Bulk Modulus (GPa) = 69.51369 98.13381 83.82375
# Shear Modulus (GPa) = 21.07371 27.37994 24.22683
#
# Velocity S-wave (km/s) = 3.41194 3.88909 3.65830
# Velocity P-wave (km/s) = 7.34316 8.62420 8.00933
#
# Compressibility (1/GPa) = 0.01438566
#
# Stress axis : x y z
#
# Youngs Moduli (GPa) = 26.15796 49.75301 72.52668
#
# Poissons Ratio (x) = 1.09262 0.24753
# Poissons Ratio (y) = 0.57445 0.25323
# Poissons Ratio (z) = 0.08928 0.17371
#
# Static dielectric constant tensor:
#      x y z
#    x 1.608620 0.000000 0.000000 
#    y 0.000000 1.566010 0.000000 
#    z 0.000000 0.000000 1.610750 
# 
# From -- ./inp_files/8537.got.cif
#   From: 2010.05.17/outbox.cif.g08.bks.cpg/sg57_5_cif.got.tgz:8537.got - 2010.06.03 13:58:18.
