data_PCOD9436700
_publ_section_title
;
Structure prediction by ZEFSAII (Michael W. Deem and Ramdas Pophale) SiO2 
 PCOD9436700
Probable space group: P B C M
;
_chemical_formula_sum "Si O2"
_cell_formula_units_Z 48
_cell_length_a 9.417716
_cell_length_b 12.666576
_cell_length_c 15.432409
_cell_angle_alpha 90.000000
_cell_angle_beta 90.000000
_cell_angle_gamma 90.000000
_cell_volume 1840.935395
_symmetry_space_group_name_H-M "P B C M"
_symmetry_group_IT_number 57
_symmetry_cell_setting 'orthorhombic'
loop_
_space_group_symop_operation_xyz
x,y,z
-x,-y,1/2+z
x,1/2-y,-z
-x,1/2+y,1/2-z
-x,-y,-z
x,y,1/2-z
-x,1/2+y,z
x,1/2-y,1/2+z
loop_
_atom_site_type_symbol
_atom_site_label
_atom_site_fract_x
_atom_site_fract_y
_atom_site_fract_z
Si Si1 0.524202 0.564367 0.650365
Si Si2 0.906306 0.048658 0.655132
Si Si3 0.800508 0.497865 0.906476
Si Si4 0.398996 0.390123 0.968550
Si Si5 0.116725 0.763084 0.602186
Si Si6 0.799360 0.687129 0.156077
O O1 0.470420 0.582840 0.750000
O O2 0.695582 0.559539 0.656882
O O3 0.506569 0.627985 0.556434
O O4 0.480546 0.449084 0.610408
O O5 0.973927 0.058335 0.750000
O O6 0.818582 0.154857 0.638749
O O7 0.039166 0.039209 0.590937
O O8 0.824111 0.939503 0.658049
O O9 0.810134 0.375062 0.881285
O O10 0.720735 0.527169 0.995209
O O11 0.310893 0.298551 0.920859
O O12 0.108891 0.750000 0.500000
O O13 0.956180 0.768920 0.638589
O O14 0.745704 0.719424 0.250000
#
# Coordination Sequence:
#
# PCOD9436700 Si02
#       6
#     8   8   8   8   8   8
#     4   9  18  33  57  83 108 144 189 239 287 340
#     4  10  20  33  53  81 113 150 190 224 276 344
#     4   9  19  35  54  81 116 147 187 234 282 337
#     4   9  18  33  55  82 108 143 191 232 282 343
#     4  11  21  33  53  81 116 153 185 232 282 340
#     4  10  20  35  55  81 117 152 186 234 281 332
#
# _framework density 26.073702000000001
#
# number of rings (size 3 to 8) (size 9 to 14) (size 15 to 20)
#    1.000    1.333    0.000    3.500    0.000    4.667 
#    0.000    0.000    0.000    7.000    0.000    7.000 
#    0.000    0.000    0.000    0.000    0.000    0.000 
#
# Total GULP energy -267478.401261 kJ/mol
# GULP energy per Si atom -5572.466693 kJ/mol
# Density = 2.601436 g / cm^3
# Si number density = 26.073702 Si / 1000 Ang^3
#
#
#
# Elastic Constant Matrix: (Units=GPa)
#
#
# Indices 1 2 3 4 5 6 
#
# 1 65.7026 -1.2850 34.1441 0.0000 0.0000 0.0000
# 2 -1.2850 128.9682 11.6494 0.0000 0.0000 0.0000
# 3 34.1441 11.6494 195.6598 0.0000 0.0000 0.0000
# 4 0.0000 0.0000 0.0000 22.3878 0.0000 0.0000
# 5 0.0000 0.0000 0.0000 0.0000 36.2942 0.0000
# 6 0.0000 0.0000 0.0000 0.0000 0.0000 7.1632
#
#
#
# Elastic Compliance Matrix: (Units=1/GPa)
#
#
# Indices 1 2 3 4 5 6 
#
# 1 0.016762 0.000434 -0.002951 0.000000 0.000000 0.000000
# 2 0.000434 0.007807 -0.000540 0.000000 0.000000 0.000000
# 3 -0.002951 -0.000540 0.005658 0.000000 0.000000 0.000000
# 4 0.000000 0.000000 0.000000 0.044667 0.000000 0.000000
# 5 0.000000 0.000000 0.000000 0.000000 0.027553 0.000000
# 6 0.000000 0.000000 0.000000 0.000000 0.000000 0.139603
#
#
# Mechanical properties :
#
#
# Convention : Reuss Voigt Hill
#
# Bulk Modulus (GPa) = 41.47404 53.26083 47.36744
# Shear Modulus (GPa) = 19.51583 36.22385 27.86984
#
# Velocity S-wave (km/s) = 2.73882 3.73136 3.27293
# Velocity P-wave (km/s) = 5.09338 6.24783 5.69991
#
# Compressibility (1/GPa) = 0.02411147
#
# Stress axis : x y z
#
# Youngs Moduli (GPa) = 59.65839 128.09032 176.73936
#
# Poissons Ratio (x) = -0.05554 0.52154
# Poissons Ratio (y) = -0.02587 0.09552
# Poissons Ratio (z) = 0.17605 0.06923
#
# Static dielectric constant tensor:
#      x y z
#    x 2.066490 0.000000 0.000000 
#    y 0.000000 2.110450 0.000000 
#    z 0.000000 0.000000 2.146120 
# 
# From -- ./inp_files/21896.got.cif
#   From: 2010.05.17/outbox.cif.g08.bks.cpg/sg57_11_cif.got.tgz:21896.got - 2010.06.03 13:58:18.
