data_PCOD9436038
_publ_section_title
;
Structure prediction by ZEFSAII (Michael W. Deem and Ramdas Pophale) SiO2 
 PCOD9436038
Probable space group: P B C M
;
_chemical_formula_sum "Si O2"
_cell_formula_units_Z 40
_cell_length_a 7.182555
_cell_length_b 19.549686
_cell_length_c 11.927060
_cell_angle_alpha 90.000000
_cell_angle_beta 90.000000
_cell_angle_gamma 90.000000
_cell_volume 1674.758345
_symmetry_space_group_name_H-M "P B C M"
_symmetry_group_IT_number 57
_symmetry_cell_setting 'orthorhombic'
loop_
_space_group_symop_operation_xyz
x,y,z
-x,-y,1/2+z
x,1/2-y,-z
-x,1/2+y,1/2-z
-x,-y,-z
x,y,1/2-z
-x,1/2+y,z
x,1/2-y,1/2+z
loop_
_atom_site_type_symbol
_atom_site_label
_atom_site_fract_x
_atom_site_fract_y
_atom_site_fract_z
Si Si1 0.379106 0.070008 0.374694
Si Si2 0.743225 0.725910 0.376627
Si Si3 0.959217 0.037586 0.869749
Si Si4 0.772316 0.080323 0.067571
Si Si5 0.817576 0.268126 0.872767
O O1 0.463197 0.060508 0.250000
O O2 0.286513 0.144245 0.378935
O O3 0.215766 0.014542 0.382332
O O4 0.554823 0.068618 0.456926
O O5 0.670729 0.750000 0.500000
O O6 0.672452 0.747722 0.250000
O O7 0.961181 0.743442 0.375124
O O8 0.961096 0.070806 0.750000
O O9 0.137611 0.988703 0.881637
O O10 0.912988 0.091959 0.963645
O O11 0.782182 0.150409 0.133816
O O12 0.750853 0.239643 0.750000
O O13 0.747324 0.250000 0.000000
#
# Coordination Sequence:
#
# PCOD9436038 Si02
#       5
#     8   8   8   8   8
#     4  10  19  34  57  80 108 146 188 229 276 333
#     4   9  18  34  56  79 110 147 185 230 281 331
#     4  10  21  37  55  80 114 148 184 230 278 329
#     4  11  21  35  59  83 110 147 189 228 277 335
#     4  10  20  36  58  82 111 146 185 229 278 332
#
# _framework density 23.884042999999998
#
# number of rings (size 3 to 8) (size 9 to 14) (size 15 to 20)
#    0.000    2.000    2.000    2.400    0.000    1.600 
#    0.000    1.000    0.000    0.000    0.000    0.000 
#    0.000    0.000    0.000    0.000    0.000    0.000 
#
# Total GULP energy -222769.130711 kJ/mol
# GULP energy per Si atom -5569.228268 kJ/mol
# Density = 2.382968 g / cm^3
# Si number density = 23.884043 Si / 1000 Ang^3
#
#
#
# Elastic Constant Matrix: (Units=GPa)
#
#
# Indices 1 2 3 4 5 6 
#
# 1 99.3957 0.4715 1.4858 0.0000 0.0000 0.0000
# 2 0.4715 43.9927 18.5519 0.0000 0.0000 0.0000
# 3 1.4858 18.5519 185.2300 0.0000 0.0000 0.0000
# 4 0.0000 0.0000 0.0000 21.3484 0.0000 0.0000
# 5 0.0000 0.0000 0.0000 0.0000 -1.2038 0.0000
# 6 0.0000 0.0000 0.0000 0.0000 0.0000 11.3341
#
#
#
# Elastic Compliance Matrix: (Units=1/GPa)
#
#
# Indices 1 2 3 4 5 6 
#
# 1 0.010062 -0.000077 -0.000073 0.000000 0.000000 0.000000
# 2 -0.000077 0.023734 -0.002376 0.000000 0.000000 0.000000
# 3 -0.000073 -0.002376 0.005637 0.000000 0.000000 0.000000
# 4 0.000000 0.000000 0.000000 0.046842 0.000000 0.000000
# 5 0.000000 0.000000 0.000000 0.000000 -0.830710 0.000000
# 6 0.000000 0.000000 0.000000 0.000000 0.000000 0.088229
#
#
# Mechanical properties :
#
#
# Convention : Reuss Voigt Hill
#
# Bulk Modulus (GPa) = 29.08628 41.07077 35.07853
# Shear Modulus (GPa) = -7.81626 26.83636 9.51005
#
# Velocity S-wave (km/s) = -1.81099 3.35567 1.99760
# Velocity P-wave (km/s) = 2.79851 5.67866 4.47654
#
# Compressibility (1/GPa) = 0.03438047
#
# Stress axis : x y z
#
# Youngs Moduli (GPa) = 99.38135 42.13361 177.38989
#
# Poissons Ratio (x) = 0.00325 0.01295
# Poissons Ratio (y) = 0.00766 0.42156
# Poissons Ratio (z) = 0.00725 0.10013
#
# Static dielectric constant tensor:
#      x y z
#    x 1.867480 0.000000 0.000000 
#    y 0.000000 1.869770 0.000000 
#    z 0.000000 0.000000 2.176440 
# 
# From -- ./inp_files/11570.got.cif
#   From: 2010.05.17/outbox.cif.g08.bks.cpg/sg57_6_cif.got.tgz:11570.got - 2010.06.03 13:58:18.
