data_PCOD9436739
_publ_section_title
;
Structure prediction by ZEFSAII (Michael W. Deem and Ramdas Pophale) SiO2 
 PCOD9436739
Probable space group: P B C M
;
_chemical_formula_sum "Si O2"
_cell_formula_units_Z 56
_cell_length_a 32.227299
_cell_length_b 5.232352
_cell_length_c 13.683618
_cell_angle_alpha 90.000000
_cell_angle_beta 90.000000
_cell_angle_gamma 90.000000
_cell_volume 2307.394234
_symmetry_space_group_name_H-M "P B C M"
_symmetry_group_IT_number 57
_symmetry_cell_setting 'orthorhombic'
loop_
_space_group_symop_operation_xyz
x,y,z
-x,-y,1/2+z
x,1/2-y,-z
-x,1/2+y,1/2-z
-x,-y,-z
x,y,1/2-z
-x,1/2+y,z
x,1/2-y,1/2+z
loop_
_atom_site_type_symbol
_atom_site_label
_atom_site_fract_x
_atom_site_fract_y
_atom_site_fract_z
Si Si1 0.885981 0.898580 0.130610
Si Si2 0.976631 0.422191 0.630565
Si Si3 0.695232 0.884830 0.366940
Si Si4 0.743068 0.388485 0.130358
Si Si5 0.521544 0.285356 0.882643
Si Si6 0.396620 0.003421 0.936338
Si Si7 0.837388 0.099544 0.630804
O O1 0.887769 0.891764 0.250000
O O2 0.868822 0.623575 0.099815
O O3 0.931704 0.980808 0.097619
O O4 0.854033 0.122020 0.103770
O O5 0.975715 0.418944 0.750000
O O6 0.010388 0.636347 0.601872
O O7 0.698355 0.884292 0.250000
O O8 0.712434 0.613497 0.400895
O O9 0.724538 0.116836 0.399914
O O10 0.647254 0.921313 0.391618
O O11 0.743988 0.388239 0.250000
O O12 0.790150 0.438775 0.098347
O O13 0.488559 0.498829 0.850536
O O14 0.566495 0.410842 0.865319
O O15 0.519926 0.250000 0.000000
O O16 0.388600 0.750000 0.000000
O O17 0.411027 0.250000 0.000000
O O18 0.837014 0.091818 0.750000
#
# Coordination Sequence:
#
# PCOD9436739 Si02
#       7
#     8   8   8   8   8   8   8
#     4   9  15  21  30  44  62  86 119 166 220 264
#     4   9  15  21  27  36  54  82 116 155 207 268
#     4  10  20  34  50  69  96 128 158 190 238 292
#     4   9  17  29  45  63  84 114 149 185 230 284
#     4   9  16  28  47  71  96 122 155 194 232 271
#     4  11  21  33  52  77 101 126 160 200 237 274
#     4   9  15  23  35  51  69  90 125 172 219 263
#
# _framework density 24.269803
#
# number of rings (size 3 to 8) (size 9 to 14) (size 15 to 20)
#    0.000    2.571    0.000    4.714    0.000    6.857 
#    0.000    0.000    0.000    0.857    0.000    0.000 
#    0.000    1.143    0.000    0.000    0.000    0.000 
#
# Total GULP energy -313432.723064 kJ/mol
# GULP energy per Si atom -5597.012912 kJ/mol
# Density = 2.421456 g / cm^3
# Si number density = 24.269803 Si / 1000 Ang^3
#
#
#
# Elastic Constant Matrix: (Units=GPa)
#
#
# Indices 1 2 3 4 5 6 
#
# 1 154.0142 54.4241 0.2273 0.0000 0.0000 0.0000
# 2 54.4241 163.4682 13.4398 0.0000 0.0000 0.0000
# 3 0.2273 13.4398 83.3022 0.0000 0.0000 0.0000
# 4 0.0000 0.0000 0.0000 14.4304 0.0000 0.0000
# 5 0.0000 0.0000 0.0000 0.0000 22.0623 0.0000
# 6 0.0000 0.0000 0.0000 0.0000 0.0000 45.8752
#
#
#
# Elastic Compliance Matrix: (Units=1/GPa)
#
#
# Indices 1 2 3 4 5 6 
#
# 1 0.007371 -0.002485 0.000381 0.000000 0.000000 0.000000
# 2 -0.002485 0.007038 -0.001129 0.000000 0.000000 0.000000
# 3 0.000381 -0.001129 0.012186 0.000000 0.000000 0.000000
# 4 0.000000 0.000000 0.000000 0.069298 0.000000 0.000000
# 5 0.000000 0.000000 0.000000 0.000000 0.045326 0.000000
# 6 0.000000 0.000000 0.000000 0.000000 0.000000 0.021798
#
#
# Mechanical properties :
#
#
# Convention : Reuss Voigt Hill
#
# Bulk Modulus (GPa) = 49.68288 59.66299 54.67293
# Shear Modulus (GPa) = 28.37825 38.65316 33.51571
#
# Velocity S-wave (km/s) = 3.42319 3.99512 3.72016
# Velocity P-wave (km/s) = 6.01164 6.77628 6.40538
#
# Compressibility (1/GPa) = 0.02012766
#
# Stress axis : x y z
#
# Youngs Moduli (GPa) = 135.67509 142.09386 82.06447
#
# Poissons Ratio (x) = 0.35313 -0.03125
# Poissons Ratio (y) = 0.33718 0.09262
# Poissons Ratio (z) = -0.05167 0.16037
#
# Static dielectric constant tensor:
#      x y z
#    x 1.872060 0.000000 0.000000 
#    y 0.000000 1.846690 0.000000 
#    z 0.000000 0.000000 2.037930 
# 
# From -- ./inp_files/19640.got.cif
#   From: 2010.05.17/outbox.cif.g08.bks.cpg/sg57_10_cif.got.tgz:19640.got - 2010.06.03 13:58:18.
