data_PCOD9436925
_publ_section_title
;
Structure prediction by ZEFSAII (Michael W. Deem and Ramdas Pophale) SiO2 
 PCOD9436925
Probable space group: P B C M
;
_chemical_formula_sum "Si O2"
_cell_formula_units_Z 40
_cell_length_a 26.619013
_cell_length_b 9.810441
_cell_length_c 8.711660
_cell_angle_alpha 90.000000
_cell_angle_beta 90.000000
_cell_angle_gamma 90.000000
_cell_volume 2274.999974
_symmetry_space_group_name_H-M "P B C M"
_symmetry_group_IT_number 57
_symmetry_cell_setting 'orthorhombic'
loop_
_space_group_symop_operation_xyz
x,y,z
-x,-y,1/2+z
x,1/2-y,-z
-x,1/2+y,1/2-z
-x,-y,-z
x,y,1/2-z
-x,1/2+y,z
x,1/2-y,1/2+z
loop_
_atom_site_type_symbol
_atom_site_label
_atom_site_fract_x
_atom_site_fract_y
_atom_site_fract_z
Si Si1 0.240903 0.097156 0.933694
Si Si2 0.543550 0.904427 0.933897
Si Si3 0.647711 0.596637 0.934129
Si Si4 0.156251 0.901383 0.066174
Si Si5 0.958080 0.400993 0.433697
O O1 0.237106 0.104691 0.750000
O O2 0.296918 0.039431 0.970178
O O3 0.237079 0.250000 0.000000
O O4 0.197363 0.003437 0.000244
O O5 0.541832 0.898754 0.750000
O O6 0.538824 0.750000 0.000000
O O7 0.597708 0.962276 0.989151
O O8 0.500000 0.000000 0.000000
O O9 0.641407 0.599686 0.750000
O O10 0.649805 0.750000 0.000000
O O11 0.159855 0.896828 0.250000
O O12 0.099049 0.943782 0.025191
O O13 0.163978 0.750000 0.000000
O O14 0.965415 0.250000 0.500000
O O15 0.961583 0.396977 0.250000
O O16 0.000000 0.500000 0.500000
#
# Coordination Sequence:
#
# PCOD9436925 Si02
#       5
#     8   8   8   8   8
#     4  10  20  34  55  81 108 138 176 219 260 306
#     4  11  21  35  55  79 107 140 176 217 264 314
#     4   9  17  31  51  76 104 136 174 215 260 310
#     4  10  21  37  56  78 107 141 176 214 263 316
#     4  10  21  37  57  80 106 139 176 217 262 312
#
# _framework density 17.582415999999998
#
# number of rings (size 3 to 8) (size 9 to 14) (size 15 to 20)
#    0.000    2.000    0.000    5.400    0.000    5.600 
#    0.000    1.000    0.000    4.800    0.000    0.000 
#    0.000    0.000    0.000    0.000    0.000    0.000 
#
# Total GULP energy -223165.388991 kJ/mol
# GULP energy per Si atom -5579.134725 kJ/mol
# Density = 1.754240 g / cm^3
# Si number density = 17.582416 Si / 1000 Ang^3
#
#
#
# Elastic Constant Matrix: (Units=GPa)
#
#
# Indices 1 2 3 4 5 6 
#
# 1 210.8046 95.2264 87.3990 0.0000 0.0000 0.0000
# 2 95.2264 66.0575 44.9678 0.0000 0.0000 0.0000
# 3 87.3990 44.9678 110.5101 0.0000 0.0000 0.0000
# 4 0.0000 0.0000 0.0000 31.8751 0.0000 0.0000
# 5 0.0000 0.0000 0.0000 0.0000 33.0455 0.0000
# 6 0.0000 0.0000 0.0000 0.0000 0.0000 37.7303
#
#
#
# Elastic Compliance Matrix: (Units=1/GPa)
#
#
# Indices 1 2 3 4 5 6 
#
# 1 0.014892 -0.018603 -0.004208 0.000000 0.000000 0.000000
# 2 -0.018603 0.044178 -0.003264 0.000000 0.000000 0.000000
# 3 -0.004208 -0.003264 0.013705 0.000000 0.000000 0.000000
# 4 0.000000 0.000000 0.000000 0.031372 0.000000 0.000000
# 5 0.000000 0.000000 0.000000 0.000000 0.030261 0.000000
# 6 0.000000 0.000000 0.000000 0.000000 0.000000 0.026504
#
#
# Mechanical properties :
#
#
# Convention : Reuss Voigt Hill
#
# Bulk Modulus (GPa) = 48.48428 93.61761 71.05095
# Shear Modulus (GPa) = 22.73380 31.18211 26.95796
#
# Velocity S-wave (km/s) = 3.59971 4.21584 3.91990
# Velocity P-wave (km/s) = 6.70168 8.77829 7.80932
#
# Compressibility (1/GPa) = 0.02062524
#
# Stress axis : x y z
#
# Youngs Moduli (GPa) = 67.15078 22.63562 72.96793
#
# Poissons Ratio (x) = 0.42110 0.30702
# Poissons Ratio (y) = 1.24923 0.23815
# Poissons Ratio (z) = 0.28254 0.07388
#
# Static dielectric constant tensor:
#      x y z
#    x 1.632980 0.000000 0.000000 
#    y 0.000000 1.552320 0.000000 
#    z 0.000000 0.000000 1.585300 
# 
# From -- ./inp_files/8892.got.cif
#   From: 2010.05.17/outbox.cif.g08.bks.cpg/sg57_5_cif.got.tgz:8892.got - 2010.06.03 13:58:18.
