data_PCOD9436096
_publ_section_title
;
Structure prediction by ZEFSAII (Michael W. Deem and Ramdas Pophale) SiO2 
 PCOD9436096
Probable space group: P B C M
;
_chemical_formula_sum "Si O2"
_cell_formula_units_Z 48
_cell_length_a 10.342356
_cell_length_b 28.728320
_cell_length_c 8.476822
_cell_angle_alpha 90.000000
_cell_angle_beta 90.000000
_cell_angle_gamma 90.000000
_cell_volume 2518.620745
_symmetry_space_group_name_H-M "P B C M"
_symmetry_group_IT_number 57
_symmetry_cell_setting 'orthorhombic'
loop_
_space_group_symop_operation_xyz
x,y,z
-x,-y,1/2+z
x,1/2-y,-z
-x,1/2+y,1/2-z
-x,-y,-z
x,y,1/2-z
-x,1/2+y,z
x,1/2-y,1/2+z
loop_
_atom_site_type_symbol
_atom_site_label
_atom_site_fract_x
_atom_site_fract_y
_atom_site_fract_z
Si Si1 0.099869 0.700026 0.940014
Si Si2 0.600504 0.300003 0.061470
Si Si3 0.532119 0.397394 0.559977
Si Si4 0.035268 0.105233 0.937989
Si Si5 0.206805 0.949754 0.562045
Si Si6 0.726191 0.949091 0.937550
O O1 0.101177 0.700370 0.750000
O O2 0.249416 0.694639 0.993704
O O3 0.016023 0.655855 0.990880
O O4 0.052962 0.750000 0.000000
O O5 0.599872 0.299591 0.250000
O O6 0.553961 0.250000 0.000000
O O7 0.524405 0.344821 0.001115
O O8 0.531061 0.396559 0.750000
O O9 0.668348 0.419863 0.509436
O O10 0.412148 0.429182 0.508418
O O11 0.057130 0.106099 0.750000
O O12 0.920377 0.069126 0.976621
O O13 0.163801 0.088513 0.024117
O O14 0.190004 0.944179 0.750000
O O15 0.235657 0.003178 0.522481
O O16 0.720858 0.957605 0.750000
#
# Coordination Sequence:
#
# PCOD9436096 Si02
#       6
#     8   8   8   8   8   8
#     4   9  19  34  56  85 113 143 182 231 280 330
#     4  10  19  34  58  87 116 147 186 235 284 334
#     4  10  22  39  59  85 116 150 192 236 284 339
#     4  11  22  39  59  85 117 151 192 234 282 339
#     4  11  22  38  61  86 111 149 194 239 286 335
#     4  11  24  40  57  82 117 154 190 235 286 338
#
# _framework density 19.058050999999999
#
# number of rings (size 3 to 8) (size 9 to 14) (size 15 to 20)
#    0.000    1.667    1.667    3.000    0.000    4.000 
#    0.000    0.833    0.000    2.000    0.000    0.000 
#    0.000    0.000    0.000    0.000    0.000    0.000 
#
# Total GULP energy -268223.069260 kJ/mol
# GULP energy per Si atom -5587.980610 kJ/mol
# Density = 1.901467 g / cm^3
# Si number density = 19.058051 Si / 1000 Ang^3
#
#
#
# Elastic Constant Matrix: (Units=GPa)
#
#
# Indices 1 2 3 4 5 6 
#
# 1 31.3395 -21.6088 -3.3546 0.0000 0.0000 0.0000
# 2 -21.6088 75.6438 -6.8377 0.0000 0.0000 0.0000
# 3 -3.3546 -6.8377 8.5403 0.0000 0.0000 0.0000
# 4 0.0000 0.0000 0.0000 31.4481 0.0000 0.0000
# 5 0.0000 0.0000 0.0000 0.0000 16.3931 0.0000
# 6 0.0000 0.0000 0.0000 0.0000 0.0000 -2.0948
#
#
#
# Elastic Compliance Matrix: (Units=1/GPa)
#
#
# Indices 1 2 3 4 5 6 
#
# 1 0.046274 0.016021 0.031003 0.000000 0.000000 0.000000
# 2 0.016021 0.019798 0.022144 0.000000 0.000000 0.000000
# 3 0.031003 0.022144 0.146999 0.000000 0.000000 0.000000
# 4 0.000000 0.000000 0.000000 0.031798 0.000000 0.000000
# 5 0.000000 0.000000 0.000000 0.000000 0.061001 0.000000
# 6 0.000000 0.000000 0.000000 0.000000 0.000000 -0.477378
#
#
# Mechanical properties :
#
#
# Convention : Reuss Voigt Hill
#
# Bulk Modulus (GPa) = 2.84568 5.76905 4.30737
# Shear Modulus (GPa) = -25.94588 18.97094 -3.48747
#
# Velocity S-wave (km/s) = -3.69374 3.15847 -1.35421
# Velocity P-wave (km/s) = 4.08597 4.04164 0.42444
#
# Compressibility (1/GPa) = 0.35140960
#
# Stress axis : x y z
#
# Youngs Moduli (GPa) = 21.61039 50.50934 6.80277
#
# Poissons Ratio (x) = -0.80923 -0.21091
# Poissons Ratio (y) = -0.34623 -0.15064
# Poissons Ratio (z) = -0.67000 -1.11850
#
# Static dielectric constant tensor:
#      x y z
#    x 1.649770 0.000000 0.000000 
#    y 0.000000 1.652090 0.000000 
#    z 0.000000 0.000000 1.690220 
# 
# From -- ./inp_files/2121.got.cif
#   From: 2010.05.17/outbox.cif.g08.bks.cpg/sg57_2_cif.got.tgz:2121.got - 2010.06.03 13:58:18.
