data_PCOD9436652
_publ_section_title
;
Structure prediction by ZEFSAII (Michael W. Deem and Ramdas Pophale) SiO2 
 PCOD9436652
Probable space group: P B C M
;
_chemical_formula_sum "Si O2"
_cell_formula_units_Z 64
_cell_length_a 19.414157
_cell_length_b 17.711155
_cell_length_c 8.153014
_cell_angle_alpha 90.000000
_cell_angle_beta 90.000000
_cell_angle_gamma 90.000000
_cell_volume 2803.390577
_symmetry_space_group_name_H-M "P B C M"
_symmetry_group_IT_number 57
_symmetry_cell_setting 'orthorhombic'
loop_
_space_group_symop_operation_xyz
x,y,z
-x,-y,1/2+z
x,1/2-y,-z
-x,1/2+y,1/2-z
-x,-y,-z
x,y,1/2-z
-x,1/2+y,z
x,1/2-y,1/2+z
loop_
_atom_site_type_symbol
_atom_site_label
_atom_site_fract_x
_atom_site_fract_y
_atom_site_fract_z
Si Si1 0.456300 0.329798 0.553843
Si Si2 0.386490 0.641528 0.058244
Si Si3 0.069040 0.959184 0.944017
Si Si4 0.816085 0.838333 0.440781
Si Si5 0.243421 0.668767 0.936455
Si Si6 0.421075 0.486553 0.553346
Si Si7 0.970333 0.666092 0.443604
Si Si8 0.787652 0.497845 0.434846
O O1 0.428568 0.250000 0.500000
O O2 0.460594 0.334010 0.750000
O O3 0.536293 0.337904 0.497503
O O4 0.409989 0.400360 0.502039
O O5 0.379459 0.661677 0.250000
O O6 0.326263 0.674815 0.949472
O O7 0.380318 0.551034 0.038184
O O8 0.084012 0.970895 0.750000
O O9 0.043067 0.874659 0.973771
O O10 0.130381 0.987170 0.055228
O O11 0.000000 0.000000 0.000000
O O12 0.804164 0.750000 0.500000
O O13 0.802024 0.836220 0.250000
O O14 0.897896 0.855363 0.470108
O O15 0.777269 0.914788 0.506457
O O16 0.219858 0.662432 0.750000
O O17 0.230822 0.585047 0.016190
O O18 0.216528 0.750000 0.000000
O O19 0.500000 0.500000 0.500000
O O20 0.414502 0.495187 0.750000
O O21 0.980831 0.750000 0.500000
O O22 0.956247 0.658467 0.250000
O O23 0.759099 0.495684 0.250000
#
# Coordination Sequence:
#
# PCOD9436652 Si02
#       8
#     8   8   8   8   8   8   8   8
#     4   9  18  29  46  77 114 151 188 231 283 337
#     4  10  20  35  56  81 110 149 198 245 290 346
#     4  11  22  35  55  80 110 146 183 226 281 347
#     4  11  21  35  59  86 113 143 178 224 280 342
#     4  11  25  43  63  86 116 156 200 251 299 350
#     4   9  17  30  48  75 110 146 188 237 290 345
#     4  10  20  33  51  77 108 139 176 220 269 333
#     4  11  24  41  60  84 116 152 194 242 295 351
#
# _framework density 22.829498000000001
#
# number of rings (size 3 to 8) (size 9 to 14) (size 15 to 20)
#    0.000    1.750    1.250    5.250    0.000    8.000 
#    0.000    2.500    0.000    0.750    0.000    3.500 
#    0.000    0.000    0.000    0.000    0.000    0.000 
#
# Total GULP energy -356449.463179 kJ/mol
# GULP energy per Si atom -5569.522862 kJ/mol
# Density = 2.277754 g / cm^3
# Si number density = 22.829498 Si / 1000 Ang^3
#
#
#
# Elastic Constant Matrix: (Units=GPa)
#
#
# Indices 1 2 3 4 5 6 
#
# 1 28.1926 13.6063 -5.5724 0.0000 0.0000 0.0000
# 2 13.6063 197.2438 29.4504 0.0000 0.0000 0.0000
# 3 -5.5724 29.4504 47.5083 0.0000 0.0000 0.0000
# 4 0.0000 0.0000 0.0000 34.5123 0.0000 0.0000
# 5 0.0000 0.0000 0.0000 0.0000 4.5338 0.0000
# 6 0.0000 0.0000 0.0000 0.0000 0.0000 24.5524
#
#
#
# Elastic Compliance Matrix: (Units=1/GPa)
#
#
# Indices 1 2 3 4 5 6 
#
# 1 0.038591 -0.003678 0.006807 0.000000 0.000000 0.000000
# 2 -0.003678 0.005938 -0.004112 0.000000 0.000000 0.000000
# 3 0.006807 -0.004112 0.024396 0.000000 0.000000 0.000000
# 4 0.000000 0.000000 0.000000 0.028975 0.000000 0.000000
# 5 0.000000 0.000000 0.000000 0.000000 0.220565 0.000000
# 6 0.000000 0.000000 0.000000 0.000000 0.000000 0.040729
#
#
# Mechanical properties :
#
#
# Convention : Reuss Voigt Hill
#
# Bulk Modulus (GPa) = 14.93489 38.65704 26.79596
# Shear Modulus (GPa) = 13.03846 28.41709 20.72778
#
# Velocity S-wave (km/s) = 2.39241 3.53193 3.01647
# Velocity P-wave (km/s) = 3.76665 5.79676 4.88825
#
# Compressibility (1/GPa) = 0.06695731
#
# Stress axis : x y z
#
# Youngs Moduli (GPa) = 25.91282 168.41833 40.98956
#
# Poissons Ratio (x) = 0.61951 -0.27900
# Poissons Ratio (y) = 0.09532 0.16856
# Poissons Ratio (z) = -0.17638 0.69256
#
# Static dielectric constant tensor:
#      x y z
#    x 1.886700 0.000000 0.000000 
#    y 0.000000 2.088770 0.000000 
#    z 0.000000 0.000000 1.865040 
# 
# From -- ./inp_files/8488.got.cif
#   From: 2010.05.17/outbox.cif.g08.bks.cpg/sg57_5_cif.got.tgz:8488.got - 2010.06.03 13:58:18.
