data_PCOD9436641
_publ_section_title
;
Structure prediction by ZEFSAII (Michael W. Deem and Ramdas Pophale) SiO2 
 PCOD9436641
Probable space group: P B C M
;
_chemical_formula_sum "Si O2"
_cell_formula_units_Z 64
_cell_length_a 23.089155
_cell_length_b 17.802343
_cell_length_c 8.939378
_cell_angle_alpha 90.000000
_cell_angle_beta 90.000000
_cell_angle_gamma 90.000000
_cell_volume 3674.451381
_symmetry_space_group_name_H-M "P B C M"
_symmetry_group_IT_number 57
_symmetry_cell_setting 'orthorhombic'
loop_
_space_group_symop_operation_xyz
x,y,z
-x,-y,1/2+z
x,1/2-y,-z
-x,1/2+y,1/2-z
-x,-y,-z
x,y,1/2-z
-x,1/2+y,z
x,1/2-y,1/2+z
loop_
_atom_site_type_symbol
_atom_site_label
_atom_site_fract_x
_atom_site_fract_y
_atom_site_fract_z
Si Si1 0.239912 0.507488 0.928946
Si Si2 0.463783 0.931516 0.570806
Si Si3 0.044821 0.328618 0.570686
Si Si4 0.204843 0.825998 0.427719
Si Si5 0.085652 0.629313 0.426409
Si Si6 0.120966 0.041591 0.573591
Si Si7 0.553723 0.830089 0.070576
Si Si8 0.359540 0.031936 0.928453
O O1 0.234695 0.502687 0.750000
O O2 0.236124 0.596100 0.971606
O O3 0.184773 0.467994 0.004615
O O4 0.299736 0.472616 0.984619
O O5 0.471485 0.929493 0.750000
O O6 0.492469 0.858693 0.496996
O O7 0.500000 0.000000 0.500000
O O8 0.398089 0.957295 0.540133
O O9 0.063451 0.250000 0.500000
O O10 0.047743 0.326278 0.750000
O O11 0.084249 0.395253 0.508834
O O12 0.977677 0.343214 0.527828
O O13 0.228665 0.750000 0.500000
O O14 0.206539 0.819354 0.250000
O O15 0.138440 0.836008 0.481463
O O16 0.094400 0.646270 0.250000
O O17 0.090187 0.539426 0.444537
O O18 0.124707 0.057649 0.750000
O O19 0.549777 0.825515 0.250000
O O20 0.601397 0.894719 0.034338
O O21 0.568941 0.750000 0.000000
O O22 0.349135 0.034267 0.750000
#
# Coordination Sequence:
#
# PCOD9436641 Si02
#       8
#     8   8   8   8   8   8   8   8
#     4  10  21  36  55  78 103 137 180 221 260 307
#     4   9  17  31  52  78 107 138 171 208 253 303
#     4  11  22  35  51  75 105 134 169 212 261 316
#     4  10  20  33  51  76 104 133 168 212 261 313
#     4   9  19  34  54  78 102 131 166 208 260 317
#     4  10  20  36  56  76 101 135 173 214 262 313
#     4  10  20  34  54  82 113 143 177 218 265 311
#     4   9  19  35  55  79 106 139 179 219 259 308
#
# _framework density 17.417566000000001
#
# number of rings (size 3 to 8) (size 9 to 14) (size 15 to 20)
#    0.000    2.250    0.000    3.750    0.000    7.000 
#    0.000    1.250    0.000    3.000    0.000    0.000 
#    0.000    0.000    0.000    0.000    0.000    0.000 
#
# Total GULP energy -357060.879661 kJ/mol
# GULP energy per Si atom -5579.076245 kJ/mol
# Density = 1.737792 g / cm^3
# Si number density = 17.417566 Si / 1000 Ang^3
#
#
#
# Elastic Constant Matrix: (Units=GPa)
#
#
# Indices 1 2 3 4 5 6 
#
# 1 62.0094 33.9789 29.8974 0.0000 0.0000 0.0000
# 2 33.9789 83.8745 37.9343 0.0000 0.0000 0.0000
# 3 29.8974 37.9343 53.2306 0.0000 0.0000 0.0000
# 4 0.0000 0.0000 0.0000 31.1322 0.0000 0.0000
# 5 0.0000 0.0000 0.0000 0.0000 29.0161 0.0000
# 6 0.0000 0.0000 0.0000 0.0000 0.0000 13.5689
#
#
#
# Elastic Compliance Matrix: (Units=1/GPa)
#
#
# Indices 1 2 3 4 5 6 
#
# 1 0.023589 -0.005259 -0.009501 0.000000 0.000000 0.000000
# 2 -0.005259 0.018766 -0.010419 0.000000 0.000000 0.000000
# 3 -0.009501 -0.010419 0.031548 0.000000 0.000000 0.000000
# 4 0.000000 0.000000 0.000000 0.032121 0.000000 0.000000
# 5 0.000000 0.000000 0.000000 0.000000 0.034464 0.000000
# 6 0.000000 0.000000 0.000000 0.000000 0.000000 0.073698
#
#
# Mechanical properties :
#
#
# Convention : Reuss Voigt Hill
#
# Bulk Modulus (GPa) = 42.47482 44.74844 43.61163
# Shear Modulus (GPa) = 18.35586 21.23036 19.79311
#
# Velocity S-wave (km/s) = 3.24986 3.49507 3.37469
# Velocity P-wave (km/s) = 6.20655 6.48342 6.34649
#
# Compressibility (1/GPa) = 0.02354336
#
# Stress axis : x y z
#
# Youngs Moduli (GPa) = 42.39183 53.28922 31.69802
#
# Poissons Ratio (x) = 0.28026 0.30117
# Poissons Ratio (y) = 0.22295 0.33027
# Poissons Ratio (z) = 0.40277 0.55523
#
# Static dielectric constant tensor:
#      x y z
#    x 1.570420 0.000000 0.000000 
#    y 0.000000 1.529680 0.000000 
#    z 0.000000 0.000000 1.576760 
# 
# From -- ./inp_files/8439.got.cif
#   From: 2010.05.17/outbox.cif.g08.bks.cpg/sg57_5_cif.got.tgz:8439.got - 2010.06.03 13:58:18.
