data_PCOD9436780
_publ_section_title
;
Structure prediction by ZEFSAII (Michael W. Deem and Ramdas Pophale) SiO2 
 PCOD9436780
Probable space group: P B C M
;
_chemical_formula_sum "Si O2"
_cell_formula_units_Z 56
_cell_length_a 24.491912
_cell_length_b 14.720741
_cell_length_c 8.661386
_cell_angle_alpha 90.000000
_cell_angle_beta 90.000000
_cell_angle_gamma 90.000000
_cell_volume 3122.768254
_symmetry_space_group_name_H-M "P B C M"
_symmetry_group_IT_number 57
_symmetry_cell_setting 'orthorhombic'
loop_
_space_group_symop_operation_xyz
x,y,z
-x,-y,1/2+z
x,1/2-y,-z
-x,1/2+y,1/2-z
-x,-y,-z
x,y,1/2-z
-x,1/2+y,z
x,1/2-y,1/2+z
loop_
_atom_site_type_symbol
_atom_site_label
_atom_site_fract_x
_atom_site_fract_y
_atom_site_fract_z
Si Si1 0.144661 0.648373 0.935220
Si Si2 0.060783 0.505117 0.435285
Si Si3 0.643504 0.500814 0.436614
Si Si4 0.852373 0.851674 0.434878
Si Si5 0.231055 0.004912 0.436478
Si Si6 0.563500 0.648780 0.935088
Si Si7 0.441489 0.850812 0.064005
O O1 0.141769 0.652035 0.750000
O O2 0.196591 0.585193 0.979234
O O3 0.147860 0.750000 0.000000
O O4 0.092879 0.592369 0.999047
O O5 0.059895 0.510325 0.250000
O O6 0.095996 0.415473 0.479504
O O7 0.000000 0.500000 0.500000
O O8 0.643529 0.501078 0.250000
O O9 0.706259 0.498683 0.487589
O O10 0.610884 0.587679 0.495803
O O11 0.607065 0.415576 0.489674
O O12 0.855424 0.750000 0.500000
O O13 0.850358 0.847306 0.250000
O O14 0.800115 0.907868 0.495663
O O15 0.229709 0.011794 0.250000
O O16 0.566684 0.649287 0.750000
O O17 0.502354 0.615945 0.980818
O O18 0.568320 0.750000 0.000000
O O19 0.440337 0.847476 0.250000
O O20 0.434879 0.750000 0.000000
#
# Coordination Sequence:
#
# PCOD9436780 Si02
#       7
#     8   8   8   8   8   8   8
#     4  10  20  36  57  80 108 144 181 219 264 313
#     4  10  21  37  57  84 115 145 179 220 261 308
#     4  10  20  35  54  77 104 135 172 217 265 313
#     4  10  21  37  58  81 107 141 179 217 261 309
#     4   9  20  37  55  76 105 139 176 218 264 312
#     4  10  20  34  52  75 102 135 172 213 262 317
#     4   9  19  34  52  75 104 135 170 212 261 316
#
# _framework density 17.932805999999999
#
# number of rings (size 3 to 8) (size 9 to 14) (size 15 to 20)
#    0.000    2.286    0.000    2.143    0.000    5.714 
#    0.000    1.429    0.000    0.000    0.000    0.000 
#    0.000    0.000    0.000    0.000    0.000    0.000 
#
# Total GULP energy -312529.193303 kJ/mol
# GULP energy per Si atom -5580.878452 kJ/mol
# Density = 1.789199 g / cm^3
# Si number density = 17.932806 Si / 1000 Ang^3
#
#
#
# Elastic Constant Matrix: (Units=GPa)
#
#
# Indices 1 2 3 4 5 6 
#
# 1 192.8208 96.5322 41.3864 0.0000 0.0000 0.0000
# 2 96.5322 156.3629 35.3122 0.0000 0.0000 0.0000
# 3 41.3864 35.3122 26.5710 0.0000 0.0000 0.0000
# 4 0.0000 0.0000 0.0000 29.0528 0.0000 0.0000
# 5 0.0000 0.0000 0.0000 0.0000 27.2194 0.0000
# 6 0.0000 0.0000 0.0000 0.0000 0.0000 20.4062
#
#
#
# Elastic Compliance Matrix: (Units=1/GPa)
#
#
# Indices 1 2 3 4 5 6 
#
# 1 0.008881 -0.003370 -0.009354 0.000000 0.000000 0.000000
# 2 -0.003370 0.010417 -0.008594 0.000000 0.000000 0.000000
# 3 -0.009354 -0.008594 0.063626 0.000000 0.000000 0.000000
# 4 0.000000 0.000000 0.000000 0.034420 0.000000 0.000000
# 5 0.000000 0.000000 0.000000 0.000000 0.036738 0.000000
# 6 0.000000 0.000000 0.000000 0.000000 0.000000 0.049005
#
#
# Mechanical properties :
#
#
# Convention : Reuss Voigt Hill
#
# Bulk Modulus (GPa) = 24.82194 80.24625 52.53410
# Shear Modulus (GPa) = 19.29357 28.83727 24.06542
#
# Velocity S-wave (km/s) = 3.28362 4.01443 3.66728
# Velocity P-wave (km/s) = 5.31488 8.14451 6.87680
#
# Compressibility (1/GPa) = 0.04028694
#
# Stress axis : x y z
#
# Youngs Moduli (GPa) = 112.59717 95.99654 15.71688
#
# Poissons Ratio (x) = 0.32355 0.14701
# Poissons Ratio (y) = 0.37950 0.13507
# Poissons Ratio (z) = 1.05322 0.82502
#
# Static dielectric constant tensor:
#      x y z
#    x 1.607240 0.000000 0.000000 
#    y 0.000000 1.562030 0.000000 
#    z 0.000000 0.000000 1.604610 
# 
# From -- ./inp_files/8006.got.cif
#   From: 2010.05.17/outbox.cif.g08.bks.cpg/sg57_5_cif.got.tgz:8006.got - 2010.06.03 13:58:18.
