data_PCOD9436707
_publ_section_title
;
Structure prediction by ZEFSAII (Michael W. Deem and Ramdas Pophale) SiO2 
 PCOD9436707
Probable space group: P B C M
;
_chemical_formula_sum "Si O2"
_cell_formula_units_Z 48
_cell_length_a 15.092051
_cell_length_b 14.512893
_cell_length_c 11.488510
_cell_angle_alpha 90.000000
_cell_angle_beta 90.000000
_cell_angle_gamma 90.000000
_cell_volume 2516.320548
_symmetry_space_group_name_H-M "P B C M"
_symmetry_group_IT_number 57
_symmetry_cell_setting 'orthorhombic'
loop_
_space_group_symop_operation_xyz
x,y,z
-x,-y,1/2+z
x,1/2-y,-z
-x,1/2+y,1/2-z
-x,-y,-z
x,y,1/2-z
-x,1/2+y,z
x,1/2-y,1/2+z
loop_
_atom_site_type_symbol
_atom_site_label
_atom_site_fract_x
_atom_site_fract_y
_atom_site_fract_z
Si Si1 0.977639 0.856744 0.519362
Si Si2 0.617537 0.648270 0.444016
Si Si3 0.320744 0.500666 0.385204
Si Si4 0.194736 0.304845 0.624045
Si Si5 0.575549 0.311080 0.881043
Si Si6 0.882117 0.496975 0.885365
O O1 0.999486 0.750000 0.500000
O O2 0.897122 0.860878 0.613292
O O3 0.062061 0.916441 0.554200
O O4 0.933622 0.907917 0.409430
O O5 0.619435 0.750000 0.500000
O O6 0.620911 0.569490 0.540811
O O7 0.711472 0.642458 0.377898
O O8 0.523996 0.647092 0.379881
O O9 0.323199 0.472310 0.250000
O O10 0.356830 0.604131 0.392987
O O11 0.218994 0.495249 0.426529
O O12 0.193459 0.250000 0.500000
O O13 0.193082 0.254022 0.750000
O O14 0.589143 0.268343 0.750000
O O15 0.582789 0.250000 0.000000
O O16 0.878706 0.476129 0.750000
#
# Coordination Sequence:
#
# PCOD9436707 Si02
#       6
#     8   8   8   8   8   8
#     4  10  21  37  57  84 116 153 196 245 298 352
#     4  10  20  35  55  87 116 151 190 243 290 353
#     4  10  21  38  60  86 118 160 201 247 300 359
#     4  10  20  33  53  82 114 146 185 233 291 348
#     4  10  22  40  63  88 120 158 204 249 298 354
#     4  10  21  37  58  84 116 154 200 247 299 358
#
# _framework density 19.075472000000001
#
# number of rings (size 3 to 8) (size 9 to 14) (size 15 to 20)
#    0.000    2.000    1.667    1.500    0.000    9.333 
#    0.000    1.667    0.000    0.000    0.000    0.000 
#    0.000    0.000    0.000    0.000    0.000    0.000 
#
# Total GULP energy -267208.824827 kJ/mol
# GULP energy per Si atom -5566.850517 kJ/mol
# Density = 1.903205 g / cm^3
# Si number density = 19.075472 Si / 1000 Ang^3
#
#
#
# Elastic Constant Matrix: (Units=GPa)
#
#
# Indices 1 2 3 4 5 6 
#
# 1 41.5642 16.3823 19.2411 0.0000 0.0000 0.0000
# 2 16.3823 74.9006 29.2168 0.0000 0.0000 0.0000
# 3 19.2411 29.2168 115.7741 0.0000 0.0000 0.0000
# 4 0.0000 0.0000 0.0000 22.6938 0.0000 0.0000
# 5 0.0000 0.0000 0.0000 0.0000 13.4823 0.0000
# 6 0.0000 0.0000 0.0000 0.0000 0.0000 23.4421
#
#
#
# Elastic Compliance Matrix: (Units=1/GPa)
#
#
# Indices 1 2 3 4 5 6 
#
# 1 0.027473 -0.004690 -0.003382 0.000000 0.000000 0.000000
# 2 -0.004690 0.015609 -0.003160 0.000000 0.000000 0.000000
# 3 -0.003382 -0.003160 0.009997 0.000000 0.000000 0.000000
# 4 0.000000 0.000000 0.000000 0.044065 0.000000 0.000000
# 5 0.000000 0.000000 0.000000 0.000000 0.074171 0.000000
# 6 0.000000 0.000000 0.000000 0.000000 0.000000 0.042658
#
#
# Mechanical properties :
#
#
# Convention : Reuss Voigt Hill
#
# Bulk Modulus (GPa) = 32.66262 40.21327 36.43795
# Shear Modulus (GPa) = 20.27220 23.08356 21.67788
#
# Velocity S-wave (km/s) = 3.26350 3.48245 3.37475
# Velocity P-wave (km/s) = 5.60005 6.10711 5.85907
#
# Compressibility (1/GPa) = 0.03061604
#
# Stress axis : x y z
#
# Youngs Moduli (GPa) = 36.39889 64.06443 100.02934
#
# Poissons Ratio (x) = 0.30044 0.33835
# Poissons Ratio (y) = 0.17070 0.31607
# Poissons Ratio (z) = 0.12312 0.20243
#
# Static dielectric constant tensor:
#      x y z
#    x 1.695170 0.000000 0.000000 
#    y 0.000000 1.508250 0.000000 
#    z 0.000000 0.000000 1.683080 
# 
# From -- ./inp_files/13724.got.cif
#   From: 2010.05.17/outbox.cif.g08.bks.cpg/sg57_7_cif.got.tgz:13724.got - 2010.06.03 13:58:18.
