data_PCOD9436561
_publ_section_title
;
Structure prediction by ZEFSAII (Michael W. Deem and Ramdas Pophale) SiO2 
 PCOD9436561
Probable space group: P B C M
;
_chemical_formula_sum "Si O2"
_cell_formula_units_Z 64
_cell_length_a 12.386988
_cell_length_b 31.958896
_cell_length_c 8.884322
_cell_angle_alpha 90.000000
_cell_angle_beta 90.000000
_cell_angle_gamma 90.000000
_cell_volume 3517.076185
_symmetry_space_group_name_H-M "P B C M"
_symmetry_group_IT_number 57
_symmetry_cell_setting 'orthorhombic'
loop_
_space_group_symop_operation_xyz
x,y,z
-x,-y,1/2+z
x,1/2-y,-z
-x,1/2+y,1/2-z
-x,-y,-z
x,y,1/2-z
-x,1/2+y,z
x,1/2-y,1/2+z
loop_
_atom_site_type_symbol
_atom_site_label
_atom_site_fract_x
_atom_site_fract_y
_atom_site_fract_z
Si Si1 0.698011 0.205555 0.927519
Si Si2 0.098102 0.374713 0.567494
Si Si3 0.711648 0.428426 0.926214
Si Si4 0.325441 0.107043 0.929124
Si Si5 0.682424 0.983612 0.919879
Si Si6 0.120434 0.634264 0.927654
Si Si7 0.533421 0.144761 0.426163
Si Si8 0.065572 0.033777 0.415561
O O1 0.676466 0.209950 0.750000
O O2 0.795173 0.172361 0.945120
O O3 0.724477 0.250000 0.000000
O O4 0.595883 0.184920 0.010833
O O5 0.104458 0.373291 0.750000
O O6 0.218537 0.371245 0.501391
O O7 0.066959 0.421277 0.511201
O O8 0.991675 0.351731 0.507202
O O9 0.735059 0.435516 0.750000
O O10 0.617089 0.394021 0.939570
O O11 0.668755 0.471821 0.998438
O O12 0.817021 0.406480 0.002616
O O13 0.312955 0.104357 0.750000
O O14 0.428530 0.133735 0.978143
O O15 0.344726 0.059811 0.995068
O O16 0.635449 0.983560 0.750000
O O17 0.811524 0.980316 0.905685
O O18 0.102483 0.626862 0.750000
O O19 0.506304 0.149434 0.250000
O O20 0.018951 0.038896 0.250000
O O21 0.000000 0.000000 0.500000
#
# Coordination Sequence:
#
# PCOD9436561 Si02
#       8
#     8   8   8   8   8   8   8   8
#     4  10  21  38  62  91 118 142 172 212 262 320
#     4  10  20  34  51  73 104 142 181 219 264 316
#     4  10  20  33  51  76 105 141 184 230 280 328
#     4  11  22  36  54  76 105 144 190 233 274 322
#     4  10  20  33  47  67 100 141 185 232 278 321
#     4  10  20  34  54  82 113 143 176 217 267 323
#     4  10  21  38  58  80 109 143 181 225 273 325
#     4   9  18  28  40  61  90 128 173 219 262 305
#
# _framework density 18.196933999999999
#
# number of rings (size 3 to 8) (size 9 to 14) (size 15 to 20)
#    0.000    2.000    0.000    4.875    0.000    8.500 
#    0.000    0.000    0.000    0.750    0.000    3.500 
#    0.000    0.000    0.000    0.000    0.000    0.000 
#
# Total GULP energy -356788.787569 kJ/mol
# GULP energy per Si atom -5574.824806 kJ/mol
# Density = 1.815552 g / cm^3
# Si number density = 18.196934 Si / 1000 Ang^3
#
#
#
# Elastic Constant Matrix: (Units=GPa)
#
#
# Indices 1 2 3 4 5 6 
#
# 1 64.5533 5.3594 40.1434 0.0000 0.0000 0.0000
# 2 5.3594 42.9711 30.4611 0.0000 0.0000 0.0000
# 3 40.1434 30.4611 117.2515 0.0000 0.0000 0.0000
# 4 0.0000 0.0000 0.0000 27.8153 0.0000 0.0000
# 5 0.0000 0.0000 0.0000 0.0000 25.9270 0.0000
# 6 0.0000 0.0000 0.0000 0.0000 0.0000 10.0492
#
#
#
# Elastic Compliance Matrix: (Units=1/GPa)
#
#
# Indices 1 2 3 4 5 6 
#
# 1 0.019970 0.002888 -0.007587 0.000000 0.000000 0.000000
# 2 0.002888 0.028942 -0.008508 0.000000 0.000000 0.000000
# 3 -0.007587 -0.008508 0.013337 0.000000 0.000000 0.000000
# 4 0.000000 0.000000 0.000000 0.035951 0.000000 0.000000
# 5 0.000000 0.000000 0.000000 0.000000 0.038570 0.000000
# 6 0.000000 0.000000 0.000000 0.000000 0.000000 0.099510
#
#
# Mechanical properties :
#
#
# Convention : Reuss Voigt Hill
#
# Bulk Modulus (GPa) = 27.90642 41.85597 34.88120
# Shear Modulus (GPa) = 18.20573 22.67909 20.44241
#
# Velocity S-wave (km/s) = 3.16647 3.53415 3.35535
# Velocity P-wave (km/s) = 5.36077 6.30121 5.84991
#
# Compressibility (1/GPa) = 0.03583405
#
# Stress axis : x y z
#
# Youngs Moduli (GPa) = 50.07629 34.55166 74.98200
#
# Poissons Ratio (x) = -0.09978 0.56890
# Poissons Ratio (y) = -0.14461 0.63792
# Poissons Ratio (z) = 0.37994 0.29395
#
# Static dielectric constant tensor:
#      x y z
#    x 1.648770 0.000000 0.000000 
#    y 0.000000 1.657410 0.000000 
#    z 0.000000 0.000000 1.637450 
# 
# From -- ./inp_files/3752.got.cif
#   From: 2010.05.17/outbox.cif.g08.bks.cpg/sg57_2_cif.got.tgz:3752.got - 2010.06.03 13:58:18.
