data_PCOD9436374
_publ_section_title
;
Structure prediction by ZEFSAII (Michael W. Deem and Ramdas Pophale) SiO2 
 PCOD9436374
Probable space group: P B C M
;
_chemical_formula_sum "Si O2"
_cell_formula_units_Z 36
_cell_length_a 8.387373
_cell_length_b 15.464068
_cell_length_c 15.456292
_cell_angle_alpha 90.000000
_cell_angle_beta 90.000000
_cell_angle_gamma 90.000000
_cell_volume 2004.725995
_symmetry_space_group_name_H-M "P B C M"
_symmetry_group_IT_number 57
_symmetry_cell_setting 'orthorhombic'
loop_
_space_group_symop_operation_xyz
x,y,z
-x,-y,1/2+z
x,1/2-y,-z
-x,1/2+y,1/2-z
-x,-y,-z
x,y,1/2-z
-x,1/2+y,z
x,1/2-y,1/2+z
loop_
_atom_site_type_symbol
_atom_site_label
_atom_site_fract_x
_atom_site_fract_y
_atom_site_fract_z
Si Si1 0.181382 0.814871 0.250000
Si Si2 0.393688 0.417647 0.898824
Si Si3 0.817019 0.515163 0.250000
Si Si4 0.621673 0.583716 0.902121
Si Si5 0.873953 0.916423 0.250000
Si Si6 0.395460 0.748315 0.601336
O O1 0.248999 0.766184 0.333867
O O2 0.992591 0.833505 0.250000
O O3 0.245701 0.914924 0.250000
O O4 0.251860 0.435619 0.832622
O O5 0.513582 0.498679 0.892088
O O6 0.499797 0.333258 0.879848
O O7 0.330277 0.412223 0.996996
O O8 0.005776 0.498346 0.250000
O O9 0.764910 0.582588 0.834639
O O10 0.511722 0.666812 0.885880
O O11 0.347401 0.750000 0.500000
#
# Coordination Sequence:
#
# PCOD9436374 Si02
#       6
#     4   8   4   8   4   8
#     4  10  20  38  57  82 120 152 181 235 290 347
#     4  10  20  35  63  84 110 149 204 240 275 333
#     4  10  20  36  55  84 112 160 183 233 294 339
#     4  10  19  37  57  87 114 149 191 243 281 334
#     4  10  22  36  60  80 124 160 176 230 312 342
#     4  10  20  37  63  87 110 149 199 242 283 333
#
# _framework density 17.957567000000001
#
# number of rings (size 3 to 8) (size 9 to 14) (size 15 to 20)
#    0.667    1.333    2.222    2.000    0.000    0.889 
#    0.000    7.778    0.000    0.000    0.000    0.000 
#    0.000    0.000    0.000    0.000    0.000    0.000 
#
# Total GULP energy -200723.059369 kJ/mol
# GULP energy per Si atom -5575.640538 kJ/mol
# Density = 1.791669 g / cm^3
# Si number density = 17.957567 Si / 1000 Ang^3
#
#
#
# Elastic Constant Matrix: (Units=GPa)
#
#
# Indices 1 2 3 4 5 6 
#
# 1 102.9480 23.5233 94.0275 0.0000 0.0000 0.0000
# 2 23.5233 105.5332 30.0729 0.0000 0.0000 0.0000
# 3 94.0275 30.0729 122.5022 0.0000 0.0000 0.0000
# 4 0.0000 0.0000 0.0000 9.5561 0.0000 0.0000
# 5 0.0000 0.0000 0.0000 0.0000 -0.6777 0.0000
# 6 0.0000 0.0000 0.0000 0.0000 0.0000 14.2575
#
#
#
# Elastic Compliance Matrix: (Units=1/GPa)
#
#
# Indices 1 2 3 4 5 6 
#
# 1 0.032495 -0.000146 -0.024906 0.000000 0.000000 0.000000
# 2 -0.000146 0.010189 -0.002389 0.000000 0.000000 0.000000
# 3 -0.024906 -0.002389 0.027866 0.000000 0.000000 0.000000
# 4 0.000000 0.000000 0.000000 0.104646 0.000000 0.000000
# 5 0.000000 0.000000 0.000000 0.000000 -1.475605 0.000000
# 6 0.000000 0.000000 0.000000 0.000000 0.000000 0.070138
#
#
# Mechanical properties :
#
#
# Convention : Reuss Voigt Hill
#
# Bulk Modulus (GPa) = 63.82386 69.58121 66.70253
# Shear Modulus (GPa) = -4.27289 16.85116 6.28913
#
# Velocity S-wave (km/s) = -1.54422 3.06663 1.87345
# Velocity P-wave (km/s) = 5.69554 7.16733 6.47340
#
# Compressibility (1/GPa) = 0.01566812
#
# Stress axis : x y z
#
# Youngs Moduli (GPa) = 30.77443 98.14435 35.88581
#
# Poissons Ratio (x) = 0.01432 0.89376
# Poissons Ratio (y) = 0.00449 0.08574
# Poissons Ratio (z) = 0.76646 0.23450
#
# Static dielectric constant tensor:
#      x y z
#    x 1.578970 0.000000 0.000000 
#    y 0.000000 1.612450 0.000000 
#    z 0.000000 0.000000 1.627000 
# 
# From -- ./inp_files/16085.got.cif
#   From: 2010.05.17/outbox.cif.g08.bks.cpg/sg57_9_cif.got.tgz:16085.got - 2010.06.03 13:58:18.
