data_PCOD9436173
_publ_section_title
;
Structure prediction by ZEFSAII (Michael W. Deem and Ramdas Pophale) SiO2 
 PCOD9436173
Probable space group: P B C M
;
_chemical_formula_sum "Si O2"
_cell_formula_units_Z 64
_cell_length_a 24.359626
_cell_length_b 15.570824
_cell_length_c 8.422553
_cell_angle_alpha 90.000000
_cell_angle_beta 90.000000
_cell_angle_gamma 90.000000
_cell_volume 3194.669713
_symmetry_space_group_name_H-M "P B C M"
_symmetry_group_IT_number 57
_symmetry_cell_setting 'orthorhombic'
loop_
_space_group_symop_operation_xyz
x,y,z
-x,-y,1/2+z
x,1/2-y,-z
-x,1/2+y,1/2-z
-x,-y,-z
x,y,1/2-z
-x,1/2+y,z
x,1/2-y,1/2+z
loop_
_atom_site_type_symbol
_atom_site_label
_atom_site_fract_x
_atom_site_fract_y
_atom_site_fract_z
Si Si1 0.466401 0.918421 0.565651
Si Si2 0.951572 0.344761 0.559917
Si Si3 0.258418 0.981273 0.056876
Si Si4 0.351730 0.651734 0.560457
Si Si5 0.681081 0.847114 0.559328
Si Si6 0.864888 0.483438 0.441970
Si Si7 0.569939 0.840441 0.062236
Si Si8 0.922238 0.655870 0.441366
O O1 0.455616 0.568596 0.250000
O O2 0.410473 0.890126 0.484224
O O3 0.513937 0.849874 0.533557
O O4 0.500000 0.000000 0.500000
O O5 0.936243 0.250000 0.500000
O O6 0.950922 0.345775 0.750000
O O7 0.909682 0.414977 0.496477
O O8 0.014614 0.360642 0.506592
O O9 0.259528 0.977019 0.250000
O O10 0.303071 0.911006 0.000851
O O11 0.196649 0.962514 0.002621
O O12 0.274443 0.079802 0.018693
O O13 0.348753 0.750000 0.500000
O O14 0.348738 0.655191 0.750000
O O15 0.695968 0.750000 0.500000
O O16 0.674135 0.841807 0.750000
O O17 0.624493 0.891053 0.488948
O O18 0.864188 0.483810 0.250000
O O19 0.884026 0.578019 0.495513
O O20 0.560662 0.846407 0.250000
O O21 0.590989 0.750000 0.000000
O O22 0.905791 0.750000 0.500000
O O23 0.921971 0.657071 0.250000
#
# Coordination Sequence:
#
# PCOD9436173 Si02
#       8
#     8   8   8   8   8   8   8   8
#     4  12  24  39  59  86 115 145 181 229 285 346
#     4  10  20  35  55  84 115 150 189 234 286 343
#     4   9  21  39  59  80 111 152 195 238 290 345
#     4  11  23  42  63  85 114 155 200 246 294 347
#     4  10  19  35  57  83 114 151 190 237 292 352
#     4  10  20  37  58  83 113 151 193 241 291 341
#     4  11  21  35  55  81 109 140 176 219 270 331
#     4   9  19  34  56  84 119 154 189 230 284 345
#
# _framework density 20.033370000000001
#
# number of rings (size 3 to 8) (size 9 to 14) (size 15 to 20)
#    0.000    1.750    0.000    5.625    0.000    3.000 
#    0.000    5.625    0.000    0.000    0.000    0.000 
#    0.000    0.000    0.000    0.000    0.000    0.000 
#
# Total GULP energy -356890.998654 kJ/mol
# GULP energy per Si atom -5576.421854 kJ/mol
# Density = 1.998777 g / cm^3
# Si number density = 20.033370 Si / 1000 Ang^3
#
#
#
# Elastic Constant Matrix: (Units=GPa)
#
#
# Indices 1 2 3 4 5 6 
#
# 1 76.9005 53.5432 22.8953 0.0000 0.0000 0.0000
# 2 53.5432 118.4794 23.8528 0.0000 0.0000 0.0000
# 3 22.8953 23.8528 47.7444 0.0000 0.0000 0.0000
# 4 0.0000 0.0000 0.0000 31.3114 0.0000 0.0000
# 5 0.0000 0.0000 0.0000 0.0000 16.9499 0.0000
# 6 0.0000 0.0000 0.0000 0.0000 0.0000 7.5822
#
#
#
# Elastic Compliance Matrix: (Units=1/GPa)
#
#
# Indices 1 2 3 4 5 6 
#
# 1 0.020290 -0.008017 -0.005725 0.000000 0.000000 0.000000
# 2 -0.008017 0.012552 -0.002426 0.000000 0.000000 0.000000
# 3 -0.005725 -0.002426 0.024902 0.000000 0.000000 0.000000
# 4 0.000000 0.000000 0.000000 0.031937 0.000000 0.000000
# 5 0.000000 0.000000 0.000000 0.000000 0.058997 0.000000
# 6 0.000000 0.000000 0.000000 0.000000 0.000000 0.131888
#
#
# Mechanical properties :
#
#
# Convention : Reuss Voigt Hill
#
# Bulk Modulus (GPa) = 39.35737 49.30076 44.32906
# Shear Modulus (GPa) = 15.55827 20.69090 18.12459
#
# Velocity S-wave (km/s) = 2.78981 3.21724 3.01112
# Velocity P-wave (km/s) = 5.48324 6.20190 5.85361
#
# Compressibility (1/GPa) = 0.02540820
#
# Stress axis : x y z
#
# Youngs Moduli (GPa) = 49.28490 79.66973 40.15697
#
# Poissons Ratio (x) = 0.63871 0.22989
# Poissons Ratio (y) = 0.39512 0.09743
# Poissons Ratio (z) = 0.28214 0.19331
#
# Static dielectric constant tensor:
#      x y z
#    x 1.161880 0.000000 0.000000 
#    y 0.000000 1.813120 0.000000 
#    z 0.000000 0.000000 1.671860 
# 
# From -- ./inp_files/9511.got.cif
#   From: 2010.05.17/outbox.cif.g08.bks.cpg/sg57_5_cif.got.tgz:9511.got - 2010.06.03 13:58:18.
