data_PCOD9436962
_publ_section_title
;
Structure prediction by ZEFSAII (Michael W. Deem and Ramdas Pophale) SiO2 
 PCOD9436962
Probable space group: P B C M
;
_chemical_formula_sum "Si O2"
_cell_formula_units_Z 48
_cell_length_a 14.134129
_cell_length_b 11.764720
_cell_length_c 15.327290
_cell_angle_alpha 90.000000
_cell_angle_beta 90.000000
_cell_angle_gamma 90.000000
_cell_volume 2548.684165
_symmetry_space_group_name_H-M "P B C M"
_symmetry_group_IT_number 57
_symmetry_cell_setting 'orthorhombic'
loop_
_space_group_symop_operation_xyz
x,y,z
-x,-y,1/2+z
x,1/2-y,-z
-x,1/2+y,1/2-z
-x,-y,-z
x,y,1/2-z
-x,1/2+y,z
x,1/2-y,1/2+z
loop_
_atom_site_type_symbol
_atom_site_label
_atom_site_fract_x
_atom_site_fract_y
_atom_site_fract_z
Si Si1 0.363779 0.483787 0.075432
Si Si2 0.542369 0.148196 0.564845
Si Si3 0.843937 0.913932 0.471078
Si Si4 0.705166 0.211187 0.347480
Si Si5 0.904041 0.332735 0.925894
Si Si6 0.095048 0.207685 0.148391
O O1 0.448631 0.403690 0.107462
O O2 0.268399 0.420725 0.047410
O O3 0.335108 0.583714 0.141413
O O4 0.405870 0.551256 0.991955
O O5 0.511768 0.250000 0.500000
O O6 0.623028 0.203737 0.623752
O O7 0.861605 0.872541 0.570778
O O8 0.885761 0.830869 0.396051
O O9 0.888075 0.038901 0.457716
O O10 0.733057 0.234744 0.250000
O O11 0.800812 0.215226 0.402554
O O12 0.983639 0.323630 0.852366
O O13 0.943259 0.250000 0.000000
O O14 0.128796 0.200788 0.250000
#
# Coordination Sequence:
#
# PCOD9436962 Si02
#       6
#     8   8   8   8   8   8
#     4   9  19  36  61  79 111 153 197 232 294 355
#     4   9  18  35  59  84 105 149 196 237 281 349
#     4  10  22  41  62  87 122 162 198 251 302 359
#     4  10  20  34  55  87 118 149 190 243 296 348
#     4  11  21  41  64  86 116 160 205 245 298 359
#     4  11  24  39  60  91 122 160 204 248 301 358
#
# _framework density 18.833248000000001
#
# number of rings (size 3 to 8) (size 9 to 14) (size 15 to 20)
#    0.000    2.000    1.667    3.500    2.333    4.000 
#    0.000    3.333    0.000    0.000    0.000    0.000 
#    0.000    0.000    0.000    0.000    0.000    0.000 
#
# Total GULP energy -267420.383262 kJ/mol
# GULP energy per Si atom -5571.257985 kJ/mol
# Density = 1.879038 g / cm^3
# Si number density = 18.833248 Si / 1000 Ang^3
#
#
#
# Elastic Constant Matrix: (Units=GPa)
#
#
# Indices 1 2 3 4 5 6 
#
# 1 108.5129 45.2713 18.4392 0.0000 0.0000 0.0000
# 2 45.2713 73.1023 36.1092 0.0000 0.0000 0.0000
# 3 18.4392 36.1092 106.7678 0.0000 0.0000 0.0000
# 4 0.0000 0.0000 0.0000 0.7514 0.0000 0.0000
# 5 0.0000 0.0000 0.0000 0.0000 -0.4126 0.0000
# 6 0.0000 0.0000 0.0000 0.0000 0.0000 17.7208
#
#
#
# Elastic Compliance Matrix: (Units=1/GPa)
#
#
# Indices 1 2 3 4 5 6 
#
# 1 0.012453 -0.007983 0.000549 0.000000 0.000000 0.000000
# 2 -0.007983 0.021541 -0.005906 0.000000 0.000000 0.000000
# 3 0.000549 -0.005906 0.011269 0.000000 0.000000 0.000000
# 4 0.000000 0.000000 0.000000 1.330835 0.000000 0.000000
# 5 0.000000 0.000000 0.000000 0.000000 -2.423668 0.000000
# 6 0.000000 0.000000 0.000000 0.000000 0.000000 0.056431
#
#
# Mechanical properties :
#
#
# Convention : Reuss Voigt Hill
#
# Bulk Modulus (GPa) = 53.81616 54.22471 54.02044
# Shear Modulus (GPa) = -5.21776 16.18281 5.48252
#
# Velocity S-wave (km/s) = -1.66629 2.93451 1.70804
# Velocity P-wave (km/s) = 4.99350 6.35109 5.71277
#
# Compressibility (1/GPa) = 0.01858178
#
# Stress axis : x y z
#
# Youngs Moduli (GPa) = 80.30391 46.42351 88.74037
#
# Poissons Ratio (x) = 0.37060 -0.04874
# Poissons Ratio (y) = 0.64108 0.52414
# Poissons Ratio (z) = -0.04411 0.27420
#
# Static dielectric constant tensor:
#      x y z
#    x 1.676300 0.000000 0.000000 
#    y 0.000000 1.661140 0.000000 
#    z 0.000000 0.000000 1.626210 
# 
# From -- ./inp_files/18419.got.cif
#   From: 2010.05.17/outbox.cif.g08.bks.cpg/sg57_10_cif.got.tgz:18419.got - 2010.06.03 13:58:18.
