data_PCOD9436517
_publ_section_title
;
Structure prediction by ZEFSAII (Michael W. Deem and Ramdas Pophale) SiO2 
 PCOD9436517
Probable space group: P B C M
;
_chemical_formula_sum "Si O2"
_cell_formula_units_Z 56
_cell_length_a 14.176351
_cell_length_b 24.826775
_cell_length_c 8.767047
_cell_angle_alpha 90.000000
_cell_angle_beta 90.000000
_cell_angle_gamma 90.000000
_cell_volume 3085.589164
_symmetry_space_group_name_H-M "P B C M"
_symmetry_group_IT_number 57
_symmetry_cell_setting 'orthorhombic'
loop_
_space_group_symop_operation_xyz
x,y,z
-x,-y,1/2+z
x,1/2-y,-z
-x,1/2+y,1/2-z
-x,-y,-z
x,y,1/2-z
-x,1/2+y,z
x,1/2-y,1/2+z
loop_
_atom_site_type_symbol
_atom_site_label
_atom_site_fract_x
_atom_site_fract_y
_atom_site_fract_z
Si Si1 0.334201 0.585021 0.932915
Si Si2 0.774532 0.307749 0.066172
Si Si3 0.829546 0.627255 0.933938
Si Si4 0.718281 0.977042 0.432676
Si Si5 0.008124 0.807994 0.065999
Si Si6 0.541627 0.914322 0.931516
Si Si7 0.343944 0.307713 0.569276
O O1 0.339951 0.583612 0.750000
O O2 0.289687 0.642097 0.980816
O O3 0.272063 0.535056 0.991079
O O4 0.437824 0.578353 0.003264
O O5 0.772368 0.304565 0.250000
O O6 0.883578 0.317725 0.019029
O O7 0.745102 0.250000 0.000000
O O8 0.824915 0.629190 0.750000
O O9 0.796227 0.567428 0.979593
O O10 0.932959 0.646896 0.981916
O O11 0.752082 0.668644 0.998046
O O12 0.718283 0.982011 0.250000
O O13 0.618444 0.952167 0.487453
O O14 0.006501 0.805002 0.250000
O O15 0.979174 0.750000 0.000000
O O16 0.543531 0.924569 0.750000
O O17 0.577014 0.853164 0.959313
O O18 0.367338 0.250000 0.500000
O O19 0.331620 0.302630 0.750000
#
# Coordination Sequence:
#
# PCOD9436517 Si02
#       7
#     8   8   8   8   8   8   8
#     4  11  22  36  54  75 100 134 170 208 254 300
#     4   9  20  37  56  77 103 133 168 210 253 297
#     4   9  18  32  52  76 103 134 168 206 250 298
#     4  10  20  35  54  77 104 134 168 208 250 299
#     4   9  17  32  53  77 103 133 168 206 249 298
#     4  10  21  36  53  74 100 134 173 213 253 299
#     4  10  20  32  48  72 104 136 167 205 252 303
#
# _framework density 18.148883999999999
#
# number of rings (size 3 to 8) (size 9 to 14) (size 15 to 20)
#    0.000    2.286    0.000    2.571    0.000    5.714 
#    0.000    3.571    0.000    0.000    0.000    0.000 
#    0.000    0.000    0.000    0.000    0.000    0.000 
#
# Total GULP energy -312555.841649 kJ/mol
# GULP energy per Si atom -5581.354315 kJ/mol
# Density = 1.810758 g / cm^3
# Si number density = 18.148884 Si / 1000 Ang^3
#
#
#
# Elastic Constant Matrix: (Units=GPa)
#
#
# Indices 1 2 3 4 5 6 
#
# 1 36.6379 26.1296 3.6340 0.0000 0.0000 0.0000
# 2 26.1296 112.9188 20.5576 0.0000 0.0000 0.0000
# 3 3.6340 20.5576 19.5214 0.0000 0.0000 0.0000
# 4 0.0000 0.0000 0.0000 31.4235 0.0000 0.0000
# 5 0.0000 0.0000 0.0000 0.0000 16.8698 0.0000
# 6 0.0000 0.0000 0.0000 0.0000 0.0000 18.3707
#
#
#
# Elastic Compliance Matrix: (Units=1/GPa)
#
#
# Indices 1 2 3 4 5 6 
#
# 1 0.032774 -0.008009 0.002333 0.000000 0.000000 0.000000
# 2 -0.008009 0.012914 -0.012108 0.000000 0.000000 0.000000
# 3 0.002333 -0.012108 0.063542 0.000000 0.000000 0.000000
# 4 0.000000 0.000000 0.000000 0.031823 0.000000 0.000000
# 5 0.000000 0.000000 0.000000 0.000000 0.059278 0.000000
# 6 0.000000 0.000000 0.000000 0.000000 0.000000 0.054435
#
#
# Mechanical properties :
#
#
# Convention : Reuss Voigt Hill
#
# Bulk Modulus (GPa) = 13.57550 29.96895 21.77222
# Shear Modulus (GPa) = 15.87866 21.24992 18.56429
#
# Velocity S-wave (km/s) = 2.96110 3.42550 3.20173
# Velocity P-wave (km/s) = 4.38031 5.67399 5.06859
#
# Compressibility (1/GPa) = 0.07366211
#
# Stress axis : x y z
#
# Youngs Moduli (GPa) = 30.51154 77.43822 15.73755
#
# Poissons Ratio (x) = 0.62018 -0.03671
# Poissons Ratio (y) = 0.24436 0.19055
# Poissons Ratio (z) = -0.07118 0.93763
#
# Static dielectric constant tensor:
#      x y z
#    x 1.614420 0.000000 0.000000 
#    y 0.000000 1.626850 0.000000 
#    z 0.000000 0.000000 1.605580 
# 
# From -- ./inp_files/5167.got.cif
#   From: 2010.05.17/outbox.cif.g08.bks.cpg/sg57_3_cif.got.tgz:5167.got - 2010.06.03 13:58:18.
