data_PCOD9436398
_publ_section_title
;
Structure prediction by ZEFSAII (Michael W. Deem and Ramdas Pophale) SiO2 
 PCOD9436398
Probable space group: P B C M
;
_chemical_formula_sum "Si O2"
_cell_formula_units_Z 64
_cell_length_a 7.750092
_cell_length_b 24.432949
_cell_length_c 16.829863
_cell_angle_alpha 90.000000
_cell_angle_beta 90.000000
_cell_angle_gamma 90.000000
_cell_volume 3186.862509
_symmetry_space_group_name_H-M "P B C M"
_symmetry_group_IT_number 57
_symmetry_cell_setting 'orthorhombic'
loop_
_space_group_symop_operation_xyz
x,y,z
-x,-y,1/2+z
x,1/2-y,-z
-x,1/2+y,1/2-z
-x,-y,-z
x,y,1/2-z
-x,1/2+y,z
x,1/2-y,1/2+z
loop_
_atom_site_type_symbol
_atom_site_label
_atom_site_fract_x
_atom_site_fract_y
_atom_site_fract_z
Si Si1 0.399788 0.244784 0.839969
Si Si2 0.542664 0.127627 0.613624
Si Si3 0.419927 0.162104 0.045331
Si Si4 0.961890 0.004085 0.406857
Si Si5 0.604015 0.985634 0.344470
Si Si6 0.712681 0.565367 0.156163
Si Si7 0.898346 0.792092 0.060579
Si Si8 0.929060 0.113181 0.840887
O O1 0.414725 0.264109 0.750000
O O2 0.478382 0.184150 0.847763
O O3 0.483379 0.286472 0.903002
O O4 0.201211 0.239675 0.868736
O O5 0.552619 0.138657 0.519204
O O6 0.413319 0.077220 0.627973
O O7 0.723090 0.111161 0.651646
O O8 0.352048 0.116404 0.105175
O O9 0.257974 0.182133 0.991559
O O10 0.761563 0.015124 0.388910
O O11 0.998213 0.945341 0.366655
O O12 0.000000 0.000000 0.500000
O O13 0.097047 0.046519 0.369562
O O14 0.635926 0.986851 0.250000
O O15 0.423488 0.016336 0.359905
O O16 0.708875 0.576852 0.250000
O O17 0.007630 0.839644 0.099888
O O18 0.988843 0.750000 0.000000
O O19 0.980065 0.125023 0.750000
#
# Coordination Sequence:
#
# PCOD9436398 Si02
#       8
#     8   8   8   8   8   8   8   8
#     4  10  19  37  62  87 116 157 203 249 307 372
#     4  11  22  37  61  89 122 154 206 258 313 366
#     4  10  22  39  59  87 120 159 203 250 308 370
#     4  12  25  39  63  91 126 164 208 257 316 369
#     4  11  23  40  63  91 123 161 204 257 311 363
#     4  11  23  41  63  90 125 164 208 253 306 375
#     4   9  20  37  58  86 119 155 203 252 309 373
#     4  12  23  38  60  90 123 160 205 262 315 370
#
# _framework density 20.082447999999999
#
# number of rings (size 3 to 8) (size 9 to 14) (size 15 to 20)
#    0.000    1.250    1.250    7.125    1.750    2.000 
#    0.000    0.000    0.000    0.000    0.000    0.000 
#    0.000    0.000    0.000    0.000    0.000    0.000 
#
# Total GULP energy -357687.899164 kJ/mol
# GULP energy per Si atom -5588.873424 kJ/mol
# Density = 2.003674 g / cm^3
# Si number density = 20.082448 Si / 1000 Ang^3
#
#
#
# Elastic Constant Matrix: (Units=GPa)
#
#
# Indices 1 2 3 4 5 6 
#
# 1 40.3897 -8.1913 10.2715 0.0000 0.0000 0.0000
# 2 -8.1913 60.2768 24.7944 0.0000 0.0000 0.0000
# 3 10.2715 24.7944 114.8831 0.0000 0.0000 0.0000
# 4 0.0000 0.0000 0.0000 32.0285 0.0000 0.0000
# 5 0.0000 0.0000 0.0000 0.0000 20.6076 0.0000
# 6 0.0000 0.0000 0.0000 0.0000 0.0000 16.4563
#
#
#
# Elastic Compliance Matrix: (Units=1/GPa)
#
#
# Indices 1 2 3 4 5 6 
#
# 1 0.026667 0.005053 -0.003475 0.000000 0.000000 0.000000
# 2 0.005053 0.019164 -0.004588 0.000000 0.000000 0.000000
# 3 -0.003475 -0.004588 0.010005 0.000000 0.000000 0.000000
# 4 0.000000 0.000000 0.000000 0.031222 0.000000 0.000000
# 5 0.000000 0.000000 0.000000 0.000000 0.048526 0.000000
# 6 0.000000 0.000000 0.000000 0.000000 0.000000 0.060767
#
#
# Mechanical properties :
#
#
# Convention : Reuss Voigt Hill
#
# Bulk Modulus (GPa) = 20.07313 29.92209 24.99761
# Shear Modulus (GPa) = 22.83352 26.39682 24.61517
#
# Velocity S-wave (km/s) = 3.37558 3.62943 3.50481
# Velocity P-wave (km/s) = 5.02094 5.70050 5.37147
#
# Compressibility (1/GPa) = 0.04981784
#
# Stress axis : x y z
#
# Youngs Moduli (GPa) = 37.49907 52.18112 99.94655
#
# Poissons Ratio (x) = -0.26369 0.34730
# Poissons Ratio (y) = -0.18949 0.45854
# Poissons Ratio (z) = 0.13031 0.23940
#
# Static dielectric constant tensor:
#      x y z
#    x 1.718480 0.000000 0.000000 
#    y 0.000000 1.714170 0.000000 
#    z 0.000000 0.000000 1.712790 
# 
# From -- ./inp_files/16995.got.cif
#   From: 2010.05.17/outbox.cif.g08.bks.cpg/sg57_9_cif.got.tgz:16995.got - 2010.06.03 13:58:18.
