data_PCOD9436020
_publ_section_title
;
Structure prediction by ZEFSAII (Michael W. Deem and Ramdas Pophale) SiO2 
 PCOD9436020
Probable space group: P B C M
;
_chemical_formula_sum "Si O2"
_cell_formula_units_Z 56
_cell_length_a 21.758599
_cell_length_b 14.481056
_cell_length_c 8.940591
_cell_angle_alpha 90.000000
_cell_angle_beta 90.000000
_cell_angle_gamma 90.000000
_cell_volume 2817.068383
_symmetry_space_group_name_H-M "P B C M"
_symmetry_group_IT_number 57
_symmetry_cell_setting 'orthorhombic'
loop_
_space_group_symop_operation_xyz
x,y,z
-x,-y,1/2+z
x,1/2-y,-z
-x,1/2+y,1/2-z
-x,-y,-z
x,y,1/2-z
-x,1/2+y,z
x,1/2-y,1/2+z
loop_
_atom_site_type_symbol
_atom_site_label
_atom_site_fract_x
_atom_site_fract_y
_atom_site_fract_z
Si Si1 0.589591 0.537341 0.927802
Si Si2 0.836185 0.849486 0.929796
Si Si3 0.065968 0.476723 0.431118
Si Si4 0.871303 0.338888 0.917258
Si Si5 0.535709 0.147610 0.570759
Si Si6 0.276393 0.841818 0.920346
Si Si7 0.713207 0.962001 0.572068
O O1 0.594106 0.524916 0.750000
O O2 0.533166 0.607301 0.957206
O O3 0.576117 0.436443 0.001379
O O4 0.652632 0.577794 0.993425
O O5 0.840693 0.845982 0.750000
O O6 0.777294 0.913352 0.969765
O O7 0.824811 0.750000 0.000000
O O8 0.898803 0.889956 0.999401
O O9 0.063593 0.468847 0.250000
O O10 0.108269 0.563590 0.479476
O O11 0.000000 0.500000 0.500000
O O12 0.895499 0.335540 0.750000
O O13 0.797725 0.332704 0.912584
O O14 0.895974 0.250000 0.000000
O O15 0.543589 0.250000 0.500000
O O16 0.545878 0.152481 0.750000
O O17 0.299183 0.850835 0.750000
O O18 0.301066 0.750000 0.000000
O O19 0.286073 0.932579 0.016786
O O20 0.706813 0.957302 0.750000
#
# Coordination Sequence:
#
# PCOD9436020 Si02
#       7
#     8   8   8   8   8   8   8
#     4  10  22  39  61  90 123 162 206 253 304 360
#     4  11  25  44  66  91 122 163 208 256 310 366
#     4  11  23  41  63  90 122 159 203 252 306 363
#     4   9  19  34  56  83 112 146 185 232 288 349
#     4  10  21  39  63  90 123 162 205 254 306 360
#     4  10  19  34  56  84 116 151 191 237 294 358
#     4  11  23  39  61  90 124 161 204 253 305 364
#
# _framework density 19.878822
#
# number of rings (size 3 to 8) (size 9 to 14) (size 15 to 20)
#    0.000    1.714    1.429    2.571    0.000    6.857 
#    0.000    7.143    0.000    0.000    0.000    0.000 
#    0.000    0.000    0.000    0.000    0.000    0.000 
#
# Total GULP energy -312640.648376 kJ/mol
# GULP energy per Si atom -5582.868721 kJ/mol
# Density = 1.983358 g / cm^3
# Si number density = 19.878822 Si / 1000 Ang^3
#
#
#
# Elastic Constant Matrix: (Units=GPa)
#
#
# Indices 1 2 3 4 5 6 
#
# 1 105.3370 32.6883 50.3154 0.0000 0.0000 0.0000
# 2 32.6883 95.5472 34.6523 0.0000 0.0000 0.0000
# 3 50.3154 34.6523 71.0382 0.0000 0.0000 0.0000
# 4 0.0000 0.0000 0.0000 33.8605 0.0000 0.0000
# 5 0.0000 0.0000 0.0000 0.0000 29.3848 0.0000
# 6 0.0000 0.0000 0.0000 0.0000 0.0000 6.5991
#
#
#
# Elastic Compliance Matrix: (Units=1/GPa)
#
#
# Indices 1 2 3 4 5 6 
#
# 1 0.014523 -0.001504 -0.009553 0.000000 0.000000 0.000000
# 2 -0.001504 0.012871 -0.005213 0.000000 0.000000 0.000000
# 3 -0.009553 -0.005213 0.023386 0.000000 0.000000 0.000000
# 4 0.000000 0.000000 0.000000 0.029533 0.000000 0.000000
# 5 0.000000 0.000000 0.000000 0.000000 0.034031 0.000000
# 6 0.000000 0.000000 0.000000 0.000000 0.000000 0.151536
#
#
# Mechanical properties :
#
#
# Convention : Reuss Voigt Hill
#
# Bulk Modulus (GPa) = 54.82414 56.35938 55.59176
# Shear Modulus (GPa) = 16.42029 24.25330 20.33680
#
# Velocity S-wave (km/s) = 2.87717 3.49672 3.20197
# Velocity P-wave (km/s) = 6.21905 6.68698 6.45726
#
# Compressibility (1/GPa) = 0.01824014
#
# Stress axis : x y z
#
# Youngs Moduli (GPa) = 68.85581 77.69212 42.76037
#
# Poissons Ratio (x) = 0.11685 0.40848
# Poissons Ratio (y) = 0.10356 0.22292
# Poissons Ratio (z) = 0.65777 0.40503
#
# Static dielectric constant tensor:
#      x y z
#    x 1.726660 0.000000 0.000000 
#    y 0.000000 1.715760 0.000000 
#    z 0.000000 0.000000 1.474070 
# 
# From -- ./inp_files/8191.got.cif
#   From: 2010.05.17/outbox.cif.g08.bks.cpg/sg57_5_cif.got.tgz:8191.got - 2010.06.03 13:58:18.
