data_PCOD9436548
_publ_section_title
;
Structure prediction by ZEFSAII (Michael W. Deem and Ramdas Pophale) SiO2 
 PCOD9436548
Probable space group: P B C M
;
_chemical_formula_sum "Si O2"
_cell_formula_units_Z 64
_cell_length_a 14.940236
_cell_length_b 9.717337
_cell_length_c 24.759371
_cell_angle_alpha 90.000000
_cell_angle_beta 90.000000
_cell_angle_gamma 90.000000
_cell_volume 3594.548350
_symmetry_space_group_name_H-M "P B C M"
_symmetry_group_IT_number 57
_symmetry_cell_setting 'orthorhombic'
loop_
_space_group_symop_operation_xyz
x,y,z
-x,-y,1/2+z
x,1/2-y,-z
-x,1/2+y,1/2-z
-x,-y,-z
x,y,1/2-z
-x,1/2+y,z
x,1/2-y,1/2+z
loop_
_atom_site_type_symbol
_atom_site_label
_atom_site_fract_x
_atom_site_fract_y
_atom_site_fract_z
Si Si1 0.594944 0.760110 0.063348
Si Si2 0.192833 0.246341 0.934427
Si Si3 0.187757 0.737809 0.186101
Si Si4 0.509253 0.502381 0.374360
Si Si5 0.882971 0.026047 0.609372
Si Si6 0.923674 0.390193 0.997650
Si Si7 0.902502 0.015816 0.113623
Si Si8 0.400215 0.744236 0.314185
O O1 0.701329 0.777650 0.069474
O O2 0.566071 0.614988 0.091271
O O3 0.548054 0.895474 0.088966
O O4 0.572470 0.750000 0.000000
O O5 0.166815 0.384173 0.902329
O O6 0.138594 0.130595 0.901721
O O7 0.173936 0.250000 0.000000
O O8 0.172405 0.747962 0.250000
O O9 0.150690 0.873100 0.155727
O O10 0.138612 0.602740 0.162223
O O11 0.294076 0.729719 0.176225
O O12 0.448814 0.608726 0.339037
O O13 0.566004 0.390187 0.339476
O O14 0.867422 0.099073 0.551334
O O15 0.989545 0.997427 0.617386
O O16 0.876517 0.401610 0.940948
O O17 0.975950 0.250000 0.000000
O O18 0.000000 0.500000 0.000000
O O19 0.416839 0.747641 0.250000
#
# Coordination Sequence:
#
# PCOD9436548 Si02
#       8
#     8   8   8   8   8   8   8   8
#     4  10  21  36  55  83 116 150 181 216 281 351
#     4  11  22  34  55  88 117 143 182 240 289 340
#     4  11  24  41  57  80 117 157 194 237 280 336
#     4  10  20  38  62  82 110 144 184 232 284 350
#     4  11  22  36  58  83 116 152 194 237 283 335
#     4  10  20  32  56  84 112 141 190 242 296 327
#     4  11  22  36  58  83 116 152 194 237 283 335
#     4  10  21  38  62  86 109 140 188 242 289 332
#
# _framework density 17.804741
#
# number of rings (size 3 to 8) (size 9 to 14) (size 15 to 20)
#    0.000    1.500    2.500    3.000    5.250    0.500 
#    0.000    0.625    2.750    4.500    0.000    0.000 
#    0.000    0.000    0.000    0.000    0.000    0.000 
#
# Total GULP energy -356386.499682 kJ/mol
# GULP energy per Si atom -5568.539058 kJ/mol
# Density = 1.776422 g / cm^3
# Si number density = 17.804741 Si / 1000 Ang^3
#
#
#
# Elastic Constant Matrix: (Units=GPa)
#
#
# Indices 1 2 3 4 5 6 
#
# 1 47.9880 -15.9232 25.9558 0.0000 0.0000 0.0000
# 2 -15.9232 72.8783 6.9293 0.0000 0.0000 0.0000
# 3 25.9558 6.9293 92.7188 0.0000 0.0000 0.0000
# 4 0.0000 0.0000 0.0000 32.0623 0.0000 0.0000
# 5 0.0000 0.0000 0.0000 0.0000 12.8515 0.0000
# 6 0.0000 0.0000 0.0000 0.0000 0.0000 26.2236
#
#
#
# Elastic Compliance Matrix: (Units=1/GPa)
#
#
# Indices 1 2 3 4 5 6 
#
# 1 0.027539 0.006798 -0.008217 0.000000 0.000000 0.000000
# 2 0.006798 0.015498 -0.003061 0.000000 0.000000 0.000000
# 3 -0.008217 -0.003061 0.013314 0.000000 0.000000 0.000000
# 4 0.000000 0.000000 0.000000 0.031189 0.000000 0.000000
# 5 0.000000 0.000000 0.000000 0.000000 0.077812 0.000000
# 6 0.000000 0.000000 0.000000 0.000000 0.000000 0.038134
#
#
# Mechanical properties :
#
#
# Convention : Reuss Voigt Hill
#
# Bulk Modulus (GPa) = 21.10127 27.50099 24.30113
# Shear Modulus (GPa) = 21.90640 27.33570 24.62105
#
# Velocity S-wave (km/s) = 3.51147 3.92255 3.72269
# Velocity P-wave (km/s) = 5.32144 5.99955 5.67064
#
# Compressibility (1/GPa) = 0.04739051
#
# Stress axis : x y z
#
# Youngs Moduli (GPa) = 36.31223 64.52474 75.10638
#
# Poissons Ratio (x) = -0.43866 0.61717
# Poissons Ratio (y) = -0.24686 0.22993
# Poissons Ratio (z) = 0.29839 0.19753
#
# Static dielectric constant tensor:
#      x y z
#    x 1.600420 0.000000 0.000000 
#    y 0.000000 1.677900 0.000000 
#    z 0.000000 0.000000 1.628990 
# 
# From -- ./inp_files/27501.got.cif
#   From: 2010.05.17/outbox.cif.g08.bks.cpg/sg57_14_cif.got.tgz:27501.got - 2010.06.03 13:58:18.
