data_PCOD9436071
_publ_section_title
;
Structure prediction by ZEFSAII (Michael W. Deem and Ramdas Pophale) SiO2 
 PCOD9436071
Probable space group: P B C M
;
_chemical_formula_sum "Si O2"
_cell_formula_units_Z 48
_cell_length_a 12.385353
_cell_length_b 21.796895
_cell_length_c 9.138659
_cell_angle_alpha 90.000000
_cell_angle_beta 90.000000
_cell_angle_gamma 90.000000
_cell_volume 2467.092844
_symmetry_space_group_name_H-M "P B C M"
_symmetry_group_IT_number 57
_symmetry_cell_setting 'orthorhombic'
loop_
_space_group_symop_operation_xyz
x,y,z
-x,-y,1/2+z
x,1/2-y,-z
-x,1/2+y,1/2-z
-x,-y,-z
x,y,1/2-z
-x,1/2+y,z
x,1/2-y,1/2+z
loop_
_atom_site_type_symbol
_atom_site_label
_atom_site_fract_x
_atom_site_fract_y
_atom_site_fract_z
Si Si1 0.730838 0.082933 0.575473
Si Si2 0.901874 0.190437 0.577696
Si Si3 0.108448 0.483096 0.582955
Si Si4 0.124103 0.337560 0.581642
Si Si5 0.368788 0.187346 0.426760
Si Si6 0.489852 0.567628 0.425570
O O1 0.704259 0.082249 0.750000
O O2 0.824370 0.132801 0.550144
O O3 0.785695 0.018622 0.530801
O O4 0.625378 0.092872 0.480161
O O5 0.854310 0.250000 0.500000
O O6 0.908483 0.199713 0.750000
O O7 0.021592 0.180950 0.513787
O O8 0.093056 0.504150 0.750000
O O9 0.126260 0.411139 0.581049
O O10 0.000000 0.500000 0.500000
O O11 0.107352 0.316965 0.750000
O O12 0.242084 0.316708 0.531859
O O13 0.413345 0.250000 0.500000
O O14 0.375603 0.192728 0.250000
O O15 0.425476 0.122194 0.465518
O O16 0.500000 0.500000 0.500000
O O17 0.495376 0.559700 0.250000
#
# Coordination Sequence:
#
# PCOD9436071 Si02
#       6
#     8   8   8   8   8   8
#     4  10  22  40  60  86 121 156 194 244 299 356
#     4  11  23  38  57  83 119 158 197 243 293 354
#     4  10  19  34  57  86 121 155 191 241 296 357
#     4  10  20  36  60  87 120 156 194 246 301 360
#     4  10  23  42  63  90 123 162 208 261 316 370
#     4  11  24  43  67  93 124 161 207 260 314 373
#
# _framework density 19.456098999999998
#
# number of rings (size 3 to 8) (size 9 to 14) (size 15 to 20)
#    0.000    1.667    1.667    2.500    0.000    8.667 
#    0.000    5.000    0.000    0.000    0.000    0.000 
#    0.000    0.000    0.000    0.000    0.000    0.000 
#
# Total GULP energy -267948.278328 kJ/mol
# GULP energy per Si atom -5582.255799 kJ/mol
# Density = 1.941182 g / cm^3
# Si number density = 19.456099 Si / 1000 Ang^3
#
#
#
# Elastic Constant Matrix: (Units=GPa)
#
#
# Indices 1 2 3 4 5 6 
#
# 1 98.6517 39.1144 41.3417 0.0000 0.0000 0.0000
# 2 39.1144 114.2386 41.9472 0.0000 0.0000 0.0000
# 3 41.3417 41.9472 53.2479 0.0000 0.0000 0.0000
# 4 0.0000 0.0000 0.0000 33.8340 0.0000 0.0000
# 5 0.0000 0.0000 0.0000 0.0000 29.2884 0.0000
# 6 0.0000 0.0000 0.0000 0.0000 0.0000 12.4206
#
#
#
# Elastic Compliance Matrix: (Units=1/GPa)
#
#
# Indices 1 2 3 4 5 6 
#
# 1 0.015146 -0.001221 -0.010797 0.000000 0.000000 0.000000
# 2 -0.001221 0.012415 -0.008832 0.000000 0.000000 0.000000
# 3 -0.010797 -0.008832 0.034120 0.000000 0.000000 0.000000
# 4 0.000000 0.000000 0.000000 0.029556 0.000000 0.000000
# 5 0.000000 0.000000 0.000000 0.000000 0.034143 0.000000
# 6 0.000000 0.000000 0.000000 0.000000 0.000000 0.080512
#
#
# Mechanical properties :
#
#
# Convention : Reuss Voigt Hill
#
# Bulk Modulus (GPa) = 50.04856 56.77163 53.41010
# Shear Modulus (GPa) = 19.66557 24.69092 22.17824
#
# Velocity S-wave (km/s) = 3.18270 3.56625 3.37992
# Velocity P-wave (km/s) = 6.26784 6.79707 6.53781
#
# Compressibility (1/GPa) = 0.01998059
#
# Stress axis : x y z
#
# Youngs Moduli (GPa) = 66.02619 80.54988 29.30806
#
# Poissons Ratio (x) = 0.09837 0.31644
# Poissons Ratio (y) = 0.08063 0.25884
# Poissons Ratio (z) = 0.71288 0.71140
#
# Static dielectric constant tensor:
#      x y z
#    x 1.673230 0.000000 0.000000 
#    y 0.000000 1.723350 0.000000 
#    z 0.000000 0.000000 1.669030 
# 
# From -- ./inp_files/3107.got.cif
#   From: 2010.05.17/outbox.cif.g08.bks.cpg/sg57_2_cif.got.tgz:3107.got - 2010.06.03 13:58:18.
