data_PCOD9436505
_publ_section_title
;
Structure prediction by ZEFSAII (Michael W. Deem and Ramdas Pophale) SiO2 
 PCOD9436505
Probable space group: P B C M
;
_chemical_formula_sum "Si O2"
_cell_formula_units_Z 56
_cell_length_a 20.783946
_cell_length_b 14.056305
_cell_length_c 8.768692
_cell_angle_alpha 90.000000
_cell_angle_beta 90.000000
_cell_angle_gamma 90.000000
_cell_volume 2561.733769
_symmetry_space_group_name_H-M "P B C M"
_symmetry_group_IT_number 57
_symmetry_cell_setting 'orthorhombic'
loop_
_space_group_symop_operation_xyz
x,y,z
-x,-y,1/2+z
x,1/2-y,-z
-x,1/2+y,1/2-z
-x,-y,-z
x,y,1/2-z
-x,1/2+y,z
x,1/2-y,1/2+z
loop_
_atom_site_type_symbol
_atom_site_label
_atom_site_fract_x
_atom_site_fract_y
_atom_site_fract_z
Si Si1 0.317100 0.151567 0.572872
Si Si2 0.882855 0.654980 0.568628
Si Si3 0.845215 0.439685 0.933313
Si Si4 0.553433 0.620454 0.080242
Si Si5 0.712366 0.446042 0.067423
Si Si6 0.014483 0.896204 0.566200
Si Si7 0.425220 0.607837 0.576880
O O1 0.293744 0.250000 0.500000
O O2 0.301010 0.147937 0.750000
O O3 0.394070 0.150612 0.543395
O O4 0.293234 0.054316 0.494645
O O5 0.851780 0.750000 0.500000
O O6 0.878813 0.658617 0.750000
O O7 0.856253 0.551156 0.519886
O O8 0.957152 0.657581 0.516179
O O9 0.839038 0.439332 0.750000
O O10 0.910218 0.381239 0.971157
O O11 0.779617 0.405400 0.008676
O O12 0.569800 0.656123 0.250000
O O13 0.560461 0.505797 0.087059
O O14 0.481334 0.645192 0.031292
O O15 0.710615 0.449648 0.250000
O O16 0.648178 0.388580 0.018819
O O17 0.007387 0.892127 0.750000
O O18 0.000000 0.000000 0.500000
O O19 0.429764 0.645589 0.750000
#
# Coordination Sequence:
#
# PCOD9436505 Si02
#       7
#     8   8   8   8   8   8   8
#     4  11  21  33  47  63  90 124 157 193 232 277
#     4  10  20  33  50  73  99 128 163 202 243 288
#     4   9  19  33  48  69  98 131 164 197 239 289
#     4   9  16  27  44  65  86 111 147 187 227 267
#     4  10  20  32  47  68  94 124 158 192 228 274
#     4   9  17  31  50  71  96 125 159 200 242 286
#     4   8  15  27  42  63  88 113 144 183 225 265
#
# _framework density 21.860195000000001
#
# number of rings (size 3 to 8) (size 9 to 14) (size 15 to 20)
#    0.000    2.571    0.000    4.714    0.000    8.000 
#    0.000    1.429    0.000    0.000    0.000    1.000 
#    0.000    2.286    0.000    0.000    0.000    0.000 
#
# Total GULP energy -312429.297245 kJ/mol
# GULP energy per Si atom -5579.094594 kJ/mol
# Density = 2.181044 g / cm^3
# Si number density = 21.860195 Si / 1000 Ang^3
#
#
#
# Elastic Constant Matrix: (Units=GPa)
#
#
# Indices 1 2 3 4 5 6 
#
# 1 161.9190 -14.4286 20.2981 0.0000 0.0000 0.0000
# 2 -14.4286 26.5931 -7.1499 0.0000 0.0000 0.0000
# 3 20.2981 -7.1499 42.7416 0.0000 0.0000 0.0000
# 4 0.0000 0.0000 0.0000 12.6714 0.0000 0.0000
# 5 0.0000 0.0000 0.0000 0.0000 26.7144 0.0000
# 6 0.0000 0.0000 0.0000 0.0000 0.0000 -5.0033
#
#
#
# Elastic Compliance Matrix: (Units=1/GPa)
#
#
# Indices 1 2 3 4 5 6 
#
# 1 0.006780 0.002946 -0.002727 0.000000 0.000000 0.000000
# 2 0.002946 0.040654 0.005402 0.000000 0.000000 0.000000
# 3 -0.002727 0.005402 0.025595 0.000000 0.000000 0.000000
# 4 0.000000 0.000000 0.000000 0.078918 0.000000 0.000000
# 5 0.000000 0.000000 0.000000 0.000000 0.037433 0.000000
# 6 0.000000 0.000000 0.000000 0.000000 0.000000 -0.199870
#
#
# Mechanical properties :
#
#
# Convention : Reuss Voigt Hill
#
# Bulk Modulus (GPa) = 11.86660 25.41033 18.63846
# Shear Modulus (GPa) = 786.06069 22.37878 404.21973
#
# Velocity S-wave (km/s) = 18.98331 3.20304 13.61296
# Velocity P-wave (km/s) = 22.04378 5.03274 15.98838
#
# Compressibility (1/GPa) = 0.08427016
#
# Stress axis : x y z
#
# Youngs Moduli (GPa) = 147.48633 24.59765 39.06978
#
# Poissons Ratio (x) = -0.07245 0.10655
# Poissons Ratio (y) = -0.43442 -0.21105
# Poissons Ratio (z) = 0.40223 -0.13287
#
# Static dielectric constant tensor:
#      x y z
#    x 1.847040 0.000000 0.000000 
#    y 0.000000 1.801620 0.000000 
#    z 0.000000 0.000000 1.740030 
# 
# From -- ./inp_files/8649.got.cif
#   From: 2010.05.17/outbox.cif.g08.bks.cpg/sg57_5_cif.got.tgz:8649.got - 2010.06.03 13:58:18.
