data_PCOD9436389
_publ_section_title
;
Structure prediction by ZEFSAII (Michael W. Deem and Ramdas Pophale) SiO2 
 PCOD9436389
Probable space group: P B C M
;
_chemical_formula_sum "Si O2"
_cell_formula_units_Z 32
_cell_length_a 9.908281
_cell_length_b 8.542126
_cell_length_c 15.880977
_cell_angle_alpha 90.000000
_cell_angle_beta 90.000000
_cell_angle_gamma 90.000000
_cell_volume 1344.130713
_symmetry_space_group_name_H-M "P B C M"
_symmetry_group_IT_number 57
_symmetry_cell_setting 'orthorhombic'
loop_
_space_group_symop_operation_xyz
x,y,z
-x,-y,1/2+z
x,1/2-y,-z
-x,1/2+y,1/2-z
-x,-y,-z
x,y,1/2-z
-x,1/2+y,z
x,1/2-y,1/2+z
loop_
_atom_site_type_symbol
_atom_site_label
_atom_site_fract_x
_atom_site_fract_y
_atom_site_fract_z
Si Si1 0.041854 0.726950 0.594018
Si Si2 0.184134 0.081068 0.154198
Si Si3 0.691998 0.388229 0.851985
Si Si4 0.427954 0.279182 0.147178
O O1 0.990920 0.750000 0.500000
O O2 0.107425 0.557935 0.607676
O O3 0.163775 0.847470 0.610736
O O4 0.916959 0.770498 0.653217
O O5 0.205682 0.025932 0.250000
O O6 0.326188 0.141728 0.119468
O O7 0.703891 0.388071 0.750000
O O8 0.580773 0.258445 0.876875
O O9 0.631355 0.554613 0.878886
O O10 0.424675 0.277152 0.250000
#
# Coordination Sequence:
#
# PCOD9436389 Si02
#       4
#     8   8   8   8
#     4  12  25  40  58  88 124 158 195 246 303 358
#     4  11  22  40  63  87 115 157 205 249 295 354
#     4  10  19  37  61  87 117 154 198 247 298 356
#     4   9  19  35  62  92 116 147 200 256 296 342
#
# _framework density 23.807206999999998
#
# number of rings (size 3 to 8) (size 9 to 14) (size 15 to 20)
#    0.000    1.500    0.000    6.000    0.000    6.000 
#    0.000    6.250    0.000    0.000    0.000    0.000 
#    0.000    0.000    0.000    0.000    0.000    0.000 
#
# Total GULP energy -179154.066078 kJ/mol
# GULP energy per Si atom -5598.564565 kJ/mol
# Density = 2.375302 g / cm^3
# Si number density = 23.807207 Si / 1000 Ang^3
#
#
#
# Elastic Constant Matrix: (Units=GPa)
#
#
# Indices 1 2 3 4 5 6 
#
# 1 73.8612 -17.9047 -0.2573 0.0000 0.0000 0.0000
# 2 -17.9047 66.4208 5.3073 0.0000 0.0000 0.0000
# 3 -0.2573 5.3073 38.7839 0.0000 0.0000 0.0000
# 4 0.0000 0.0000 0.0000 7.6653 0.0000 0.0000
# 5 0.0000 0.0000 0.0000 0.0000 103.3508 0.0000
# 6 0.0000 0.0000 0.0000 0.0000 0.0000 41.7185
#
#
#
# Elastic Compliance Matrix: (Units=1/GPa)
#
#
# Indices 1 2 3 4 5 6 
#
# 1 0.014493 0.003942 -0.000443 0.000000 0.000000 0.000000
# 2 0.003942 0.016294 -0.002204 0.000000 0.000000 0.000000
# 3 -0.000443 -0.002204 0.026082 0.000000 0.000000 0.000000
# 4 0.000000 0.000000 0.000000 0.130459 0.000000 0.000000
# 5 0.000000 0.000000 0.000000 0.000000 0.009676 0.000000
# 6 0.000000 0.000000 0.000000 0.000000 0.000000 0.023970
#
#
# Mechanical properties :
#
#
# Convention : Reuss Voigt Hill
#
# Bulk Modulus (GPa) = 16.81790 17.03959 16.92875
# Shear Modulus (GPa) = 20.99040 43.34163 32.16602
#
# Velocity S-wave (km/s) = 2.97254 4.27139 3.67972
# Velocity P-wave (km/s) = 4.34291 5.61242 5.01797
#
# Compressibility (1/GPa) = 0.05946046
#
# Stress axis : x y z
#
# Youngs Moduli (GPa) = 68.99884 61.37124 38.33989
#
# Poissons Ratio (x) = -0.24194 0.01700
# Poissons Ratio (y) = -0.27201 0.08449
# Poissons Ratio (z) = 0.03059 0.13524
#
# Static dielectric constant tensor:
#      x y z
#    x 1.831650 0.000000 0.000000 
#    y 0.000000 1.942950 0.000000 
#    z 0.000000 0.000000 1.892090 
# 
# From -- ./inp_files/17173.got.cif
#   From: 2010.05.17/outbox.cif.g08.bks.cpg/sg57_9_cif.got.tgz:17173.got - 2010.06.03 13:58:18.
