data_PCOD9436915
_publ_section_title
;
Structure prediction by ZEFSAII (Michael W. Deem and Ramdas Pophale) SiO2 
 PCOD9436915
Probable space group: P B C M
;
_chemical_formula_sum "Si O2"
_cell_formula_units_Z 64
_cell_length_a 9.437365
_cell_length_b 23.487533
_cell_length_c 13.980323
_cell_angle_alpha 90.000000
_cell_angle_beta 90.000000
_cell_angle_gamma 90.000000
_cell_volume 3098.884294
_symmetry_space_group_name_H-M "P B C M"
_symmetry_group_IT_number 57
_symmetry_cell_setting 'orthorhombic'
loop_
_space_group_symop_operation_xyz
x,y,z
-x,-y,1/2+z
x,1/2-y,-z
-x,1/2+y,1/2-z
-x,-y,-z
x,y,1/2-z
-x,1/2+y,z
x,1/2-y,1/2+z
loop_
_atom_site_type_symbol
_atom_site_label
_atom_site_fract_x
_atom_site_fract_y
_atom_site_fract_z
Si Si1 0.229786 0.623529 0.141828
Si Si2 0.702368 0.149076 0.563333
Si Si3 0.032985 0.906142 0.360214
Si Si4 0.194449 0.234481 0.110059
Si Si5 0.606544 0.663170 0.643639
Si Si6 0.127014 0.746676 0.853041
Si Si7 0.036763 0.461227 0.859999
Si Si8 0.811386 0.880172 0.515025
O O1 0.289225 0.613561 0.250000
O O2 0.167169 0.687326 0.142314
O O3 0.101996 0.578606 0.127084
O O4 0.321655 0.626066 0.044707
O O5 0.801768 0.104335 0.618989
O O6 0.556846 0.163944 0.615003
O O7 0.799683 0.205902 0.570426
O O8 0.998380 0.890347 0.250000
O O9 0.944773 0.872878 0.441722
O O10 0.000837 0.972789 0.373296
O O11 0.322867 0.273495 0.146299
O O12 0.042803 0.253493 0.148229
O O13 0.189413 0.250000 0.000000
O O14 0.202838 0.166203 0.100981
O O15 0.626836 0.638576 0.750000
O O16 0.683974 0.628198 0.559253
O O17 0.178947 0.724529 0.750000
O O18 0.082620 0.454111 0.750000
O O19 0.156271 0.439073 0.932199
#
# Coordination Sequence:
#
# PCOD9436915 Si02
#       8
#     8   8   8   8   8   8   8   8
#     4  10  21  37  61  91 122 158 203 261 316 372
#     4  12  23  39  60  89 124 167 210 255 313 378
#     4  11  22  38  67  96 125 160 210 267 320 376
#     4  10  20  34  54  84 119 160 197 251 303 365
#     4  11  25  41  57  86 131 169 207 253 313 376
#     4  11  20  33  59  90 121 154 202 255 309 372
#     4  10  21  39  64  96 126 158 206 267 322 374
#     4  11  21  39  62  93 120 161 210 260 308 372
#
# _framework density 20.652595000000002
#
# number of rings (size 3 to 8) (size 9 to 14) (size 15 to 20)
#    0.000    1.250    2.500    4.875    0.000    3.500 
#    0.000    1.250    0.000    1.500    0.000    0.000 
#    0.000    0.000    0.000    0.000    0.000    0.000 
#
# Total GULP energy -356789.032137 kJ/mol
# GULP energy per Si atom -5574.828627 kJ/mol
# Density = 2.060559 g / cm^3
# Si number density = 20.652595 Si / 1000 Ang^3
#
#
#
# Elastic Constant Matrix: (Units=GPa)
#
#
# Indices 1 2 3 4 5 6 
#
# 1 90.6413 0.5448 29.1968 0.0000 0.0000 0.0000
# 2 0.5448 57.8473 11.8586 0.0000 0.0000 0.0000
# 3 29.1968 11.8586 116.6780 0.0000 0.0000 0.0000
# 4 0.0000 0.0000 0.0000 25.4009 0.0000 0.0000
# 5 0.0000 0.0000 0.0000 0.0000 26.8215 0.0000
# 6 0.0000 0.0000 0.0000 0.0000 0.0000 9.3167
#
#
#
# Elastic Compliance Matrix: (Units=1/GPa)
#
#
# Indices 1 2 3 4 5 6 
#
# 1 0.012015 0.000514 -0.003059 0.000000 0.000000 0.000000
# 2 0.000514 0.017677 -0.001925 0.000000 0.000000 0.000000
# 3 -0.003059 -0.001925 0.009532 0.000000 0.000000 0.000000
# 4 0.000000 0.000000 0.000000 0.039369 0.000000 0.000000
# 5 0.000000 0.000000 0.000000 0.000000 0.037284 0.000000
# 6 0.000000 0.000000 0.000000 0.000000 0.000000 0.107334
#
#
# Mechanical properties :
#
#
# Convention : Reuss Voigt Hill
#
# Bulk Modulus (GPa) = 33.02179 38.70744 35.86461
# Shear Modulus (GPa) = 20.64037 27.21225 23.92631
#
# Velocity S-wave (km/s) = 3.16477 3.63384 3.40739
# Velocity P-wave (km/s) = 5.42017 6.03235 5.73444
#
# Compressibility (1/GPa) = 0.03028303
#
# Stress axis : x y z
#
# Youngs Moduli (GPa) = 83.23170 56.57162 104.91359
#
# Poissons Ratio (x) = -0.02907 0.32090
# Poissons Ratio (y) = -0.04277 0.20198
# Poissons Ratio (z) = 0.25458 0.10891
#
# Static dielectric constant tensor:
#      x y z
#    x 1.720350 0.000000 0.000000 
#    y 0.000000 1.823810 0.000000 
#    z 0.000000 0.000000 1.822380 
# 
# From -- ./inp_files/16967.got.cif
#   From: 2010.05.17/outbox.cif.g08.bks.cpg/sg57_9_cif.got.tgz:16967.got - 2010.06.03 13:58:18.
