data_PCOD9436251
_publ_section_title
;
Structure prediction by ZEFSAII (Michael W. Deem and Ramdas Pophale) SiO2 
 PCOD9436251
Probable space group: P B C M
;
_chemical_formula_sum "Si O2"
_cell_formula_units_Z 64
_cell_length_a 5.364095
_cell_length_b 30.864777
_cell_length_c 17.687470
_cell_angle_alpha 90.000000
_cell_angle_beta 90.000000
_cell_angle_gamma 90.000000
_cell_volume 2928.365762
_symmetry_space_group_name_H-M "P B C M"
_symmetry_group_IT_number 57
_symmetry_cell_setting 'orthorhombic'
loop_
_space_group_symop_operation_xyz
x,y,z
-x,-y,1/2+z
x,1/2-y,-z
-x,1/2+y,1/2-z
-x,-y,-z
x,y,1/2-z
-x,1/2+y,z
x,1/2-y,1/2+z
loop_
_atom_site_type_symbol
_atom_site_label
_atom_site_fract_x
_atom_site_fract_y
_atom_site_fract_z
Si Si1 0.393489 0.103973 0.019943
Si Si2 0.574937 0.840636 0.117438
Si Si3 0.000674 0.198611 0.161111
Si Si4 0.263640 0.537240 0.555170
Si Si5 0.262757 0.607863 0.332547
Si Si6 0.973091 0.955714 0.909842
Si Si7 0.501465 0.741472 0.157960
Si Si8 0.927081 0.109203 0.836102
O O1 0.555578 0.107394 0.095849
O O2 0.130056 0.086747 0.047478
O O3 0.406030 0.147101 0.970983
O O4 0.496164 0.066345 0.962976
O O5 0.567128 0.790008 0.134123
O O6 0.317648 0.861271 0.148808
O O7 0.820371 0.863400 0.152424
O O8 0.013815 0.210042 0.250000
O O9 0.920054 0.148794 0.158485
O O10 0.768125 0.225879 0.128776
O O11 0.273416 0.210350 0.131356
O O12 0.243746 0.491242 0.597678
O O13 0.093358 0.569521 0.605105
O O14 0.172140 0.526315 0.469959
O O15 0.386882 0.612461 0.250000
O O16 0.108113 0.563222 0.337504
O O17 0.488546 0.739810 0.250000
O O18 0.918041 0.093302 0.750000
#
# Coordination Sequence:
#
# PCOD9436251 Si02
#       8
#     8   8   8   8   8   8   8   8
#     4  10  21  38  63  86 123 162 206 256 318 375
#     4  11  22  38  62  91 126 166 210 250 312 384
#     4   9  20  37  59  87 121 159 202 253 314 366
#     4   9  20  36  58  88 120 160 206 247 306 376
#     4  10  23  40  61  89 119 161 214 267 316 370
#     4  10  19  38  63  83 114 162 209 251 305 375
#     4  10  19  35  60  88 118 160 206 251 300 372
#     4  11  21  36  58  91 130 164 201 259 309 362
#
# _framework density 21.855194000000001
#
# number of rings (size 3 to 8) (size 9 to 14) (size 15 to 20)
#    0.000    2.000    1.250    2.250    1.750    2.000 
#    0.000    0.625    0.000    0.000    0.000    0.000 
#    0.000    0.000    0.000    0.000    0.000    0.000 
#
# Total GULP energy -356969.624560 kJ/mol
# GULP energy per Si atom -5577.650384 kJ/mol
# Density = 2.180545 g / cm^3
# Si number density = 21.855194 Si / 1000 Ang^3
#
#
#
# Elastic Constant Matrix: (Units=GPa)
#
#
# Indices 1 2 3 4 5 6 
#
# 1 74.3351 11.9199 18.3999 0.0000 0.0000 0.0000
# 2 11.9199 53.4327 19.2301 0.0000 0.0000 0.0000
# 3 18.3999 19.2301 84.5543 0.0000 0.0000 0.0000
# 4 0.0000 0.0000 0.0000 27.6214 0.0000 0.0000
# 5 0.0000 0.0000 0.0000 0.0000 13.9490 0.0000
# 6 0.0000 0.0000 0.0000 0.0000 0.0000 27.8133
#
#
#
# Elastic Compliance Matrix: (Units=1/GPa)
#
#
# Indices 1 2 3 4 5 6 
#
# 1 0.014469 -0.002281 -0.002630 0.000000 0.000000 0.000000
# 2 -0.002281 0.020743 -0.004221 0.000000 0.000000 0.000000
# 3 -0.002630 -0.004221 0.013359 0.000000 0.000000 0.000000
# 4 0.000000 0.000000 0.000000 0.036204 0.000000 0.000000
# 5 0.000000 0.000000 0.000000 0.000000 0.071690 0.000000
# 6 0.000000 0.000000 0.000000 0.000000 0.000000 0.035954
#
#
# Mechanical properties :
#
#
# Convention : Reuss Voigt Hill
#
# Bulk Modulus (GPa) = 32.99585 34.60244 33.79915
# Shear Modulus (GPa) = 22.64634 24.72823 23.68728
#
# Velocity S-wave (km/s) = 3.22250 3.36736 3.29573
# Velocity P-wave (km/s) = 5.38296 5.56649 5.47549
#
# Compressibility (1/GPa) = 0.03030684
#
# Stress axis : x y z
#
# Youngs Moduli (GPa) = 69.11151 48.20844 74.85585
#
# Poissons Ratio (x) = 0.10998 0.19686
# Poissons Ratio (y) = 0.15767 0.31598
# Poissons Ratio (z) = 0.18175 0.20350
#
# Static dielectric constant tensor:
#      x y z
#    x 1.861730 0.000000 0.000000 
#    y 0.000000 1.812950 0.000000 
#    z 0.000000 0.000000 1.807740 
# 
# From -- ./inp_files/20329.got.cif
#   From: 2010.05.17/outbox.cif.g08.bks.cpg/sg57_11_cif.got.tgz:20329.got - 2010.06.03 13:58:18.
