data_PCOD9436496
_publ_section_title
;
Structure prediction by ZEFSAII (Michael W. Deem and Ramdas Pophale) SiO2 
 PCOD9436496
Probable space group: P B C M
;
_chemical_formula_sum "Si O2"
_cell_formula_units_Z 36
_cell_length_a 9.764015
_cell_length_b 19.176564
_cell_length_c 9.251112
_cell_angle_alpha 90.000000
_cell_angle_beta 90.000000
_cell_angle_gamma 90.000000
_cell_volume 1732.180603
_symmetry_space_group_name_H-M "P B C M"
_symmetry_group_IT_number 57
_symmetry_cell_setting 'orthorhombic'
loop_
_space_group_symop_operation_xyz
x,y,z
-x,-y,1/2+z
x,1/2-y,-z
-x,1/2+y,1/2-z
-x,-y,-z
x,y,1/2-z
-x,1/2+y,z
x,1/2-y,1/2+z
loop_
_atom_site_type_symbol
_atom_site_label
_atom_site_fract_x
_atom_site_fract_y
_atom_site_fract_z
Si Si1 0.276498 0.387982 0.504307
Si Si2 0.196648 0.842488 0.250000
Si Si3 0.515289 0.886462 0.250000
Si Si4 0.245504 0.274516 0.750000
Si Si5 0.091715 0.377176 0.250000
Si Si6 0.418389 0.460202 0.750000
Si Si7 0.448243 0.689743 0.250000
Si Si8 0.734743 0.250000 0.000000
O O1 0.402251 0.367797 0.396632
O O2 0.229882 0.324103 0.608240
O O3 0.158390 0.407603 0.393998
O O4 0.325721 0.450074 0.607970
O O5 0.356844 0.862864 0.250000
O O6 0.177330 0.797721 0.394979
O O7 0.068545 0.892645 0.250000
O O8 0.504682 0.970445 0.250000
O O9 0.150429 0.205165 0.750000
O O10 0.411846 0.264956 0.750000
O O11 0.509048 0.390341 0.750000
O O12 0.360760 0.707124 0.390796
#
# Coordination Sequence:
#
# PCOD9436496 Si02
#       8
#     8   4   4   4   4   4   4   4
#     4   9  21  36  57  89 108 147 201 235 290 342
#     4  11  24  38  55  82 120 158 191 225 312 339
#     4  11  21  40  61  87 120 151 193 254 284 351
#     4  10  20  31  58  81 117 144 186 240 287 343
#     4  11  23  35  56  80 120 156 194 232 286 354
#     4  10  20  37  62  89 117 148 202 244 294 336
#     4   9  20  33  58  89 110 147 182 241 297 345
#     4  10  22  36  54  84 126 142 184 242 300 366
#
# _framework density 20.783052000000001
#
# number of rings (size 3 to 8) (size 9 to 14) (size 15 to 20)
#    0.000    2.222    0.000    4.000   15.556    0.000 
#    0.000    1.111    0.000    0.000    0.000    0.000 
#    0.000    0.000    0.000    0.000    0.000    0.000 
#
# Total GULP energy -200832.842140 kJ/mol
# GULP energy per Si atom -5578.690059 kJ/mol
# Density = 2.073575 g / cm^3
# Si number density = 20.783052 Si / 1000 Ang^3
#
#
#
# Elastic Constant Matrix: (Units=GPa)
#
#
# Indices 1 2 3 4 5 6 
#
# 1 72.7102 -14.2895 28.7475 0.0000 0.0000 0.0000
# 2 -14.2895 44.4465 2.8260 0.0000 0.0000 0.0000
# 3 28.7475 2.8260 150.2646 0.0000 0.0000 0.0000
# 4 0.0000 0.0000 0.0000 13.0854 0.0000 0.0000
# 5 0.0000 0.0000 0.0000 0.0000 -480.3715 0.0000
# 6 0.0000 0.0000 0.0000 0.0000 0.0000 9.3069
#
#
#
# Elastic Compliance Matrix: (Units=1/GPa)
#
#
# Indices 1 2 3 4 5 6 
#
# 1 0.016063 0.005366 -0.003174 0.000000 0.000000 0.000000
# 2 0.005366 0.024318 -0.001484 0.000000 0.000000 0.000000
# 3 -0.003174 -0.001484 0.007290 0.000000 0.000000 0.000000
# 4 0.000000 0.000000 0.000000 0.076421 0.000000 0.000000
# 5 0.000000 0.000000 0.000000 0.000000 -0.002082 0.000000
# 6 0.000000 0.000000 0.000000 0.000000 0.000000 0.107447
#
#
# Mechanical properties :
#
#
# Convention : Reuss Voigt Hill
#
# Bulk Modulus (GPa) = 20.37185 33.55436 26.96311
# Shear Modulus (GPa) = 20.45794 -74.92002 -27.23104
#
# Velocity S-wave (km/s) = 3.14085 -6.01056 -3.62367
# Velocity P-wave (km/s) = 4.79340 5.65589 2.12278
#
# Compressibility (1/GPa) = 0.04908734
#
# Stress axis : x y z
#
# Youngs Moduli (GPa) = 62.25623 41.12105 137.17342
#
# Poissons Ratio (x) = -0.22065 0.43537
# Poissons Ratio (y) = -0.33406 0.20355
# Poissons Ratio (z) = 0.19760 0.06102
#
# Static dielectric constant tensor:
#      x y z
#    x 1.743840 0.000000 0.000000 
#    y 0.000000 1.780150 0.000000 
#    z 0.000000 0.000000 1.751490 
# 
# From -- ./inp_files/1701.got.cif
#   From: 2010.05.17/outbox.cif.g08.bks.cpg/sg57_1_cif.got.tgz:1701.got - 2010.06.03 13:58:18.
