data_PCOD9436262
_publ_section_title
;
Structure prediction by ZEFSAII (Michael W. Deem and Ramdas Pophale) SiO2 
 PCOD9436262
Probable space group: P B C M
;
_chemical_formula_sum "Si O2"
_cell_formula_units_Z 60
_cell_length_a 19.888059
_cell_length_b 5.149479
_cell_length_c 30.926665
_cell_angle_alpha 90.000000
_cell_angle_beta 90.000000
_cell_angle_gamma 90.000000
_cell_volume 3167.296940
_symmetry_space_group_name_H-M "P B C M"
_symmetry_group_IT_number 57
_symmetry_cell_setting 'orthorhombic'
loop_
_space_group_symop_operation_xyz
x,y,z
-x,-y,1/2+z
x,1/2-y,-z
-x,1/2+y,1/2-z
-x,-y,-z
x,y,1/2-z
-x,1/2+y,z
x,1/2-y,1/2+z
loop_
_atom_site_type_symbol
_atom_site_label
_atom_site_fract_x
_atom_site_fract_y
_atom_site_fract_z
Si Si1 0.841802 0.778019 0.077873
Si Si2 0.546679 0.341530 0.656408
Si Si3 0.678327 0.210811 0.896187
Si Si4 0.695967 0.787033 0.451607
Si Si5 0.046718 0.720585 0.302175
Si Si6 0.827949 0.217778 0.866049
Si Si7 0.541784 0.232491 0.750000
Si Si8 0.976343 0.936783 0.548611
O O1 0.775587 0.735172 0.049995
O O2 0.841189 0.572402 0.117053
O O3 0.905313 0.698817 0.050204
O O4 0.842624 0.064032 0.097626
O O5 0.510016 0.617655 0.651268
O O6 0.609563 0.292486 0.626301
O O7 0.574848 0.308133 0.705177
O O8 0.687992 0.421840 0.934218
O O9 0.744980 0.226939 0.865098
O O10 0.669952 0.925850 0.917214
O O11 0.669467 0.750000 0.500000
O O12 0.058651 0.721821 0.250000
O O13 0.118733 0.729546 0.327283
O O14 0.001225 0.467500 0.312666
O O15 0.476936 0.428250 0.750000
O O16 0.022826 0.718253 0.570338
O O17 0.000000 0.000000 0.500000
#
# Coordination Sequence:
#
# PCOD9436262 Si02
#       8
#     8   8   8   8   8   8   4   8
#     4  10  21  35  53  74 102 140 182 223 284 330
#     4  10  19  35  61  88 122 157 182 222 276 341
#     4  10  21  38  57  88 114 143 197 231 280 340
#     4  10  21  37  59  76 105 152 191 240 276 332
#     4  10  21  37  58  80 107 146 190 233 280 337
#     4  10  21  37  55  80 108 140 185 237 272 330
#     4   8  16  30  52  86 118 148 182 204 254 336
#     4  10  21  33  44  68 100 130 163 221 265 330
#
# _framework density 18.943597
#
# number of rings (size 3 to 8) (size 9 to 14) (size 15 to 20)
#    0.000    2.133    0.000    2.800    1.867    3.200 
#    6.000    0.000    0.000    8.000    0.000    0.000 
#    0.000    0.000    0.000    0.000    0.000    0.000 
#
# Total GULP energy -334150.968470 kJ/mol
# GULP energy per Si atom -5569.182808 kJ/mol
# Density = 1.890048 g / cm^3
# Si number density = 18.943597 Si / 1000 Ang^3
#
#
#
# Elastic Constant Matrix: (Units=GPa)
#
#
# Indices 1 2 3 4 5 6 
#
# 1 57.7484 -8.2933 22.6841 0.0000 0.0000 0.0000
# 2 -8.2933 87.4882 -13.6593 0.0000 0.0000 0.0000
# 3 22.6841 -13.6593 49.4747 0.0000 0.0000 0.0000
# 4 0.0000 0.0000 0.0000 18.4188 0.0000 0.0000
# 5 0.0000 0.0000 0.0000 0.0000 14.6509 0.0000
# 6 0.0000 0.0000 0.0000 0.0000 0.0000 21.5032
#
#
#
# Elastic Compliance Matrix: (Units=1/GPa)
#
#
# Indices 1 2 3 4 5 6 
#
# 1 0.021142 0.000513 -0.009552 0.000000 0.000000 0.000000
# 2 0.000513 0.011957 0.003066 0.000000 0.000000 0.000000
# 3 -0.009552 0.003066 0.025438 0.000000 0.000000 0.000000
# 4 0.000000 0.000000 0.000000 0.054292 0.000000 0.000000
# 5 0.000000 0.000000 0.000000 0.000000 0.068255 0.000000
# 6 0.000000 0.000000 0.000000 0.000000 0.000000 0.046505
#
#
# Mechanical properties :
#
#
# Convention : Reuss Voigt Hill
#
# Bulk Modulus (GPa) = 21.46296 21.79715 21.63005
# Shear Modulus (GPa) = 19.60264 23.84656 21.72460
#
# Velocity S-wave (km/s) = 3.22030 3.55183 3.39012
# Velocity P-wave (km/s) = 5.01813 5.32466 5.17367
#
# Compressibility (1/GPa) = 0.04659190
#
# Stress axis : x y z
#
# Youngs Moduli (GPa) = 47.29854 83.62995 39.31049
#
# Poissons Ratio (x) = -0.04289 0.37550
# Poissons Ratio (y) = -0.02426 -0.12053
# Poissons Ratio (z) = 0.45180 -0.25642
#
# Static dielectric constant tensor:
#      x y z
#    x 1.666770 0.000000 0.000000 
#    y 0.000000 1.742230 0.000000 
#    z 0.000000 0.000000 1.721700 
# 
# From -- ./inp_files/28867.got.cif
#   From: 2010.05.17/outbox.cif.g08.bks.cpg/sg57_15_cif.got.tgz:28867.got - 2010.06.03 13:58:18.
