data_PCOD9436083
_publ_section_title
;
Structure prediction by ZEFSAII (Michael W. Deem and Ramdas Pophale) SiO2 
 PCOD9436083
Probable space group: P B C M
;
_chemical_formula_sum "Si O2"
_cell_formula_units_Z 48
_cell_length_a 7.662081
_cell_length_b 19.382223
_cell_length_c 18.004622
_cell_angle_alpha 90.000000
_cell_angle_beta 90.000000
_cell_angle_gamma 90.000000
_cell_volume 2673.833331
_symmetry_space_group_name_H-M "P B C M"
_symmetry_group_IT_number 57
_symmetry_cell_setting 'orthorhombic'
loop_
_space_group_symop_operation_xyz
x,y,z
-x,-y,1/2+z
x,1/2-y,-z
-x,1/2+y,1/2-z
-x,-y,-z
x,y,1/2-z
-x,1/2+y,z
x,1/2-y,1/2+z
loop_
_atom_site_type_symbol
_atom_site_label
_atom_site_fract_x
_atom_site_fract_y
_atom_site_fract_z
Si Si1 0.265051 0.883860 0.334565
Si Si2 0.449991 0.920673 0.483193
Si Si3 0.905423 0.968116 0.333527
Si Si4 0.898298 0.106718 0.422651
Si Si5 0.194570 0.132482 0.957715
Si Si6 0.079108 0.759264 0.084704
O O1 0.331051 0.878094 0.250000
O O2 0.392635 0.911978 0.397606
O O3 0.192004 0.810921 0.365827
O O4 0.097917 0.934482 0.333698
O O5 0.616434 0.870659 0.494812
O O6 0.500000 0.000000 0.500000
O O7 0.285384 0.900448 0.534247
O O8 0.836948 0.966768 0.250000
O O9 0.913292 0.044496 0.365849
O O10 0.797395 0.920318 0.389300
O O11 0.850604 0.250000 0.500000
O O12 0.050197 0.103320 0.484948
O O13 0.922775 0.181746 0.385865
O O14 0.109336 0.203665 0.927984
#
# Coordination Sequence:
#
# PCOD9436083 Si02
#       6
#     8   8   8   8   8   8
#     4  10  21  38  60  85 119 159 198 243 297 356
#     4  12  21  34  63  91 111 155 195 251 297 353
#     4  10  19  34  58  83 116 155 191 243 297 348
#     4  11  20  39  58  87 121 146 199 246 293 345
#     4  10  20  36  58  85 111 149 198 234 292 352
#     4   9  18  38  58  82 113 154 189 242 287 352
#
# _framework density 17.951754999999999
#
# number of rings (size 3 to 8) (size 9 to 14) (size 15 to 20)
#    0.000    1.667    6.667    1.500    0.000    1.333 
#    9.000    0.000    0.000    0.000    0.000    0.000 
#    0.000    0.000    0.000    0.000    0.000    0.000 
#
# Total GULP energy -267599.502616 kJ/mol
# GULP energy per Si atom -5574.989638 kJ/mol
# Density = 1.791090 g / cm^3
# Si number density = 17.951755 Si / 1000 Ang^3
#
#
#
# Elastic Constant Matrix: (Units=GPa)
#
#
# Indices 1 2 3 4 5 6 
#
# 1 86.8888 15.8197 30.2886 0.0000 0.0000 0.0000
# 2 15.8197 135.6073 59.3693 0.0000 0.0000 0.0000
# 3 30.2886 59.3693 84.8372 0.0000 0.0000 0.0000
# 4 0.0000 0.0000 0.0000 18.5649 0.0000 0.0000
# 5 0.0000 0.0000 0.0000 0.0000 11.1950 0.0000
# 6 0.0000 0.0000 0.0000 0.0000 0.0000 13.9712
#
#
#
# Elastic Compliance Matrix: (Units=1/GPa)
#
#
# Indices 1 2 3 4 5 6 
#
# 1 0.013198 0.000754 -0.005240 0.000000 0.000000 0.000000
# 2 0.000754 0.010675 -0.007739 0.000000 0.000000 0.000000
# 3 -0.005240 -0.007739 0.019074 0.000000 0.000000 0.000000
# 4 0.000000 0.000000 0.000000 0.053865 0.000000 0.000000
# 5 0.000000 0.000000 0.000000 0.000000 0.089325 0.000000
# 6 0.000000 0.000000 0.000000 0.000000 0.000000 0.071576
#
#
# Mechanical properties :
#
#
# Convention : Reuss Voigt Hill
#
# Bulk Modulus (GPa) = 54.06304 57.58761 55.82533
# Shear Modulus (GPa) = 17.34130 22.20326 19.77228
#
# Velocity S-wave (km/s) = 3.11142 3.52067 3.32235
# Velocity P-wave (km/s) = 6.56422 6.97679 6.77365
#
# Compressibility (1/GPa) = 0.01849692
#
# Stress axis : x y z
#
# Youngs Moduli (GPa) = 75.76783 93.68045 52.42701
#
# Poissons Ratio (x) = -0.07067 0.27472
# Poissons Ratio (y) = -0.05716 0.40576
# Poissons Ratio (z) = 0.39702 0.72503
#
# Static dielectric constant tensor:
#      x y z
#    x 1.638440 0.000000 0.000000 
#    y 0.000000 1.636780 0.000000 
#    z 0.000000 0.000000 1.618470 
# 
# From -- ./inp_files/21081.got.cif
#   From: 2010.05.17/outbox.cif.g08.bks.cpg/sg57_11_cif.got.tgz:21081.got - 2010.06.03 13:58:18.
