data_PCOD9436593
_publ_section_title
;
Structure prediction by ZEFSAII (Michael W. Deem and Ramdas Pophale) SiO2 
 PCOD9436593
Probable space group: P B C M
;
_chemical_formula_sum "Si O2"
_cell_formula_units_Z 56
_cell_length_a 11.441291
_cell_length_b 24.104030
_cell_length_c 9.257734
_cell_angle_alpha 90.000000
_cell_angle_beta 90.000000
_cell_angle_gamma 90.000000
_cell_volume 2553.109191
_symmetry_space_group_name_H-M "P B C M"
_symmetry_group_IT_number 57
_symmetry_cell_setting 'orthorhombic'
loop_
_space_group_symop_operation_xyz
x,y,z
-x,-y,1/2+z
x,1/2-y,-z
-x,1/2+y,1/2-z
-x,-y,-z
x,y,1/2-z
-x,1/2+y,z
x,1/2-y,1/2+z
loop_
_atom_site_type_symbol
_atom_site_label
_atom_site_fract_x
_atom_site_fract_y
_atom_site_fract_z
Si Si1 0.823748 0.698559 0.087490
Si Si2 0.194623 0.690448 0.578964
Si Si3 0.155924 0.416615 0.423308
Si Si4 0.453311 0.198667 0.090649
Si Si5 0.694109 0.018283 0.416640
Si Si6 0.070854 0.592208 0.081484
Si Si7 0.574347 0.388640 0.083732
O O1 0.870995 0.694316 0.250000
O O2 0.684613 0.708210 0.102985
O O3 0.876008 0.750000 0.000000
O O4 0.831452 0.643333 0.994157
O O5 0.204532 0.750000 0.500000
O O6 0.166450 0.697024 0.750000
O O7 0.102754 0.650755 0.495014
O O8 0.314245 0.653586 0.572632
O O9 0.148268 0.414707 0.250000
O O10 0.262993 0.457346 0.460777
O O11 0.033607 0.435799 0.492423
O O12 0.506708 0.197391 0.250000
O O13 0.502479 0.250000 0.000000
O O14 0.476867 0.141844 0.009223
O O15 0.653115 0.017555 0.250000
O O16 0.813549 0.054497 0.421241
O O17 0.607386 0.051873 0.518842
O O18 0.039669 0.598823 0.250000
O O19 0.540617 0.392922 0.250000
#
# Coordination Sequence:
#
# PCOD9436593 Si02
#       7
#     8   8   8   8   8   8   8
#     4  10  22  40  60  83 109 140 179 224 269 317
#     4  10  20  33  49  75 109 142 177 219 266 318
#     4  11  22  37  58  82 108 141 179 222 270 319
#     4  10  20  35  57  82 110 142 179 221 267 320
#     4   9  20  37  56  80 111 144 179 220 266 316
#     4  10  20  35  55  78 106 142 181 222 266 317
#     4  10  20  33  54  82 111 143 179 220 267 319
#
# _framework density 21.934042000000002
#
# number of rings (size 3 to 8) (size 9 to 14) (size 15 to 20)
#    0.000    2.000    0.000    3.429    0.000    6.857 
#    0.000    3.571    0.000    0.000    0.000    0.000 
#    0.000    0.000    0.000    0.000    0.000    0.000 
#
# Total GULP energy -312961.743563 kJ/mol
# GULP energy per Si atom -5588.602564 kJ/mol
# Density = 2.188412 g / cm^3
# Si number density = 21.934042 Si / 1000 Ang^3
#
#
#
# Elastic Constant Matrix: (Units=GPa)
#
#
# Indices 1 2 3 4 5 6 
#
# 1 9.7933 1.8364 13.1450 0.0000 0.0000 0.0000
# 2 1.8364 128.6943 52.5545 0.0000 0.0000 0.0000
# 3 13.1450 52.5545 135.9754 0.0000 0.0000 0.0000
# 4 0.0000 0.0000 0.0000 32.0730 0.0000 0.0000
# 5 0.0000 0.0000 0.0000 0.0000 20.5629 0.0000
# 6 0.0000 0.0000 0.0000 0.0000 0.0000 31.7235
#
#
#
# Elastic Compliance Matrix: (Units=1/GPa)
#
#
# Indices 1 2 3 4 5 6 
#
# 1 0.118688 0.003553 -0.012847 0.000000 0.000000 0.000000
# 2 0.003553 0.009333 -0.003951 0.000000 0.000000 0.000000
# 3 -0.012847 -0.003951 0.010123 0.000000 0.000000 0.000000
# 4 0.000000 0.000000 0.000000 0.031179 0.000000 0.000000
# 5 0.000000 0.000000 0.000000 0.000000 0.048631 0.000000
# 6 0.000000 0.000000 0.000000 0.000000 0.000000 0.031522
#
#
# Mechanical properties :
#
#
# Convention : Reuss Voigt Hill
#
# Bulk Modulus (GPa) = 8.95624 45.50387 27.23006
# Shear Modulus (GPa) = 15.96506 30.66702 23.31604
#
# Velocity S-wave (km/s) = 2.70083 3.74324 3.26392
# Velocity P-wave (km/s) = 3.71727 6.28277 5.16194
#
# Compressibility (1/GPa) = 0.11165397
#
# Stress axis : x y z
#
# Youngs Moduli (GPa) = 8.42548 107.14713 98.78379
#
# Poissons Ratio (x) = -0.38065 1.26906
# Poissons Ratio (y) = -0.02993 0.39026
# Poissons Ratio (z) = 0.10824 0.42330
#
# Static dielectric constant tensor:
#      x y z
#    x 1.871490 0.000000 0.000000 
#    y 0.000000 1.804860 0.000000 
#    z 0.000000 0.000000 1.763880 
# 
# From -- ./inp_files/5180.got.cif
#   From: 2010.05.17/outbox.cif.g08.bks.cpg/sg57_3_cif.got.tgz:5180.got - 2010.06.03 13:58:18.
