data_PCOD9436234
_publ_section_title
;
Structure prediction by ZEFSAII (Michael W. Deem and Ramdas Pophale) SiO2 
 PCOD9436234
Probable space group: P B C M
;
_chemical_formula_sum "Si O2"
_cell_formula_units_Z 64
_cell_length_a 14.973802
_cell_length_b 12.552980
_cell_length_c 17.360617
_cell_angle_alpha 90.000000
_cell_angle_beta 90.000000
_cell_angle_gamma 90.000000
_cell_volume 3263.202906
_symmetry_space_group_name_H-M "P B C M"
_symmetry_group_IT_number 57
_symmetry_cell_setting 'orthorhombic'
loop_
_space_group_symop_operation_xyz
x,y,z
-x,-y,1/2+z
x,1/2-y,-z
-x,1/2+y,1/2-z
-x,-y,-z
x,y,1/2-z
-x,1/2+y,z
x,1/2-y,1/2+z
loop_
_atom_site_type_symbol
_atom_site_label
_atom_site_fract_x
_atom_site_fract_y
_atom_site_fract_z
Si Si1 0.555037 0.867854 0.839146
Si Si2 0.109088 0.989346 0.337638
Si Si3 0.739165 0.026714 0.074337
Si Si4 0.832782 0.723869 0.335374
Si Si5 0.692211 0.447587 0.393864
Si Si6 0.084557 0.047026 0.659472
Si Si7 0.623073 0.280482 0.590347
Si Si8 0.665716 0.706715 0.917030
O O1 0.538619 0.890301 0.750000
O O2 0.462857 0.848571 0.883947
O O3 0.602026 0.753795 0.852295
O O4 0.623713 0.957416 0.871335
O O5 0.095646 0.954542 0.250000
O O6 0.209366 0.953571 0.356929
O O7 0.014921 0.959627 0.375567
O O8 0.112987 0.116807 0.343825
O O9 0.703291 0.137834 0.107457
O O10 0.838838 0.005958 0.106178
O O11 0.683405 0.918466 0.092123
O O12 0.719615 0.041105 0.983569
O O13 0.788527 0.718331 0.250000
O O14 0.891191 0.828805 0.336973
O O15 0.759998 0.735508 0.401554
O O16 0.643989 0.335598 0.374265
O O17 0.089832 0.007620 0.750000
O O18 0.614670 0.250000 0.500000
O O19 0.633023 0.750000 0.000000
#
# Coordination Sequence:
#
# PCOD9436234 Si02
#       8
#     8   8   8   8   8   8   8   8
#     4  12  25  40  62  92 121 157 205 259 313 374
#     4  10  19  35  59  87 124 166 208 260 312 366
#     4  10  22  41  63  89 125 163 208 257 314 368
#     4   9  17  32  52  81 116 155 206 253 302 360
#     4  11  23  42  64  91 123 163 213 260 313 373
#     4   9  20  35  57  88 124 166 208 253 311 372
#     4  10  26  44  64  89 126 169 206 257 319 381
#     4  11  19  35  61  87 116 153 200 255 306 359
#
# _framework density 19.612632999999999
#
# number of rings (size 3 to 8) (size 9 to 14) (size 15 to 20)
#    0.000    1.750    2.500    1.125    1.750    4.500 
#    0.000    1.250    0.000    0.750    0.000    0.000 
#    0.000    0.000    0.000    0.000    0.000    0.000 
#
# Total GULP energy -356272.952664 kJ/mol
# GULP energy per Si atom -5566.764885 kJ/mol
# Density = 1.956799 g / cm^3
# Si number density = 19.612633 Si / 1000 Ang^3
#
#
#
# Elastic Constant Matrix: (Units=GPa)
#
#
# Indices 1 2 3 4 5 6 
#
# 1 111.1873 42.7267 18.1738 0.0000 0.0000 0.0000
# 2 42.7267 81.8187 19.8291 0.0000 0.0000 0.0000
# 3 18.1738 19.8291 30.4849 0.0000 0.0000 0.0000
# 4 0.0000 0.0000 0.0000 14.1685 0.0000 0.0000
# 5 0.0000 0.0000 0.0000 0.0000 19.6355 0.0000
# 6 0.0000 0.0000 0.0000 0.0000 0.0000 1.3922
#
#
#
# Elastic Compliance Matrix: (Units=1/GPa)
#
#
# Indices 1 2 3 4 5 6 
#
# 1 0.011561 -0.005184 -0.003520 0.000000 0.000000 0.000000
# 2 -0.005184 0.016834 -0.007859 0.000000 0.000000 0.000000
# 3 -0.003520 -0.007859 0.040014 0.000000 0.000000 0.000000
# 4 0.000000 0.000000 0.000000 0.070579 0.000000 0.000000
# 5 0.000000 0.000000 0.000000 0.000000 0.050928 0.000000
# 6 0.000000 0.000000 0.000000 0.000000 0.000000 0.718265
#
#
# Mechanical properties :
#
#
# Convention : Reuss Voigt Hill
#
# Bulk Modulus (GPa) = 28.34320 42.77223 35.55771
# Shear Modulus (GPa) = 5.24621 16.55668 10.90144
#
# Velocity S-wave (km/s) = 1.63729 2.90864 2.36018
# Velocity P-wave (km/s) = 4.24937 5.75639 5.05931
#
# Compressibility (1/GPa) = 0.03528183
#
# Stress axis : x y z
#
# Youngs Moduli (GPa) = 86.49419 59.40288 24.99138
#
# Poissons Ratio (x) = 0.30797 0.08798
# Poissons Ratio (y) = 0.44842 0.19641
# Poissons Ratio (z) = 0.30448 0.46686
#
# Static dielectric constant tensor:
#      x y z
#    x 1.726220 0.000000 0.000000 
#    y 0.000000 1.686220 0.000000 
#    z 0.000000 0.000000 1.747920 
# 
# From -- ./inp_files/22653.got.cif
#   From: 2010.05.17/outbox.cif.g08.bks.cpg/sg57_12_cif.got.tgz:22653.got - 2010.06.03 13:58:18.
