data_PCOD9436269
_publ_section_title
;
Structure prediction by ZEFSAII (Michael W. Deem and Ramdas Pophale) SiO2 
 PCOD9436269
Probable space group: P B C M
;
_chemical_formula_sum "Si O2"
_cell_formula_units_Z 64
_cell_length_a 11.252622
_cell_length_b 14.359362
_cell_length_c 17.752217
_cell_angle_alpha 90.000000
_cell_angle_beta 90.000000
_cell_angle_gamma 90.000000
_cell_volume 2868.411615
_symmetry_space_group_name_H-M "P B C M"
_symmetry_group_IT_number 57
_symmetry_cell_setting 'orthorhombic'
loop_
_space_group_symop_operation_xyz
x,y,z
-x,-y,1/2+z
x,1/2-y,-z
-x,1/2+y,1/2-z
-x,-y,-z
x,y,1/2-z
-x,1/2+y,z
x,1/2-y,1/2+z
loop_
_atom_site_type_symbol
_atom_site_label
_atom_site_fract_x
_atom_site_fract_y
_atom_site_fract_z
Si Si1 0.559593 0.674765 0.159682
Si Si2 0.538161 0.007908 0.413776
Si Si3 0.676406 0.397035 0.163005
Si Si4 0.679917 0.637244 0.661247
Si Si5 0.945395 0.856002 0.339102
Si Si6 0.832030 0.249396 0.410970
Si Si7 0.935073 0.076127 0.340836
Si Si8 0.195772 0.414661 0.838537
O O1 0.547195 0.657891 0.250000
O O2 0.463649 0.614005 0.115356
O O3 0.579488 0.784061 0.148740
O O4 0.685818 0.632518 0.131082
O O5 0.437121 0.952472 0.366847
O O6 0.655068 0.950512 0.391761
O O7 0.500000 0.000000 0.500000
O O8 0.658360 0.373814 0.250000
O O9 0.719525 0.306417 0.119961
O O10 0.781358 0.474468 0.157556
O O11 0.676569 0.609742 0.750000
O O12 0.810822 0.680072 0.648566
O O13 0.972832 0.846356 0.250000
O O14 0.049623 0.804354 0.382845
O O15 0.931939 0.966107 0.356117
O O16 0.828928 0.250000 0.500000
O O17 0.842355 0.145083 0.378812
O O18 0.927590 0.086793 0.250000
O O19 0.066338 0.107796 0.368528
O O20 0.193594 0.389552 0.750000
#
# Coordination Sequence:
#
# PCOD9436269 Si02
#       8
#     8   8   8   8   8   8   8   8
#     4   9  18  36  64  92 115 160 222 269 316 391
#     4  11  24  42  64  94 129 166 213 281 344 394
#     4  10  20  42  70  89 119 170 225 267 318 398
#     4  10  21  41  66  93 126 166 221 276 326 393
#     4  10  21  41  66  93 127 167 219 280 325 382
#     4  12  25  39  58  97 140 175 212 268 336 406
#     4  10  19  35  62  91 122 169 220 264 319 386
#     4   8  14  30  61  90 111 148 211 269 304 361
#
# _framework density 22.312000000000001
#
# number of rings (size 3 to 8) (size 9 to 14) (size 15 to 20)
#    0.000    2.000    1.250    3.750    0.000    4.000 
#   11.250    0.000    0.000    0.000    0.000    0.000 
#    0.000    0.000    0.000    0.000    0.000    0.000 
#
# Total GULP energy -357608.865193 kJ/mol
# GULP energy per Si atom -5587.638519 kJ/mol
# Density = 2.226122 g / cm^3
# Si number density = 22.312000 Si / 1000 Ang^3
#
#
#
# Elastic Constant Matrix: (Units=GPa)
#
#
# Indices 1 2 3 4 5 6 
#
# 1 49.2817 6.0935 9.0337 0.0000 0.0000 0.0000
# 2 6.0935 90.4262 31.8487 0.0000 0.0000 0.0000
# 3 9.0337 31.8487 73.6266 0.0000 0.0000 0.0000
# 4 0.0000 0.0000 0.0000 3.8885 0.0000 0.0000
# 5 0.0000 0.0000 0.0000 0.0000 54.2520 0.0000
# 6 0.0000 0.0000 0.0000 0.0000 0.0000 44.8257
#
#
#
# Elastic Compliance Matrix: (Units=1/GPa)
#
#
# Indices 1 2 3 4 5 6 
#
# 1 0.020785 -0.000593 -0.002294 0.000000 0.000000 0.000000
# 2 -0.000593 0.013063 -0.005578 0.000000 0.000000 0.000000
# 3 -0.002294 -0.005578 0.016276 0.000000 0.000000 0.000000
# 4 0.000000 0.000000 0.000000 0.257170 0.000000 0.000000
# 5 0.000000 0.000000 0.000000 0.000000 0.018432 0.000000
# 6 0.000000 0.000000 0.000000 0.000000 0.000000 0.022309
#
#
# Mechanical properties :
#
#
# Convention : Reuss Voigt Hill
#
# Bulk Modulus (GPa) = 30.12445 34.14293 32.13369
# Shear Modulus (GPa) = 13.29679 31.68382 22.49031
#
# Velocity S-wave (km/s) = 2.44385 3.77242 3.17833
# Velocity P-wave (km/s) = 4.63616 5.85753 5.28226
#
# Compressibility (1/GPa) = 0.03319563
#
# Stress axis : x y z
#
# Youngs Moduli (GPa) = 48.11102 76.55019 61.43860
#
# Poissons Ratio (x) = 0.04537 0.14093
# Poissons Ratio (y) = 0.02852 0.34271
# Poissons Ratio (z) = 0.11036 0.42700
#
# Static dielectric constant tensor:
#      x y z
#    x 1.874740 0.000000 0.000000 
#    y 0.000000 1.878120 0.000000 
#    z 0.000000 0.000000 1.746700 
# 
# From -- ./inp_files/22039.got.cif
#   From: 2010.05.17/outbox.cif.g08.bks.cpg/sg57_12_cif.got.tgz:22039.got - 2010.06.03 13:58:18.
