data_PCOD9436986
_publ_section_title
;
Structure prediction by ZEFSAII (Michael W. Deem and Ramdas Pophale) SiO2 
 PCOD9436986
Probable space group: P B C M
;
_chemical_formula_sum "Si O2"
_cell_formula_units_Z 64
_cell_length_a 24.436787
_cell_length_b 14.827867
_cell_length_c 8.988773
_cell_angle_alpha 90.000000
_cell_angle_beta 90.000000
_cell_angle_gamma 90.000000
_cell_volume 3257.040796
_symmetry_space_group_name_H-M "P B C M"
_symmetry_group_IT_number 57
_symmetry_cell_setting 'orthorhombic'
loop_
_space_group_symop_operation_xyz
x,y,z
-x,-y,1/2+z
x,1/2-y,-z
-x,1/2+y,1/2-z
-x,-y,-z
x,y,1/2-z
-x,1/2+y,z
x,1/2-y,1/2+z
loop_
_atom_site_type_symbol
_atom_site_label
_atom_site_fract_x
_atom_site_fract_y
_atom_site_fract_z
Si Si1 0.891450 0.160152 0.581025
Si Si2 0.369637 0.455999 0.928897
Si Si3 0.759953 0.159087 0.580790
Si Si4 0.743308 0.967117 0.428490
Si Si5 0.849963 0.651698 0.570830
Si Si6 0.940750 0.511210 0.572154
Si Si7 0.523051 0.590996 0.573240
Si Si8 0.594364 0.159281 0.574484
O O1 0.912200 0.250000 0.500000
O O2 0.912677 0.152304 0.750000
O O3 0.825846 0.165901 0.589487
O O4 0.906624 0.074481 0.483568
O O5 0.369722 0.452495 0.750000
O O6 0.381700 0.561549 0.973813
O O7 0.311598 0.428817 0.996922
O O8 0.418995 0.395597 0.993669
O O9 0.740883 0.250000 0.500000
O O10 0.738694 0.151816 0.750000
O O11 0.748027 0.068887 0.489595
O O12 0.738846 0.967764 0.250000
O O13 0.797435 0.910068 0.469893
O O14 0.846583 0.750000 0.500000
O O15 0.849876 0.659328 0.750000
O O16 0.905540 0.599003 0.526897
O O17 0.945265 0.511223 0.750000
O O18 0.000000 0.500000 0.500000
O O19 0.500000 0.500000 0.500000
O O20 0.531232 0.580285 0.750000
O O21 0.471403 0.655887 0.550714
O O22 0.615963 0.250000 0.500000
O O23 0.603610 0.164676 0.750000
#
# Coordination Sequence:
#
# PCOD9436986 Si02
#       8
#     8   8   8   8   8   8   8   8
#     4  10  20  35  58  87 118 155 193 236 291 351
#     4  10  21  36  54  81 112 148 194 242 290 352
#     4  10  20  34  56  85 116 153 195 239 290 354
#     4  11  22  39  61  87 119 158 201 252 307 361
#     4  10  24  44  67  91 120 157 203 252 304 360
#     4  11  23  41  63  92 126 159 199 250 301 362
#     4   9  17  32  52  76 105 142 186 235 285 342
#     4   9  19  33  52  79 112 145 185 231 285 347
#
# _framework density 19.649740000000001
#
# number of rings (size 3 to 8) (size 9 to 14) (size 15 to 20)
#    0.000    2.000    1.250    3.000    0.000    7.000 
#    0.000    3.125    0.000    0.000    0.000    0.000 
#    0.000    0.000    0.000    0.000    0.000    0.000 
#
# Total GULP energy -357223.666155 kJ/mol
# GULP energy per Si atom -5581.619784 kJ/mol
# Density = 1.960502 g / cm^3
# Si number density = 19.649740 Si / 1000 Ang^3
#
#
#
# Elastic Constant Matrix: (Units=GPa)
#
#
# Indices 1 2 3 4 5 6 
#
# 1 135.3976 45.4505 51.5978 0.0000 0.0000 0.0000
# 2 45.4505 88.6640 38.5147 0.0000 0.0000 0.0000
# 3 51.5978 38.5147 75.2678 0.0000 0.0000 0.0000
# 4 0.0000 0.0000 0.0000 30.9736 0.0000 0.0000
# 5 0.0000 0.0000 0.0000 0.0000 26.9190 0.0000
# 6 0.0000 0.0000 0.0000 0.0000 0.0000 0.8878
#
#
#
# Elastic Compliance Matrix: (Units=1/GPa)
#
#
# Indices 1 2 3 4 5 6 
#
# 1 0.010552 -0.002915 -0.005742 0.000000 0.000000 0.000000
# 2 -0.002915 0.015307 -0.005834 0.000000 0.000000 0.000000
# 3 -0.005742 -0.005834 0.020208 0.000000 0.000000 0.000000
# 4 0.000000 0.000000 0.000000 0.032286 0.000000 0.000000
# 5 0.000000 0.000000 0.000000 0.000000 0.037149 0.000000
# 6 0.000000 0.000000 0.000000 0.000000 0.000000 1.126423
#
#
# Mechanical properties :
#
#
# Convention : Reuss Voigt Hill
#
# Bulk Modulus (GPa) = 58.53418 63.38394 60.95906
# Shear Modulus (GPa) = 3.91664 22.67382 13.29523
#
# Velocity S-wave (km/s) = 1.41335 3.40059 2.60400
# Velocity P-wave (km/s) = 5.70236 6.90982 6.33492
#
# Compressibility (1/GPa) = 0.01708404
#
# Stress axis : x y z
#
# Youngs Moduli (GPa) = 94.76451 65.32871 49.48544
#
# Poissons Ratio (x) = 0.19043 0.28416
# Poissons Ratio (y) = 0.27623 0.28872
# Poissons Ratio (z) = 0.54418 0.38116
#
# Static dielectric constant tensor:
#      x y z
#    x 1.738470 0.000000 0.000000 
#    y 0.000000 1.690130 0.000000 
#    z 0.000000 0.000000 1.656010 
# 
# From -- ./inp_files/9438.got.cif
#   From: 2010.05.17/outbox.cif.g08.bks.cpg/sg57_5_cif.got.tgz:9438.got - 2010.06.03 13:58:18.
