data_PCOD9436436
_publ_section_title
;
Structure prediction by ZEFSAII (Michael W. Deem and Ramdas Pophale) SiO2 
 PCOD9436436
Probable space group: P B C M
;
_chemical_formula_sum "Si O2"
_cell_formula_units_Z 48
_cell_length_a 14.193821
_cell_length_b 10.353622
_cell_length_c 14.566128
_cell_angle_alpha 90.000000
_cell_angle_beta 90.000000
_cell_angle_gamma 90.000000
_cell_volume 2140.601135
_symmetry_space_group_name_H-M "P B C M"
_symmetry_group_IT_number 57
_symmetry_cell_setting 'orthorhombic'
loop_
_space_group_symop_operation_xyz
x,y,z
-x,-y,1/2+z
x,1/2-y,-z
-x,1/2+y,1/2-z
-x,-y,-z
x,y,1/2-z
-x,1/2+y,z
x,1/2-y,1/2+z
loop_
_atom_site_type_symbol
_atom_site_label
_atom_site_fract_x
_atom_site_fract_y
_atom_site_fract_z
Si Si1 0.427438 0.225406 0.855682
Si Si2 0.134431 0.928266 0.361329
Si Si3 0.214299 0.210453 0.395057
Si Si4 0.779799 0.341391 0.862790
Si Si5 0.426486 0.564159 0.137070
Si Si6 0.922423 0.559166 0.644041
O O1 0.458522 0.213682 0.750000
O O2 0.317717 0.263216 0.855611
O O3 0.492160 0.338785 0.894481
O O4 0.438538 0.082551 0.896135
O O5 0.131786 0.919440 0.250000
O O6 0.190561 0.801550 0.392268
O O7 0.026530 0.926483 0.396310
O O8 0.183086 0.063363 0.384188
O O9 0.221124 0.250000 0.500000
O O10 0.135090 0.307174 0.356130
O O11 0.779605 0.344775 0.750000
O O12 0.675627 0.383184 0.891357
O O13 0.855734 0.447412 0.895929
O O14 0.426387 0.559278 0.250000
O O15 0.937267 0.520703 0.750000
#
# Coordination Sequence:
#
# PCOD9436436 Si02
#       6
#     8   8   8   8   8   8
#     4  10  20  37  61  85 111 146 196 250 298 348
#     4  10  21  36  62  92 114 146 197 250 292 340
#     4  12  25  39  56  84 125 166 196 229 288 357
#     4   9  17  32  57  88 115 138 183 248 303 345
#     4   9  18  32  58  88 109 141 189 249 306 341
#     4  10  19  38  64  87 114 151 195 246 297 340
#
# _framework density 22.423607000000001
#
# number of rings (size 3 to 8) (size 9 to 14) (size 15 to 20)
#    0.000    2.000    1.667    2.500    2.333    3.333 
#    0.000    1.667    0.000    0.000    0.000    0.000 
#    0.000    0.000    0.000    0.000    0.000    0.000 
#
# Total GULP energy -268363.961407 kJ/mol
# GULP energy per Si atom -5590.915863 kJ/mol
# Density = 2.237257 g / cm^3
# Si number density = 22.423607 Si / 1000 Ang^3
#
#
#
# Elastic Constant Matrix: (Units=GPa)
#
#
# Indices 1 2 3 4 5 6 
#
# 1 147.7869 125.9034 7.4994 0.0000 0.0000 0.0000
# 2 125.9034 230.1813 3.8500 0.0000 0.0000 0.0000
# 3 7.4994 3.8500 41.9917 0.0000 0.0000 0.0000
# 4 0.0000 0.0000 0.0000 11.1690 0.0000 0.0000
# 5 0.0000 0.0000 0.0000 0.0000 -12.7787 0.0000
# 6 0.0000 0.0000 0.0000 0.0000 0.0000 35.2739
#
#
#
# Elastic Compliance Matrix: (Units=1/GPa)
#
#
# Indices 1 2 3 4 5 6 
#
# 1 0.012783 -0.006965 -0.001644 0.000000 0.000000 0.000000
# 2 -0.006965 0.008146 0.000497 0.000000 0.000000 0.000000
# 3 -0.001644 0.000497 0.024062 0.000000 0.000000 0.000000
# 4 0.000000 0.000000 0.000000 0.089533 0.000000 0.000000
# 5 0.000000 0.000000 0.000000 0.000000 -0.078255 0.000000
# 6 0.000000 0.000000 0.000000 0.000000 0.000000 0.028350
#
#
# Mechanical properties :
#
#
# Convention : Reuss Voigt Hill
#
# Bulk Modulus (GPa) = 34.76197 77.16283 55.96240
# Shear Modulus (GPa) = 45.27673 25.57999 35.42836
#
# Velocity S-wave (km/s) = 4.49838 3.38118 3.97918
# Velocity P-wave (km/s) = 6.52047 7.05190 6.79139
#
# Compressibility (1/GPa) = 0.02876707
#
# Stress axis : x y z
#
# Youngs Moduli (GPa) = 78.22702 122.76606 41.55868
#
# Poissons Ratio (x) = 0.85502 0.06834
# Poissons Ratio (y) = 0.54482 -0.02066
# Poissons Ratio (z) = 0.12864 -0.06102
#
# Static dielectric constant tensor:
#      x y z
#    x 1.784920 0.000000 0.000000 
#    y 0.000000 1.790010 0.000000 
#    z 0.000000 0.000000 1.725740 
# 
# From -- ./inp_files/22397.got.cif
#   From: 2010.05.17/outbox.cif.g08.bks.cpg/sg57_12_cif.got.tgz:22397.got - 2010.06.03 13:58:18.
