data_PCOD9436119
_publ_section_title
;
Structure prediction by ZEFSAII (Michael W. Deem and Ramdas Pophale) SiO2 
 PCOD9436119
Probable space group: P B C M
;
_chemical_formula_sum "Si O2"
_cell_formula_units_Z 64
_cell_length_a 18.304758
_cell_length_b 11.530191
_cell_length_c 15.054935
_cell_angle_alpha 90.000000
_cell_angle_beta 90.000000
_cell_angle_gamma 90.000000
_cell_volume 3177.454775
_symmetry_space_group_name_H-M "P B C M"
_symmetry_group_IT_number 57
_symmetry_cell_setting 'orthorhombic'
loop_
_space_group_symop_operation_xyz
x,y,z
-x,-y,1/2+z
x,1/2-y,-z
-x,1/2+y,1/2-z
-x,-y,-z
x,y,1/2-z
-x,1/2+y,z
x,1/2-y,1/2+z
loop_
_atom_site_type_symbol
_atom_site_label
_atom_site_fract_x
_atom_site_fract_y
_atom_site_fract_z
Si Si1 0.045243 0.239418 0.895028
Si Si2 0.435426 0.042719 0.855858
Si Si3 0.790296 0.769489 0.394278
Si Si4 0.951654 0.470697 0.645962
Si Si5 0.634137 0.728475 0.352792
Si Si6 0.654763 0.380820 0.525028
Si Si7 0.213302 0.538907 0.355428
Si Si8 0.600349 0.482395 0.354118
O O1 0.128186 0.253880 0.859174
O O2 0.998883 0.353155 0.866841
O O3 0.022367 0.102553 0.880544
O O4 0.048746 0.250000 0.000000
O O5 0.421264 0.018792 0.750000
O O6 0.388913 0.150679 0.894642
O O7 0.520619 0.073774 0.863268
O O8 0.409098 0.935849 0.914942
O O9 0.792096 0.750000 0.500000
O O10 0.719687 0.700242 0.362134
O O11 0.773340 0.901475 0.366503
O O12 0.941008 0.484016 0.750000
O O13 0.869935 0.446441 0.609806
O O14 0.618572 0.748890 0.250000
O O15 0.588317 0.617248 0.377319
O O16 0.640429 0.250000 0.500000
O O17 0.728007 0.397046 0.583315
O O18 0.656415 0.440466 0.428185
O O19 0.219733 0.568714 0.250000
O O20 0.622945 0.473136 0.250000
#
# Coordination Sequence:
#
# PCOD9436119 Si02
#       8
#     8   8   8   8   8   8   8   8
#     4  10  21  37  60  91 127 164 206 256 314 376
#     4  10  22  41  64  88 118 157 202 252 314 377
#     4  10  19  34  60  92 120 154 201 257 311 369
#     4  10  21  38  63  93 125 164 210 260 316 379
#     4  10  20  36  62  89 114 154 201 251 309 365
#     4  12  25  39  60  90 121 165 210 254 307 370
#     4  10  21  40  62  88 123 166 215 257 305 376
#     4  10  24  42  60  90 126 157 200 263 322 374
#
# _framework density 20.141905999999999
#
# number of rings (size 3 to 8) (size 9 to 14) (size 15 to 20)
#    0.000    1.750    1.250    2.625    1.750    3.000 
#    0.000    1.250    0.000    1.500    0.000    0.000 
#    0.000    0.000    0.000    0.000    0.000    0.000 
#
# Total GULP energy -356392.726961 kJ/mol
# GULP energy per Si atom -5568.636359 kJ/mol
# Density = 2.009606 g / cm^3
# Si number density = 20.141906 Si / 1000 Ang^3
#
#
#
# Elastic Constant Matrix: (Units=GPa)
#
#
# Indices 1 2 3 4 5 6 
#
# 1 37.9131 26.2499 4.6248 0.0000 0.0000 0.0000
# 2 26.2499 87.7353 40.5321 0.0000 0.0000 0.0000
# 3 4.6248 40.5321 82.9324 0.0000 0.0000 0.0000
# 4 0.0000 0.0000 0.0000 45.5787 0.0000 0.0000
# 5 0.0000 0.0000 0.0000 0.0000 15.7160 0.0000
# 6 0.0000 0.0000 0.0000 0.0000 0.0000 25.4703
#
#
#
# Elastic Compliance Matrix: (Units=1/GPa)
#
#
# Indices 1 2 3 4 5 6 
#
# 1 0.034267 -0.012102 0.004004 0.000000 0.000000 0.000000
# 2 -0.012102 0.018996 -0.008609 0.000000 0.000000 0.000000
# 3 0.004004 -0.008609 0.016042 0.000000 0.000000 0.000000
# 4 0.000000 0.000000 0.000000 0.021940 0.000000 0.000000
# 5 0.000000 0.000000 0.000000 0.000000 0.063630 0.000000
# 6 0.000000 0.000000 0.000000 0.000000 0.000000 0.039261
#
#
# Mechanical properties :
#
#
# Convention : Reuss Voigt Hill
#
# Bulk Modulus (GPa) = 27.86265 39.04380 33.45322
# Shear Modulus (GPa) = 20.87553 26.49791 23.68672
#
# Velocity S-wave (km/s) = 3.22284 3.63100 3.43299
# Velocity P-wave (km/s) = 5.26423 6.08320 5.68848
#
# Compressibility (1/GPa) = 0.03589035
#
# Stress axis : x y z
#
# Youngs Moduli (GPa) = 29.18269 52.64243 62.33494
#
# Poissons Ratio (x) = 0.63709 -0.24958
# Poissons Ratio (y) = 0.35317 0.53665
# Poissons Ratio (z) = -0.11684 0.45321
#
# Static dielectric constant tensor:
#      x y z
#    x 1.753080 0.000000 0.000000 
#    y 0.000000 1.781930 0.000000 
#    z 0.000000 0.000000 1.732480 
# 
# From -- ./inp_files/19143.got.cif
#   From: 2010.05.17/outbox.cif.g08.bks.cpg/sg57_10_cif.got.tgz:19143.got - 2010.06.03 13:58:18.
