data_PCOD9436360
_publ_section_title
;
Structure prediction by ZEFSAII (Michael W. Deem and Ramdas Pophale) SiO2 
 PCOD9436360
Probable space group: P B C M
;
_chemical_formula_sum "Si O2"
_cell_formula_units_Z 60
_cell_length_a 17.374281
_cell_length_b 18.752195
_cell_length_c 9.380504
_cell_angle_alpha 90.000000
_cell_angle_beta 90.000000
_cell_angle_gamma 90.000000
_cell_volume 3056.223598
_symmetry_space_group_name_H-M "P B C M"
_symmetry_group_IT_number 57
_symmetry_cell_setting 'orthorhombic'
loop_
_space_group_symop_operation_xyz
x,y,z
-x,-y,1/2+z
x,1/2-y,-z
-x,1/2+y,1/2-z
-x,-y,-z
x,y,1/2-z
-x,1/2+y,z
x,1/2-y,1/2+z
loop_
_atom_site_type_symbol
_atom_site_label
_atom_site_fract_x
_atom_site_fract_y
_atom_site_fract_z
Si Si1 0.581613 0.240145 0.750000
Si Si2 0.445780 0.859111 0.993978
Si Si3 0.914832 0.928704 0.916038
Si Si4 0.389701 0.174840 0.921094
Si Si5 0.800973 0.179149 0.083478
Si Si6 0.934810 0.098214 0.918449
Si Si7 0.314920 0.546451 0.413056
Si Si8 0.261923 0.088554 0.081350
O O1 0.593553 0.179011 0.627589
O O2 0.562041 0.300974 0.629578
O O3 0.534728 0.869972 0.036622
O O4 0.401082 0.929835 0.948691
O O5 0.936711 0.917631 0.750000
O O6 0.829163 0.899932 0.938995
O O7 0.912848 0.014557 0.938456
O O8 0.979344 0.896221 0.018278
O O9 0.388579 0.183773 0.750000
O O10 0.400043 0.250000 0.000000
O O11 0.313619 0.139994 0.985402
O O12 0.815397 0.195735 0.250000
O O13 0.735721 0.118568 0.079900
O O14 0.776553 0.250000 0.000000
O O15 0.875961 0.146740 0.006502
O O16 0.931673 0.113911 0.750000
O O17 0.309304 0.518787 0.250000
O O18 0.282332 0.490059 0.524494
O O19 0.278836 0.095996 0.250000
#
# Coordination Sequence:
#
# PCOD9436360 Si02
#       8
#     4   8   8   8   8   8   8   8
#     4  10  20  36  62  88 118 156 216 260 302 368
#     4  11  21  38  61  89 118 164 211 259 307 365
#     4   9  19  38  62  90 119 157 196 245 299 363
#     4  12  24  43  68  92 120 156 206 256 313 374
#     4  11  24  38  58  89 128 169 207 257 307 362
#     4  10  19  36  63  90 117 156 204 246 296 359
#     4  11  25  40  59  88 128 165 209 257 308 366
#     4  11  25  42  64  93 127 161 202 255 309 367
#
# _framework density 19.632072000000001
#
# number of rings (size 3 to 8) (size 9 to 14) (size 15 to 20)
#    0.000    1.333    4.000    1.600    3.733    2.667 
#    0.000    0.667    0.000    3.200    0.000    0.000 
#    0.000    0.000    0.000    0.000    0.000    0.000 
#
# Total GULP energy -334155.212952 kJ/mol
# GULP energy per Si atom -5569.253549 kJ/mol
# Density = 1.958739 g / cm^3
# Si number density = 19.632072 Si / 1000 Ang^3
#
#
#
# Elastic Constant Matrix: (Units=GPa)
#
#
# Indices 1 2 3 4 5 6 
#
# 1 93.5405 17.6640 37.5598 0.0000 0.0000 0.0000
# 2 17.6640 15.4448 12.3477 0.0000 0.0000 0.0000
# 3 37.5598 12.3477 132.8889 0.0000 0.0000 0.0000
# 4 0.0000 0.0000 0.0000 31.6328 0.0000 0.0000
# 5 0.0000 0.0000 0.0000 0.0000 110.6959 0.0000
# 6 0.0000 0.0000 0.0000 0.0000 0.0000 9.6423
#
#
#
# Elastic Compliance Matrix: (Units=1/GPa)
#
#
# Indices 1 2 3 4 5 6 
#
# 1 0.014519 -0.014394 -0.002766 0.000000 0.000000 0.000000
# 2 -0.014394 0.084212 -0.003756 0.000000 0.000000 0.000000
# 3 -0.002766 -0.003756 0.008656 0.000000 0.000000 0.000000
# 4 0.000000 0.000000 0.000000 0.031613 0.000000 0.000000
# 5 0.000000 0.000000 0.000000 0.000000 0.009034 0.000000
# 6 0.000000 0.000000 0.000000 0.000000 0.000000 0.103710
#
#
# Mechanical properties :
#
#
# Convention : Reuss Voigt Hill
#
# Bulk Modulus (GPa) = 15.25462 41.89081 28.57271
# Shear Modulus (GPa) = 15.85141 42.01437 28.93289
#
# Velocity S-wave (km/s) = 2.84460 4.63113 3.84312
# Velocity P-wave (km/s) = 4.31001 7.06971 5.85478
#
# Compressibility (1/GPa) = 0.06555392
#
# Stress axis : x y z
#
# Youngs Moduli (GPa) = 68.87293 11.87476 115.52685
#
# Poissons Ratio (x) = 0.17093 0.31959
# Poissons Ratio (y) = 0.99137 0.43397
# Poissons Ratio (z) = 0.19053 0.04461
#
# Static dielectric constant tensor:
#      x y z
#    x 1.715610 0.000000 0.000000 
#    y 0.000000 1.660700 0.000000 
#    z 0.000000 0.000000 1.428020 
# 
# From -- ./inp_files/6917.got.cif
#   From: 2010.05.17/outbox.cif.g08.bks.cpg/sg57_4_cif.got.tgz:6917.got - 2010.06.03 13:58:18.
