data_PCOD9436947
_publ_section_title
;
Structure prediction by ZEFSAII (Michael W. Deem and Ramdas Pophale) SiO2 
 PCOD9436947
Probable space group: P B C M
;
_chemical_formula_sum "Si O2"
_cell_formula_units_Z 64
_cell_length_a 21.490704
_cell_length_b 19.153938
_cell_length_c 8.732806
_cell_angle_alpha 90.000000
_cell_angle_beta 90.000000
_cell_angle_gamma 90.000000
_cell_volume 3594.699011
_symmetry_space_group_name_H-M "P B C M"
_symmetry_group_IT_number 57
_symmetry_cell_setting 'orthorhombic'
loop_
_space_group_symop_operation_xyz
x,y,z
-x,-y,1/2+z
x,1/2-y,-z
-x,1/2+y,1/2-z
-x,-y,-z
x,y,1/2-z
-x,1/2+y,z
x,1/2-y,1/2+z
loop_
_atom_site_type_symbol
_atom_site_label
_atom_site_fract_x
_atom_site_fract_y
_atom_site_fract_z
Si Si1 0.811659 0.031898 0.065273
Si Si2 0.505533 0.577192 0.065685
Si Si3 0.394340 0.823437 0.566290
Si Si4 0.251049 0.675547 0.065006
Si Si5 0.122186 0.324345 0.933070
Si Si6 0.063249 0.469290 0.566673
Si Si7 0.616304 0.828073 0.434642
Si Si8 0.752106 0.886596 0.065895
O O1 0.817592 0.032427 0.250000
O O2 0.786990 0.107417 0.016070
O O3 0.764611 0.968085 0.026956
O O4 0.877624 0.012773 0.992808
O O5 0.510148 0.575699 0.250000
O O6 0.442106 0.617062 0.021420
O O7 0.500000 0.500000 0.000000
O O8 0.563321 0.620724 0.998844
O O9 0.416440 0.750000 0.500000
O O10 0.393944 0.819253 0.750000
O O11 0.323107 0.834349 0.516235
O O12 0.249498 0.678714 0.250000
O O13 0.229461 0.750000 0.000000
O O14 0.123224 0.320794 0.750000
O O15 0.077923 0.389003 0.979665
O O16 0.103056 0.250000 0.000000
O O17 0.191391 0.343697 0.991545
O O18 0.061134 0.471681 0.750000
O O19 0.000000 0.500000 0.500000
O O20 0.608730 0.750000 0.500000
O O21 0.612679 0.826134 0.250000
O O22 0.684532 0.858001 0.478576
O O23 0.757303 0.880093 0.250000
#
# Coordination Sequence:
#
# PCOD9436947 Si02
#       8
#     8   8   8   8   8   8   8   8
#     4   9  18  34  57  81 108 144 181 219 269 322
#     4  11  24  39  56  78 106 142 184 232 282 334
#     4   9  19  35  56  77 102 136 177 223 272 327
#     4   9  18  33  55  80 107 138 177 223 272 325
#     4  10  20  34  55  83 114 144 180 225 268 318
#     4  10  21  37  57  82 112 145 182 223 264 313
#     4  11  23  38  57  80 111 146 184 227 276 333
#     4   9  19  34  56  82 109 145 182 223 274 327
#
# _framework density 17.803992999999998
#
# number of rings (size 3 to 8) (size 9 to 14) (size 15 to 20)
#    0.000    2.250    0.000    2.250    1.750    6.000 
#    0.000    0.625    0.000    0.000    0.000    0.000 
#    0.000    0.000    0.000    0.000    0.000    0.000 
#
# Total GULP energy -357212.863208 kJ/mol
# GULP energy per Si atom -5581.450988 kJ/mol
# Density = 1.776347 g / cm^3
# Si number density = 17.803993 Si / 1000 Ang^3
#
#
#
# Elastic Constant Matrix: (Units=GPa)
#
#
# Indices 1 2 3 4 5 6 
#
# 1 103.2364 103.5740 37.4900 0.0000 0.0000 0.0000
# 2 103.5740 200.0143 50.4678 0.0000 0.0000 0.0000
# 3 37.4900 50.4678 30.4738 0.0000 0.0000 0.0000
# 4 0.0000 0.0000 0.0000 32.1358 0.0000 0.0000
# 5 0.0000 0.0000 0.0000 0.0000 27.5224 0.0000
# 6 0.0000 0.0000 0.0000 0.0000 0.0000 22.6181
#
#
#
# Elastic Compliance Matrix: (Units=1/GPa)
#
#
# Indices 1 2 3 4 5 6 
#
# 1 0.023622 -0.008417 -0.015122 0.000000 0.000000 0.000000
# 2 -0.008417 0.011588 -0.008835 0.000000 0.000000 0.000000
# 3 -0.015122 -0.008835 0.066051 0.000000 0.000000 0.000000
# 4 0.000000 0.000000 0.000000 0.031118 0.000000 0.000000
# 5 0.000000 0.000000 0.000000 0.000000 0.036334 0.000000
# 6 0.000000 0.000000 0.000000 0.000000 0.000000 0.044212
#
#
# Mechanical properties :
#
#
# Convention : Reuss Voigt Hill
#
# Bulk Modulus (GPa) = 27.38787 79.64312 53.51549
# Shear Modulus (GPa) = 17.25061 25.93476 21.59269
#
# Velocity S-wave (km/s) = 3.11612 3.82079 3.48631
# Velocity P-wave (km/s) = 5.32572 8.01842 6.80655
#
# Compressibility (1/GPa) = 0.03651252
#
# Stress axis : x y z
#
# Youngs Moduli (GPa) = 42.33272 86.29960 15.13980
#
# Poissons Ratio (x) = 0.72637 0.22894
# Poissons Ratio (y) = 0.35631 0.13377
# Poissons Ratio (z) = 0.64015 0.76250
#
# Static dielectric constant tensor:
#      x y z
#    x 1.583880 0.000000 0.000000 
#    y 0.000000 1.590970 0.000000 
#    z 0.000000 0.000000 1.601720 
# 
# From -- ./inp_files/8595.got.cif
#   From: 2010.05.17/outbox.cif.g08.bks.cpg/sg57_5_cif.got.tgz:8595.got - 2010.06.03 13:58:18.
