data_PCOD9436786
_publ_section_title
;
Structure prediction by ZEFSAII (Michael W. Deem and Ramdas Pophale) SiO2 
 PCOD9436786
Probable space group: P B C M
;
_chemical_formula_sum "Si O2"
_cell_formula_units_Z 56
_cell_length_a 16.012798
_cell_length_b 13.883916
_cell_length_c 12.764039
_cell_angle_alpha 90.000000
_cell_angle_beta 90.000000
_cell_angle_gamma 90.000000
_cell_volume 2837.705520
_symmetry_space_group_name_H-M "P B C M"
_symmetry_group_IT_number 57
_symmetry_cell_setting 'orthorhombic'
loop_
_space_group_symop_operation_xyz
x,y,z
-x,-y,1/2+z
x,1/2-y,-z
-x,1/2+y,1/2-z
-x,-y,-z
x,y,1/2-z
-x,1/2+y,z
x,1/2-y,1/2+z
loop_
_atom_site_type_symbol
_atom_site_label
_atom_site_fract_x
_atom_site_fract_y
_atom_site_fract_z
Si Si1 0.930560 0.140584 0.540061
Si Si2 0.429227 0.599026 0.920654
Si Si3 0.603646 0.809167 0.130757
Si Si4 0.745501 0.142402 0.956392
Si Si5 0.267054 0.027861 0.873489
Si Si6 0.522180 0.883291 0.873303
Si Si7 0.078113 0.473290 0.131873
O O1 0.939021 0.250000 0.500000
O O2 0.838149 0.127769 0.590297
O O3 0.007934 0.106108 0.609408
O O4 0.931566 0.064761 0.443945
O O5 0.509609 0.648954 0.869975
O O6 0.438607 0.487196 0.894194
O O7 0.337977 0.632683 0.888167
O O8 0.445398 0.620588 0.044893
O O9 0.633289 0.796454 0.250000
O O10 0.666357 0.891669 0.090994
O O11 0.587624 0.699832 0.093811
O O12 0.733127 0.064069 0.049761
O O13 0.746083 0.250000 0.000000
O O14 0.283502 0.003299 0.750000
O O15 0.172146 0.066636 0.880421
O O16 0.501053 0.872960 0.750000
O O17 0.070086 0.508515 0.250000
#
# Coordination Sequence:
#
# PCOD9436786 Si02
#       7
#     8   8   8   8   8   8   8
#     4   9  19  36  55  79 109 138 171 216 265 313
#     4  11  21  34  52  74 104 142 177 212 258 310
#     4  10  20  35  55  78 105 137 175 219 264 309
#     4  10  20  34  52  75 105 138 174 213 255 306
#     4   9  18  34  56  78 100 133 176 217 258 309
#     4  10  21  35  51  74 105 138 175 220 263 305
#     4   9  18  35  58  81 105 135 174 218 264 316
#
# _framework density 19.734252999999999
#
# number of rings (size 3 to 8) (size 9 to 14) (size 15 to 20)
#    0.000    2.286    0.000    3.429    0.000    2.286 
#    0.000   10.714    0.000    1.714    0.000    0.000 
#    0.000    0.000    0.000    0.000    0.000    0.000 
#
# Total GULP energy -312068.646179 kJ/mol
# GULP energy per Si atom -5572.654396 kJ/mol
# Density = 1.968934 g / cm^3
# Si number density = 19.734253 Si / 1000 Ang^3
#
#
#
# Elastic Constant Matrix: (Units=GPa)
#
#
# Indices 1 2 3 4 5 6 
#
# 1 129.3664 38.0592 11.5894 0.0000 0.0000 0.0000
# 2 38.0592 111.4982 4.1933 0.0000 0.0000 0.0000
# 3 11.5894 4.1933 59.2619 0.0000 0.0000 0.0000
# 4 0.0000 0.0000 0.0000 19.4392 0.0000 0.0000
# 5 0.0000 0.0000 0.0000 0.0000 14.9281 0.0000
# 6 0.0000 0.0000 0.0000 0.0000 0.0000 6.2540
#
#
#
# Elastic Compliance Matrix: (Units=1/GPa)
#
#
# Indices 1 2 3 4 5 6 
#
# 1 0.008724 -0.002921 -0.001499 0.000000 0.000000 0.000000
# 2 -0.002921 0.009971 -0.000134 0.000000 0.000000 0.000000
# 3 -0.001499 -0.000134 0.017177 0.000000 0.000000 0.000000
# 4 0.000000 0.000000 0.000000 0.051442 0.000000 0.000000
# 5 0.000000 0.000000 0.000000 0.000000 0.066988 0.000000
# 6 0.000000 0.000000 0.000000 0.000000 0.000000 0.159898
#
#
# Mechanical properties :
#
#
# Convention : Reuss Voigt Hill
#
# Bulk Modulus (GPa) = 37.36666 45.31226 41.33946
# Shear Modulus (GPa) = 15.04978 24.54321 19.79650
#
# Velocity S-wave (km/s) = 2.76456 3.53042 3.17070
# Velocity P-wave (km/s) = 5.40059 6.29520 5.86498
#
# Compressibility (1/GPa) = 0.02676183
#
# Stress axis : x y z
#
# Youngs Moduli (GPa) = 114.62927 100.29070 58.21748
#
# Poissons Ratio (x) = 0.29299 0.08729
# Poissons Ratio (y) = 0.33488 0.00781
# Poissons Ratio (z) = 0.17187 0.01346
#
# Static dielectric constant tensor:
#      x y z
#    x 1.720020 0.000000 0.000000 
#    y 0.000000 1.681720 0.000000 
#    z 0.000000 0.000000 1.791910 
# 
# From -- ./inp_files/18632.got.cif
#   From: 2010.05.17/outbox.cif.g08.bks.cpg/sg57_10_cif.got.tgz:18632.got - 2010.06.03 13:58:18.
