data_PCOD9436767
_publ_section_title
;
Structure prediction by ZEFSAII (Michael W. Deem and Ramdas Pophale) SiO2 
 PCOD9436767
Probable space group: P B C M
;
_chemical_formula_sum "Si O2"
_cell_formula_units_Z 56
_cell_length_a 19.739176
_cell_length_b 18.570378
_cell_length_c 8.573804
_cell_angle_alpha 90.000000
_cell_angle_beta 90.000000
_cell_angle_gamma 90.000000
_cell_volume 3142.847544
_symmetry_space_group_name_H-M "P B C M"
_symmetry_group_IT_number 57
_symmetry_cell_setting 'orthorhombic'
loop_
_space_group_symop_operation_xyz
x,y,z
-x,-y,1/2+z
x,1/2-y,-z
-x,1/2+y,1/2-z
-x,-y,-z
x,y,1/2-z
-x,1/2+y,z
x,1/2-y,1/2+z
loop_
_atom_site_type_symbol
_atom_site_label
_atom_site_fract_x
_atom_site_fract_y
_atom_site_fract_z
Si Si1 0.724117 0.892843 0.438351
Si Si2 0.700998 0.170209 0.061474
Si Si3 0.136772 0.327010 0.437279
Si Si4 0.797369 0.042280 0.437765
Si Si5 0.433300 0.587957 0.437779
Si Si6 0.577474 0.919753 0.061663
Si Si7 0.070783 0.471397 0.564906
O O1 0.722230 0.886413 0.250000
O O2 0.785728 0.842767 0.493566
O O3 0.647268 0.883214 0.494501
O O4 0.748259 0.974447 0.472185
O O5 0.700342 0.170711 0.250000
O O6 0.760097 0.115048 0.013264
O O7 0.628904 0.137167 0.008809
O O8 0.710839 0.250000 0.000000
O O9 0.114108 0.250000 0.500000
O O10 0.136634 0.327142 0.250000
O O11 0.091885 0.393894 0.494721
O O12 0.806600 0.042981 0.250000
O O13 0.868752 0.025267 0.515917
O O14 0.434358 0.588984 0.250000
O O15 0.420899 0.504523 0.484572
O O16 0.506881 0.610590 0.499083
O O17 0.576287 0.917372 0.250000
O O18 0.067579 0.465442 0.750000
O O19 0.000000 0.500000 0.500000
#
# Coordination Sequence:
#
# PCOD9436767 Si02
#       7
#     8   8   8   8   8   8   8
#     4   8  14  28  52  75  98 134 176 216 264 320
#     4  10  20  34  52  72 103 143 182 225 276 327
#     4  10  20  36  58  84 115 149 182 220 270 324
#     4   9  17  34  56  77 103 138 177 219 268 321
#     4   9  17  29  45  68  98 133 174 222 274 322
#     4   9  15  27  48  71  95 129 174 222 271 321
#     4  11  22  38  61  89 116 144 180 221 264 317
#
# _framework density 17.818235999999999
#
# number of rings (size 3 to 8) (size 9 to 14) (size 15 to 20)
#    0.000    2.571    1.429    2.571    0.000    1.143 
#    0.000    5.000    0.000    5.143    0.000    0.000 
#    0.000    0.000    0.000    0.000    0.000    0.000 
#
# Total GULP energy -312236.193652 kJ/mol
# GULP energy per Si atom -5575.646315 kJ/mol
# Density = 1.777768 g / cm^3
# Si number density = 17.818236 Si / 1000 Ang^3
#
#
#
# Elastic Constant Matrix: (Units=GPa)
#
#
# Indices 1 2 3 4 5 6 
#
# 1 154.7230 64.9117 38.3299 0.0000 0.0000 0.0000
# 2 64.9117 108.6842 29.5413 0.0000 0.0000 0.0000
# 3 38.3299 29.5413 41.3212 0.0000 0.0000 0.0000
# 4 0.0000 0.0000 0.0000 23.9391 0.0000 0.0000
# 5 0.0000 0.0000 0.0000 0.0000 27.8506 0.0000
# 6 0.0000 0.0000 0.0000 0.0000 0.0000 17.8043
#
#
#
# Elastic Compliance Matrix: (Units=1/GPa)
#
#
# Indices 1 2 3 4 5 6 
#
# 1 0.009699 -0.004155 -0.006027 0.000000 0.000000 0.000000
# 2 -0.004155 0.013200 -0.005583 0.000000 0.000000 0.000000
# 3 -0.006027 -0.005583 0.033782 0.000000 0.000000 0.000000
# 4 0.000000 0.000000 0.000000 0.041773 0.000000 0.000000
# 5 0.000000 0.000000 0.000000 0.000000 0.035906 0.000000
# 6 0.000000 0.000000 0.000000 0.000000 0.000000 0.056166
#
#
# Mechanical properties :
#
#
# Convention : Reuss Voigt Hill
#
# Bulk Modulus (GPa) = 39.75703 63.36601 51.56152
# Shear Modulus (GPa) = 21.69768 25.38184 23.53976
#
# Velocity S-wave (km/s) = 3.49337 3.77833 3.63864
# Velocity P-wave (km/s) = 6.21551 7.39419 6.83032
#
# Compressibility (1/GPa) = 0.02515278
#
# Stress axis : x y z
#
# Youngs Moduli (GPa) = 103.10059 75.75838 29.60115
#
# Poissons Ratio (x) = 0.31476 0.17840
# Poissons Ratio (y) = 0.42836 0.16526
# Poissons Ratio (z) = 0.62137 0.42295
#
# Static dielectric constant tensor:
#      x y z
#    x 1.618050 0.000000 0.000000 
#    y 0.000000 1.593450 0.000000 
#    z 0.000000 0.000000 1.608950 
# 
# From -- ./inp_files/8276.got.cif
#   From: 2010.05.17/outbox.cif.g08.bks.cpg/sg57_5_cif.got.tgz:8276.got - 2010.06.03 13:58:18.
