data_PCOD9436212
_publ_section_title
;
Structure prediction by ZEFSAII (Michael W. Deem and Ramdas Pophale) SiO2 
 PCOD9436212
Probable space group: P B C M
;
_chemical_formula_sum "Si O2"
_cell_formula_units_Z 64
_cell_length_a 9.374516
_cell_length_b 23.229648
_cell_length_c 14.328139
_cell_angle_alpha 90.000000
_cell_angle_beta 90.000000
_cell_angle_gamma 90.000000
_cell_volume 3120.191645
_symmetry_space_group_name_H-M "P B C M"
_symmetry_group_IT_number 57
_symmetry_cell_setting 'orthorhombic'
loop_
_space_group_symop_operation_xyz
x,y,z
-x,-y,1/2+z
x,1/2-y,-z
-x,1/2+y,1/2-z
-x,-y,-z
x,y,1/2-z
-x,1/2+y,z
x,1/2-y,1/2+z
loop_
_atom_site_type_symbol
_atom_site_label
_atom_site_fract_x
_atom_site_fract_y
_atom_site_fract_z
Si Si1 0.526519 0.336440 0.643627
Si Si2 0.628327 0.715461 0.861183
Si Si3 0.133593 0.672690 0.140285
Si Si4 0.954888 0.783512 0.362941
Si Si5 0.177029 0.570795 0.012079
Si Si6 0.692713 0.972248 0.141668
Si Si7 0.522492 0.391472 0.457337
Si Si8 0.010510 0.413409 0.143629
O O1 0.502915 0.355493 0.750000
O O2 0.439336 0.278259 0.626263
O O3 0.694579 0.321220 0.633492
O O4 0.486929 0.383781 0.567045
O O5 0.629874 0.702945 0.750000
O O6 0.791324 0.717092 0.895873
O O7 0.533284 0.666895 0.909637
O O8 0.100957 0.663187 0.250000
O O9 0.099836 0.617214 0.078349
O O10 0.049771 0.729356 0.106981
O O11 0.949058 0.779371 0.250000
O O12 0.016868 0.846716 0.381416
O O13 0.248196 0.524553 0.080445
O O14 0.308202 0.600123 0.956201
O O15 0.069821 0.548940 0.933012
O O16 0.667516 0.988079 0.250000
O O17 0.557055 0.943639 0.093000
O O18 0.820674 0.925332 0.140860
O O19 0.964142 0.424508 0.250000
#
# Coordination Sequence:
#
# PCOD9436212 Si02
#       8
#     8   8   8   8   8   8   8   8
#     4   9  20  36  56  85 126 164 194 244 306 362
#     4  10  19  35  58  87 121 160 202 248 302 362
#     4   9  19  37  59  86 122 161 200 244 301 365
#     4   9  18  35  58  85 116 153 199 244 296 365
#     4  11  24  39  60  91 123 158 209 255 311 363
#     4  11  23  44  67  86 117 162 209 257 311 368
#     4  11  22  38  60  90 121 158 207 254 302 368
#     4  10  22  40  60  86 118 153 198 255 308 365
#
# _framework density 20.511559999999999
#
# number of rings (size 3 to 8) (size 9 to 14) (size 15 to 20)
#    0.000    2.000    1.250    1.875    1.750    3.000 
#    2.250    0.625    0.000    0.750    0.000    0.000 
#    0.000    0.000    0.000    0.000    0.000    0.000 
#
# Total GULP energy -357423.744111 kJ/mol
# GULP energy per Si atom -5584.746002 kJ/mol
# Density = 2.046488 g / cm^3
# Si number density = 20.511560 Si / 1000 Ang^3
#
#
#
# Elastic Constant Matrix: (Units=GPa)
#
#
# Indices 1 2 3 4 5 6 
#
# 1 42.9577 7.0267 35.4649 0.0000 0.0000 0.0000
# 2 7.0267 43.9076 28.0524 0.0000 0.0000 0.0000
# 3 35.4649 28.0524 84.5717 0.0000 0.0000 0.0000
# 4 0.0000 0.0000 0.0000 35.6275 0.0000 0.0000
# 5 0.0000 0.0000 0.0000 0.0000 26.6500 0.0000
# 6 0.0000 0.0000 0.0000 0.0000 0.0000 28.7800
#
#
#
# Elastic Compliance Matrix: (Units=1/GPa)
#
#
# Indices 1 2 3 4 5 6 
#
# 1 0.036447 0.004989 -0.016939 0.000000 0.000000 0.000000
# 2 0.004989 0.029583 -0.011905 0.000000 0.000000 0.000000
# 3 -0.016939 -0.011905 0.022876 0.000000 0.000000 0.000000
# 4 0.000000 0.000000 0.000000 0.028068 0.000000 0.000000
# 5 0.000000 0.000000 0.000000 0.000000 0.037523 0.000000
# 6 0.000000 0.000000 0.000000 0.000000 0.000000 0.034746
#
#
# Mechanical properties :
#
#
# Convention : Reuss Voigt Hill
#
# Bulk Modulus (GPa) = 24.27341 34.72499 29.49920
# Shear Modulus (GPa) = 19.94534 24.93770 22.44152
#
# Velocity S-wave (km/s) = 3.12171 3.49060 3.31129
# Velocity P-wave (km/s) = 4.98529 5.76298 5.38818
#
# Compressibility (1/GPa) = 0.04119734
#
# Stress axis : x y z
#
# Youngs Moduli (GPa) = 27.43711 33.80365 43.71313
#
# Poissons Ratio (x) = -0.16866 0.74045
# Poissons Ratio (y) = -0.13690 0.52040
# Poissons Ratio (z) = 0.46476 0.40243
#
# Static dielectric constant tensor:
#      x y z
#    x 1.708550 0.000000 0.000000 
#    y 0.000000 1.742020 0.000000 
#    z 0.000000 0.000000 1.756050 
# 
# From -- ./inp_files/16921.got.cif
#   From: 2010.05.17/outbox.cif.g08.bks.cpg/sg57_9_cif.got.tgz:16921.got - 2010.06.03 13:58:18.
