data_PCOD9436275
_publ_section_title
;
Structure prediction by ZEFSAII (Michael W. Deem and Ramdas Pophale) SiO2 
 PCOD9436275
Probable space group: P B C M
;
_chemical_formula_sum "Si O2"
_cell_formula_units_Z 64
_cell_length_a 12.128675
_cell_length_b 15.741195
_cell_length_c 17.644444
_cell_angle_alpha 90.000000
_cell_angle_beta 90.000000
_cell_angle_gamma 90.000000
_cell_volume 3368.674395
_symmetry_space_group_name_H-M "P B C M"
_symmetry_group_IT_number 57
_symmetry_cell_setting 'orthorhombic'
loop_
_space_group_symop_operation_xyz
x,y,z
-x,-y,1/2+z
x,1/2-y,-z
-x,1/2+y,1/2-z
-x,-y,-z
x,y,1/2-z
-x,1/2+y,z
x,1/2-y,1/2+z
loop_
_atom_site_type_symbol
_atom_site_label
_atom_site_fract_x
_atom_site_fract_y
_atom_site_fract_z
Si Si1 0.889846 0.745122 0.657827
Si Si2 0.256390 0.405421 0.841260
Si Si3 0.854766 0.253597 0.158955
Si Si4 0.503934 0.355946 0.160046
Si Si5 0.727798 0.086040 0.909029
Si Si6 0.256327 0.085409 0.841430
Si Si7 0.494442 0.846825 0.660278
Si Si8 0.727245 0.405801 0.911528
O O1 0.886252 0.744853 0.750000
O O2 0.824023 0.829370 0.634015
O O3 0.825270 0.660513 0.633462
O O4 0.017185 0.745646 0.635488
O O5 0.247002 0.415058 0.750000
O O6 0.232510 0.494468 0.880610
O O7 0.382536 0.378097 0.857166
O O8 0.848104 0.249159 0.250000
O O9 0.794630 0.338555 0.131171
O O10 0.793498 0.172481 0.124351
O O11 0.520389 0.371323 0.250000
O O12 0.600370 0.402404 0.115359
O O13 0.381716 0.387181 0.140174
O O14 0.511637 0.254581 0.147676
O O15 0.737723 0.094882 0.998611
O O16 0.249571 0.078120 0.750000
O O17 0.232119 0.995149 0.878306
O O18 0.474165 0.862207 0.750000
O O19 0.399944 0.892876 0.613196
#
# Coordination Sequence:
#
# PCOD9436275 Si02
#       8
#     8   8   8   8   8   8   8   8
#     4   9  20  40  67  92 112 145 202 257 296 339
#     4  10  20  39  65  93 120 151 194 246 297 351
#     4  11  23  42  65  86 112 153 204 255 296 341
#     4  10  19  35  63  92 119 154 194 239 294 351
#     4  12  25  39  57  88 126 162 196 237 291 356
#     4  10  20  39  65  93 120 151 194 246 297 351
#     4  10  19  35  63  92 119 154 194 239 294 351
#     4  12  25  39  57  88 126 162 196 237 291 356
#
# _framework density 18.998571999999999
#
# number of rings (size 3 to 8) (size 9 to 14) (size 15 to 20)
#    0.000    1.500    2.500    3.375    0.000    5.000 
#    0.000    8.125    0.000    0.000    0.000    0.000 
#    0.000    0.000    0.000    0.000    0.000    0.000 
#
# Total GULP energy -357835.115575 kJ/mol
# GULP energy per Si atom -5591.173681 kJ/mol
# Density = 1.895533 g / cm^3
# Si number density = 18.998572 Si / 1000 Ang^3
#
#
#
# Elastic Constant Matrix: (Units=GPa)
#
#
# Indices 1 2 3 4 5 6 
#
# 1 71.3308 -4.0816 0.5385 0.0000 0.0000 0.0000
# 2 -4.0816 58.1296 -13.5509 0.0000 0.0000 0.0000
# 3 0.5385 -13.5509 1.1454 0.0000 0.0000 0.0000
# 4 0.0000 0.0000 0.0000 -6.1992 0.0000 0.0000
# 5 0.0000 0.0000 0.0000 0.0000 -16.2736 0.0000
# 6 0.0000 0.0000 0.0000 0.0000 0.0000 -2.3164
#
#
#
# Elastic Compliance Matrix: (Units=1/GPa)
#
#
# Indices 1 2 3 4 5 6 
#
# 1 0.014059 0.000315 -0.002883 0.000000 0.000000 0.000000
# 2 0.000315 -0.009778 -0.115837 0.000000 0.000000 0.000000
# 3 -0.002883 -0.115837 -0.496042 0.000000 0.000000 0.000000
# 4 0.000000 0.000000 0.000000 -0.161311 0.000000 0.000000
# 5 0.000000 0.000000 0.000000 0.000000 -0.061449 0.000000
# 6 0.000000 0.000000 0.000000 0.000000 0.000000 -0.431709
#
#
# Mechanical properties :
#
#
# Convention : Reuss Voigt Hill
#
# Bulk Modulus (GPa) = -1.37255 10.71310 4.67028
# Shear Modulus (GPa) = -4.33923 4.88881 0.27479
#
# Velocity S-wave (km/s) = -1.51292 1.60588 0.38072
# Velocity P-wave (km/s) = 1.94318 3.01490 1.62998
#
# Compressibility (1/GPa) = -0.72857273
#
# Stress axis : x y z
#
# Youngs Moduli (GPa) = 71.12891 -102.26634 -2.01596
#
# Poissons Ratio (x) = 0.03222 -0.00581
# Poissons Ratio (y) = -0.02241 -0.23352
# Poissons Ratio (z) = 0.20508 -11.84627
#
# Static dielectric constant tensor:
#      x y z
#    x 1.642430 0.000000 0.000000 
#    y 0.000000 1.643390 0.000000 
#    z 0.000000 0.000000 1.630050 
# 
# From -- ./inp_files/22075.got.cif
#   From: 2010.05.17/outbox.cif.g08.bks.cpg/sg57_12_cif.got.tgz:22075.got - 2010.06.03 13:58:18.
