data_PCOD9436188
_publ_section_title
;
Structure prediction by ZEFSAII (Michael W. Deem and Ramdas Pophale) SiO2 
 PCOD9436188
Probable space group: P B C M
;
_chemical_formula_sum "Si O2"
_cell_formula_units_Z 64
_cell_length_a 21.996967
_cell_length_b 17.940957
_cell_length_c 9.024321
_cell_angle_alpha 90.000000
_cell_angle_beta 90.000000
_cell_angle_gamma 90.000000
_cell_volume 3561.417953
_symmetry_space_group_name_H-M "P B C M"
_symmetry_group_IT_number 57
_symmetry_cell_setting 'orthorhombic'
loop_
_space_group_symop_operation_xyz
x,y,z
-x,-y,1/2+z
x,1/2-y,-z
-x,1/2+y,1/2-z
-x,-y,-z
x,y,1/2-z
-x,1/2+y,z
x,1/2-y,1/2+z
loop_
_atom_site_type_symbol
_atom_site_label
_atom_site_fract_x
_atom_site_fract_y
_atom_site_fract_z
Si Si1 0.607656 0.435383 0.071672
Si Si2 0.064080 0.482457 0.073825
Si Si3 0.722697 0.169204 0.571954
Si Si4 0.243934 0.111531 0.074217
Si Si5 0.818853 0.452185 0.426183
Si Si6 0.125191 0.175356 0.926375
Si Si7 0.497575 0.328591 0.072430
Si Si8 0.371475 0.404017 0.072200
O O1 0.608827 0.448890 0.250000
O O2 0.663152 0.379710 0.036103
O O3 0.545431 0.393103 0.031816
O O4 0.615726 0.512927 0.987976
O O5 0.060238 0.491480 0.250000
O O6 0.084561 0.397366 0.042110
O O7 0.118467 0.533180 0.010087
O O8 0.000000 0.500000 0.000000
O O9 0.720831 0.250000 0.500000
O O10 0.724254 0.176664 0.750000
O O11 0.781263 0.120340 0.526516
O O12 0.245464 0.125537 0.250000
O O13 0.223981 0.024939 0.051690
O O14 0.191053 0.158914 0.997346
O O15 0.309264 0.123607 0.001656
O O16 0.830712 0.447733 0.250000
O O17 0.130616 0.183686 0.750000
O O18 0.100058 0.250000 0.000000
O O19 0.500677 0.320805 0.250000
O O20 0.429575 0.353726 0.031793
O O21 0.513619 0.250000 0.000000
O O22 0.365530 0.405137 0.250000
#
# Coordination Sequence:
#
# PCOD9436188 Si02
#       8
#     8   8   8   8   8   8   8   8
#     4  10  20  38  58  78 106 142 187 233 283 342
#     4  10  21  37  60  88 116 150 192 232 273 325
#     4  10  20  34  54  82 111 142 182 228 282 337
#     4  10  19  35  58  81 109 148 184 228 284 332
#     4   9  18  35  56  79 110 145 183 224 273 330
#     4  10  21  37  58  88 120 151 190 235 280 333
#     4  10  23  39  55  76 107 143 184 234 285 342
#     4  11  22  35  54  83 111 142 187 235 281 340
#
# _framework density 17.970371
#
# number of rings (size 3 to 8) (size 9 to 14) (size 15 to 20)
#    0.000    2.000    1.250    2.250    0.000    5.000 
#    0.000    1.875    0.000    0.000    0.000    0.000 
#    0.000    0.000    0.000    0.000    0.000    0.000 
#
# Total GULP energy -357465.698044 kJ/mol
# GULP energy per Si atom -5585.401532 kJ/mol
# Density = 1.792947 g / cm^3
# Si number density = 17.970371 Si / 1000 Ang^3
#
#
#
# Elastic Constant Matrix: (Units=GPa)
#
#
# Indices 1 2 3 4 5 6 
#
# 1 111.5653 4.6875 38.6581 0.0000 0.0000 0.0000
# 2 4.6875 43.7503 20.6682 0.0000 0.0000 0.0000
# 3 38.6581 20.6682 39.5206 0.0000 0.0000 0.0000
# 4 0.0000 0.0000 0.0000 31.4761 0.0000 0.0000
# 5 0.0000 0.0000 0.0000 0.0000 29.6195 0.0000
# 6 0.0000 0.0000 0.0000 0.0000 0.0000 11.9837
#
#
#
# Elastic Compliance Matrix: (Units=1/GPa)
#
#
# Indices 1 2 3 4 5 6 
#
# 1 0.015054 0.007097 -0.018436 0.000000 0.000000 0.000000
# 2 0.007097 0.033703 -0.024567 0.000000 0.000000 0.000000
# 3 -0.018436 -0.024567 0.056186 0.000000 0.000000 0.000000
# 4 0.000000 0.000000 0.000000 0.031770 0.000000 0.000000
# 5 0.000000 0.000000 0.000000 0.000000 0.033762 0.000000
# 6 0.000000 0.000000 0.000000 0.000000 0.000000 0.083447
#
#
# Mechanical properties :
#
#
# Convention : Reuss Voigt Hill
#
# Bulk Modulus (GPa) = 30.18651 35.87376 33.03014
# Shear Modulus (GPa) = 14.84662 23.33734 19.09198
#
# Velocity S-wave (km/s) = 2.87744 3.60760 3.26301
# Velocity P-wave (km/s) = 5.27958 6.11221 5.71109
#
# Compressibility (1/GPa) = 0.03312738
#
# Stress axis : x y z
#
# Youngs Moduli (GPa) = 66.42955 29.67130 17.79818
#
# Poissons Ratio (x) = -0.21057 0.32814
# Poissons Ratio (y) = -0.47143 0.43726
# Poissons Ratio (z) = 1.22473 0.72895
#
# Static dielectric constant tensor:
#      x y z
#    x 1.600260 0.000000 0.000000 
#    y 0.000000 1.599870 0.000000 
#    z 0.000000 0.000000 1.597040 
# 
# From -- ./inp_files/8583.got.cif
#   From: 2010.05.17/outbox.cif.g08.bks.cpg/sg57_5_cif.got.tgz:8583.got - 2010.06.03 13:58:18.
