data_PCOD9436046
_publ_section_title
;
Structure prediction by ZEFSAII (Michael W. Deem and Ramdas Pophale) SiO2 
 PCOD9436046
Probable space group: P B C M
;
_chemical_formula_sum "Si O2"
_cell_formula_units_Z 56
_cell_length_a 17.618191
_cell_length_b 20.260772
_cell_length_c 8.821094
_cell_angle_alpha 90.000000
_cell_angle_beta 90.000000
_cell_angle_gamma 90.000000
_cell_volume 3148.761403
_symmetry_space_group_name_H-M "P B C M"
_symmetry_group_IT_number 57
_symmetry_cell_setting 'orthorhombic'
loop_
_space_group_symop_operation_xyz
x,y,z
-x,-y,1/2+z
x,1/2-y,-z
-x,1/2+y,1/2-z
-x,-y,-z
x,y,1/2-z
-x,1/2+y,z
x,1/2-y,1/2+z
loop_
_atom_site_type_symbol
_atom_site_label
_atom_site_fract_x
_atom_site_fract_y
_atom_site_fract_z
Si Si1 0.390562 0.950100 0.569821
Si Si2 0.316046 0.321577 0.068414
Si Si3 0.947855 0.820722 0.932202
Si Si4 0.187376 0.084956 0.433019
Si Si5 0.123557 0.678817 0.431915
Si Si6 0.458422 0.405238 0.068795
Si Si7 0.774231 0.436284 0.431578
O O1 0.380105 0.945139 0.750000
O O2 0.461570 0.906214 0.515857
O O3 0.312671 0.933502 0.486592
O O4 0.415682 0.025532 0.533830
O O5 0.310290 0.319738 0.250000
O O6 0.400346 0.347314 0.028038
O O7 0.301075 0.250000 0.000000
O O8 0.255987 0.373899 0.004652
O O9 0.945284 0.815483 0.750000
O O10 0.890442 0.878497 0.978392
O O11 0.035271 0.833365 0.976108
O O12 0.924339 0.750000 0.000000
O O13 0.193603 0.088274 0.250000
O O14 0.193500 0.008416 0.476770
O O15 0.144813 0.750000 0.500000
O O16 0.127843 0.681214 0.250000
O O17 0.176610 0.621531 0.495070
O O18 0.471589 0.404306 0.250000
O O19 0.777280 0.431132 0.250000
#
# Coordination Sequence:
#
# PCOD9436046 Si02
#       7
#     8   8   8   8   8   8   8
#     4  10  19  34  57  82 108 140 184 230 277 331
#     4  11  22  36  54  80 116 153 190 231 279 334
#     4   9  19  36  56  80 110 148 190 232 278 332
#     4  10  21  36  55  82 115 150 190 232 278 331
#     4  10  21  39  61  82 109 144 186 233 285 341
#     4   9  19  35  54  78 108 143 184 229 277 331
#     4  11  22  36  57  85 117 148 185 233 282 335
#
# _framework density 17.784770999999999
#
# number of rings (size 3 to 8) (size 9 to 14) (size 15 to 20)
#    0.000    2.000    1.429    2.143    0.000    5.143 
#    0.000    0.714    0.000    1.714    0.000    0.000 
#    0.000    0.000    0.000    0.000    0.000    0.000 
#
# Total GULP energy -312680.690257 kJ/mol
# GULP energy per Si atom -5583.583755 kJ/mol
# Density = 1.774429 g / cm^3
# Si number density = 17.784771 Si / 1000 Ang^3
#
#
#
# Elastic Constant Matrix: (Units=GPa)
#
#
# Indices 1 2 3 4 5 6 
#
# 1 118.6797 89.0035 44.6510 0.0000 0.0000 0.0000
# 2 89.0035 140.3636 49.9329 0.0000 0.0000 0.0000
# 3 44.6510 49.9329 40.6884 0.0000 0.0000 0.0000
# 4 0.0000 0.0000 0.0000 26.2037 0.0000 0.0000
# 5 0.0000 0.0000 0.0000 0.0000 27.1294 0.0000
# 6 0.0000 0.0000 0.0000 0.0000 0.0000 25.1561
#
#
#
# Elastic Compliance Matrix: (Units=1/GPa)
#
#
# Indices 1 2 3 4 5 6 
#
# 1 0.018220 -0.007881 -0.010323 0.000000 0.000000 0.000000
# 2 -0.007881 0.016053 -0.011052 0.000000 0.000000 0.000000
# 3 -0.010323 -0.011052 0.049469 0.000000 0.000000 0.000000
# 4 0.000000 0.000000 0.000000 0.038163 0.000000 0.000000
# 5 0.000000 0.000000 0.000000 0.000000 0.036860 0.000000
# 6 0.000000 0.000000 0.000000 0.000000 0.000000 0.039752
#
#
# Mechanical properties :
#
#
# Convention : Reuss Voigt Hill
#
# Bulk Modulus (GPa) = 39.63570 74.10072 56.86821
# Shear Modulus (GPa) = 18.83667 23.44079 21.13873
#
# Velocity S-wave (km/s) = 3.25798 3.63440 3.45133
# Velocity P-wave (km/s) = 6.04047 7.70503 6.92296
#
# Compressibility (1/GPa) = 0.02522978
#
# Stress axis : x y z
#
# Youngs Moduli (GPa) = 54.88398 62.29254 20.21472
#
# Poissons Ratio (x) = 0.49092 0.20868
# Poissons Ratio (y) = 0.43254 0.22342
# Poissons Ratio (z) = 0.56658 0.68847
#
# Static dielectric constant tensor:
#      x y z
#    x 1.597310 0.000000 0.000000 
#    y 0.000000 1.584270 0.000000 
#    z 0.000000 0.000000 1.589880 
# 
# From -- ./inp_files/5122.got.cif
#   From: 2010.05.17/outbox.cif.g08.bks.cpg/sg57_3_cif.got.tgz:5122.got - 2010.06.03 13:58:18.
