data_PCOD9436054
_publ_section_title
;
Structure prediction by ZEFSAII (Michael W. Deem and Ramdas Pophale) SiO2 
 PCOD9436054
Probable space group: P B C M
;
_chemical_formula_sum "Si O2"
_cell_formula_units_Z 64
_cell_length_a 12.124540
_cell_length_b 18.759680
_cell_length_c 15.956515
_cell_angle_alpha 90.000000
_cell_angle_beta 90.000000
_cell_angle_gamma 90.000000
_cell_volume 3629.349077
_symmetry_space_group_name_H-M "P B C M"
_symmetry_group_IT_number 57
_symmetry_cell_setting 'orthorhombic'
loop_
_space_group_symop_operation_xyz
x,y,z
-x,-y,1/2+z
x,1/2-y,-z
-x,1/2+y,1/2-z
-x,-y,-z
x,y,1/2-z
-x,1/2+y,z
x,1/2-y,1/2+z
loop_
_atom_site_type_symbol
_atom_site_label
_atom_site_fract_x
_atom_site_fract_y
_atom_site_fract_z
Si Si1 0.250892 0.218048 0.372227
Si Si2 0.011004 0.415669 0.490970
Si Si3 0.752285 0.861479 0.050097
Si Si4 0.486099 0.083481 0.986357
Si Si5 0.614257 0.325559 0.347905
Si Si6 0.494932 0.172877 0.157096
Si Si7 0.143622 0.703298 0.584209
Si Si8 0.993056 0.674339 0.159754
O O1 0.245346 0.184463 0.464869
O O2 0.257090 0.303326 0.376871
O O3 0.364233 0.187758 0.337527
O O4 0.134694 0.196155 0.335033
O O5 0.131303 0.401040 0.450799
O O6 0.001173 0.381006 0.583574
O O7 0.000000 0.500000 0.500000
O O8 0.921327 0.369420 0.439097
O O9 0.640526 0.905334 0.042398
O O10 0.510145 0.123553 0.075162
O O11 0.561415 0.119125 0.914028
O O12 0.500000 0.000000 0.000000
O O13 0.601196 0.346622 0.250000
O O14 0.553827 0.248934 0.358533
O O15 0.742584 0.314091 0.369886
O O16 0.531440 0.146349 0.250000
O O17 0.166804 0.750000 0.500000
O O18 0.063722 0.755626 0.636555
O O19 0.029859 0.645888 0.250000
#
# Coordination Sequence:
#
# PCOD9436054 Si02
#       8
#     8   8   8   8   8   8   8   8
#     4   9  15  31  58  85 109 135 182 242 286 321
#     4  10  21  36  58  82 115 155 189 225 283 351
#     4   9  17  33  56  83 109 143 191 231 277 339
#     4  11  23  37  59  84 119 158 188 231 290 347
#     4  11  23  39  59  85 114 149 195 241 282 336
#     4  10  20  36  60  86 111 146 194 242 285 338
#     4  10  20  36  59  83 109 149 194 230 284 338
#     4  10  19  34  57  84 111 142 188 242 283 330
#
# _framework density 17.634015999999999
#
# number of rings (size 3 to 8) (size 9 to 14) (size 15 to 20)
#    0.000    2.000    2.500    1.875    1.750    0.500 
#    0.000    1.250    0.000    0.000    0.000    0.000 
#    0.000    0.000    0.000    0.000    0.000    0.000 
#
# Total GULP energy -356523.033525 kJ/mol
# GULP energy per Si atom -5570.672399 kJ/mol
# Density = 1.759388 g / cm^3
# Si number density = 17.634016 Si / 1000 Ang^3
#
#
#
# Elastic Constant Matrix: (Units=GPa)
#
#
# Indices 1 2 3 4 5 6 
#
# 1 110.4360 53.7398 41.0252 0.0000 0.0000 0.0000
# 2 53.7398 127.0237 53.7341 0.0000 0.0000 0.0000
# 3 41.0252 53.7341 109.8941 0.0000 0.0000 0.0000
# 4 0.0000 0.0000 0.0000 19.4391 0.0000 0.0000
# 5 0.0000 0.0000 0.0000 0.0000 141.6726 0.0000
# 6 0.0000 0.0000 0.0000 0.0000 0.0000 11.5209
#
#
#
# Elastic Compliance Matrix: (Units=1/GPa)
#
#
# Indices 1 2 3 4 5 6 
#
# 1 0.011924 -0.003986 -0.002502 0.000000 0.000000 0.000000
# 2 -0.003986 0.011258 -0.004017 0.000000 0.000000 0.000000
# 3 -0.002502 -0.004017 0.011998 0.000000 0.000000 0.000000
# 4 0.000000 0.000000 0.000000 0.051443 0.000000 0.000000
# 5 0.000000 0.000000 0.000000 0.000000 0.007059 0.000000
# 6 0.000000 0.000000 0.000000 0.000000 0.000000 0.086799
#
#
# Mechanical properties :
#
#
# Convention : Reuss Voigt Hill
#
# Bulk Modulus (GPa) = 70.57319 71.59466 71.08392
# Shear Modulus (GPa) = 24.24657 47.78350 36.01504
#
# Velocity S-wave (km/s) = 3.71211 5.21116 4.52415
# Velocity P-wave (km/s) = 7.64728 8.76908 8.22732
#
# Compressibility (1/GPa) = 0.01416969
#
# Stress axis : x y z
#
# Youngs Moduli (GPa) = 83.86167 88.82449 83.34808
#
# Poissons Ratio (x) = 0.35408 0.20857
# Poissons Ratio (y) = 0.33429 0.33478
# Poissons Ratio (z) = 0.20986 0.35678
#
# Static dielectric constant tensor:
#      x y z
#    x 1.608070 0.000000 0.000000 
#    y 0.000000 1.568070 0.000000 
#    z 0.000000 0.000000 1.650200 
# 
# From -- ./inp_files/17986.got.cif
#   From: 2010.05.17/outbox.cif.g08.bks.cpg/sg57_9_cif.got.tgz:17986.got - 2010.06.03 13:58:18.
