data_PCOD9436372
_publ_section_title
;
Structure prediction by ZEFSAII (Michael W. Deem and Ramdas Pophale) SiO2 
 PCOD9436372
Probable space group: P B C M
;
_chemical_formula_sum "Si O2"
_cell_formula_units_Z 48
_cell_length_a 8.943771
_cell_length_b 8.454774
_cell_length_c 30.358275
_cell_angle_alpha 90.000000
_cell_angle_beta 90.000000
_cell_angle_gamma 90.000000
_cell_volume 2295.618758
_symmetry_space_group_name_H-M "P B C M"
_symmetry_group_IT_number 57
_symmetry_cell_setting 'orthorhombic'
loop_
_space_group_symop_operation_xyz
x,y,z
-x,-y,1/2+z
x,1/2-y,-z
-x,1/2+y,1/2-z
-x,-y,-z
x,y,1/2-z
-x,1/2+y,z
x,1/2-y,1/2+z
loop_
_atom_site_type_symbol
_atom_site_label
_atom_site_fract_x
_atom_site_fract_y
_atom_site_fract_z
Si Si1 0.156646 0.149753 0.410599
Si Si2 0.061060 0.629400 0.966554
Si Si3 0.221454 0.920911 0.203325
Si Si4 0.036334 0.616062 0.323384
Si Si5 0.672390 0.961242 0.302717
Si Si6 0.583928 0.640679 0.153552
O O1 0.322478 0.186911 0.390872
O O2 0.077400 0.278658 0.442752
O O3 0.035315 0.138081 0.371173
O O4 0.156346 0.974990 0.432562
O O5 0.142782 0.750000 0.000000
O O6 0.000000 0.500000 0.000000
O O7 0.300131 0.901805 0.250000
O O8 0.126060 0.767893 0.192486
O O9 0.334039 0.976658 0.166494
O O10 0.104603 0.064843 0.205059
O O11 0.156397 0.476170 0.318261
O O12 0.660788 0.995359 0.250000
O O13 0.618155 0.784730 0.313438
O O14 0.584332 0.086179 0.334545
#
# Coordination Sequence:
#
# PCOD9436372 Si02
#       6
#     8   8   8   8   8   8
#     4  10  19  37  56  87 118 139 181 227 283 358
#     4   9  18  33  60  92 115 136 165 220 285 347
#     4  11  20  34  50  75 106 147 194 243 293 332
#     4  11  22  33  55  80 111 151 189 240 288 328
#     4  12  23  38  53  78 111 156 208 244 274 321
#     4  11  24  37  55  76 110 155 195 246 291 326
#
# _framework density 20.909395
#
# number of rings (size 3 to 8) (size 9 to 14) (size 15 to 20)
#    0.000    1.333    0.000    9.000    0.000    0.000 
#    0.000    0.000    0.000    0.000    0.000   73.500 
#    0.000    0.000    0.000    0.000    0.000    0.000 
#
# Total GULP energy -267334.068382 kJ/mol
# GULP energy per Si atom -5569.459758 kJ/mol
# Density = 2.086180 g / cm^3
# Si number density = 20.909395 Si / 1000 Ang^3
#
#
#
# Elastic Constant Matrix: (Units=GPa)
#
#
# Indices 1 2 3 4 5 6 
#
# 1 76.9359 -4.9902 13.7779 0.0000 0.0000 0.0000
# 2 -4.9902 79.6084 19.1251 0.0000 0.0000 0.0000
# 3 13.7779 19.1251 103.9571 0.0000 0.0000 0.0000
# 4 0.0000 0.0000 0.0000 2.3418 0.0000 0.0000
# 5 0.0000 0.0000 0.0000 0.0000 -24.5274 0.0000
# 6 0.0000 0.0000 0.0000 0.0000 0.0000 23.7518
#
#
#
# Elastic Compliance Matrix: (Units=1/GPa)
#
#
# Indices 1 2 3 4 5 6 
#
# 1 0.013447 0.001330 -0.002027 0.000000 0.000000 0.000000
# 2 0.001330 0.013274 -0.002618 0.000000 0.000000 0.000000
# 3 -0.002027 -0.002618 0.010370 0.000000 0.000000 0.000000
# 4 0.000000 0.000000 0.000000 0.427017 0.000000 0.000000
# 5 0.000000 0.000000 0.000000 0.000000 -0.040771 0.000000
# 6 0.000000 0.000000 0.000000 0.000000 0.000000 0.042102
#
#
# Mechanical properties :
#
#
# Convention : Reuss Voigt Hill
#
# Bulk Modulus (GPa) = 32.82988 35.14745 33.98866
# Shear Modulus (GPa) = 10.36866 15.81914 13.09390
#
# Velocity S-wave (km/s) = 2.22926 2.75354 2.50516
# Velocity P-wave (km/s) = 4.72877 5.19184 4.96571
#
# Compressibility (1/GPa) = 0.03046006
#
# Stress axis : x y z
#
# Youngs Moduli (GPa) = 74.36572 75.33605 96.43518
#
# Poissons Ratio (x) = -0.10019 0.19546
# Poissons Ratio (y) = -0.09889 0.25249
# Poissons Ratio (z) = 0.15073 0.19725
#
# Static dielectric constant tensor:
#      x y z
#    x 1.814480 0.000000 0.000000 
#    y 0.000000 1.836320 0.000000 
#    z 0.000000 0.000000 2.263770 
# 
# From -- ./inp_files/29442.got.cif
#   From: 2010.05.17/outbox.cif.g08.bks.cpg/sg57_15_cif.got.tgz:29442.got - 2010.06.03 13:58:18.
