data_PCOD9436380
_publ_section_title
;
Structure prediction by ZEFSAII (Michael W. Deem and Ramdas Pophale) SiO2 
 PCOD9436380
Probable space group: P B C M
;
_chemical_formula_sum "Si O2"
_cell_formula_units_Z 36
_cell_length_a 8.403091
_cell_length_b 19.218841
_cell_length_c 10.204976
_cell_angle_alpha 90.000000
_cell_angle_beta 90.000000
_cell_angle_gamma 90.000000
_cell_volume 1648.079845
_symmetry_space_group_name_H-M "P B C M"
_symmetry_group_IT_number 57
_symmetry_cell_setting 'orthorhombic'
loop_
_space_group_symop_operation_xyz
x,y,z
-x,-y,1/2+z
x,1/2-y,-z
-x,1/2+y,1/2-z
-x,-y,-z
x,y,1/2-z
-x,1/2+y,z
x,1/2-y,1/2+z
loop_
_atom_site_type_symbol
_atom_site_label
_atom_site_fract_x
_atom_site_fract_y
_atom_site_fract_z
Si Si1 0.803795 0.372893 0.750000
Si Si2 0.812788 0.285547 0.250000
Si Si3 0.074115 0.896651 0.036380
Si Si4 0.576873 0.621648 0.250000
Si Si5 0.509068 0.655850 0.750000
Si Si6 0.255614 0.328965 0.491551
Si Si7 0.259406 0.972181 0.250000
O O1 0.868339 0.293257 0.750000
O O2 0.863464 0.402496 0.611497
O O3 0.613215 0.378878 0.750000
O O4 0.864624 0.329044 0.378921
O O5 0.621794 0.283529 0.250000
O O6 0.146173 0.958454 0.124536
O O7 0.886543 0.883479 0.029089
O O8 0.647692 0.658309 0.123171
O O9 0.652208 0.544677 0.250000
O O10 0.620547 0.661728 0.625349
O O11 0.398573 0.586789 0.750000
O O12 0.191266 0.250000 0.500000
#
# Coordination Sequence:
#
# PCOD9436380 Si02
#       7
#     4   4   8   4   4   8   4
#     4  12  21  36  61  93 120 164 208 253 310 364
#     4  10  19  37  60  91 126 164 201 246 312 384
#     4  10  23  40  65  89 128 166 202 255 312 384
#     4  12  27  41  65  91 127 163 212 266 301 376
#     4  10  22  38  64  87 125 167 205 257 304 366
#     4  12  23  40  65 101 128 158 203 265 327 368
#     4  10  25  48  60  86 122 176 220 244 311 374
#
# _framework density 21.843602000000001
#
# number of rings (size 3 to 8) (size 9 to 14) (size 15 to 20)
#    0.000    1.333    0.000    8.667    0.000    4.444 
#    0.000    2.222    0.000    0.000    0.000    0.000 
#    0.000    0.000    0.000    0.000    0.000    0.000 
#
# Total GULP energy -201385.351269 kJ/mol
# GULP energy per Si atom -5594.037535 kJ/mol
# Density = 2.179388 g / cm^3
# Si number density = 21.843602 Si / 1000 Ang^3
#
#
#
# Elastic Constant Matrix: (Units=GPa)
#
#
# Indices 1 2 3 4 5 6 
#
# 1 119.9518 -14.4828 51.9408 0.0000 0.0000 0.0000
# 2 -14.4828 60.7124 10.1642 0.0000 0.0000 0.0000
# 3 51.9408 10.1642 201.0446 0.0000 0.0000 0.0000
# 4 0.0000 0.0000 0.0000 8.9744 0.0000 0.0000
# 5 0.0000 0.0000 0.0000 0.0000 41.3405 0.0000
# 6 0.0000 0.0000 0.0000 0.0000 0.0000 20.4955
#
#
#
# Elastic Compliance Matrix: (Units=1/GPa)
#
#
# Indices 1 2 3 4 5 6 
#
# 1 0.009836 0.002795 -0.002682 0.000000 0.000000 0.000000
# 2 0.002795 0.017406 -0.001602 0.000000 0.000000 0.000000
# 3 -0.002682 -0.001602 0.005748 0.000000 0.000000 0.000000
# 4 0.000000 0.000000 0.000000 0.111429 0.000000 0.000000
# 5 0.000000 0.000000 0.000000 0.000000 0.024189 0.000000
# 6 0.000000 0.000000 0.000000 0.000000 0.000000 0.048791
#
#
# Mechanical properties :
#
#
# Convention : Reuss Voigt Hill
#
# Bulk Modulus (GPa) = 33.32063 52.99479 43.15771
# Shear Modulus (GPa) = 21.70314 36.43450 29.06882
#
# Velocity S-wave (km/s) = 3.15551 4.08851 3.65193
# Velocity P-wave (km/s) = 5.34450 6.82653 6.13047
#
# Compressibility (1/GPa) = 0.03001143
#
# Stress axis : x y z
#
# Youngs Moduli (GPa) = 101.67015 57.45086 173.97221
#
# Poissons Ratio (x) = -0.16060 0.46667
# Poissons Ratio (y) = -0.28421 0.27874
# Poissons Ratio (z) = 0.27272 0.09205
#
# Static dielectric constant tensor:
#      x y z
#    x 1.752740 0.000000 0.000000 
#    y 0.000000 1.846850 0.000000 
#    z 0.000000 0.000000 1.753380 
# 
# From -- ./inp_files/1391.got.cif
#   From: 2010.05.17/outbox.cif.g08.bks.cpg/sg57_1_cif.got.tgz:1391.got - 2010.06.03 13:58:18.
