data_PCOD9436043
_publ_section_title
;
Structure prediction by ZEFSAII (Michael W. Deem and Ramdas Pophale) SiO2 
 PCOD9436043
Probable space group: P B C M
;
_chemical_formula_sum "Si O2"
_cell_formula_units_Z 28
_cell_length_a 5.996534
_cell_length_b 21.360591
_cell_length_c 9.918392
_cell_angle_alpha 90.000000
_cell_angle_beta 90.000000
_cell_angle_gamma 90.000000
_cell_volume 1270.441973
_symmetry_space_group_name_H-M "P B C M"
_symmetry_group_IT_number 57
_symmetry_cell_setting 'orthorhombic'
loop_
_space_group_symop_operation_xyz
x,y,z
-x,-y,1/2+z
x,1/2-y,-z
-x,1/2+y,1/2-z
-x,-y,-z
x,y,1/2-z
-x,1/2+y,z
x,1/2-y,1/2+z
loop_
_atom_site_type_symbol
_atom_site_label
_atom_site_fract_x
_atom_site_fract_y
_atom_site_fract_z
Si Si1 0.229156 0.770482 0.750000
Si Si2 0.289431 0.861433 0.250000
Si Si3 0.327913 0.459516 0.250000
Si Si4 0.831700 0.094281 0.250000
Si Si5 0.900170 0.750000 0.000000
Si Si6 0.920642 0.883562 0.026453
O O1 0.386523 0.709586 0.750000
O O2 0.312306 0.841454 0.750000
O O3 0.063030 0.764162 0.875701
O O4 0.446383 0.920809 0.250000
O O5 0.134638 0.866828 0.118373
O O6 0.324231 0.533858 0.250000
O O7 0.204822 0.435188 0.385390
O O8 0.990941 0.094901 0.381637
O O9 0.783333 0.682543 0.980112
#
# Coordination Sequence:
#
# PCOD9436043 Si02
#       6
#     4   4   4   4   4   8
#     4   8  15  30  53  73  97 137 180 217 261 315
#     4   9  19  36  56  77 105 146 186 224 273 317
#     4  11  21  34  56  83 113 146 180 222 275 331
#     4  10  19  34  57  81 111 151 182 219 277 327
#     4   8  14  30  54  72  94 136 176 218 266 306
#     4   9  19  36  56  78 109 143 182 226 269 323
#
# _framework density 22.039573000000001
#
# number of rings (size 3 to 8) (size 9 to 14) (size 15 to 20)
#    0.000    2.857    0.000    1.714    0.000    1.143 
#    0.000   10.000    0.000   13.714    0.000    0.000 
#    0.000    0.000    0.000    0.000    0.000    0.000 
#
# Total GULP energy -156066.666126 kJ/mol
# GULP energy per Si atom -5573.809505 kJ/mol
# Density = 2.198941 g / cm^3
# Si number density = 22.039573 Si / 1000 Ang^3
#
#
#
# Elastic Constant Matrix: (Units=GPa)
#
#
# Indices 1 2 3 4 5 6 
#
# 1 12.7866 3.1167 7.9428 0.0000 0.0000 0.0000
# 2 3.1167 127.2045 14.8060 0.0000 0.0000 0.0000
# 3 7.9428 14.8060 164.4460 0.0000 0.0000 0.0000
# 4 0.0000 0.0000 0.0000 12.3340 0.0000 0.0000
# 5 0.0000 0.0000 0.0000 0.0000 -10.1868 0.0000
# 6 0.0000 0.0000 0.0000 0.0000 0.0000 103.6041
#
#
#
# Elastic Compliance Matrix: (Units=1/GPa)
#
#
# Indices 1 2 3 4 5 6 
#
# 1 0.080925 -0.001544 -0.003770 0.000000 0.000000 0.000000
# 2 -0.001544 0.007974 -0.000643 0.000000 0.000000 0.000000
# 3 -0.003770 -0.000643 0.006321 0.000000 0.000000 0.000000
# 4 0.000000 0.000000 0.000000 0.081077 0.000000 0.000000
# 5 0.000000 0.000000 0.000000 0.000000 -0.098166 0.000000
# 6 0.000000 0.000000 0.000000 0.000000 0.000000 0.009652
#
#
# Mechanical properties :
#
#
# Convention : Reuss Voigt Hill
#
# Bulk Modulus (GPa) = 12.00395 39.57423 25.78909
# Shear Modulus (GPa) = 39.22622 39.72170 39.47396
#
# Velocity S-wave (km/s) = 4.22335 4.24994 4.23667
# Velocity P-wave (km/s) = 5.40746 6.48673 5.97153
#
# Compressibility (1/GPa) = 0.08330589
#
# Stress axis : x y z
#
# Youngs Moduli (GPa) = 12.35713 125.40647 158.20214
#
# Poissons Ratio (x) = 0.19363 0.59637
# Poissons Ratio (y) = 0.01908 0.10178
# Poissons Ratio (z) = 0.04658 0.08068
#
# Static dielectric constant tensor:
#      x y z
#    x 1.802040 0.000000 0.000000 
#    y 0.000000 1.976190 0.000000 
#    z 0.000000 0.000000 1.791040 
# 
# From -- ./inp_files/10631.got.cif
#   From: 2010.05.17/outbox.cif.g08.bks.cpg/sg57_6_cif.got.tgz:10631.got - 2010.06.03 13:58:18.
