data_PCOD9436779
_publ_section_title
;
Structure prediction by ZEFSAII (Michael W. Deem and Ramdas Pophale) SiO2 
 PCOD9436779
Probable space group: P B C M
;
_chemical_formula_sum "Si O2"
_cell_formula_units_Z 48
_cell_length_a 16.720832
_cell_length_b 19.110577
_cell_length_c 8.650123
_cell_angle_alpha 90.000000
_cell_angle_beta 90.000000
_cell_angle_gamma 90.000000
_cell_volume 2764.101369
_symmetry_space_group_name_H-M "P B C M"
_symmetry_group_IT_number 57
_symmetry_cell_setting 'orthorhombic'
loop_
_space_group_symop_operation_xyz
x,y,z
-x,-y,1/2+z
x,1/2-y,-z
-x,1/2+y,1/2-z
-x,-y,-z
x,y,1/2-z
-x,1/2+y,z
x,1/2-y,1/2+z
loop_
_atom_site_type_symbol
_atom_site_label
_atom_site_fract_x
_atom_site_fract_y
_atom_site_fract_z
Si Si1 0.082103 0.530380 0.435187
Si Si2 0.836297 0.173213 0.064402
Si Si3 0.239120 0.039823 0.435100
Si Si4 0.663214 0.672953 0.063513
Si Si5 0.675191 0.092737 0.436921
Si Si6 0.517971 0.327422 0.563573
O O1 0.079209 0.530975 0.250000
O O2 0.105024 0.609834 0.486394
O O3 0.155513 0.482023 0.489547
O O4 0.000000 0.500000 0.500000
O O5 0.840034 0.176635 0.250000
O O6 0.746440 0.147294 0.022955
O O7 0.853389 0.250000 0.000000
O O8 0.230571 0.039865 0.250000
O O9 0.273922 0.114399 0.486303
O O10 0.301506 0.979952 0.485075
O O11 0.664115 0.675585 0.250000
O O12 0.572319 0.653059 0.015658
O O13 0.680105 0.750000 0.000000
O O14 0.676821 0.084556 0.250000
O O15 0.589080 0.121522 0.485695
O O16 0.533853 0.250000 0.500000
O O17 0.519687 0.324821 0.750000
#
# Coordination Sequence:
#
# PCOD9436779 Si02
#       6
#     8   8   8   8   8   8
#     4  10  21  38  58  80 104 131 164 203 250 303
#     4   9  18  31  49  75 104 131 162 199 241 293
#     4  10  20  34  52  75 101 130 167 208 251 302
#     4   9  19  34  51  72  99 133 174 217 256 295
#     4   9  18  31  47  71 103 136 169 208 252 298
#     4   9  17  30  47  69 100 136 174 215 255 294
#
# _framework density 17.365499
#
# number of rings (size 3 to 8) (size 9 to 14) (size 15 to 20)
#    0.000    2.667    0.000    2.500    0.000    6.000 
#    0.000    0.833    0.000    0.000    0.000    0.000 
#    0.000    0.000    0.000    0.000    0.000    0.000 
#
# Total GULP energy -267638.756227 kJ/mol
# GULP energy per Si atom -5575.807421 kJ/mol
# Density = 1.732597 g / cm^3
# Si number density = 17.365499 Si / 1000 Ang^3
#
#
#
# Elastic Constant Matrix: (Units=GPa)
#
#
# Indices 1 2 3 4 5 6 
#
# 1 109.9791 101.5754 28.6860 0.0000 0.0000 0.0000
# 2 101.5754 143.2991 30.7960 0.0000 0.0000 0.0000
# 3 28.6860 30.7960 19.9849 0.0000 0.0000 0.0000
# 4 0.0000 0.0000 0.0000 30.4591 0.0000 0.0000
# 5 0.0000 0.0000 0.0000 0.0000 24.5741 0.0000
# 6 0.0000 0.0000 0.0000 0.0000 0.0000 23.0873
#
#
#
# Elastic Compliance Matrix: (Units=1/GPa)
#
#
# Indices 1 2 3 4 5 6 
#
# 1 0.029018 -0.017370 -0.014885 0.000000 0.000000 0.000000
# 2 -0.017370 0.020831 -0.007168 0.000000 0.000000 0.000000
# 3 -0.014885 -0.007168 0.082449 0.000000 0.000000 0.000000
# 4 0.000000 0.000000 0.000000 0.032831 0.000000 0.000000
# 5 0.000000 0.000000 0.000000 0.000000 0.040693 0.000000
# 6 0.000000 0.000000 0.000000 0.000000 0.000000 0.043314
#
#
# Mechanical properties :
#
#
# Convention : Reuss Voigt Hill
#
# Bulk Modulus (GPa) = 18.70828 66.15310 42.43069
# Shear Modulus (GPa) = 14.45925 23.10446 18.78186
#
# Velocity S-wave (km/s) = 2.88869 3.65153 3.29228
# Velocity P-wave (km/s) = 4.68216 7.48034 6.24012
#
# Compressibility (1/GPa) = 0.05345227
#
# Stress axis : x y z
#
# Youngs Moduli (GPa) = 34.46154 48.00488 12.12871
#
# Poissons Ratio (x) = 0.83384 0.18054
# Poissons Ratio (y) = 0.59859 0.08693
# Poissons Ratio (z) = 0.51297 0.34408
#
# Static dielectric constant tensor:
#      x y z
#    x 1.587150 0.000000 0.000000 
#    y 0.000000 1.572570 0.000000 
#    z 0.000000 0.000000 1.583650 
# 
# From -- ./inp_files/6540.got.cif
#   From: 2010.05.17/outbox.cif.g08.bks.cpg/sg57_4_cif.got.tgz:6540.got - 2010.06.03 13:58:18.
