data_PCOD9436007
_publ_section_title
;
Structure prediction by ZEFSAII (Michael W. Deem and Ramdas Pophale) SiO2 
 PCOD9436007
Probable space group: P B C M
;
_chemical_formula_sum "Si O2"
_cell_formula_units_Z 48
_cell_length_a 16.996536
_cell_length_b 9.908320
_cell_length_c 15.801764
_cell_angle_alpha 90.000000
_cell_angle_beta 90.000000
_cell_angle_gamma 90.000000
_cell_volume 2661.129528
_symmetry_space_group_name_H-M "P B C M"
_symmetry_group_IT_number 57
_symmetry_cell_setting 'orthorhombic'
loop_
_space_group_symop_operation_xyz
x,y,z
-x,-y,1/2+z
x,1/2-y,-z
-x,1/2+y,1/2-z
-x,-y,-z
x,y,1/2-z
-x,1/2+y,z
x,1/2-y,1/2+z
loop_
_atom_site_type_symbol
_atom_site_label
_atom_site_fract_x
_atom_site_fract_y
_atom_site_fract_z
Si Si1 0.444698 0.625016 0.750000
Si Si2 0.023554 0.378546 0.559957
Si Si3 0.161463 0.984055 0.150752
Si Si4 0.864331 0.171973 0.350591
Si Si5 0.597908 0.446133 0.750000
Si Si6 0.329402 0.580848 0.598623
Si Si7 0.701648 0.402928 0.589935
O O1 0.530257 0.558380 0.750000
O O2 0.436827 0.790216 0.750000
O O3 0.400163 0.571203 0.665331
O O4 0.972735 0.750000 0.500000
O O5 0.952839 0.368517 0.627596
O O6 0.000000 0.500000 0.500000
O O7 0.106208 0.412348 0.602847
O O8 0.145353 0.992848 0.250000
O O9 0.141962 0.829730 0.123617
O O10 0.253968 0.997442 0.134404
O O11 0.847690 0.163172 0.250000
O O12 0.796459 0.087047 0.399096
O O13 0.653407 0.461454 0.668164
O O14 0.333261 0.546310 0.499107
O O15 0.310958 0.741290 0.597084
#
# Coordination Sequence:
#
# PCOD9436007 Si02
#       7
#     4   8   8   8   4   8   8
#     4  10  20  36  60  85 112 146 182 235 284 348
#     4  12  23  36  53  82 118 151 191 237 286 334
#     4  10  19  35  58  81 111 149 196 238 282 336
#     4  10  19  34  56  82 111 146 197 246 278 325
#     4  10  20  36  58  87 116 142 184 233 288 344
#     4   9  17  32  58  83 109 147 192 230 282 339
#     4   9  17  31  56  87 109 143 193 239 272 332
#
# _framework density 18.037452999999999
#
# number of rings (size 3 to 8) (size 9 to 14) (size 15 to 20)
#    0.000    2.000    3.333    1.500    2.333    0.667 
#    0.000    0.000    7.333    0.000    0.000    0.000 
#    0.000    0.000    0.000    0.000    0.000    0.000 
#
# Total GULP energy -267510.087339 kJ/mol
# GULP energy per Si atom -5573.126820 kJ/mol
# Density = 1.799640 g / cm^3
# Si number density = 18.037453 Si / 1000 Ang^3
#
#
#
# Elastic Constant Matrix: (Units=GPa)
#
#
# Indices 1 2 3 4 5 6 
#
# 1 68.6950 14.5435 16.4864 0.0000 0.0000 0.0000
# 2 14.5435 40.1074 14.1852 0.0000 0.0000 0.0000
# 3 16.4864 14.1852 69.2990 0.0000 0.0000 0.0000
# 4 0.0000 0.0000 0.0000 16.0232 0.0000 0.0000
# 5 0.0000 0.0000 0.0000 0.0000 16.5568 0.0000
# 6 0.0000 0.0000 0.0000 0.0000 0.0000 30.1337
#
#
#
# Elastic Compliance Matrix: (Units=1/GPa)
#
#
# Indices 1 2 3 4 5 6 
#
# 1 0.016281 -0.004888 -0.002873 0.000000 0.000000 0.000000
# 2 -0.004888 0.028346 -0.004640 0.000000 0.000000 0.000000
# 3 -0.002873 -0.004640 0.016063 0.000000 0.000000 0.000000
# 4 0.000000 0.000000 0.000000 0.062409 0.000000 0.000000
# 5 0.000000 0.000000 0.000000 0.000000 0.060398 0.000000
# 6 0.000000 0.000000 0.000000 0.000000 0.000000 0.033185
#
#
# Mechanical properties :
#
#
# Convention : Reuss Voigt Hill
#
# Bulk Modulus (GPa) = 27.86238 29.83685 28.84962
# Shear Modulus (GPa) = 19.72791 21.40184 20.56487
#
# Velocity S-wave (km/s) = 3.31073 3.44833 3.38023
# Velocity P-wave (km/s) = 5.48590 5.69492 5.59139
#
# Compressibility (1/GPa) = 0.03589068
#
# Stress axis : x y z
#
# Youngs Moduli (GPa) = 61.41991 35.27790 62.25342
#
# Poissons Ratio (x) = 0.17243 0.17885
# Poissons Ratio (y) = 0.30021 0.28883
# Poissons Ratio (z) = 0.17645 0.16367
#
# Static dielectric constant tensor:
#      x y z
#    x 1.127380 0.000000 0.000000 
#    y 0.000000 1.597180 0.000000 
#    z 0.000000 0.000000 1.644710 
# 
# From -- ./inp_files/18442.got.cif
#   From: 2010.05.17/outbox.cif.g08.bks.cpg/sg57_10_cif.got.tgz:18442.got - 2010.06.03 13:58:18.
