data_PCOD9436228
_publ_section_title
;
Structure prediction by ZEFSAII (Michael W. Deem and Ramdas Pophale) SiO2 
 PCOD9436228
Probable space group: P B C M
;
_chemical_formula_sum "Si O2"
_cell_formula_units_Z 48
_cell_length_a 8.942268
_cell_length_b 18.670993
_cell_length_c 17.056439
_cell_angle_alpha 90.000000
_cell_angle_beta 90.000000
_cell_angle_gamma 90.000000
_cell_volume 2847.760508
_symmetry_space_group_name_H-M "P B C M"
_symmetry_group_IT_number 57
_symmetry_cell_setting 'orthorhombic'
loop_
_space_group_symop_operation_xyz
x,y,z
-x,-y,1/2+z
x,1/2-y,-z
-x,1/2+y,1/2-z
-x,-y,-z
x,y,1/2-z
-x,1/2+y,z
x,1/2-y,1/2+z
loop_
_atom_site_type_symbol
_atom_site_label
_atom_site_fract_x
_atom_site_fract_y
_atom_site_fract_z
Si Si1 0.874792 0.169105 0.468806
Si Si2 0.697283 0.418455 0.842490
Si Si3 0.150727 0.072378 0.660032
Si Si4 0.785403 0.832129 0.487994
Si Si5 0.883813 0.466132 0.433950
Si Si6 0.585811 0.947564 0.560109
O O1 0.846821 0.250000 0.500000
O O2 0.790605 0.141253 0.391013
O O3 0.827364 0.109258 0.531841
O O4 0.055828 0.159479 0.465628
O O5 0.708695 0.405767 0.750000
O O6 0.760471 0.498896 0.858913
O O7 0.527751 0.423943 0.872573
O O8 0.177285 0.091746 0.750000
O O9 0.184275 0.136182 0.599011
O O10 0.981056 0.049567 0.642288
O O11 0.748807 0.750000 0.500000
O O12 0.646929 0.877536 0.517759
O O13 0.740654 0.513892 0.417046
O O14 0.000000 0.500000 0.500000
O O15 0.500000 0.000000 0.500000
#
# Coordination Sequence:
#
# PCOD9436228 Si02
#       6
#     8   8   8   8   8   8
#     4  10  19  36  58  84 110 153 197 237 282 352
#     4  11  22  36  56  87 119 150 187 240 297 343
#     4  10  19  35  59  85 114 146 188 245 291 334
#     4  10  20  36  59  86 109 152 203 237 286 352
#     4  11  17  35  59  82 111 149 203 235 272 348
#     4  12  19  34  58  83 116 153 195 237 281 355
#
# _framework density 16.855349
#
# number of rings (size 3 to 8) (size 9 to 14) (size 15 to 20)
#    0.000    1.333    8.333    0.000    0.000    1.333 
#    0.000    9.167    0.000    2.000    0.000    0.000 
#    0.000    0.000    0.000    0.000    0.000    0.000 
#
# Total GULP energy -267254.809288 kJ/mol
# GULP energy per Si atom -5567.808527 kJ/mol
# Density = 1.681699 g / cm^3
# Si number density = 16.855349 Si / 1000 Ang^3
#
#
#
# Elastic Constant Matrix: (Units=GPa)
#
#
# Indices 1 2 3 4 5 6 
#
# 1 88.3931 53.7169 56.6485 0.0000 0.0000 0.0000
# 2 53.7169 139.3029 54.8745 0.0000 0.0000 0.0000
# 3 56.6485 54.8745 86.9579 0.0000 0.0000 0.0000
# 4 0.0000 0.0000 0.0000 20.4057 0.0000 0.0000
# 5 0.0000 0.0000 0.0000 0.0000 24.0594 0.0000
# 6 0.0000 0.0000 0.0000 0.0000 0.0000 30.9360
#
#
#
# Elastic Compliance Matrix: (Units=1/GPa)
#
#
# Indices 1 2 3 4 5 6 
#
# 1 0.020659 -0.003546 -0.011220 0.000000 0.000000 0.000000
# 2 -0.003546 0.010162 -0.004103 0.000000 0.000000 0.000000
# 3 -0.011220 -0.004103 0.021398 0.000000 0.000000 0.000000
# 4 0.000000 0.000000 0.000000 0.049006 0.000000 0.000000
# 5 0.000000 0.000000 0.000000 0.000000 0.041564 0.000000
# 6 0.000000 0.000000 0.000000 0.000000 0.000000 0.032325
#
#
# Mechanical properties :
#
#
# Convention : Reuss Voigt Hill
#
# Bulk Modulus (GPa) = 69.05665 71.68153 70.36909
# Shear Modulus (GPa) = 22.96956 25.04116 24.00536
#
# Velocity S-wave (km/s) = 3.69554 3.85860 3.77795
# Velocity P-wave (km/s) = 7.69860 7.90389 7.80192
#
# Compressibility (1/GPa) = 0.01448087
#
# Stress axis : x y z
#
# Youngs Moduli (GPa) = 48.40492 98.40358 46.73302
#
# Poissons Ratio (x) = 0.34898 0.52436
# Poissons Ratio (y) = 0.17167 0.19172
# Poissons Ratio (z) = 0.54312 0.40370
#
# Static dielectric constant tensor:
#      x y z
#    x 1.594730 0.000000 0.000000 
#    y 0.000000 1.463030 0.000000 
#    z 0.000000 0.000000 1.583280 
# 
# From -- ./inp_files/21078.got.cif
#   From: 2010.05.17/outbox.cif.g08.bks.cpg/sg57_11_cif.got.tgz:21078.got - 2010.06.03 13:58:18.
