data_PCOD9436537
_publ_section_title
;
Structure prediction by ZEFSAII (Michael W. Deem and Ramdas Pophale) SiO2 
 PCOD9436537
Probable space group: P B C M
;
_chemical_formula_sum "Si O2"
_cell_formula_units_Z 64
_cell_length_a 11.220901
_cell_length_b 9.877103
_cell_length_c 30.384240
_cell_angle_alpha 90.000000
_cell_angle_beta 90.000000
_cell_angle_gamma 90.000000
_cell_volume 3367.485165
_symmetry_space_group_name_H-M "P B C M"
_symmetry_group_IT_number 57
_symmetry_cell_setting 'orthorhombic'
loop_
_space_group_symop_operation_xyz
x,y,z
-x,-y,1/2+z
x,1/2-y,-z
-x,1/2+y,1/2-z
-x,-y,-z
x,y,1/2-z
-x,1/2+y,z
x,1/2-y,1/2+z
loop_
_atom_site_type_symbol
_atom_site_label
_atom_site_fract_x
_atom_site_fract_y
_atom_site_fract_z
Si Si1 0.306642 0.994122 0.367863
Si Si2 0.080096 0.244232 0.951124
Si Si3 0.664713 0.399344 0.997059
Si Si4 0.727157 0.801435 0.123334
Si Si5 0.403521 0.713187 0.699188
Si Si6 0.359960 0.471040 0.198701
Si Si7 0.127874 0.963927 0.445095
Si Si8 0.528309 0.556433 0.571305
O O1 0.277377 0.149916 0.356552
O O2 0.206084 0.943859 0.401572
O O3 0.432067 0.997851 0.394247
O O4 0.320879 0.882796 0.330235
O O5 0.168099 0.193288 0.912817
O O6 0.052805 0.399655 0.940061
O O7 0.135054 0.250000 0.000000
O O8 0.962650 0.155111 0.953990
O O9 0.770873 0.486411 0.017643
O O10 0.550840 0.395761 0.029886
O O11 0.715233 0.250000 0.000000
O O12 0.618968 0.448027 0.949901
O O13 0.729939 0.913761 0.161839
O O14 0.606943 0.830619 0.095224
O O15 0.366909 0.705261 0.750000
O O16 0.531728 0.638058 0.696156
O O17 0.401497 0.874076 0.687961
O O18 0.319682 0.471134 0.250000
#
# Coordination Sequence:
#
# PCOD9436537 Si02
#       8
#     8   8   8   8   8   8   8   8
#     4  10  21  36  55  84 117 150 191 239 288 358
#     4  11  23  40  59  81 112 153 201 254 296 346
#     4  10  20  34  52  76 110 150 192 242 291 347
#     4  11  22  35  57  84 116 155 195 243 299 347
#     4  10  20  35  57  87 122 155 189 234 287 353
#     4  10  21  35  56  87 121 156 193 234 289 355
#     4  10  23  39  57  80 110 148 200 247 295 342
#     4  10  20  32  51  79 112 150 189 230 291 352
#
# _framework density 19.005279000000002
#
# number of rings (size 3 to 8) (size 9 to 14) (size 15 to 20)
#    0.000    1.750    1.250    3.000    0.000    8.000 
#    0.000    0.000    0.000    0.750    0.000    0.000 
#    0.000    0.000    0.000    0.000    0.000    0.000 
#
# Total GULP energy -356861.364095 kJ/mol
# GULP energy per Si atom -5575.958814 kJ/mol
# Density = 1.896202 g / cm^3
# Si number density = 19.005279 Si / 1000 Ang^3
#
#
#
# Elastic Constant Matrix: (Units=GPa)
#
#
# Indices 1 2 3 4 5 6 
#
# 1 61.3153 40.6920 30.4966 0.0000 0.0000 0.0000
# 2 40.6920 112.4563 61.4908 0.0000 0.0000 0.0000
# 3 30.4966 61.4908 111.6563 0.0000 0.0000 0.0000
# 4 0.0000 0.0000 0.0000 27.5008 0.0000 0.0000
# 5 0.0000 0.0000 0.0000 0.0000 -22.6803 0.0000
# 6 0.0000 0.0000 0.0000 0.0000 0.0000 48.4664
#
#
#
# Elastic Compliance Matrix: (Units=1/GPa)
#
#
# Indices 1 2 3 4 5 6 
#
# 1 0.021872 -0.006651 -0.002311 0.000000 0.000000 0.000000
# 2 -0.006651 0.014746 -0.006304 0.000000 0.000000 0.000000
# 3 -0.002311 -0.006304 0.013059 0.000000 0.000000 0.000000
# 4 0.000000 0.000000 0.000000 0.036363 0.000000 0.000000
# 5 0.000000 0.000000 0.000000 0.000000 -0.044091 0.000000
# 6 0.000000 0.000000 0.000000 0.000000 0.000000 0.020633
#
#
# Mechanical properties :
#
#
# Convention : Reuss Voigt Hill
#
# Bulk Modulus (GPa) = 52.23303 61.19852 56.71578
# Shear Modulus (GPa) = 50.25291 20.84062 35.54676
#
# Velocity S-wave (km/s) = 5.14771 3.31504 4.32946
# Velocity P-wave (km/s) = 7.92938 6.85006 7.40940
#
# Compressibility (1/GPa) = 0.01914497
#
# Stress axis : x y z
#
# Youngs Moduli (GPa) = 45.71953 67.81459 76.57372
#
# Poissons Ratio (x) = 0.45101 0.17699
# Poissons Ratio (y) = 0.30406 0.48275
# Poissons Ratio (z) = 0.10568 0.42753
#
# Static dielectric constant tensor:
#      x y z
#    x 1.652990 0.000000 0.000000 
#    y 0.000000 1.719850 0.000000 
#    z 0.000000 0.000000 1.685830 
# 
# From -- ./inp_files/29772.got.cif
#   From: 2010.05.17/outbox.cif.g08.bks.cpg/sg57_15_cif.got.tgz:29772.got - 2010.06.03 13:58:18.
