data_PCOD9436959
_publ_section_title
;
Structure prediction by ZEFSAII (Michael W. Deem and Ramdas Pophale) SiO2 
 PCOD9436959
Probable space group: P B C M
;
_chemical_formula_sum "Si O2"
_cell_formula_units_Z 64
_cell_length_a 24.231816
_cell_length_b 16.066395
_cell_length_c 8.690172
_cell_angle_alpha 90.000000
_cell_angle_beta 90.000000
_cell_angle_gamma 90.000000
_cell_volume 3383.239752
_symmetry_space_group_name_H-M "P B C M"
_symmetry_group_IT_number 57
_symmetry_cell_setting 'orthorhombic'
loop_
_space_group_symop_operation_xyz
x,y,z
-x,-y,1/2+z
x,1/2-y,-z
-x,1/2+y,1/2-z
-x,-y,-z
x,y,1/2-z
-x,1/2+y,z
x,1/2-y,1/2+z
loop_
_atom_site_type_symbol
_atom_site_label
_atom_site_fract_x
_atom_site_fract_y
_atom_site_fract_z
Si Si1 0.362746 0.993394 0.564686
Si Si2 0.575549 0.665063 0.933327
Si Si3 0.942057 0.095184 0.064223
Si Si4 0.241352 0.508455 0.566089
Si Si5 0.526644 0.084499 0.065585
Si Si6 0.180700 0.338602 0.935529
Si Si7 0.936059 0.591644 0.435848
Si Si8 0.826593 0.336904 0.934037
O O1 0.355699 0.992063 0.750000
O O2 0.304628 0.983287 0.483762
O O3 0.408811 0.923634 0.524630
O O4 0.389288 0.083272 0.523243
O O5 0.573430 0.668325 0.750000
O O6 0.599613 0.750000 0.000000
O O7 0.513402 0.653774 0.997276
O O8 0.941420 0.090133 0.250000
O O9 0.890304 0.150231 0.015016
O O10 0.003364 0.124395 0.016939
O O11 0.933023 0.002440 0.998661
O O12 0.235974 0.513189 0.750000
O O13 0.216984 0.418509 0.516804
O O14 0.206722 0.583304 0.492660
O O15 0.522725 0.084994 0.250000
O O16 0.500000 0.000000 0.000000
O O17 0.181621 0.334788 0.750000
O O18 0.117540 0.357358 0.986776
O O19 0.199400 0.250000 0.000000
O O20 0.934370 0.588057 0.250000
O O21 0.824588 0.334597 0.750000
O O22 0.805165 0.250000 0.000000
#
# Coordination Sequence:
#
# PCOD9436959 Si02
#       8
#     8   8   8   8   8   8   8   8
#     4   9  20  37  57  81 110 148 189 230 276 331
#     4  10  20  34  55  85 120 153 187 228 276 326
#     4   9  18  32  55  83 108 142 181 225 286 347
#     4  11  23  40  60  83 112 152 197 244 293 337
#     4   9  17  32  54  80 110 142 178 217 265 320
#     4  10  22  37  55  80 112 150 190 234 283 339
#     4   9  17  33  54  79 113 144 180 229 281 343
#     4  11  23  39  60  85 112 144 188 238 293 353
#
# _framework density 18.916779999999999
#
# number of rings (size 3 to 8) (size 9 to 14) (size 15 to 20)
#    0.000    2.250    1.250    2.250    0.000    6.000 
#    0.000    3.125    0.000    3.000    0.000    0.000 
#    0.000    0.000    0.000    0.000    0.000    0.000 
#
# Total GULP energy -356997.390246 kJ/mol
# GULP energy per Si atom -5578.084223 kJ/mol
# Density = 1.887372 g / cm^3
# Si number density = 18.916780 Si / 1000 Ang^3
#
#
#
# Elastic Constant Matrix: (Units=GPa)
#
#
# Indices 1 2 3 4 5 6 
#
# 1 104.5800 31.9468 27.8542 0.0000 0.0000 0.0000
# 2 31.9468 80.4735 17.7174 0.0000 0.0000 0.0000
# 3 27.8542 17.7174 24.8844 0.0000 0.0000 0.0000
# 4 0.0000 0.0000 0.0000 29.9511 0.0000 0.0000
# 5 0.0000 0.0000 0.0000 0.0000 20.6972 0.0000
# 6 0.0000 0.0000 0.0000 0.0000 0.0000 6.7464
#
#
#
# Elastic Compliance Matrix: (Units=1/GPa)
#
#
# Indices 1 2 3 4 5 6 
#
# 1 0.014037 -0.002506 -0.013928 0.000000 0.000000 0.000000
# 2 -0.002506 0.015184 -0.008006 0.000000 0.000000 0.000000
# 3 -0.013928 -0.008006 0.061476 0.000000 0.000000 0.000000
# 4 0.000000 0.000000 0.000000 0.033388 0.000000 0.000000
# 5 0.000000 0.000000 0.000000 0.000000 0.048316 0.000000
# 6 0.000000 0.000000 0.000000 0.000000 0.000000 0.148227
#
#
# Mechanical properties :
#
#
# Convention : Reuss Voigt Hill
#
# Bulk Modulus (GPa) = 23.91344 40.55276 32.23310
# Shear Modulus (GPa) = 13.03963 20.30692 16.67328
#
# Velocity S-wave (km/s) = 2.62833 3.27997 2.97206
# Velocity P-wave (km/s) = 4.67757 5.98567 5.37159
#
# Compressibility (1/GPa) = 0.04181749
#
# Stress axis : x y z
#
# Youngs Moduli (GPa) = 71.23868 65.85937 16.26648
#
# Poissons Ratio (x) = 0.16505 0.22656
# Poissons Ratio (y) = 0.17853 0.13022
# Poissons Ratio (z) = 0.99223 0.52724
#
# Static dielectric constant tensor:
#      x y z
#    x 1.678260 0.000000 0.000000 
#    y 0.000000 1.647840 0.000000 
#    z 0.000000 0.000000 1.628240 
# 
# From -- ./inp_files/9373.got.cif
#   From: 2010.05.17/outbox.cif.g08.bks.cpg/sg57_5_cif.got.tgz:9373.got - 2010.06.03 13:58:18.
