data_PCOD9436255
_publ_section_title
;
Structure prediction by ZEFSAII (Michael W. Deem and Ramdas Pophale) SiO2 
 PCOD9436255
Probable space group: P B C M
;
_chemical_formula_sum "Si O2"
_cell_formula_units_Z 64
_cell_length_a 8.918968
_cell_length_b 15.489965
_cell_length_c 20.911712
_cell_angle_alpha 90.000000
_cell_angle_beta 90.000000
_cell_angle_gamma 90.000000
_cell_volume 2889.047161
_symmetry_space_group_name_H-M "P B C M"
_symmetry_group_IT_number 57
_symmetry_cell_setting 'orthorhombic'
loop_
_space_group_symop_operation_xyz
x,y,z
-x,-y,1/2+z
x,1/2-y,-z
-x,1/2+y,1/2-z
-x,-y,-z
x,y,1/2-z
-x,1/2+y,z
x,1/2-y,1/2+z
loop_
_atom_site_type_symbol
_atom_site_label
_atom_site_fract_x
_atom_site_fract_y
_atom_site_fract_z
Si Si1 0.220985 0.151742 0.554599
Si Si2 0.996709 0.089430 0.458479
Si Si3 0.029964 0.163794 0.820641
Si Si4 0.638041 0.415987 0.681910
Si Si5 0.666392 0.454437 0.951687
Si Si6 0.698825 0.284652 0.179303
Si Si7 0.006752 0.960509 0.819437
Si Si8 0.555859 0.175304 0.547070
O O1 0.100779 0.155460 0.497007
O O2 0.139167 0.174564 0.620303
O O3 0.380642 0.197356 0.554393
O O4 0.271555 0.051028 0.551194
O O5 0.052960 0.077846 0.385724
O O6 0.818709 0.105062 0.452175
O O7 0.000000 0.000000 0.500000
O O8 0.096143 0.179599 0.750000
O O9 0.878851 0.218470 0.827392
O O10 0.980621 0.063150 0.822331
O O11 0.573192 0.446251 0.750000
O O12 0.574053 0.443624 0.613932
O O13 0.639725 0.312805 0.681059
O O14 0.812225 0.447469 0.680698
O O15 0.578391 0.415939 0.011402
O O16 0.668170 0.324010 0.250000
O O17 0.631234 0.327838 0.116462
O O18 0.952440 0.927480 0.750000
O O19 0.617684 0.250000 0.500000
#
# Coordination Sequence:
#
# PCOD9436255 Si02
#       8
#     8   8   8   8   8   8   8   8
#     4  11  22  37  57  86 120 150 184 242 299 342
#     4   9  16  31  55  81 108 139 181 230 291 325
#     4  10  19  35  60  90 115 143 188 242 294 341
#     4   9  16  32  58  84 107 143 195 235 275 333
#     4  10  19  37  61  84 106 154 195 240 274 336
#     4  10  22  39  61  84 114 153 196 240 282 341
#     4   9  16  29  55  85 111 137 182 237 281 333
#     4  12  25  40  55  83 119 159 197 231 286 350
#
# _framework density 22.152633999999999
#
# number of rings (size 3 to 8) (size 9 to 14) (size 15 to 20)
#    0.000    2.000    5.000    1.125    1.750    0.500 
#    4.500    0.000    0.000    1.500    0.000    0.000 
#    0.000    0.000    0.000    0.000    0.000    0.000 
#
# Total GULP energy -356820.620105 kJ/mol
# GULP energy per Si atom -5575.322189 kJ/mol
# Density = 2.210221 g / cm^3
# Si number density = 22.152634 Si / 1000 Ang^3
#
#
#
# Elastic Constant Matrix: (Units=GPa)
#
#
# Indices 1 2 3 4 5 6 
#
# 1 36.9680 -12.3021 48.7084 0.0000 0.0000 0.0000
# 2 -12.3021 37.2404 24.9858 0.0000 0.0000 0.0000
# 3 48.7084 24.9858 220.3038 0.0000 0.0000 0.0000
# 4 0.0000 0.0000 0.0000 14.5751 0.0000 0.0000
# 5 0.0000 0.0000 0.0000 0.0000 24.4731 0.0000
# 6 0.0000 0.0000 0.0000 0.0000 0.0000 11.4944
#
#
#
# Elastic Compliance Matrix: (Units=1/GPa)
#
#
# Indices 1 2 3 4 5 6 
#
# 1 0.058953 0.030544 -0.016498 0.000000 0.000000 0.000000
# 2 0.030544 0.044889 -0.011844 0.000000 0.000000 0.000000
# 3 -0.016498 -0.011844 0.009530 0.000000 0.000000 0.000000
# 4 0.000000 0.000000 0.000000 0.068610 0.000000 0.000000
# 5 0.000000 0.000000 0.000000 0.000000 0.040861 0.000000
# 6 0.000000 0.000000 0.000000 0.000000 0.000000 0.086999
#
#
# Mechanical properties :
#
#
# Convention : Reuss Voigt Hill
#
# Bulk Modulus (GPa) = 8.49080 46.36626 27.42853
# Shear Modulus (GPa) = 14.50544 25.64986 20.07765
#
# Velocity S-wave (km/s) = 2.56167 3.40644 3.01380
# Velocity P-wave (km/s) = 3.54834 6.03718 4.95168
#
# Compressibility (1/GPa) = 0.11777454
#
# Stress axis : x y z
#
# Youngs Moduli (GPa) = 16.96277 22.27708 104.92927
#
# Poissons Ratio (x) = -0.68043 1.73116
# Poissons Ratio (y) = -0.51811 1.24281
# Poissons Ratio (z) = 0.27986 0.26386
#
# Static dielectric constant tensor:
#      x y z
#    x 1.829290 0.000000 0.000000 
#    y 0.000000 1.943390 0.000000 
#    z 0.000000 0.000000 1.778490 
# 
# From -- ./inp_files/24612.got.cif
#   From: 2010.05.17/outbox.cif.g08.bks.cpg/sg57_13_cif.got.tgz:24612.got - 2010.06.03 13:58:18.
