data_PCOD9436338
_publ_section_title
;
Structure prediction by ZEFSAII (Michael W. Deem and Ramdas Pophale) SiO2 
 PCOD9436338
Probable space group: P B C M
;
_chemical_formula_sum "Si O2"
_cell_formula_units_Z 44
_cell_length_a 8.316263
_cell_length_b 13.618084
_cell_length_c 19.141200
_cell_angle_alpha 90.000000
_cell_angle_beta 90.000000
_cell_angle_gamma 90.000000
_cell_volume 2167.770915
_symmetry_space_group_name_H-M "P B C M"
_symmetry_group_IT_number 57
_symmetry_cell_setting 'orthorhombic'
loop_
_space_group_symop_operation_xyz
x,y,z
-x,-y,1/2+z
x,1/2-y,-z
-x,1/2+y,1/2-z
-x,-y,-z
x,y,1/2-z
-x,1/2+y,z
x,1/2-y,1/2+z
loop_
_atom_site_type_symbol
_atom_site_label
_atom_site_fract_x
_atom_site_fract_y
_atom_site_fract_z
Si Si1 0.346743 0.677683 0.891552
Si Si2 0.029757 0.914088 0.332730
Si Si3 0.322498 0.618250 0.053961
Si Si4 0.249193 0.250000 0.000000
Si Si5 0.658667 0.902329 0.386727
Si Si6 0.033764 0.420305 0.562103
O O1 0.168685 0.660609 0.859287
O O2 0.394487 0.791505 0.903128
O O3 0.490385 0.623882 0.848976
O O4 0.336871 0.632126 0.970579
O O5 0.035188 0.920061 0.250000
O O6 0.839979 0.897375 0.354233
O O7 0.078573 0.015494 0.371180
O O8 0.365595 0.509718 0.079406
O O9 0.136172 0.629347 0.072196
O O10 0.338981 0.181011 0.945972
O O11 0.149641 0.332965 0.958895
O O12 0.000000 0.500000 0.500000
#
# Coordination Sequence:
#
# PCOD9436338 Si02
#       6
#     8   8   8   4   8   8
#     4  11  21  37  64  91 123 165 208 261 319 377
#     4  11  24  43  63  92 131 173 214 258 320 394
#     4  10  19  36  60  96 126 153 209 271 320 366
#     4  12  18  36  66  98 130 162 214 272 332 374
#     4  11  23  38  61  93 126 161 207 266 319 376
#     4  11  19  37  66  95 128 168 216 268 319 382
#
# _framework density 20.297346999999998
#
# number of rings (size 3 to 8) (size 9 to 14) (size 15 to 20)
#    0.000    1.091    5.455    3.818    0.000    2.182 
#    0.000    8.182    0.000    2.182    0.000    0.000 
#    0.000    0.000    0.000    0.000    0.000    0.000 
#
# Total GULP energy -245086.462308 kJ/mol
# GULP energy per Si atom -5570.146871 kJ/mol
# Density = 2.025115 g / cm^3
# Si number density = 20.297347 Si / 1000 Ang^3
#
#
#
# Elastic Constant Matrix: (Units=GPa)
#
#
# Indices 1 2 3 4 5 6 
#
# 1 87.8648 76.4707 23.6231 0.0000 0.0000 0.0000
# 2 76.4707 138.2954 59.9104 0.0000 0.0000 0.0000
# 3 23.6231 59.9104 95.7510 0.0000 0.0000 0.0000
# 4 0.0000 0.0000 0.0000 14.8727 0.0000 0.0000
# 5 0.0000 0.0000 0.0000 0.0000 -18.9576 0.0000
# 6 0.0000 0.0000 0.0000 0.0000 0.0000 29.8112
#
#
#
# Elastic Compliance Matrix: (Units=1/GPa)
#
#
# Indices 1 2 3 4 5 6 
#
# 1 0.022581 -0.013818 0.003075 0.000000 0.000000 0.000000
# 2 -0.013818 0.018375 -0.008088 0.000000 0.000000 0.000000
# 3 0.003075 -0.008088 0.014746 0.000000 0.000000 0.000000
# 4 0.000000 0.000000 0.000000 0.067237 0.000000 0.000000
# 5 0.000000 0.000000 0.000000 0.000000 -0.052749 0.000000
# 6 0.000000 0.000000 0.000000 0.000000 0.000000 0.033544
#
#
# Mechanical properties :
#
#
# Convention : Reuss Voigt Hill
#
# Bulk Modulus (GPa) = 55.43518 71.32441 63.37979
# Shear Modulus (GPa) = 33.91897 15.93907 24.92902
#
# Velocity S-wave (km/s) = 4.09235 2.80532 3.50836
# Velocity P-wave (km/s) = 7.04986 6.76086 6.90687
#
# Compressibility (1/GPa) = 0.01803909
#
# Stress axis : x y z
#
# Youngs Moduli (GPa) = 44.28594 54.42039 67.81554
#
# Poissons Ratio (x) = 0.75198 -0.20852
# Poissons Ratio (y) = 0.61194 0.54851
# Poissons Ratio (z) = -0.13617 0.44017
#
# Static dielectric constant tensor:
#      x y z
#    x 1.801350 0.000000 0.000000 
#    y 0.000000 1.815490 0.000000 
#    z 0.000000 0.000000 1.701680 
# 
# From -- ./inp_files/20796.got.cif
#   From: 2010.05.17/outbox.cif.g08.bks.cpg/sg57_11_cif.got.tgz:20796.got - 2010.06.03 13:58:18.
