data_PCOD9436879
_publ_section_title
;
Structure prediction by ZEFSAII (Michael W. Deem and Ramdas Pophale) SiO2 
 PCOD9436879
Probable space group: P B C M
;
_chemical_formula_sum "Si O2"
_cell_formula_units_Z 32
_cell_length_a 21.547427
_cell_length_b 9.240576
_cell_length_c 8.616798
_cell_angle_alpha 90.000000
_cell_angle_beta 90.000000
_cell_angle_gamma 90.000000
_cell_volume 1715.696137
_symmetry_space_group_name_H-M "P B C M"
_symmetry_group_IT_number 57
_symmetry_cell_setting 'orthorhombic'
loop_
_space_group_symop_operation_xyz
x,y,z
-x,-y,1/2+z
x,1/2-y,-z
-x,1/2+y,1/2-z
-x,-y,-z
x,y,1/2-z
-x,1/2+y,z
x,1/2-y,1/2+z
loop_
_atom_site_type_symbol
_atom_site_label
_atom_site_fract_x
_atom_site_fract_y
_atom_site_fract_z
Si Si1 0.676601 0.914519 0.435550
Si Si2 0.805848 0.585630 0.063586
Si Si3 0.057942 0.412655 0.935640
Si Si4 0.559035 0.087326 0.564041
O O1 0.671847 0.750000 0.500000
O O2 0.673356 0.910272 0.250000
O O3 0.743487 0.976765 0.488902
O O4 0.620894 0.007831 0.504617
O O5 0.799286 0.587688 0.250000
O O6 0.873780 0.523447 0.023029
O O7 0.808008 0.750000 0.000000
O O8 0.054917 0.407644 0.750000
O O9 0.055063 0.250000 0.000000
O O10 0.000000 0.500000 0.000000
O O11 0.557135 0.250000 0.500000
O O12 0.557681 0.088475 0.750000
O O13 0.500000 0.000000 0.500000
#
# Coordination Sequence:
#
# PCOD9436879 Si02
#       4
#     8   8   8   8
#     4  11  21  36  59  87 115 148 186 229 277 329
#     4   9  17  31  52  79 108 143 184 229 276 330
#     4  10  20  34  54  79 110 145 186 231 280 332
#     4  12  25  43  63  87 117 150 187 229 275 327
#
# _framework density 18.651320999999999
#
# number of rings (size 3 to 8) (size 9 to 14) (size 15 to 20)
#    0.000    1.500    0.000    8.250    0.000    3.000 
#    0.000    1.250    0.000    6.000    0.000    0.000 
#    0.000    0.000    0.000    0.000    0.000    0.000 
#
# Total GULP energy -178697.403487 kJ/mol
# GULP energy per Si atom -5584.293859 kJ/mol
# Density = 1.860887 g / cm^3
# Si number density = 18.651321 Si / 1000 Ang^3
#
#
#
# Elastic Constant Matrix: (Units=GPa)
#
#
# Indices 1 2 3 4 5 6 
#
# 1 233.9133 83.1012 92.7267 0.0000 0.0000 0.0000
# 2 83.1012 81.4563 47.3402 0.0000 0.0000 0.0000
# 3 92.7267 47.3402 168.0963 0.0000 0.0000 0.0000
# 4 0.0000 0.0000 0.0000 29.8701 0.0000 0.0000
# 5 0.0000 0.0000 0.0000 0.0000 36.8556 0.0000
# 6 0.0000 0.0000 0.0000 0.0000 0.0000 32.1981
#
#
#
# Elastic Compliance Matrix: (Units=1/GPa)
#
#
# Indices 1 2 3 4 5 6 
#
# 1 0.007402 -0.006192 -0.002339 0.000000 0.000000 0.000000
# 2 -0.006192 0.019859 -0.002177 0.000000 0.000000 0.000000
# 3 -0.002339 -0.002177 0.007853 0.000000 0.000000 0.000000
# 4 0.000000 0.000000 0.000000 0.033478 0.000000 0.000000
# 5 0.000000 0.000000 0.000000 0.000000 0.027133 0.000000
# 6 0.000000 0.000000 0.000000 0.000000 0.000000 0.031058
#
#
# Mechanical properties :
#
#
# Convention : Reuss Voigt Hill
#
# Bulk Modulus (GPa) = 73.01094 103.31135 88.16114
# Shear Modulus (GPa) = 32.72985 37.13795 34.93390
#
# Velocity S-wave (km/s) = 4.19361 4.46709 4.33251
# Velocity P-wave (km/s) = 7.91699 9.06188 8.50871
#
# Compressibility (1/GPa) = 0.01369658
#
# Stress axis : x y z
#
# Youngs Moduli (GPa) = 135.09198 50.35507 127.34659
#
# Poissons Ratio (x) = 0.31181 0.29792
# Poissons Ratio (y) = 0.83652 0.27723
# Poissons Ratio (z) = 0.31604 0.10962
#
# Static dielectric constant tensor:
#      x y z
#    x 1.686200 0.000000 0.000000 
#    y 0.000000 1.616700 0.000000 
#    z 0.000000 0.000000 1.620680 
# 
# From -- ./inp_files/7533.got.cif
#   From: 2010.05.17/outbox.cif.g08.bks.cpg/sg57_4_cif.got.tgz:7533.got - 2010.06.03 13:58:18.
