data_PCOD9436343
_publ_section_title
;
Structure prediction by ZEFSAII (Michael W. Deem and Ramdas Pophale) SiO2 
 PCOD9436343
Probable space group: P B C M
;
_chemical_formula_sum "Si O2"
_cell_formula_units_Z 28
_cell_length_a 6.959842
_cell_length_b 16.397146
_cell_length_c 10.559937
_cell_angle_alpha 90.000000
_cell_angle_beta 90.000000
_cell_angle_gamma 90.000000
_cell_volume 1205.116330
_symmetry_space_group_name_H-M "P B C M"
_symmetry_group_IT_number 57
_symmetry_cell_setting 'orthorhombic'
loop_
_space_group_symop_operation_xyz
x,y,z
-x,-y,1/2+z
x,1/2-y,-z
-x,1/2+y,1/2-z
-x,-y,-z
x,y,1/2-z
-x,1/2+y,z
x,1/2-y,1/2+z
loop_
_atom_site_type_symbol
_atom_site_label
_atom_site_fract_x
_atom_site_fract_y
_atom_site_fract_z
Si Si1 0.666017 0.099543 0.750000
Si Si2 0.727207 0.991865 0.982437
Si Si3 0.954296 0.220498 0.750000
Si Si4 0.210402 0.444679 0.250000
Si Si5 0.755350 0.807700 0.607992
O O1 0.737354 0.191985 0.750000
O O2 0.437105 0.083610 0.750000
O O3 0.761308 0.057412 0.873301
O O4 0.762141 0.900381 0.934605
O O5 0.819675 0.996543 0.121734
O O6 0.500000 0.000000 0.000000
O O7 0.088417 0.138641 0.750000
O O8 0.030221 0.273373 0.866936
O O9 0.665501 0.750000 0.500000
O O10 0.667064 0.802698 0.750000
#
# Coordination Sequence:
#
# PCOD9436343 Si02
#       5
#     4   8   4   4   8
#     4  10  21  37  61  91 122 160 213 259 317 389
#     4  10  19  36  63  92 126 167 214 272 321 385
#     4  10  21  35  65  83 124 165 201 256 327 374
#     4  10  20  36  60  92 124 157 208 263 312 371
#     4  10  19  36  61  88 121 174 209 259 336 380
#
# _framework density 23.234271
#
# number of rings (size 3 to 8) (size 9 to 14) (size 15 to 20)
#    0.857    1.143    4.286    0.000    0.000    1.143 
#    0.000    0.000   12.571    3.429    0.000    0.000 
#    0.000    0.000    0.000    0.000    0.000    0.000 
#
# Total GULP energy -156176.726097 kJ/mol
# GULP energy per Si atom -5577.740218 kJ/mol
# Density = 2.318139 g / cm^3
# Si number density = 23.234271 Si / 1000 Ang^3
#
#
#
# Elastic Constant Matrix: (Units=GPa)
#
#
# Indices 1 2 3 4 5 6 
#
# 1 84.7556 23.1940 3.2598 0.0000 0.0000 0.0000
# 2 23.1940 88.2249 31.7946 0.0000 0.0000 0.0000
# 3 3.2598 31.7946 175.9334 0.0000 0.0000 0.0000
# 4 0.0000 0.0000 0.0000 29.0649 0.0000 0.0000
# 5 0.0000 0.0000 0.0000 0.0000 -46.3673 0.0000
# 6 0.0000 0.0000 0.0000 0.0000 0.0000 28.4604
#
#
#
# Elastic Compliance Matrix: (Units=1/GPa)
#
#
# Indices 1 2 3 4 5 6 
#
# 1 0.012739 -0.003491 0.000395 0.000000 0.000000 0.000000
# 2 -0.003491 0.013081 -0.002299 0.000000 0.000000 0.000000
# 3 0.000395 -0.002299 0.006092 0.000000 0.000000 0.000000
# 4 0.000000 0.000000 0.000000 0.034406 0.000000 0.000000
# 5 0.000000 0.000000 0.000000 0.000000 -0.021567 0.000000
# 6 0.000000 0.000000 0.000000 0.000000 0.000000 0.035136
#
#
# Mechanical properties :
#
#
# Convention : Reuss Voigt Hill
#
# Bulk Modulus (GPa) = 47.34684 51.71232 49.52958
# Shear Modulus (GPa) = 51.16696 21.60930 36.38813
#
# Velocity S-wave (km/s) = 4.69787 3.05300 3.96174
# Velocity P-wave (km/s) = 7.06038 5.89347 6.50315
#
# Compressibility (1/GPa) = 0.02112073
#
# Stress axis : x y z
#
# Youngs Moduli (GPa) = 78.49984 76.44583 164.14470
#
# Poissons Ratio (x) = 0.26690 -0.06482
# Poissons Ratio (y) = 0.27407 0.37742
# Poissons Ratio (z) = -0.03100 0.17577
#
# Static dielectric constant tensor:
#      x y z
#    x 1.853210 0.000000 0.000000 
#    y 0.000000 1.817050 0.000000 
#    z 0.000000 0.000000 1.984300 
# 
# From -- ./inp_files/11268.got.cif
#   From: 2010.05.17/outbox.cif.g08.bks.cpg/sg57_6_cif.got.tgz:11268.got - 2010.06.03 13:58:18.
