data_PCOD9436052
_publ_section_title
;
Structure prediction by ZEFSAII (Michael W. Deem and Ramdas Pophale) SiO2 
 PCOD9436052
Probable space group: P B C M
;
_chemical_formula_sum "Si O2"
_cell_formula_units_Z 60
_cell_length_a 11.715662
_cell_length_b 26.558022
_cell_length_c 9.557983
_cell_angle_alpha 90.000000
_cell_angle_beta 90.000000
_cell_angle_gamma 90.000000
_cell_volume 2973.916796
_symmetry_space_group_name_H-M "P B C M"
_symmetry_group_IT_number 57
_symmetry_cell_setting 'orthorhombic'
loop_
_space_group_symop_operation_xyz
x,y,z
-x,-y,1/2+z
x,1/2-y,-z
-x,1/2+y,1/2-z
-x,-y,-z
x,y,1/2-z
-x,1/2+y,z
x,1/2-y,1/2+z
loop_
_atom_site_type_symbol
_atom_site_label
_atom_site_fract_x
_atom_site_fract_y
_atom_site_fract_z
Si Si1 0.571406 0.300305 0.416150
Si Si2 0.748993 0.141114 0.410486
Si Si3 0.814728 0.550143 0.583228
Si Si4 0.481278 0.517934 0.750000
Si Si5 0.337303 0.147671 0.585465
Si Si6 0.844071 0.704805 0.409295
Si Si7 0.348489 0.964253 0.971369
Si Si8 0.001176 0.894107 0.910469
O O1 0.536369 0.250000 0.500000
O O2 0.582713 0.290897 0.250000
O O3 0.687084 0.320007 0.487340
O O4 0.471210 0.342256 0.433750
O O5 0.757840 0.160262 0.250000
O O6 0.673679 0.090802 0.412023
O O7 0.873779 0.122682 0.457923
O O8 0.830551 0.548778 0.750000
O O9 0.714600 0.592299 0.554499
O O10 0.767509 0.497161 0.530745
O O11 0.928939 0.568163 0.506125
O O12 0.397348 0.538859 0.873704
O O13 0.566634 0.494199 0.629899
O O14 0.312706 0.156800 0.750000
O O15 0.269442 0.186213 0.488028
O O16 0.894115 0.750000 0.500000
O O17 0.820959 0.720244 0.250000
O O18 0.926759 0.656994 0.408000
O O19 0.009946 0.913133 0.750000
#
# Coordination Sequence:
#
# PCOD9436052 Si02
#       8
#     8   8   8   4   8   8   8   8
#     4  11  25  42  62  89 122 160 202 249 307 370
#     4  11  24  43  64  87 122 162 203 254 305 360
#     4  10  20  37  61  92 125 160 201 249 299 353
#     4  10  24  38  62  92 134 156 208 240 300 366
#     4   9  20  35  58  87 122 154 188 240 297 358
#     4  10  19  34  57  83 112 148 194 247 298 352
#     4  11  23  40  62  95 125 167 199 248 299 363
#     4   9  22  41  58  84 117 157 206 251 302 358
#
# _framework density 20.175414
#
# number of rings (size 3 to 8) (size 9 to 14) (size 15 to 20)
#    0.000    1.867    1.333    1.200    5.600    4.267 
#    0.000    1.333    0.000    0.000    0.000    0.000 
#    0.000    0.000    0.000    0.000    0.000    0.000 
#
# Total GULP energy -334005.192090 kJ/mol
# GULP energy per Si atom -5566.753202 kJ/mol
# Density = 2.012949 g / cm^3
# Si number density = 20.175414 Si / 1000 Ang^3
#
#
#
# Elastic Constant Matrix: (Units=GPa)
#
#
# Indices 1 2 3 4 5 6 
#
# 1 79.1605 -10.5361 32.7415 0.0000 0.0000 0.0000
# 2 -10.5361 55.2643 14.0295 0.0000 0.0000 0.0000
# 3 32.7415 14.0295 98.9212 0.0000 0.0000 0.0000
# 4 0.0000 0.0000 0.0000 0.3702 0.0000 0.0000
# 5 0.0000 0.0000 0.0000 0.0000 -59.6201 0.0000
# 6 0.0000 0.0000 0.0000 0.0000 0.0000 -66.3338
#
#
#
# Elastic Compliance Matrix: (Units=1/GPa)
#
#
# Indices 1 2 3 4 5 6 
#
# 1 0.015625 0.004452 -0.005803 0.000000 0.000000 0.000000
# 2 0.004452 0.020039 -0.004316 0.000000 0.000000 0.000000
# 3 -0.005803 -0.004316 0.012642 0.000000 0.000000 0.000000
# 4 0.000000 0.000000 0.000000 2.701484 0.000000 0.000000
# 5 0.000000 0.000000 0.000000 0.000000 -0.016773 0.000000
# 6 0.000000 0.000000 0.000000 0.000000 0.000000 -0.015075
#
#
# Mechanical properties :
#
#
# Convention : Reuss Voigt Hill
#
# Bulk Modulus (GPa) = 27.04664 33.97953 30.51308
# Shear Modulus (GPa) = 1.82375 -11.97600 -5.07612
#
# Velocity S-wave (km/s) = 0.95179 -2.43902 -1.58791
# Velocity P-wave (km/s) = 3.82658 2.99113 3.43435
#
# Compressibility (1/GPa) = 0.03697317
#
# Stress axis : x y z
#
# Youngs Moduli (GPa) = 63.99833 49.90207 79.10199
#
# Poissons Ratio (x) = -0.22217 0.45905
# Poissons Ratio (y) = -0.28493 0.34138
# Poissons Ratio (z) = 0.37140 0.21536
#
# Static dielectric constant tensor:
#      x y z
#    x 1.726010 0.000000 0.000000 
#    y 0.000000 1.741870 0.000000 
#    z 0.000000 0.000000 1.682470 
# 
# From -- ./inp_files/3510.got.cif
#   From: 2010.05.17/outbox.cif.g08.bks.cpg/sg57_2_cif.got.tgz:3510.got - 2010.06.03 13:58:18.
