data_PCOD9436214
_publ_section_title
;
Structure prediction by ZEFSAII (Michael W. Deem and Ramdas Pophale) SiO2 
 PCOD9436214
Probable space group: P B C M
;
_chemical_formula_sum "Si O2"
_cell_formula_units_Z 52
_cell_length_a 8.523506
_cell_length_b 9.747661
_cell_length_c 27.599881
_cell_angle_alpha 90.000000
_cell_angle_beta 90.000000
_cell_angle_gamma 90.000000
_cell_volume 2293.115331
_symmetry_space_group_name_H-M "P B C M"
_symmetry_group_IT_number 57
_symmetry_cell_setting 'orthorhombic'
loop_
_space_group_symop_operation_xyz
x,y,z
-x,-y,1/2+z
x,1/2-y,-z
-x,1/2+y,1/2-z
-x,-y,-z
x,y,1/2-z
-x,1/2+y,z
x,1/2-y,1/2+z
loop_
_atom_site_type_symbol
_atom_site_label
_atom_site_fract_x
_atom_site_fract_y
_atom_site_fract_z
Si Si1 0.313410 0.796363 0.250000
Si Si2 0.869195 0.019821 0.250000
Si Si3 0.677434 0.757825 0.855805
Si Si4 0.315144 0.785852 0.356913
Si Si5 0.114191 0.123513 0.067641
Si Si6 0.126868 0.517244 0.146875
Si Si7 0.325848 0.243062 0.250000
Si Si8 0.141878 0.840483 0.042872
O O1 0.267195 0.634671 0.250000
O O2 0.260216 0.842729 0.303942
O O3 0.500580 0.809347 0.250000
O O4 0.953858 0.039613 0.300799
O O5 0.796714 0.868247 0.250000
O O6 0.501702 0.701365 0.860963
O O7 0.730404 0.845532 0.901654
O O8 0.802133 0.633508 0.855348
O O9 0.685649 0.827750 0.802439
O O10 0.269677 0.624728 0.355534
O O11 0.229400 0.836205 0.405251
O O12 0.024572 0.261023 0.050717
O O13 0.140648 0.001300 0.029572
O O14 0.990647 0.055257 0.104844
O O15 0.218419 0.750000 0.000000
#
# Coordination Sequence:
#
# PCOD9436214 Si02
#       8
#     4   4   8   8   8   8   4   8
#     4   8  14  32  51  85 113 154 193 229 301 351
#     4   8  14  27  50  73 113 157 185 234 285 336
#     4  10  19  35  58  88 120 157 199 242 298 352
#     4   9  20  35  62  86 120 154 196 251 292 354
#     4  11  22  40  63  86 114 158 196 247 299 359
#     4   9  18  34  54  82 119 153 195 239 289 351
#     4   8  16  29  49  82 120 155 190 235 288 357
#     4  11  24  44  64  88 118 156 202 250 306 360
#
# _framework density 22.676576000000001
#
# number of rings (size 3 to 8) (size 9 to 14) (size 15 to 20)
#    0.000    2.462    1.538    0.462    2.154    0.615 
#    2.769    3.077    0.000    0.000    0.000    0.000 
#    0.000    0.000    0.000    0.000    0.000    0.000 
#
# Total GULP energy -289831.446732 kJ/mol
# GULP energy per Si atom -5573.681668 kJ/mol
# Density = 2.262496 g / cm^3
# Si number density = 22.676576 Si / 1000 Ang^3
#
#
#
# Elastic Constant Matrix: (Units=GPa)
#
#
# Indices 1 2 3 4 5 6 
#
# 1 53.2905 -5.2978 21.1919 0.0000 0.0000 0.0000
# 2 -5.2978 66.2691 3.6384 0.0000 0.0000 0.0000
# 3 21.1919 3.6384 108.1974 0.0000 0.0000 0.0000
# 4 0.0000 0.0000 0.0000 9.5490 0.0000 0.0000
# 5 0.0000 0.0000 0.0000 0.0000 39.6201 0.0000
# 6 0.0000 0.0000 0.0000 0.0000 0.0000 19.3370
#
#
#
# Elastic Compliance Matrix: (Units=1/GPa)
#
#
# Indices 1 2 3 4 5 6 
#
# 1 0.020579 0.001870 -0.004094 0.000000 0.000000 0.000000
# 2 0.001870 0.015288 -0.000880 0.000000 0.000000 0.000000
# 3 -0.004094 -0.000880 0.010074 0.000000 0.000000 0.000000
# 4 0.000000 0.000000 0.000000 0.104723 0.000000 0.000000
# 5 0.000000 0.000000 0.000000 0.000000 0.025240 0.000000
# 6 0.000000 0.000000 0.000000 0.000000 0.000000 0.051714
#
#
# Mechanical properties :
#
#
# Convention : Reuss Voigt Hill
#
# Bulk Modulus (GPa) = 25.16833 29.64689 27.40761
# Shear Modulus (GPa) = 20.23718 27.58285 23.91001
#
# Velocity S-wave (km/s) = 2.99059 3.49142 3.25066
# Velocity P-wave (km/s) = 4.80081 5.41807 5.11875
#
# Compressibility (1/GPa) = 0.03973247
#
# Stress axis : x y z
#
# Youngs Moduli (GPa) = 48.59368 65.41156 99.26802
#
# Poissons Ratio (x) = -0.12231 0.40636
# Poissons Ratio (y) = -0.09087 0.08739
# Poissons Ratio (z) = 0.19892 0.05758
#
# Static dielectric constant tensor:
#      x y z
#    x 1.796580 0.000000 0.000000 
#    y 0.000000 1.888540 0.000000 
#    z 0.000000 0.000000 1.941280 
# 
# From -- ./inp_files/28369.got.cif
#   From: 2010.05.17/outbox.cif.g08.bks.cpg/sg57_15_cif.got.tgz:28369.got - 2010.06.03 13:58:18.
