data_PCOD9436086
_publ_section_title
;
Structure prediction by ZEFSAII (Michael W. Deem and Ramdas Pophale) SiO2 
 PCOD9436086
Probable space group: P B C M
;
_chemical_formula_sum "Si O2"
_cell_formula_units_Z 64
_cell_length_a 12.100317
_cell_length_b 31.073271
_cell_length_c 8.689417
_cell_angle_alpha 90.000000
_cell_angle_beta 90.000000
_cell_angle_gamma 90.000000
_cell_volume 3267.189765
_symmetry_space_group_name_H-M "P B C M"
_symmetry_group_IT_number 57
_symmetry_cell_setting 'orthorhombic'
loop_
_space_group_symop_operation_xyz
x,y,z
-x,-y,1/2+z
x,1/2-y,-z
-x,1/2+y,1/2-z
-x,-y,-z
x,y,1/2-z
-x,1/2+y,z
x,1/2-y,1/2+z
loop_
_atom_site_type_symbol
_atom_site_label
_atom_site_fract_x
_atom_site_fract_y
_atom_site_fract_z
Si Si1 0.499164 0.134011 0.937064
Si Si2 0.172837 0.972455 0.065600
Si Si3 0.331260 0.794540 0.433142
Si Si4 0.683315 0.702495 0.564804
Si Si5 0.905505 0.845993 0.066889
Si Si6 0.427972 0.960252 0.062632
Si Si7 0.911235 0.293183 0.930000
Si Si8 0.933969 0.942585 0.065761
O O1 0.493270 0.132260 0.750000
O O2 0.604222 0.162958 0.980879
O O3 0.397464 0.163939 0.988581
O O4 0.516182 0.084987 0.987729
O O5 0.177238 0.969373 0.250000
O O6 0.297983 0.961939 0.012245
O O7 0.064154 0.944572 0.017331
O O8 0.135484 0.020150 0.015475
O O9 0.379033 0.750000 0.500000
O O10 0.335388 0.791372 0.250000
O O11 0.206324 0.797773 0.489099
O O12 0.661476 0.750000 0.500000
O O13 0.672940 0.705082 0.750000
O O14 0.805546 0.685605 0.527337
O O15 0.928408 0.841758 0.250000
O O16 0.882180 0.895973 0.037453
O O17 0.011496 0.832428 0.971482
O O18 0.429005 0.961736 0.250000
O O19 0.500000 0.000000 0.000000
O O20 0.895274 0.287674 0.750000
O O21 0.964496 0.250000 0.000000
O O22 0.931497 0.950515 0.250000
#
# Coordination Sequence:
#
# PCOD9436086 Si02
#       8
#     8   8   8   8   8   8   8   8
#     4   9  20  37  60  84 110 149 192 230 279 340
#     4   9  19  36  57  83 116 147 185 232 288 338
#     4  10  19  34  58  84 113 149 186 230 279 336
#     4  10  21  38  58  84 113 148 191 236 282 337
#     4  10  21  35  57  84 111 146 193 233 278 340
#     4  10  22  39  60  85 115 151 190 237 285 339
#     4  11  22  36  54  79 113 148 182 226 278 332
#     4   9  19  35  59  86 111 148 188 230 280 343
#
# _framework density 19.588701
#
# number of rings (size 3 to 8) (size 9 to 14) (size 15 to 20)
#    0.000    2.250    0.000    3.000    3.500    2.500 
#    0.000    2.500    0.000    0.000    0.000    0.000 
#    0.000    0.000    0.000    0.000    0.000    0.000 
#
# Total GULP energy -356942.818794 kJ/mol
# GULP energy per Si atom -5577.231544 kJ/mol
# Density = 1.954412 g / cm^3
# Si number density = 19.588701 Si / 1000 Ang^3
#
#
#
# Elastic Constant Matrix: (Units=GPa)
#
#
# Indices 1 2 3 4 5 6 
#
# 1 85.4883 53.3194 18.4624 0.0000 0.0000 0.0000
# 2 53.3194 138.8228 22.1244 0.0000 0.0000 0.0000
# 3 18.4624 22.1244 10.3869 0.0000 0.0000 0.0000
# 4 0.0000 0.0000 0.0000 30.9765 0.0000 0.0000
# 5 0.0000 0.0000 0.0000 0.0000 11.2322 0.0000
# 6 0.0000 0.0000 0.0000 0.0000 0.0000 24.3965
#
#
#
# Elastic Compliance Matrix: (Units=1/GPa)
#
#
# Indices 1 2 3 4 5 6 
#
# 1 0.019788 -0.003020 -0.028740 0.000000 0.000000 0.000000
# 2 -0.003020 0.011366 -0.018843 0.000000 0.000000 0.000000
# 3 -0.028740 -0.018843 0.187495 0.000000 0.000000 0.000000
# 4 0.000000 0.000000 0.000000 0.032283 0.000000 0.000000
# 5 0.000000 0.000000 0.000000 0.000000 0.089029 0.000000
# 6 0.000000 0.000000 0.000000 0.000000 0.000000 0.040989
#
#
# Mechanical properties :
#
#
# Convention : Reuss Voigt Hill
#
# Bulk Modulus (GPa) = 8.51471 46.94558 27.73015
# Shear Modulus (GPa) = 9.59135 22.70717 16.14926
#
# Velocity S-wave (km/s) = 2.21517 3.40839 2.87438
# Velocity P-wave (km/s) = 3.30134 6.28547 5.02026
#
# Compressibility (1/GPa) = 0.11744382
#
# Stress axis : x y z
#
# Youngs Moduli (GPa) = 50.53633 87.97936 5.33349
#
# Poissons Ratio (x) = 0.26568 0.15328
# Poissons Ratio (y) = 0.15261 0.10050
# Poissons Ratio (z) = 1.45240 1.65778
#
# Static dielectric constant tensor:
#      x y z
#    x 1.708620 0.000000 0.000000 
#    y 0.000000 1.720800 0.000000 
#    z 0.000000 0.000000 1.674610 
# 
# From -- ./inp_files/3798.got.cif
#   From: 2010.05.17/outbox.cif.g08.bks.cpg/sg57_2_cif.got.tgz:3798.got - 2010.06.03 13:58:18.
