data_PCOD9436373
_publ_section_title
;
Structure prediction by ZEFSAII (Michael W. Deem and Ramdas Pophale) SiO2 
 PCOD9436373
Probable space group: P B C M
;
_chemical_formula_sum "Si O2"
_cell_formula_units_Z 48
_cell_length_a 9.206274
_cell_length_b 8.490403
_cell_length_c 30.661998
_cell_angle_alpha 90.000000
_cell_angle_beta 90.000000
_cell_angle_gamma 90.000000
_cell_volume 2396.694350
_symmetry_space_group_name_H-M "P B C M"
_symmetry_group_IT_number 57
_symmetry_cell_setting 'orthorhombic'
loop_
_space_group_symop_operation_xyz
x,y,z
-x,-y,1/2+z
x,1/2-y,-z
-x,1/2+y,1/2-z
-x,-y,-z
x,y,1/2-z
-x,1/2+y,z
x,1/2-y,1/2+z
loop_
_atom_site_type_symbol
_atom_site_label
_atom_site_fract_x
_atom_site_fract_y
_atom_site_fract_z
Si Si1 0.916513 0.146420 0.697771
Si Si2 0.657006 0.195424 0.156148
Si Si3 0.404161 0.362223 0.592582
Si Si4 0.439487 0.630288 0.967456
Si Si5 0.207207 0.197307 0.175622
Si Si6 0.459254 0.096277 0.703759
O O1 0.905298 0.184743 0.750000
O O2 0.821796 0.258968 0.665612
O O3 0.080836 0.174373 0.682080
O O4 0.859735 0.968369 0.690864
O O5 0.567942 0.130777 0.114355
O O6 0.573784 0.357670 0.167229
O O7 0.617935 0.065526 0.192472
O O8 0.432169 0.228308 0.556217
O O9 0.363643 0.527676 0.570053
O O10 0.282931 0.316842 0.628033
O O11 0.356939 0.750000 0.000000
O O12 0.500000 0.500000 0.000000
O O13 0.341722 0.264611 0.203148
O O14 0.535191 0.088827 0.750000
#
# Coordination Sequence:
#
# PCOD9436373 Si02
#       6
#     8   8   8   8   8   8
#     4  12  23  38  53  78 112 160 215 251 280 324
#     4  11  22  33  55  80 111 151 190 242 289 328
#     4  10  19  37  56  87 118 139 182 229 284 358
#     4   9  18  33  60  92 115 136 165 220 286 349
#     4  11  24  37  55  76 110 156 196 246 292 327
#     4  11  20  34  50  75 106 146 193 244 294 334
#
# _framework density 20.027584999999998
#
# number of rings (size 3 to 8) (size 9 to 14) (size 15 to 20)
#    0.000    1.333    0.000    9.000    0.000    0.000 
#    0.000    0.000    0.000    0.000    0.000   73.500 
#    0.000    0.000    0.000    0.000    0.000    0.000 
#
# Total GULP energy -267444.352794 kJ/mol
# GULP energy per Si atom -5571.757350 kJ/mol
# Density = 1.998200 g / cm^3
# Si number density = 20.027585 Si / 1000 Ang^3
#
#
#
# Elastic Constant Matrix: (Units=GPa)
#
#
# Indices 1 2 3 4 5 6 
#
# 1 88.0223 9.8115 24.7948 0.0000 0.0000 0.0000
# 2 9.8115 83.5828 28.2271 0.0000 0.0000 0.0000
# 3 24.7948 28.2271 109.3621 0.0000 0.0000 0.0000
# 4 0.0000 0.0000 0.0000 38.2413 0.0000 0.0000
# 5 0.0000 0.0000 0.0000 0.0000 11.6068 0.0000
# 6 0.0000 0.0000 0.0000 0.0000 0.0000 31.6284
#
#
#
# Elastic Compliance Matrix: (Units=1/GPa)
#
#
# Indices 1 2 3 4 5 6 
#
# 1 0.012158 -0.000544 -0.002616 0.000000 0.000000 0.000000
# 2 -0.000544 0.013131 -0.003266 0.000000 0.000000 0.000000
# 3 -0.002616 -0.003266 0.010580 0.000000 0.000000 0.000000
# 4 0.000000 0.000000 0.000000 0.026150 0.000000 0.000000
# 5 0.000000 0.000000 0.000000 0.000000 0.086157 0.000000
# 6 0.000000 0.000000 0.000000 0.000000 0.000000 0.031617
#
#
# Mechanical properties :
#
#
# Convention : Reuss Voigt Hill
#
# Bulk Modulus (GPa) = 43.44492 45.18154 44.31323
# Shear Modulus (GPa) = 24.96042 30.83756 27.89899
#
# Velocity S-wave (km/s) = 3.53413 3.92823 3.73638
# Velocity P-wave (km/s) = 6.19621 6.57140 6.38656
#
# Compressibility (1/GPa) = 0.02301765
#
# Stress axis : x y z
#
# Youngs Moduli (GPa) = 82.24818 76.15599 94.51752
#
# Poissons Ratio (x) = 0.04140 0.24728
# Poissons Ratio (y) = 0.04472 0.30869
# Poissons Ratio (z) = 0.21518 0.24872
#
# Static dielectric constant tensor:
#      x y z
#    x 1.688600 0.000000 0.000000 
#    y 0.000000 1.785310 0.000000 
#    z 0.000000 0.000000 1.769940 
# 
# From -- ./inp_files/29473.got.cif
#   From: 2010.05.17/outbox.cif.g08.bks.cpg/sg57_15_cif.got.tgz:29473.got - 2010.06.03 13:58:18.
