data_PCOD9436542
_publ_section_title
;
Structure prediction by ZEFSAII (Michael W. Deem and Ramdas Pophale) SiO2 
 PCOD9436542
Probable space group: P B C M
;
_chemical_formula_sum "Si O2"
_cell_formula_units_Z 48
_cell_length_a 11.635833
_cell_length_b 9.103495
_cell_length_c 22.787193
_cell_angle_alpha 90.000000
_cell_angle_beta 90.000000
_cell_angle_gamma 90.000000
_cell_volume 2413.773240
_symmetry_space_group_name_H-M "P B C M"
_symmetry_group_IT_number 57
_symmetry_cell_setting 'orthorhombic'
loop_
_space_group_symop_operation_xyz
x,y,z
-x,-y,1/2+z
x,1/2-y,-z
-x,1/2+y,1/2-z
-x,-y,-z
x,y,1/2-z
-x,1/2+y,z
x,1/2-y,1/2+z
loop_
_atom_site_type_symbol
_atom_site_label
_atom_site_fract_x
_atom_site_fract_y
_atom_site_fract_z
Si Si1 0.664992 0.987034 0.681336
Si Si2 0.750399 0.484679 0.874753
Si Si3 0.023121 0.788189 0.750000
Si Si4 0.943551 0.619240 0.542408
Si Si5 0.438204 0.162327 0.679895
Si Si6 0.149273 0.677871 0.632587
Si Si7 0.142549 0.436975 0.250000
O O1 0.697144 0.986073 0.750000
O O2 0.603638 0.829885 0.669286
O O3 0.571439 0.118229 0.674573
O O4 0.775935 0.031501 0.643291
O O5 0.626277 0.557481 0.866962
O O6 0.765787 0.311527 0.884855
O O7 0.796596 0.519996 0.809373
O O8 0.835819 0.561499 0.920451
O O9 0.089234 0.729007 0.693029
O O10 0.894428 0.730052 0.750000
O O11 0.028241 0.963083 0.750000
O O12 0.907261 0.750000 0.500000
O O13 0.045905 0.663504 0.586771
O O14 0.000000 0.500000 0.500000
O O15 0.412194 0.132790 0.750000
#
# Coordination Sequence:
#
# PCOD9436542 Si02
#       7
#     8   8   4   8   8   8   4
#     4  10  21  36  59  92 127 160 195 240 302 370
#     4  11  22  38  60  86 123 159 199 251 303 362
#     4  10  20  32  53  86 117 152 189 241 309 359
#     4  12  26  43  60  87 120 166 212 253 301 354
#     4  10  21  36  59  92 127 160 195 241 302 369
#     4  11  22  38  60  86 123 159 199 252 302 363
#     4  10  20  32  53  86 117 152 189 241 307 361
#
# _framework density 19.885878999999999
#
# number of rings (size 3 to 8) (size 9 to 14) (size 15 to 20)
#    0.000    1.333    5.000    1.000    2.333    2.667 
#    0.000    0.000    0.000    2.000    0.000    0.000 
#    0.000    0.000    0.000    0.000    0.000    0.000 
#
# Total GULP energy -267796.603042 kJ/mol
# GULP energy per Si atom -5579.095897 kJ/mol
# Density = 1.984062 g / cm^3
# Si number density = 19.885879 Si / 1000 Ang^3
#
#
#
# Elastic Constant Matrix: (Units=GPa)
#
#
# Indices 1 2 3 4 5 6 
#
# 1 52.2821 9.1017 19.5324 0.0000 0.0000 0.0000
# 2 9.1017 47.2025 16.5464 0.0000 0.0000 0.0000
# 3 19.5324 16.5464 85.0435 0.0000 0.0000 0.0000
# 4 0.0000 0.0000 0.0000 3.8648 0.0000 0.0000
# 5 0.0000 0.0000 0.0000 0.0000 345.2844 0.0000
# 6 0.0000 0.0000 0.0000 0.0000 0.0000 37.3446
#
#
#
# Elastic Compliance Matrix: (Units=1/GPa)
#
#
# Indices 1 2 3 4 5 6 
#
# 1 0.021206 -0.002556 -0.004373 0.000000 0.000000 0.000000
# 2 -0.002556 0.023044 -0.003896 0.000000 0.000000 0.000000
# 3 -0.004373 -0.003896 0.013521 0.000000 0.000000 0.000000
# 4 0.000000 0.000000 0.000000 0.258747 0.000000 0.000000
# 5 0.000000 0.000000 0.000000 0.000000 0.002896 0.000000
# 6 0.000000 0.000000 0.000000 0.000000 0.000000 0.026778
#
#
# Mechanical properties :
#
#
# Convention : Reuss Voigt Hill
#
# Bulk Modulus (GPa) = 27.68566 30.54323 29.11445
# Shear Modulus (GPa) = 13.16193 86.58859 49.87526
#
# Velocity S-wave (km/s) = 2.57548 6.60585 5.01350
# Velocity P-wave (km/s) = 4.77458 8.57762 6.94162
#
# Compressibility (1/GPa) = 0.03611978
#
# Stress axis : x y z
#
# Youngs Moduli (GPa) = 47.15704 43.39517 73.95787
#
# Poissons Ratio (x) = 0.11092 0.32343
# Poissons Ratio (y) = 0.12053 0.28818
# Poissons Ratio (z) = 0.20622 0.16909
#
# Static dielectric constant tensor:
#      x y z
#    x 1.756330 0.000000 0.000000 
#    y 0.000000 1.718500 0.000000 
#    z 0.000000 0.000000 1.897210 
# 
# From -- ./inp_files/27139.got.cif
#   From: 2010.05.17/outbox.cif.g08.bks.cpg/sg57_14_cif.got.tgz:27139.got - 2010.06.03 13:58:18.
