data_PCOD9436676
_publ_section_title
;
Structure prediction by ZEFSAII (Michael W. Deem and Ramdas Pophale) SiO2 
 PCOD9436676
Probable space group: P B C M
;
_chemical_formula_sum "Si O2"
_cell_formula_units_Z 48
_cell_length_a 16.526160
_cell_length_b 18.896464
_cell_length_c 8.793912
_cell_angle_alpha 90.000000
_cell_angle_beta 90.000000
_cell_angle_gamma 90.000000
_cell_volume 2746.215493
_symmetry_space_group_name_H-M "P B C M"
_symmetry_group_IT_number 57
_symmetry_cell_setting 'orthorhombic'
loop_
_space_group_symop_operation_xyz
x,y,z
-x,-y,1/2+z
x,1/2-y,-z
-x,1/2+y,1/2-z
-x,-y,-z
x,y,1/2-z
-x,1/2+y,z
x,1/2-y,1/2+z
loop_
_atom_site_type_symbol
_atom_site_label
_atom_site_fract_x
_atom_site_fract_y
_atom_site_fract_z
Si Si1 0.156359 0.326945 0.431692
Si Si2 0.169492 0.901052 0.430509
Si Si3 0.250443 0.464912 0.068663
Si Si4 0.660700 0.327392 0.432295
Si Si5 0.420228 0.535144 0.068358
Si Si6 0.015918 0.827964 0.568803
O O1 0.174399 0.250000 0.500000
O O2 0.147926 0.320772 0.250000
O O3 0.223798 0.385401 0.466775
O O4 0.070392 0.351135 0.500845
O O5 0.156481 0.896163 0.250000
O O6 0.247220 0.851970 0.470415
O O7 0.089762 0.876545 0.517170
O O8 0.195406 0.979573 0.478608
O O9 0.238197 0.476073 0.250000
O O10 0.342967 0.484885 0.034726
O O11 0.645109 0.250000 0.500000
O O12 0.653653 0.326017 0.250000
O O13 0.602505 0.388397 0.498614
O O14 0.427637 0.541793 0.250000
O O15 0.500000 0.500000 0.000000
O O16 0.031064 0.750000 0.500000
O O17 0.010846 0.823723 0.750000
#
# Coordination Sequence:
#
# PCOD9436676 Si02
#       6
#     8   8   8   8   8   8
#     4  10  20  36  55  75 101 135 176 220 263 306
#     4  10  20  33  52  78 107 139 176 217 261 312
#     4   9  20  37  56  77 103 136 173 215 263 315
#     4  10  20  34  54  81 110 141 176 215 262 314
#     4  10  20  37  59  82 109 140 174 215 264 317
#     4  11  21  33  50  73 104 141 179 218 260 306
#
# _framework density 17.478598000000002
#
# number of rings (size 3 to 8) (size 9 to 14) (size 15 to 20)
#    0.000    2.000    0.000    5.000    0.000    6.000 
#    0.000    0.833    0.000    2.000    0.000    0.000 
#    0.000    0.000    0.000    0.000    0.000    0.000 
#
# Total GULP energy -268018.507655 kJ/mol
# GULP energy per Si atom -5583.718909 kJ/mol
# Density = 1.743882 g / cm^3
# Si number density = 17.478598 Si / 1000 Ang^3
#
#
#
# Elastic Constant Matrix: (Units=GPa)
#
#
# Indices 1 2 3 4 5 6 
#
# 1 94.2568 87.9747 58.0484 0.0000 0.0000 0.0000
# 2 87.9747 127.1280 64.8763 0.0000 0.0000 0.0000
# 3 58.0484 64.8763 85.7386 0.0000 0.0000 0.0000
# 4 0.0000 0.0000 0.0000 31.6998 0.0000 0.0000
# 5 0.0000 0.0000 0.0000 0.0000 26.4035 0.0000
# 6 0.0000 0.0000 0.0000 0.0000 0.0000 23.6116
#
#
#
# Elastic Compliance Matrix: (Units=1/GPa)
#
#
# Indices 1 2 3 4 5 6 
#
# 1 0.033234 -0.018760 -0.008305 0.000000 0.000000 0.000000
# 2 -0.018760 0.023404 -0.005008 0.000000 0.000000 0.000000
# 3 -0.008305 -0.005008 0.021076 0.000000 0.000000 0.000000
# 4 0.000000 0.000000 0.000000 0.031546 0.000000 0.000000
# 5 0.000000 0.000000 0.000000 0.000000 0.037874 0.000000
# 6 0.000000 0.000000 0.000000 0.000000 0.000000 0.042352
#
#
# Mechanical properties :
#
#
# Convention : Reuss Voigt Hill
#
# Bulk Modulus (GPa) = 73.70843 80.99137 77.34990
# Shear Modulus (GPa) = 19.36824 22.75790 21.06307
#
# Velocity S-wave (km/s) = 3.33244 3.61230 3.47519
# Velocity P-wave (km/s) = 7.55441 7.98976 7.77513
#
# Compressibility (1/GPa) = 0.01356697
#
# Stress axis : x y z
#
# Youngs Moduli (GPa) = 30.08983 42.72789 47.44752
#
# Poissons Ratio (x) = 0.80157 0.39407
# Poissons Ratio (y) = 0.56448 0.23762
# Poissons Ratio (z) = 0.24991 0.21398
#
# Static dielectric constant tensor:
#      x y z
#    x 1.578150 0.000000 0.000000 
#    y 0.000000 1.578070 0.000000 
#    z 0.000000 0.000000 1.584080 
# 
# From -- ./inp_files/4647.got.cif
#   From: 2010.05.17/outbox.cif.g08.bks.cpg/sg57_3_cif.got.tgz:4647.got - 2010.06.03 13:58:18.
