data_PCOD9436328
_publ_section_title
;
Structure prediction by ZEFSAII (Michael W. Deem and Ramdas Pophale) SiO2 
 PCOD9436328
Probable space group: P B C M
;
_chemical_formula_sum "Si O2"
_cell_formula_units_Z 48
_cell_length_a 14.029806
_cell_length_b 19.583616
_cell_length_c 8.191067
_cell_angle_alpha 90.000000
_cell_angle_beta 90.000000
_cell_angle_gamma 90.000000
_cell_volume 2250.531152
_symmetry_space_group_name_H-M "P B C M"
_symmetry_group_IT_number 57
_symmetry_cell_setting 'orthorhombic'
loop_
_space_group_symop_operation_xyz
x,y,z
-x,-y,1/2+z
x,1/2-y,-z
-x,1/2+y,1/2-z
-x,-y,-z
x,y,1/2-z
-x,1/2+y,z
x,1/2-y,1/2+z
loop_
_atom_site_type_symbol
_atom_site_label
_atom_site_fract_x
_atom_site_fract_y
_atom_site_fract_z
Si Si1 0.005933 0.172276 0.053597
Si Si2 0.304746 0.044575 0.549587
Si Si3 0.094111 0.461452 0.059982
Si Si4 0.209564 0.827484 0.553793
Si Si5 0.582595 0.828081 0.056435
Si Si6 0.395670 0.591056 0.052415
O O1 0.011995 0.167029 0.250000
O O2 0.897391 0.153625 0.000493
O O3 0.022892 0.250000 0.000000
O O4 0.075614 0.118425 0.971717
O O5 0.302302 0.044847 0.750000
O O6 0.199282 0.023367 0.491192
O O7 0.336283 0.119673 0.493280
O O8 0.382736 0.987790 0.501761
O O9 0.099552 0.477591 0.250000
O O10 0.000000 0.500000 0.000000
O O11 0.226337 0.750000 0.500000
O O12 0.208194 0.830361 0.750000
O O13 0.296950 0.873316 0.498411
O O14 0.591150 0.826277 0.250000
O O15 0.586366 0.750000 0.000000
O O16 0.483597 0.865619 0.013065
O O17 0.400647 0.593238 0.250000
#
# Coordination Sequence:
#
# PCOD9436328 Si02
#       6
#     8   8   8   8   8   8
#     4  10  20  36  56  82 115 154 196 242 292 347
#     4   9  21  40  61  83 114 151 189 234 287 339
#     4  11  22  39  61  87 117 153 194 240 291 347
#     4   9  18  31  51  78 112 149 186 229 284 340
#     4  11  23  40  60  85 115 151 190 232 280 336
#     4  10  19  36  60  85 112 146 185 233 287 341
#
# _framework density 21.328299999999999
#
# number of rings (size 3 to 8) (size 9 to 14) (size 15 to 20)
#    0.000    2.000    0.000    3.500    0.000    6.000 
#    0.000    9.167    0.000    0.000    0.000    0.000 
#    0.000    0.000    0.000    0.000    0.000    0.000 
#
# Total GULP energy -268048.823073 kJ/mol
# GULP energy per Si atom -5584.350481 kJ/mol
# Density = 2.127976 g / cm^3
# Si number density = 21.328300 Si / 1000 Ang^3
#
#
#
# Elastic Constant Matrix: (Units=GPa)
#
#
# Indices 1 2 3 4 5 6 
#
# 1 99.6973 57.1525 8.8049 0.0000 0.0000 0.0000
# 2 57.1525 113.6721 6.1499 0.0000 0.0000 0.0000
# 3 8.8049 6.1499 11.8948 0.0000 0.0000 0.0000
# 4 0.0000 0.0000 0.0000 20.9526 0.0000 0.0000
# 5 0.0000 0.0000 0.0000 0.0000 16.7133 0.0000
# 6 0.0000 0.0000 0.0000 0.0000 0.0000 32.6637
#
#
#
# Elastic Compliance Matrix: (Units=1/GPa)
#
#
# Indices 1 2 3 4 5 6 
#
# 1 0.014676 -0.006986 -0.007251 0.000000 0.000000 0.000000
# 2 -0.006986 0.012376 -0.001227 0.000000 0.000000 0.000000
# 3 -0.007251 -0.001227 0.090073 0.000000 0.000000 0.000000
# 4 0.000000 0.000000 0.000000 0.047727 0.000000 0.000000
# 5 0.000000 0.000000 0.000000 0.000000 0.059832 0.000000
# 6 0.000000 0.000000 0.000000 0.000000 0.000000 0.030615
#
#
# Mechanical properties :
#
#
# Convention : Reuss Voigt Hill
#
# Bulk Modulus (GPa) = 11.60164 41.05319 26.32742
# Shear Modulus (GPa) = 15.87500 24.27639 20.07570
#
# Velocity S-wave (km/s) = 2.73118 3.37742 3.07134
# Velocity P-wave (km/s) = 3.92392 5.87361 4.99482
#
# Compressibility (1/GPa) = 0.08619468
#
# Stress axis : x y z
#
# Youngs Moduli (GPa) = 68.13928 80.79961 11.10215
#
# Poissons Ratio (x) = 0.56450 0.08051
# Poissons Ratio (y) = 0.47605 0.01363
# Poissons Ratio (z) = 0.49410 0.09916
#
# Static dielectric constant tensor:
#      x y z
#    x 1.786300 0.000000 0.000000 
#    y 0.000000 1.779900 0.000000 
#    z 0.000000 0.000000 1.789000 
# 
# From -- ./inp_files/4680.got.cif
#   From: 2010.05.17/outbox.cif.g08.bks.cpg/sg57_3_cif.got.tgz:4680.got - 2010.06.03 13:58:18.
