data_PCOD9436599
_publ_section_title
;
Structure prediction by ZEFSAII (Michael W. Deem and Ramdas Pophale) SiO2 
 PCOD9436599
Probable space group: P B C M
;
_chemical_formula_sum "Si O2"
_cell_formula_units_Z 48
_cell_length_a 23.931004
_cell_length_b 13.999111
_cell_length_c 8.952469
_cell_angle_alpha 90.000000
_cell_angle_beta 90.000000
_cell_angle_gamma 90.000000
_cell_volume 2999.191540
_symmetry_space_group_name_H-M "P B C M"
_symmetry_group_IT_number 57
_symmetry_cell_setting 'orthorhombic'
loop_
_space_group_symop_operation_xyz
x,y,z
-x,-y,1/2+z
x,1/2-y,-z
-x,1/2+y,1/2-z
-x,-y,-z
x,y,1/2-z
-x,1/2+y,z
x,1/2-y,1/2+z
loop_
_atom_site_type_symbol
_atom_site_label
_atom_site_fract_x
_atom_site_fract_y
_atom_site_fract_z
Si Si1 0.480242 0.850963 0.071831
Si Si2 0.816144 0.646710 0.927862
Si Si3 0.415015 0.043172 0.428080
Si Si4 0.912131 0.974008 0.572099
Si Si5 0.685183 0.646679 0.927778
Si Si6 0.975791 0.146188 0.427941
O O1 0.486903 0.841626 0.250000
O O2 0.435381 0.934964 0.042472
O O3 0.464948 0.750000 0.000000
O O4 0.538059 0.888345 0.000349
O O5 0.824952 0.651793 0.750000
O O6 0.750626 0.625987 0.955542
O O7 0.828404 0.750000 0.000000
O O8 0.856674 0.569140 0.999995
O O9 0.413953 0.057680 0.250000
O O10 0.356066 0.070328 0.499369
O O11 0.906255 0.984045 0.750000
O O12 0.963151 0.900054 0.542960
O O13 0.931440 0.073326 0.499506
O O14 0.676398 0.651562 0.750000
O O15 0.672855 0.750000 0.000000
O O16 0.972311 0.250000 0.500000
O O17 0.968167 0.151145 0.250000
#
# Coordination Sequence:
#
# PCOD9436599 Si02
#       6
#     8   8   8   8   8   8
#     4  10  20  33  50  72  98 128 160 196 239 286
#     4  10  20  33  50  73 100 130 163 200 243 290
#     4  10  20  33  50  72  98 128 161 198 240 286
#     4  10  20  33  51  74 100 131 164 201 244 289
#     4  10  20  33  50  72  99 130 162 199 241 286
#     4  10  20  33  50  73 101 131 164 201 243 291
#
# _framework density 16.004311999999999
#
# number of rings (size 3 to 8) (size 9 to 14) (size 15 to 20)
#    0.000    2.000    0.000    4.000    0.000    7.333 
#    0.000    0.000    0.000    1.000    0.000    2.333 
#    0.000    0.000    0.000    0.000    0.000    0.000 
#
# Total GULP energy -268022.581615 kJ/mol
# GULP energy per Si atom -5583.803784 kJ/mol
# Density = 1.596789 g / cm^3
# Si number density = 16.004312 Si / 1000 Ang^3
#
#
#
# Elastic Constant Matrix: (Units=GPa)
#
#
# Indices 1 2 3 4 5 6 
#
# 1 77.5374 64.4386 62.2975 0.0000 0.0000 0.0000
# 2 64.4386 132.6824 76.3605 0.0000 0.0000 0.0000
# 3 62.2975 76.3605 91.8333 0.0000 0.0000 0.0000
# 4 0.0000 0.0000 0.0000 33.0548 0.0000 0.0000
# 5 0.0000 0.0000 0.0000 0.0000 29.8109 0.0000
# 6 0.0000 0.0000 0.0000 0.0000 0.0000 22.1661
#
#
#
# Elastic Compliance Matrix: (Units=1/GPa)
#
#
# Indices 1 2 3 4 5 6 
#
# 1 0.030333 -0.005540 -0.015970 0.000000 0.000000 0.000000
# 2 -0.005540 0.015465 -0.009101 0.000000 0.000000 0.000000
# 3 -0.015970 -0.009101 0.029291 0.000000 0.000000 0.000000
# 4 0.000000 0.000000 0.000000 0.030253 0.000000 0.000000
# 5 0.000000 0.000000 0.000000 0.000000 0.033545 0.000000
# 6 0.000000 0.000000 0.000000 0.000000 0.000000 0.045114
#
#
# Mechanical properties :
#
#
# Convention : Reuss Voigt Hill
#
# Bulk Modulus (GPa) = 72.12136 78.69404 75.40770
# Shear Modulus (GPa) = 20.01241 23.60347 21.80794
#
# Velocity S-wave (km/s) = 3.53999 3.84450 3.69538
# Velocity P-wave (km/s) = 7.86576 8.30567 8.08871
#
# Compressibility (1/GPa) = 0.01386552
#
# Stress axis : x y z
#
# Youngs Moduli (GPa) = 32.96791 64.66043 34.14050
#
# Poissons Ratio (x) = 0.35824 0.54522
# Poissons Ratio (y) = 0.18265 0.31072
# Poissons Ratio (z) = 0.52650 0.58849
#
# Static dielectric constant tensor:
#      x y z
#    x 1.521640 0.000000 0.000000 
#    y 0.000000 1.510760 0.000000 
#    z 0.000000 0.000000 1.528740 
# 
# From -- ./inp_files/7870.got.cif
#   From: 2010.05.17/outbox.cif.g08.bks.cpg/sg57_4_cif.got.tgz:7870.got - 2010.06.03 13:58:18.
