data_PCOD9436630
_publ_section_title
;
Structure prediction by ZEFSAII (Michael W. Deem and Ramdas Pophale) SiO2 
 PCOD9436630
Probable space group: P B C M
;
_chemical_formula_sum "Si O2"
_cell_formula_units_Z 64
_cell_length_a 27.922490
_cell_length_b 14.752363
_cell_length_c 9.002428
_cell_angle_alpha 90.000000
_cell_angle_beta 90.000000
_cell_angle_gamma 90.000000
_cell_volume 3708.304523
_symmetry_space_group_name_H-M "P B C M"
_symmetry_group_IT_number 57
_symmetry_cell_setting 'orthorhombic'
loop_
_space_group_symop_operation_xyz
x,y,z
-x,-y,1/2+z
x,1/2-y,-z
-x,1/2+y,1/2-z
-x,-y,-z
x,y,1/2-z
-x,1/2+y,z
x,1/2-y,1/2+z
loop_
_atom_site_type_symbol
_atom_site_label
_atom_site_fract_x
_atom_site_fract_y
_atom_site_fract_z
Si Si1 0.161449 0.530151 0.073172
Si Si2 0.015630 0.407462 0.424326
Si Si3 0.880822 0.657687 0.927493
Si Si4 0.647086 0.347321 0.073583
Si Si5 0.428455 0.976501 0.572581
Si Si6 0.088515 0.840829 0.423914
Si Si7 0.760709 0.153861 0.574550
Si Si8 0.477673 0.148482 0.428254
O O1 0.162933 0.542996 0.250000
O O2 0.154674 0.424646 0.039906
O O3 0.114013 0.577573 0.008125
O O4 0.206758 0.577084 0.998289
O O5 0.023098 0.425719 0.250000
O O6 0.968801 0.345421 0.438829
O O7 0.000000 0.500000 0.500000
O O8 0.065341 0.367068 0.482837
O O9 0.883747 0.668092 0.750000
O O10 0.864881 0.750000 0.000000
O O11 0.637266 0.343229 0.250000
O O12 0.704003 0.361359 0.052107
O O13 0.634661 0.250000 0.000000
O O14 0.617456 0.427998 0.998662
O O15 0.423748 0.987870 0.750000
O O16 0.441296 0.073848 0.499010
O O17 0.471539 0.903456 0.546595
O O18 0.106739 0.750000 0.500000
O O19 0.100297 0.843814 0.250000
O O20 0.772692 0.250000 0.500000
O O21 0.769970 0.158691 0.750000
O O22 0.476363 0.250000 0.500000
O O23 0.470534 0.156135 0.250000
#
# Coordination Sequence:
#
# PCOD9436630 Si02
#       8
#     8   8   8   8   8   8   8   8
#     4  11  22  37  56  77 105 134 167 212 257 308
#     4  10  20  35  53  75 102 133 168 204 246 295
#     4  10  22  38  56  78 102 132 170 210 253 300
#     4  10  20  34  54  80 110 142 177 221 268 321
#     4  10  20  33  52  78 109 147 189 231 274 324
#     4  11  22  34  52  76 103 136 167 201 246 299
#     4  10  21  37  57  82 110 139 173 213 264 320
#     4  10  20  33  50  75 110 150 191 233 276 322
#
# _framework density 17.258561
#
# number of rings (size 3 to 8) (size 9 to 14) (size 15 to 20)
#    0.000    1.750    1.250    3.375    0.000    6.000 
#    0.000    0.000    0.000    0.750    0.000    1.750 
#    0.000    0.000    0.000    0.000    0.000    0.000 
#
# Total GULP energy -357223.717096 kJ/mol
# GULP energy per Si atom -5581.620580 kJ/mol
# Density = 1.721928 g / cm^3
# Si number density = 17.258561 Si / 1000 Ang^3
#
#
#
# Elastic Constant Matrix: (Units=GPa)
#
#
# Indices 1 2 3 4 5 6 
#
# 1 70.1427 53.0756 55.0899 0.0000 0.0000 0.0000
# 2 53.0756 158.4384 86.9343 0.0000 0.0000 0.0000
# 3 55.0899 86.9343 90.4315 0.0000 0.0000 0.0000
# 4 0.0000 0.0000 0.0000 34.3661 0.0000 0.0000
# 5 0.0000 0.0000 0.0000 0.0000 24.1614 0.0000
# 6 0.0000 0.0000 0.0000 0.0000 0.0000 27.6288
#
#
#
# Elastic Compliance Matrix: (Units=1/GPa)
#
#
# Indices 1 2 3 4 5 6 
#
# 1 0.027336 -0.000042 -0.016612 0.000000 0.000000 0.000000
# 2 -0.000042 0.013357 -0.012815 0.000000 0.000000 0.000000
# 3 -0.016612 -0.012815 0.033497 0.000000 0.000000 0.000000
# 4 0.000000 0.000000 0.000000 0.029098 0.000000 0.000000
# 5 0.000000 0.000000 0.000000 0.000000 0.041388 0.000000
# 6 0.000000 0.000000 0.000000 0.000000 0.000000 0.036194
#
#
# Mechanical properties :
#
#
# Convention : Reuss Voigt Hill
#
# Bulk Modulus (GPa) = 65.56590 78.80135 72.18362
# Shear Modulus (GPa) = 20.41710 25.49211 22.95461
#
# Velocity S-wave (km/s) = 3.44323 3.84744 3.65093
# Velocity P-wave (km/s) = 7.34034 8.09292 7.72580
#
# Compressibility (1/GPa) = 0.01525183
#
# Stress axis : x y z
#
# Youngs Moduli (GPa) = 36.58237 74.86572 29.85337
#
# Poissons Ratio (x) = 0.00318 0.49592
# Poissons Ratio (y) = 0.00155 0.38257
# Poissons Ratio (z) = 0.60770 0.95939
#
# Static dielectric constant tensor:
#      x y z
#    x 1.600130 0.000000 0.000000 
#    y 0.000000 1.633390 0.000000 
#    z 0.000000 0.000000 1.579660 
# 
# From -- ./inp_files/10330.got.cif
#   From: 2010.05.17/outbox.cif.g08.bks.cpg/sg57_6_cif.got.tgz:10330.got - 2010.06.03 13:58:18.
