data_PCOD9436047
_publ_section_title
;
Structure prediction by ZEFSAII (Michael W. Deem and Ramdas Pophale) SiO2 
 PCOD9436047
Probable space group: P B C M
;
_chemical_formula_sum "Si O2"
_cell_formula_units_Z 48
_cell_length_a 15.046344
_cell_length_b 19.084012
_cell_length_c 9.135238
_cell_angle_alpha 90.000000
_cell_angle_beta 90.000000
_cell_angle_gamma 90.000000
_cell_volume 2623.134348
_symmetry_space_group_name_H-M "P B C M"
_symmetry_group_IT_number 57
_symmetry_cell_setting 'orthorhombic'
loop_
_space_group_symop_operation_xyz
x,y,z
-x,-y,1/2+z
x,1/2-y,-z
-x,1/2+y,1/2-z
-x,-y,-z
x,y,1/2-z
-x,1/2+y,z
x,1/2-y,1/2+z
loop_
_atom_site_type_symbol
_atom_site_label
_atom_site_fract_x
_atom_site_fract_y
_atom_site_fract_z
Si Si1 0.124314 0.069742 0.574483
Si Si2 0.034416 0.675239 0.574786
Si Si3 0.374917 0.943817 0.577162
Si Si4 0.279381 0.321380 0.424960
Si Si5 0.185182 0.930411 0.074816
Si Si6 0.452262 0.100716 0.923685
O O1 0.121098 0.056508 0.750000
O O2 0.212394 0.115329 0.542558
O O3 0.041447 0.118867 0.533832
O O4 0.132312 0.997212 0.489294
O O5 0.022275 0.750000 0.500000
O O6 0.028217 0.684233 0.750000
O O7 0.128583 0.639044 0.539789
O O8 0.364446 0.932232 0.750000
O O9 0.282570 0.930447 0.495952
O O10 0.456250 0.899213 0.511594
O O11 0.405405 0.024757 0.556234
O O12 0.250191 0.250000 0.500000
O O13 0.278839 0.312578 0.250000
O O14 0.378858 0.342924 0.470616
O O15 0.191315 0.936722 0.250000
O O16 0.469643 0.108130 0.750000
#
# Coordination Sequence:
#
# PCOD9436047 Si02
#       6
#     8   8   8   8   8   8
#     4  10  20  38  59  83 114 148 188 236 284 337
#     4  10  23  40  59  83 115 151 190 235 285 338
#     4  10  19  34  57  82 108 143 184 230 282 330
#     4  10  20  34  53  80 115 150 185 228 282 337
#     4  11  22  36  57  88 116 146 190 238 282 335
#     4   9  18  34  53  78 111 144 181 228 278 331
#
# _framework density 18.298718999999998
#
# number of rings (size 3 to 8) (size 9 to 14) (size 15 to 20)
#    0.000    2.000    1.667    2.000    0.000    4.000 
#    0.000    0.833    0.000    0.000    0.000    0.000 
#    0.000    0.000    0.000    0.000    0.000    0.000 
#
# Total GULP energy -268006.870822 kJ/mol
# GULP energy per Si atom -5583.476475 kJ/mol
# Density = 1.825707 g / cm^3
# Si number density = 18.298719 Si / 1000 Ang^3
#
#
#
# Elastic Constant Matrix: (Units=GPa)
#
#
# Indices 1 2 3 4 5 6 
#
# 1 116.5652 26.3548 44.5923 0.0000 0.0000 0.0000
# 2 26.3548 42.7610 20.7904 0.0000 0.0000 0.0000
# 3 44.5923 20.7904 36.9506 0.0000 0.0000 0.0000
# 4 0.0000 0.0000 0.0000 23.4723 0.0000 0.0000
# 5 0.0000 0.0000 0.0000 0.0000 28.4233 0.0000
# 6 0.0000 0.0000 0.0000 0.0000 0.0000 14.9670
#
#
#
# Elastic Compliance Matrix: (Units=1/GPa)
#
#
# Indices 1 2 3 4 5 6 
#
# 1 0.015949 -0.000649 -0.018882 0.000000 0.000000 0.000000
# 2 -0.000649 0.032219 -0.017344 0.000000 0.000000 0.000000
# 3 -0.018882 -0.017344 0.059609 0.000000 0.000000 0.000000
# 4 0.000000 0.000000 0.000000 0.042603 0.000000 0.000000
# 5 0.000000 0.000000 0.000000 0.000000 0.035182 0.000000
# 6 0.000000 0.000000 0.000000 0.000000 0.000000 0.066814
#
#
# Mechanical properties :
#
#
# Convention : Reuss Voigt Hill
#
# Bulk Modulus (GPa) = 29.38986 42.19465 35.79225
# Shear Modulus (GPa) = 14.81613 20.34181 17.57897
#
# Velocity S-wave (km/s) = 2.84858 3.33776 3.10282
# Velocity P-wave (km/s) = 5.18799 6.16142 5.69554
#
# Compressibility (1/GPa) = 0.03402535
#
# Stress axis : x y z
#
# Youngs Moduli (GPa) = 62.69931 31.03779 16.77597
#
# Poissons Ratio (x) = 0.02016 0.31677
# Poissons Ratio (y) = 0.04072 0.29097
# Poissons Ratio (z) = 1.18390 0.53833
#
# Static dielectric constant tensor:
#      x y z
#    x 1.641400 0.000000 0.000000 
#    y 0.000000 1.598540 0.000000 
#    z 0.000000 0.000000 1.610610 
# 
# From -- ./inp_files/4670.got.cif
#   From: 2010.05.17/outbox.cif.g08.bks.cpg/sg57_3_cif.got.tgz:4670.got - 2010.06.03 13:58:18.
