data_PCOD9436476
_publ_section_title
;
Structure prediction by ZEFSAII (Michael W. Deem and Ramdas Pophale) SiO2 
 PCOD9436476
Probable space group: P B C M
;
_chemical_formula_sum "Si O2"
_cell_formula_units_Z 24
_cell_length_a 7.010284
_cell_length_b 25.519395
_cell_length_c 5.724470
_cell_angle_alpha 90.000000
_cell_angle_beta 90.000000
_cell_angle_gamma 90.000000
_cell_volume 1024.097416
_symmetry_space_group_name_H-M "P B C M"
_symmetry_group_IT_number 57
_symmetry_cell_setting 'orthorhombic'
loop_
_space_group_symop_operation_xyz
x,y,z
-x,-y,1/2+z
x,1/2-y,-z
-x,1/2+y,1/2-z
-x,-y,-z
x,y,1/2-z
-x,1/2+y,z
x,1/2-y,1/2+z
loop_
_atom_site_type_symbol
_atom_site_label
_atom_site_fract_x
_atom_site_fract_y
_atom_site_fract_z
Si Si1 0.579462 0.071375 0.250000
Si Si2 0.501201 0.547423 0.750000
Si Si3 0.901906 0.509699 0.250000
Si Si4 0.990702 0.124394 0.250000
Si Si5 0.273020 0.312677 0.500714
O O1 0.477111 0.076478 0.502854
O O2 0.773856 0.105013 0.250000
O O3 0.618165 0.007335 0.250000
O O4 0.283682 0.526586 0.750000
O O5 0.000000 0.500000 0.500000
O O6 0.883553 0.572071 0.250000
O O7 0.068002 0.158971 0.466221
O O8 0.246956 0.250000 0.500000
O O9 0.374837 0.324886 0.750000
O O10 0.359043 0.326173 0.250000
#
# Coordination Sequence:
#
# PCOD9436476 Si02
#       5
#     4   4   4   4   8
#     4  10  20  32  52  62  93 133 161 191 232 282
#     4  10  20  36  43  68  97 127 163 196 225 271
#     4  12  22  32  47  72 100 128 163 202 233 279
#     4  10  20  28  52  70  92 128 159 191 252 278
#     4   8  16  28  43  66  94 112 149 199 243 280
#
# _framework density 23.435271
#
# number of rings (size 3 to 8) (size 9 to 14) (size 15 to 20)
#    1.000    1.333    3.333    0.000    4.667    0.000 
#    0.000    0.000    0.000    0.000    0.000    2.333 
#    0.000    0.000    0.000    0.000    0.000    0.000 
#
# Total GULP energy -133618.992349 kJ/mol
# GULP energy per Si atom -5567.458015 kJ/mol
# Density = 2.338193 g / cm^3
# Si number density = 23.435271 Si / 1000 Ang^3
#
#
#
# Elastic Constant Matrix: (Units=GPa)
#
#
# Indices 1 2 3 4 5 6 
#
# 1 67.7986 6.7966 38.7772 0.0000 0.0000 0.0000
# 2 6.7966 100.7502 58.2044 0.0000 0.0000 0.0000
# 3 38.7772 58.2044 279.8312 0.0000 0.0000 0.0000
# 4 0.0000 0.0000 0.0000 46.3050 0.0000 0.0000
# 5 0.0000 0.0000 0.0000 0.0000 41.7144 0.0000
# 6 0.0000 0.0000 0.0000 0.0000 0.0000 20.1190
#
#
#
# Elastic Compliance Matrix: (Units=1/GPa)
#
#
# Indices 1 2 3 4 5 6 
#
# 1 0.016024 0.000229 -0.002268 0.000000 0.000000 0.000000
# 2 0.000229 0.011284 -0.002379 0.000000 0.000000 0.000000
# 3 -0.002268 -0.002379 0.004383 0.000000 0.000000 0.000000
# 4 0.000000 0.000000 0.000000 0.021596 0.000000 0.000000
# 5 0.000000 0.000000 0.000000 0.000000 0.023973 0.000000
# 6 0.000000 0.000000 0.000000 0.000000 0.000000 0.049704
#
#
# Mechanical properties :
#
#
# Convention : Reuss Voigt Hill
#
# Bulk Modulus (GPa) = 43.75315 72.88183 58.31749
# Shear Modulus (GPa) = 34.86322 44.60113 39.73218
#
# Velocity S-wave (km/s) = 3.86118 4.36726 4.12199
# Velocity P-wave (km/s) = 6.21197 7.52312 6.89876
#
# Compressibility (1/GPa) = 0.02285550
#
# Stress axis : x y z
#
# Youngs Moduli (GPa) = 62.40691 88.61803 228.16954
#
# Poissons Ratio (x) = -0.02033 0.51753
# Poissons Ratio (y) = -0.01432 0.54280
# Poissons Ratio (z) = 0.14155 0.21082
#
# Static dielectric constant tensor:
#      x y z
#    x 1.891910 0.000000 0.000000 
#    y 0.000000 1.894370 0.000000 
#    z 0.000000 0.000000 1.993270 
# 
# From -- ./inp_files/167.got.cif
#   From: 2010.05.17/outbox.cif.g08.bks.cpg/sg57_1_cif.got.tgz:167.got - 2010.06.03 13:58:18.
