data_PCOD9436832
_publ_section_title
;
Structure prediction by ZEFSAII (Michael W. Deem and Ramdas Pophale) SiO2 
 PCOD9436832
Probable space group: P B C M
;
_chemical_formula_sum "Si O2"
_cell_formula_units_Z 64
_cell_length_a 20.843593
_cell_length_b 19.217188
_cell_length_c 8.403948
_cell_angle_alpha 90.000000
_cell_angle_beta 90.000000
_cell_angle_gamma 90.000000
_cell_volume 3366.245452
_symmetry_space_group_name_H-M "P B C M"
_symmetry_group_IT_number 57
_symmetry_cell_setting 'orthorhombic'
loop_
_space_group_symop_operation_xyz
x,y,z
-x,-y,1/2+z
x,1/2-y,-z
-x,1/2+y,1/2-z
-x,-y,-z
x,y,1/2-z
-x,1/2+y,z
x,1/2-y,1/2+z
loop_
_atom_site_type_symbol
_atom_site_label
_atom_site_fract_x
_atom_site_fract_y
_atom_site_fract_z
Si Si1 0.924853 0.426805 0.442434
Si Si2 0.313314 0.918002 0.442234
Si Si3 0.576217 0.827191 0.557985
Si Si4 0.190738 0.671219 0.557649
Si Si5 0.693254 0.577427 0.444566
Si Si6 0.429752 0.672507 0.059310
Si Si7 0.928496 0.918698 0.440336
Si Si8 0.187268 0.328390 0.940121
O O1 0.924086 0.429304 0.250000
O O2 0.872372 0.370975 0.495268
O O3 0.908939 0.504023 0.503417
O O4 0.997506 0.408998 0.493649
O O5 0.312328 0.918713 0.250000
O O6 0.253897 0.870420 0.496670
O O7 0.379323 0.883173 0.496549
O O8 0.305536 0.997492 0.497337
O O9 0.593892 0.750000 0.500000
O O10 0.576325 0.826654 0.750000
O O11 0.628483 0.883168 0.504473
O O12 0.503079 0.841569 0.505346
O O13 0.191038 0.750000 0.500000
O O14 0.190927 0.671269 0.750000
O O15 0.693948 0.576964 0.250000
O O16 0.754782 0.621912 0.497379
O O17 0.428619 0.672602 0.250000
O O18 0.412372 0.750000 0.000000
O O19 0.927278 0.916195 0.250000
O O20 0.879663 0.862117 0.506497
O O21 0.189403 0.327546 0.750000
O O22 0.194873 0.250000 0.000000
#
# Coordination Sequence:
#
# PCOD9436832 Si02
#       8
#     8   8   8   8   8   8   8   8
#     4   9  19  37  58  80 108 142 179 218 263 316
#     4  10  20  35  55  77 103 137 175 214 260 314
#     4   9  18  34  55  78 105 137 174 214 258 311
#     4  10  21  36  54  76 103 137 177 219 262 309
#     4   9  19  36  57  78 103 139 178 217 265 317
#     4  10  20  34  53  78 107 138 172 213 260 310
#     4  10  20  35  57  84 111 140 176 218 265 318
#     4  11  22  37  57  80 109 143 180 222 267 317
#
# _framework density 19.012280000000001
#
# number of rings (size 3 to 8) (size 9 to 14) (size 15 to 20)
#    0.000    2.250    0.000    2.625    0.000    6.000 
#    0.000    5.000    0.000    0.000    0.000    0.000 
#    0.000    0.000    0.000    0.000    0.000    0.000 
#
# Total GULP energy -357383.154711 kJ/mol
# GULP energy per Si atom -5584.111792 kJ/mol
# Density = 1.896901 g / cm^3
# Si number density = 19.012280 Si / 1000 Ang^3
#
#
#
# Elastic Constant Matrix: (Units=GPa)
#
#
# Indices 1 2 3 4 5 6 
#
# 1 92.4775 81.2700 18.3517 0.0000 0.0000 0.0000
# 2 81.2700 143.4558 22.6431 0.0000 0.0000 0.0000
# 3 18.3517 22.6431 12.6077 0.0000 0.0000 0.0000
# 4 0.0000 0.0000 0.0000 29.6651 0.0000 0.0000
# 5 0.0000 0.0000 0.0000 0.0000 14.0755 0.0000
# 6 0.0000 0.0000 0.0000 0.0000 0.0000 41.7026
#
#
#
# Elastic Compliance Matrix: (Units=1/GPa)
#
#
# Indices 1 2 3 4 5 6 
#
# 1 0.023224 -0.010915 -0.014201 0.000000 0.000000 0.000000
# 2 -0.010915 0.014859 -0.010798 0.000000 0.000000 0.000000
# 3 -0.014201 -0.010798 0.119380 0.000000 0.000000 0.000000
# 4 0.000000 0.000000 0.000000 0.033710 0.000000 0.000000
# 5 0.000000 0.000000 0.000000 0.000000 0.071045 0.000000
# 6 0.000000 0.000000 0.000000 0.000000 0.000000 0.023979
#
#
# Mechanical properties :
#
#
# Convention : Reuss Voigt Hill
#
# Bulk Modulus (GPa) = 11.67755 54.78562 33.23158
# Shear Modulus (GPa) = 12.93425 25.50706 19.22065
#
# Velocity S-wave (km/s) = 2.61111 3.66677 3.18301
# Velocity P-wave (km/s) = 3.90460 6.84145 5.57007
#
# Compressibility (1/GPa) = 0.08563441
#
# Stress axis : x y z
#
# Youngs Moduli (GPa) = 43.05882 67.30039 8.37660
#
# Poissons Ratio (x) = 0.73460 0.11896
# Poissons Ratio (y) = 0.47000 0.09045
# Poissons Ratio (z) = 0.61149 0.72669
#
# Static dielectric constant tensor:
#      x y z
#    x 1.665440 0.000000 0.000000 
#    y 0.000000 1.618040 0.000000 
#    z 0.000000 0.000000 1.657130 
# 
# From -- ./inp_files/8486.got.cif
#   From: 2010.05.17/outbox.cif.g08.bks.cpg/sg57_5_cif.got.tgz:8486.got - 2010.06.03 13:58:18.
