data_PCOD9436968
_publ_section_title
;
Structure prediction by ZEFSAII (Michael W. Deem and Ramdas Pophale) SiO2 
 PCOD9436968
Probable space group: P B C M
;
_chemical_formula_sum "Si O2"
_cell_formula_units_Z 52
_cell_length_a 13.163940
_cell_length_b 19.550994
_cell_length_c 9.394356
_cell_angle_alpha 90.000000
_cell_angle_beta 90.000000
_cell_angle_gamma 90.000000
_cell_volume 2417.807667
_symmetry_space_group_name_H-M "P B C M"
_symmetry_group_IT_number 57
_symmetry_cell_setting 'orthorhombic'
loop_
_space_group_symop_operation_xyz
x,y,z
-x,-y,1/2+z
x,1/2-y,-z
-x,1/2+y,1/2-z
-x,-y,-z
x,y,1/2-z
-x,1/2+y,z
x,1/2-y,1/2+z
loop_
_atom_site_type_symbol
_atom_site_label
_atom_site_fract_x
_atom_site_fract_y
_atom_site_fract_z
Si Si1 0.290923 0.651134 0.967503
Si Si2 0.766133 0.683437 0.086242
Si Si3 0.734472 0.275258 0.750000
Si Si4 0.011044 0.683244 0.414183
Si Si5 0.578437 0.454519 0.913520
Si Si6 0.103865 0.940414 0.411616
Si Si7 0.780729 0.546910 0.912986
O O1 0.292504 0.717018 0.870518
O O2 0.212445 0.597736 0.900209
O O3 0.249237 0.668440 0.123652
O O4 0.397760 0.614620 0.999822
O O5 0.729826 0.681226 0.250000
O O6 0.889182 0.688396 0.091564
O O7 0.729002 0.750000 0.000000
O O8 0.747448 0.614017 0.999639
O O9 0.050118 0.750000 0.500000
O O10 0.047095 0.686539 0.250000
O O11 0.039151 0.615448 0.501099
O O12 0.546825 0.440870 0.750000
O O13 0.684509 0.496171 0.907532
O O14 0.500000 0.500000 0.000000
O O15 0.067704 0.954378 0.250000
O O16 0.128788 0.007723 0.503735
O O17 0.809457 0.564099 0.750000
#
# Coordination Sequence:
#
# PCOD9436968 Si02
#       7
#     8   8   4   8   8   8   8
#     4  10  21  35  54  85 111 158 189 226 279 335
#     4  10  21  40  63  85 111 148 194 239 290 337
#     4  10  20  34  56  78 120 152 186 230 276 334
#     4  10  22  35  53  81 115 154 194 239 282 332
#     4  10  22  39  62  86 115 145 188 229 280 341
#     4  11  22  34  53  83 117 152 197 232 277 338
#     4  10  22  40  62  86 112 148 186 234 284 338
#
# _framework density 21.507088
#
# number of rings (size 3 to 8) (size 9 to 14) (size 15 to 20)
#    0.000    1.846    1.538    1.846    5.385    3.692 
#    0.000    0.000    3.385    0.000    0.000    0.000 
#    0.000    0.000    0.000    0.000    0.000    0.000 
#
# Total GULP energy -289498.226418 kJ/mol
# GULP energy per Si atom -5567.273585 kJ/mol
# Density = 2.145814 g / cm^3
# Si number density = 21.507088 Si / 1000 Ang^3
#
#
#
# Elastic Constant Matrix: (Units=GPa)
#
#
# Indices 1 2 3 4 5 6 
#
# 1 23.0137 -10.2975 4.2551 0.0000 0.0000 0.0000
# 2 -10.2975 101.4110 53.3750 0.0000 0.0000 0.0000
# 3 4.2551 53.3750 214.3592 0.0000 0.0000 0.0000
# 4 0.0000 0.0000 0.0000 42.4809 0.0000 0.0000
# 5 0.0000 0.0000 0.0000 0.0000 21.5744 0.0000
# 6 0.0000 0.0000 0.0000 0.0000 0.0000 8.5300
#
#
#
# Elastic Compliance Matrix: (Units=1/GPa)
#
#
# Indices 1 2 3 4 5 6 
#
# 1 0.046586 0.006004 -0.002420 0.000000 0.000000 0.000000
# 2 0.006004 0.012122 -0.003138 0.000000 0.000000 0.000000
# 3 -0.002420 -0.003138 0.005494 0.000000 0.000000 0.000000
# 4 0.000000 0.000000 0.000000 0.023540 0.000000 0.000000
# 5 0.000000 0.000000 0.000000 0.000000 0.046351 0.000000
# 6 0.000000 0.000000 0.000000 0.000000 0.000000 0.117233
#
#
# Mechanical properties :
#
#
# Convention : Reuss Voigt Hill
#
# Bulk Modulus (GPa) = 15.36190 48.16101 31.76145
# Shear Modulus (GPa) = 18.37345 33.94716 26.16030
#
# Velocity S-wave (km/s) = 2.92601 3.97724 3.49142
# Velocity P-wave (km/s) = 4.30971 6.59795 5.57255
#
# Compressibility (1/GPa) = 0.06509613
#
# Stress axis : x y z
#
# Youngs Moduli (GPa) = 21.46552 82.49546 182.00565
#
# Poissons Ratio (x) = -0.49531 0.44041
# Poissons Ratio (y) = -0.12888 0.57104
# Poissons Ratio (z) = 0.05194 0.25883
#
# Static dielectric constant tensor:
#      x y z
#    x 1.904430 0.000000 0.000000 
#    y 0.000000 1.770750 0.000000 
#    z 0.000000 0.000000 1.773840 
# 
# From -- ./inp_files/6792.got.cif
#   From: 2010.05.17/outbox.cif.g08.bks.cpg/sg57_4_cif.got.tgz:6792.got - 2010.06.03 13:58:18.
