data_PCOD9436525
_publ_section_title
;
Structure prediction by ZEFSAII (Michael W. Deem and Ramdas Pophale) SiO2 
 PCOD9436525
Probable space group: P B C M
;
_chemical_formula_sum "Si O2"
_cell_formula_units_Z 48
_cell_length_a 8.818105
_cell_length_b 28.848868
_cell_length_c 9.802825
_cell_angle_alpha 90.000000
_cell_angle_beta 90.000000
_cell_angle_gamma 90.000000
_cell_volume 2493.763661
_symmetry_space_group_name_H-M "P B C M"
_symmetry_group_IT_number 57
_symmetry_cell_setting 'orthorhombic'
loop_
_space_group_symop_operation_xyz
x,y,z
-x,-y,1/2+z
x,1/2-y,-z
-x,1/2+y,1/2-z
-x,-y,-z
x,y,1/2-z
-x,1/2+y,z
x,1/2-y,1/2+z
loop_
_atom_site_type_symbol
_atom_site_label
_atom_site_fract_x
_atom_site_fract_y
_atom_site_fract_z
Si Si1 0.374774 0.023450 0.903787
Si Si2 0.004924 0.707089 0.089934
Si Si3 0.133523 0.441819 0.595175
Si Si4 0.304176 0.341544 0.905539
Si Si5 0.826115 0.109365 0.090381
Si Si6 0.541044 0.379121 0.402867
O O1 0.364571 0.003591 0.750000
O O2 0.434457 0.075905 0.890074
O O3 0.216173 0.026344 0.984441
O O4 0.500000 0.000000 0.000000
O O5 0.009860 0.718652 0.250000
O O6 0.831334 0.693056 0.056056
O O7 0.102850 0.660599 0.070759
O O8 0.055941 0.750000 0.000000
O O9 0.143148 0.460765 0.750000
O O10 0.225003 0.392635 0.597192
O O11 0.961430 0.427086 0.564618
O O12 0.353863 0.332190 0.750000
O O13 0.442993 0.342842 0.009531
O O14 0.781990 0.105258 0.250000
O O15 0.686162 0.105309 0.989512
O O16 0.580306 0.363368 0.250000
#
# Coordination Sequence:
#
# PCOD9436525 Si02
#       6
#     8   8   8   8   8   8
#     4  10  20  33  50  73  99 126 160 202 245 289
#     4   9  18  32  51  75  99 126 162 200 239 286
#     4   8  15  30  51  71  92 123 162 198 234 282
#     4   8  15  30  50  69  92 124 159 193 233 283
#     4   9  18  33  52  73  99 132 165 196 240 298
#     4  10  20  32  49  75 100 123 159 203 241 282
#
# _framework density 19.248014999999999
#
# number of rings (size 3 to 8) (size 9 to 14) (size 15 to 20)
#    0.000    3.000    0.000    3.000    0.000    4.000 
#    0.000    5.000    0.000    0.000    0.000    0.000 
#    0.000    0.000    0.000    0.000    0.000    0.000 
#
# Total GULP energy -267629.033398 kJ/mol
# GULP energy per Si atom -5575.604862 kJ/mol
# Density = 1.920421 g / cm^3
# Si number density = 19.248015 Si / 1000 Ang^3
#
#
#
# Elastic Constant Matrix: (Units=GPa)
#
#
# Indices 1 2 3 4 5 6 
#
# 1 88.3247 3.5196 71.1214 0.0000 0.0000 0.0000
# 2 3.5196 40.8814 23.1619 0.0000 0.0000 0.0000
# 3 71.1214 23.1619 108.3956 0.0000 0.0000 0.0000
# 4 0.0000 0.0000 0.0000 18.8211 0.0000 0.0000
# 5 0.0000 0.0000 0.0000 0.0000 27.8366 0.0000
# 6 0.0000 0.0000 0.0000 0.0000 0.0000 15.1347
#
#
#
# Elastic Compliance Matrix: (Units=1/GPa)
#
#
# Indices 1 2 3 4 5 6 
#
# 1 0.026410 0.008583 -0.019162 0.000000 0.000000 0.000000
# 2 0.008583 0.030620 -0.012174 0.000000 0.000000 0.000000
# 3 -0.019162 -0.012174 0.024400 0.000000 0.000000 0.000000
# 4 0.000000 0.000000 0.000000 0.053132 0.000000 0.000000
# 5 0.000000 0.000000 0.000000 0.000000 0.035924 0.000000
# 6 0.000000 0.000000 0.000000 0.000000 0.000000 0.066073
#
#
# Mechanical properties :
#
#
# Convention : Reuss Voigt Hill
#
# Bulk Modulus (GPa) = 27.83815 48.13416 37.98616
# Shear Modulus (GPa) = 17.00454 21.67838 19.34146
#
# Velocity S-wave (km/s) = 2.97550 3.35963 3.17338
# Velocity P-wave (km/s) = 5.12826 6.33333 5.76239
#
# Compressibility (1/GPa) = 0.03592193
#
# Stress axis : x y z
#
# Youngs Moduli (GPa) = 37.86487 32.65891 40.98425
#
# Poissons Ratio (x) = -0.28031 0.78534
# Poissons Ratio (y) = -0.32499 0.49895
# Poissons Ratio (z) = 0.72557 0.39760
#
# Static dielectric constant tensor:
#      x y z
#    x 1.669970 0.000000 0.000000 
#    y 0.000000 1.687520 0.000000 
#    z 0.000000 0.000000 1.678120 
# 
# From -- ./inp_files/1979.got.cif
#   From: 2010.05.17/outbox.cif.g08.bks.cpg/sg57_1_cif.got.tgz:1979.got - 2010.06.03 13:58:18.
