data_PCOD9436217
_publ_section_title
;
Structure prediction by ZEFSAII (Michael W. Deem and Ramdas Pophale) SiO2 
 PCOD9436217
Probable space group: P B C M
;
_chemical_formula_sum "Si O2"
_cell_formula_units_Z 64
_cell_length_a 11.502506
_cell_length_b 23.409527
_cell_length_c 11.175762
_cell_angle_alpha 90.000000
_cell_angle_beta 90.000000
_cell_angle_gamma 90.000000
_cell_volume 3009.277594
_symmetry_space_group_name_H-M "P B C M"
_symmetry_group_IT_number 57
_symmetry_cell_setting 'orthorhombic'
loop_
_space_group_symop_operation_xyz
x,y,z
-x,-y,1/2+z
x,1/2-y,-z
-x,1/2+y,1/2-z
-x,-y,-z
x,y,1/2-z
-x,1/2+y,z
x,1/2-y,1/2+z
loop_
_atom_site_type_symbol
_atom_site_label
_atom_site_fract_x
_atom_site_fract_y
_atom_site_fract_z
Si Si1 0.983530 0.720293 0.380668
Si Si2 0.082873 0.413214 0.613353
Si Si3 0.550821 0.914371 0.975233
Si Si4 0.830620 0.055416 0.463160
Si Si5 0.234260 0.823064 0.884297
Si Si6 0.499555 0.710305 0.110914
Si Si7 0.352605 0.969715 0.380529
Si Si8 0.237185 0.438589 0.119468
O O1 0.937574 0.750000 0.500000
O O2 0.950065 0.744653 0.250000
O O3 0.124577 0.719120 0.387407
O O4 0.946583 0.654231 0.381947
O O5 0.121204 0.427830 0.750000
O O6 0.163484 0.421108 0.497262
O O7 0.962979 0.445451 0.579835
O O8 0.424977 0.933827 0.021959
O O9 0.635038 0.915190 0.090518
O O10 0.547255 0.853714 0.911043
O O11 0.602270 0.965524 0.894719
O O12 0.794155 0.121559 0.461380
O O13 0.784692 0.034701 0.592285
O O14 0.764328 0.007922 0.383579
O O15 0.236131 0.847807 0.750000
O O16 0.359229 0.795286 0.902539
O O17 0.523704 0.727866 0.250000
O O18 0.540414 0.750000 0.000000
O O19 0.378729 0.947703 0.250000
O O20 0.195239 0.419690 0.250000
#
# Coordination Sequence:
#
# PCOD9436217 Si02
#       8
#     8   8   8   8   8   8   8   8
#     4   9  18  34  57  82 109 146 189 239 294 349
#     4  10  22  39  59  83 120 161 198 241 296 365
#     4  10  22  40  58  85 120 162 203 246 304 364
#     4  10  19  35  58  88 121 158 192 234 300 367
#     4   9  17  33  55  82 118 152 189 227 289 365
#     4  11  23  39  61  87 119 163 204 250 303 362
#     4  10  20  35  59  91 123 156 198 251 301 361
#     4  11  23  37  60  88 118 158 204 252 295 348
#
# _framework density 21.267562999999999
#
# number of rings (size 3 to 8) (size 9 to 14) (size 15 to 20)
#    0.000    2.000    1.250    3.375    0.000    4.500 
#    0.000    2.500    0.000    0.000    0.000    0.000 
#    0.000    0.000    0.000    0.000    0.000    0.000 
#
# Total GULP energy -356512.651113 kJ/mol
# GULP energy per Si atom -5570.510174 kJ/mol
# Density = 2.121916 g / cm^3
# Si number density = 21.267563 Si / 1000 Ang^3
#
#
#
# Elastic Constant Matrix: (Units=GPa)
#
#
# Indices 1 2 3 4 5 6 
#
# 1 46.1153 -3.2901 37.4023 0.0000 0.0000 0.0000
# 2 -3.2901 52.5868 44.9106 0.0000 0.0000 0.0000
# 3 37.4023 44.9106 161.6676 0.0000 0.0000 0.0000
# 4 0.0000 0.0000 0.0000 15.6990 0.0000 0.0000
# 5 0.0000 0.0000 0.0000 0.0000 2.1347 0.0000
# 6 0.0000 0.0000 0.0000 0.0000 0.0000 5.8058
#
#
#
# Elastic Compliance Matrix: (Units=1/GPa)
#
#
# Indices 1 2 3 4 5 6 
#
# 1 0.030491 0.010399 -0.009943 0.000000 0.000000 0.000000
# 2 0.010399 0.028478 -0.010317 0.000000 0.000000 0.000000
# 3 -0.009943 -0.010317 0.011352 0.000000 0.000000 0.000000
# 4 0.000000 0.000000 0.000000 0.063698 0.000000 0.000000
# 5 0.000000 0.000000 0.000000 0.000000 0.468447 0.000000
# 6 0.000000 0.000000 0.000000 0.000000 0.000000 0.172241
#
#
# Mechanical properties :
#
#
# Convention : Reuss Voigt Hill
#
# Bulk Modulus (GPa) = 19.76303 46.49060 33.12681
# Shear Modulus (GPa) = 6.16298 16.81769 11.49034
#
# Velocity S-wave (km/s) = 1.70415 2.81511 2.32690
# Velocity P-wave (km/s) = 3.63110 5.69858 4.77801
#
# Compressibility (1/GPa) = 0.05059952
#
# Stress axis : x y z
#
# Youngs Moduli (GPa) = 32.79632 35.11512 88.09083
#
# Poissons Ratio (x) = -0.36518 0.87590
# Poissons Ratio (y) = -0.34106 0.90883
# Poissons Ratio (z) = 0.32610 0.36228
#
# Static dielectric constant tensor:
#      x y z
#    x 1.823080 0.000000 0.000000 
#    y 0.000000 1.785690 0.000000 
#    z 0.000000 0.000000 1.806180 
# 
# From -- ./inp_files/13287.got.cif
#   From: 2010.05.17/outbox.cif.g08.bks.cpg/sg57_7_cif.got.tgz:13287.got - 2010.06.03 13:58:18.
