data_PCOD9436289
_publ_section_title
;
Structure prediction by ZEFSAII (Michael W. Deem and Ramdas Pophale) SiO2 
 PCOD9436289
Probable space group: P B C M
;
_chemical_formula_sum "Si O2"
_cell_formula_units_Z 64
_cell_length_a 15.444009
_cell_length_b 9.850350
_cell_length_c 22.813645
_cell_angle_alpha 90.000000
_cell_angle_beta 90.000000
_cell_angle_gamma 90.000000
_cell_volume 3470.614583
_symmetry_space_group_name_H-M "P B C M"
_symmetry_group_IT_number 57
_symmetry_cell_setting 'orthorhombic'
loop_
_space_group_symop_operation_xyz
x,y,z
-x,-y,1/2+z
x,1/2-y,-z
-x,1/2+y,1/2-z
-x,-y,-z
x,y,1/2-z
-x,1/2+y,z
x,1/2-y,1/2+z
loop_
_atom_site_type_symbol
_atom_site_label
_atom_site_fract_x
_atom_site_fract_y
_atom_site_fract_z
Si Si1 0.555876 0.240168 0.314265
Si Si2 0.084708 0.639763 0.818265
Si Si3 0.339395 0.049182 0.069044
Si Si4 0.798304 0.777025 0.432218
Si Si5 0.482707 0.012705 0.617242
Si Si6 0.086956 0.181511 0.179509
Si Si7 0.299710 0.541449 0.058735
Si Si8 0.731045 0.199758 0.867528
O O1 0.529305 0.283933 0.250000
O O2 0.514362 0.340457 0.362109
O O3 0.524482 0.089144 0.327985
O O4 0.659969 0.247802 0.320881
O O5 0.106360 0.652543 0.750000
O O6 0.070262 0.479336 0.829149
O O7 0.168930 0.693328 0.851535
O O8 0.999539 0.729158 0.828478
O O9 0.299456 0.953380 0.119147
O O10 0.292082 0.193112 0.068899
O O11 0.442193 0.048970 0.076168
O O12 0.313486 0.973448 0.009877
O O13 0.832716 0.750000 0.500000
O O14 0.851092 0.727097 0.374787
O O15 0.776059 0.935527 0.425338
O O16 0.389408 0.008250 0.587750
O O17 0.113811 0.198684 0.250000
O O18 0.281480 0.692892 0.080074
#
# Coordination Sequence:
#
# PCOD9436289 Si02
#       8
#     8   8   8   8   8   8   8   8
#     4  10  20  34  51  76 110 147 185 233 286 339
#     4  10  21  39  63  87 115 146 189 237 282 344
#     4  10  19  36  57  78 111 151 195 236 283 337
#     4  10  21  39  58  85 122 154 190 239 293 342
#     4  10  20  34  54  78 108 147 195 235 278 332
#     4  10  22  41  64  89 114 150 193 236 286 350
#     4  10  21  34  55  83 114 149 188 241 283 334
#     4  10  20  35  56  82 111 144 190 227 291 342
#
# _framework density 18.440538
#
# number of rings (size 3 to 8) (size 9 to 14) (size 15 to 20)
#    0.000    2.000    1.250    2.250    1.750    0.000 
#    0.000   10.625    0.000    0.000    0.000    0.000 
#    0.000    0.000    0.000    0.000    0.000    0.000 
#
# Total GULP energy -356476.739300 kJ/mol
# GULP energy per Si atom -5569.949052 kJ/mol
# Density = 1.839857 g / cm^3
# Si number density = 18.440538 Si / 1000 Ang^3
#
#
#
# Elastic Constant Matrix: (Units=GPa)
#
#
# Indices 1 2 3 4 5 6 
#
# 1 73.0246 22.1131 33.1627 0.0000 0.0000 0.0000
# 2 22.1131 66.5286 13.0592 0.0000 0.0000 0.0000
# 3 33.1627 13.0592 45.3769 0.0000 0.0000 0.0000
# 4 0.0000 0.0000 0.0000 20.3681 0.0000 0.0000
# 5 0.0000 0.0000 0.0000 0.0000 10.0094 0.0000
# 6 0.0000 0.0000 0.0000 0.0000 0.0000 17.6470
#
#
#
# Elastic Compliance Matrix: (Units=1/GPa)
#
#
# Indices 1 2 3 4 5 6 
#
# 1 0.021612 -0.004327 -0.014549 0.000000 0.000000 0.000000
# 2 -0.004327 0.016798 -0.001672 0.000000 0.000000 0.000000
# 3 -0.014549 -0.001672 0.033151 0.000000 0.000000 0.000000
# 4 0.000000 0.000000 0.000000 0.049096 0.000000 0.000000
# 5 0.000000 0.000000 0.000000 0.000000 0.099906 0.000000
# 6 0.000000 0.000000 0.000000 0.000000 0.000000 0.056667
#
#
# Mechanical properties :
#
#
# Convention : Reuss Voigt Hill
#
# Bulk Modulus (GPa) = 32.82490 35.73333 34.27912
# Shear Modulus (GPa) = 15.22160 17.37791 16.29975
#
# Velocity S-wave (km/s) = 2.87617 3.07314 2.97629
# Velocity P-wave (km/s) = 5.37297 5.65791 5.51728
#
# Compressibility (1/GPa) = 0.03046468
#
# Stress axis : x y z
#
# Youngs Moduli (GPa) = 46.27152 59.53213 30.16457
#
# Poissons Ratio (x) = 0.25762 0.43886
# Poissons Ratio (y) = 0.20024 0.05042
# Poissons Ratio (z) = 0.67320 0.09951
#
# Static dielectric constant tensor:
#      x y z
#    x 1.620930 0.000000 0.000000 
#    y 0.000000 1.626560 0.000000 
#    z 0.000000 0.000000 1.647590 
# 
# From -- ./inp_files/27472.got.cif
#   From: 2010.05.17/outbox.cif.g08.bks.cpg/sg57_14_cif.got.tgz:27472.got - 2010.06.03 13:58:18.
