data_PCOD9436881
_publ_section_title
;
Structure prediction by ZEFSAII (Michael W. Deem and Ramdas Pophale) SiO2 
 PCOD9436881
Probable space group: P B C M
;
_chemical_formula_sum "Si O2"
_cell_formula_units_Z 40
_cell_length_a 7.631880
_cell_length_b 26.767400
_cell_length_c 9.318501
_cell_angle_alpha 90.000000
_cell_angle_beta 90.000000
_cell_angle_gamma 90.000000
_cell_volume 1903.635425
_symmetry_space_group_name_H-M "P B C M"
_symmetry_group_IT_number 57
_symmetry_cell_setting 'orthorhombic'
loop_
_space_group_symop_operation_xyz
x,y,z
-x,-y,1/2+z
x,1/2-y,-z
-x,1/2+y,1/2-z
-x,-y,-z
x,y,1/2-z
-x,1/2+y,z
x,1/2-y,1/2+z
loop_
_atom_site_type_symbol
_atom_site_label
_atom_site_fract_x
_atom_site_fract_y
_atom_site_fract_z
Si Si1 0.794215 0.894133 0.911200
Si Si2 0.217445 0.898552 0.585182
Si Si3 0.295254 0.797861 0.413093
Si Si4 0.189555 0.995960 0.077059
Si Si5 0.714533 0.796874 0.409935
O O1 0.735489 0.881075 0.750000
O O2 0.005279 0.898719 0.908956
O O3 0.725137 0.949592 0.947872
O O4 0.748255 0.849825 0.016744
O O5 0.280902 0.899319 0.750000
O O6 0.266063 0.848297 0.502016
O O7 0.274738 0.947626 0.496549
O O8 0.225011 0.750000 0.500000
O O9 0.226794 0.801143 0.250000
O O10 0.504724 0.791185 0.402166
O O11 0.171199 0.989783 0.250000
O O12 0.000000 0.000000 0.000000
O O13 0.783821 0.750000 0.500000
O O14 0.787087 0.795991 0.250000
#
# Coordination Sequence:
#
# PCOD9436881 Si02
#       5
#     8   8   8   8   8
#     4   9  19  34  53  78 106 134 169 210 253 301
#     4  10  20  34  54  80 106 136 173 213 256 304
#     4  10  21  37  55  76 102 135 173 213 258 309
#     4   9  17  31  51  76 106 138 170 209 256 306
#     4  10  21  36  55  76 101 135 173 211 257 308
#
# _framework density 21.012426999999999
#
# number of rings (size 3 to 8) (size 9 to 14) (size 15 to 20)
#    0.000    2.400    0.000    3.600    0.000    8.000 
#    0.000    1.000    0.000    0.000    0.000    0.000 
#    0.000    0.000    0.000    0.000    0.000    0.000 
#
# Total GULP energy -223255.557481 kJ/mol
# GULP energy per Si atom -5581.388937 kJ/mol
# Density = 2.096460 g / cm^3
# Si number density = 21.012427 Si / 1000 Ang^3
#
#
#
# Elastic Constant Matrix: (Units=GPa)
#
#
# Indices 1 2 3 4 5 6 
#
# 1 36.0819 -1.5384 9.1848 0.0000 0.0000 0.0000
# 2 -1.5384 215.1593 156.1308 0.0000 0.0000 0.0000
# 3 9.1848 156.1308 215.7199 0.0000 0.0000 0.0000
# 4 0.0000 0.0000 0.0000 45.2094 0.0000 0.0000
# 5 0.0000 0.0000 0.0000 0.0000 17.8321 0.0000
# 6 0.0000 0.0000 0.0000 0.0000 0.0000 29.5416
#
#
#
# Elastic Compliance Matrix: (Units=1/GPa)
#
#
# Indices 1 2 3 4 5 6 
#
# 1 0.028543 0.002287 -0.002871 0.000000 0.000000 0.000000
# 2 0.002287 0.009972 -0.007315 0.000000 0.000000 0.000000
# 3 -0.002871 -0.007315 0.010052 0.000000 0.000000 0.000000
# 4 0.000000 0.000000 0.000000 0.022119 0.000000 0.000000
# 5 0.000000 0.000000 0.000000 0.000000 0.056079 0.000000
# 6 0.000000 0.000000 0.000000 0.000000 0.000000 0.033851
#
#
# Mechanical properties :
#
#
# Convention : Reuss Voigt Hill
#
# Bulk Modulus (GPa) = 30.51523 88.27952 59.39737
# Shear Modulus (GPa) = 26.69001 38.72887 32.70944
#
# Velocity S-wave (km/s) = 3.56785 4.29784 3.94975
# Velocity P-wave (km/s) = 5.61487 8.16901 7.00926
#
# Compressibility (1/GPa) = 0.03277052
#
# Stress axis : x y z
#
# Youngs Moduli (GPa) = 35.03487 100.27943 99.48133
#
# Poissons Ratio (x) = -0.22936 0.28558
# Poissons Ratio (y) = -0.08013 0.72769
# Poissons Ratio (z) = 0.10057 0.73353
#
# Static dielectric constant tensor:
#      x y z
#    x 1.794310 0.000000 0.000000 
#    y 0.000000 1.747680 0.000000 
#    z 0.000000 0.000000 1.734270 
# 
# From -- ./inp_files/1516.got.cif
#   From: 2010.05.17/outbox.cif.g08.bks.cpg/sg57_1_cif.got.tgz:1516.got - 2010.06.03 13:58:18.
