data_PCOD9436908
_publ_section_title
;
Structure prediction by ZEFSAII (Michael W. Deem and Ramdas Pophale) SiO2 
 PCOD9436908
Probable space group: P B C M
;
_chemical_formula_sum "Si O2"
_cell_formula_units_Z 64
_cell_length_a 9.027734
_cell_length_b 18.451958
_cell_length_c 20.479523
_cell_angle_alpha 90.000000
_cell_angle_beta 90.000000
_cell_angle_gamma 90.000000
_cell_volume 3411.466011
_symmetry_space_group_name_H-M "P B C M"
_symmetry_group_IT_number 57
_symmetry_cell_setting 'orthorhombic'
loop_
_space_group_symop_operation_xyz
x,y,z
-x,-y,1/2+z
x,1/2-y,-z
-x,1/2+y,1/2-z
-x,-y,-z
x,y,1/2-z
-x,1/2+y,z
x,1/2-y,1/2+z
loop_
_atom_site_type_symbol
_atom_site_label
_atom_site_fract_x
_atom_site_fract_y
_atom_site_fract_z
Si Si1 0.399138 0.791165 0.327435
Si Si2 0.084143 0.053671 0.594018
Si Si3 0.829047 0.718579 0.120047
Si Si4 0.640482 0.851375 0.423971
Si Si5 0.413909 0.059155 0.455978
Si Si6 0.453227 0.362343 0.824975
Si Si7 0.070085 0.825598 0.173619
Si Si8 0.072925 0.076606 0.446136
O O1 0.417251 0.808898 0.250000
O O2 0.511726 0.836666 0.372133
O O3 0.436757 0.705866 0.333124
O O4 0.233218 0.806188 0.350773
O O5 0.253485 0.081088 0.596541
O O6 0.028847 0.075666 0.521603
O O7 0.992152 0.100604 0.644213
O O8 0.042710 0.969432 0.596320
O O9 0.741423 0.779666 0.079283
O O10 0.708212 0.675125 0.163157
O O11 0.907160 0.657975 0.077053
O O12 0.951533 0.762970 0.159157
O O13 0.587107 0.870037 0.496793
O O14 0.473880 0.080561 0.384241
O O15 0.239086 0.041353 0.444950
O O16 0.500000 0.000000 0.500000
O O17 0.463113 0.389432 0.750000
O O18 0.083585 0.834111 0.250000
#
# Coordination Sequence:
#
# PCOD9436908 Si02
#       8
#     8   8   8   8   8   8   8   8
#     4   9  19  35  55  82 116 150 191 244 287 340
#     4   9  19  35  55  79 111 149 184 230 285 348
#     4   9  18  35  60  84 108 149 198 242 289 345
#     4   9  19  35  57  81 111 151 195 234 290 348
#     4  10  21  35  55  83 116 151 194 243 293 354
#     4   9  18  36  58  79 108 148 191 236 292 352
#     4  10  20  34  54  83 116 147 189 241 286 337
#     4   9  19  37  57  81 114 146 187 243 293 342
#
# _framework density 18.760263999999999
#
# number of rings (size 3 to 8) (size 9 to 14) (size 15 to 20)
#    0.000    2.750    0.000    0.375    1.750   14.500 
#    6.750    5.000    0.000    0.750    0.000    0.000 
#    0.000    0.000    0.000    0.000    0.000    0.000 
#
# Total GULP energy -356587.961041 kJ/mol
# GULP energy per Si atom -5571.686891 kJ/mol
# Density = 1.871756 g / cm^3
# Si number density = 18.760264 Si / 1000 Ang^3
#
#
#
# Elastic Constant Matrix: (Units=GPa)
#
#
# Indices 1 2 3 4 5 6 
#
# 1 54.0821 25.8360 30.4882 0.0000 0.0000 0.0000
# 2 25.8360 63.6250 36.5317 0.0000 0.0000 0.0000
# 3 30.4882 36.5317 88.5460 0.0000 0.0000 0.0000
# 4 0.0000 0.0000 0.0000 27.5238 0.0000 0.0000
# 5 0.0000 0.0000 0.0000 0.0000 23.9734 0.0000
# 6 0.0000 0.0000 0.0000 0.0000 0.0000 20.2824
#
#
#
# Elastic Compliance Matrix: (Units=1/GPa)
#
#
# Indices 1 2 3 4 5 6 
#
# 1 0.025022 -0.006832 -0.005797 0.000000 0.000000 0.000000
# 2 -0.006832 0.022462 -0.006915 0.000000 0.000000 0.000000
# 3 -0.005797 -0.006915 0.016142 0.000000 0.000000 0.000000
# 4 0.000000 0.000000 0.000000 0.036332 0.000000 0.000000
# 5 0.000000 0.000000 0.000000 0.000000 0.041713 0.000000
# 6 0.000000 0.000000 0.000000 0.000000 0.000000 0.049304
#
#
# Mechanical properties :
#
#
# Convention : Reuss Voigt Hill
#
# Bulk Modulus (GPa) = 40.75191 43.55165 42.15178
# Shear Modulus (GPa) = 20.98706 21.91573 21.45140
#
# Velocity S-wave (km/s) = 3.34832 3.42160 3.38516
# Velocity P-wave (km/s) = 6.05954 6.23499 6.14789
#
# Compressibility (1/GPa) = 0.02453873
#
# Stress axis : x y z
#
# Youngs Moduli (GPa) = 39.96452 44.52035 61.94906
#
# Poissons Ratio (x) = 0.30418 0.35911
# Poissons Ratio (y) = 0.27305 0.42835
# Poissons Ratio (z) = 0.23167 0.30784
#
# Static dielectric constant tensor:
#      x y z
#    x 1.686870 0.000000 0.000000 
#    y 0.000000 1.669480 0.000000 
#    z 0.000000 0.000000 1.648330 
# 
# From -- ./inp_files/24629.got.cif
#   From: 2010.05.17/outbox.cif.g08.bks.cpg/sg57_13_cif.got.tgz:24629.got - 2010.06.03 13:58:18.
