data_PCOD9436958
_publ_section_title
;
Structure prediction by ZEFSAII (Michael W. Deem and Ramdas Pophale) SiO2 
 PCOD9436958
Probable space group: P B C M
;
_chemical_formula_sum "Si O2"
_cell_formula_units_Z 64
_cell_length_a 13.073734
_cell_length_b 28.070030
_cell_length_c 8.559698
_cell_angle_alpha 90.000000
_cell_angle_beta 90.000000
_cell_angle_gamma 90.000000
_cell_volume 3141.238876
_symmetry_space_group_name_H-M "P B C M"
_symmetry_group_IT_number 57
_symmetry_cell_setting 'orthorhombic'
loop_
_space_group_symop_operation_xyz
x,y,z
-x,-y,1/2+z
x,1/2-y,-z
-x,1/2+y,1/2-z
-x,-y,-z
x,y,1/2-z
-x,1/2+y,z
x,1/2-y,1/2+z
loop_
_atom_site_type_symbol
_atom_site_label
_atom_site_fract_x
_atom_site_fract_y
_atom_site_fract_z
Si Si1 0.375063 0.125503 0.939760
Si Si2 0.607961 0.518751 0.437025
Si Si3 0.023351 0.550587 0.573561
Si Si4 0.197082 0.301281 0.437896
Si Si5 0.015700 0.844501 0.060136
Si Si6 0.756808 0.165787 0.069750
Si Si7 0.452234 0.800365 0.064697
Si Si8 0.234179 0.555800 0.070813
O O1 0.375975 0.119950 0.750000
O O2 0.376174 0.073710 0.016594
O O3 0.275538 0.156847 0.983227
O O4 0.474762 0.156300 0.987544
O O5 0.500000 0.500000 0.500000
O O6 0.385213 0.487041 0.750000
O O7 0.688668 0.485243 0.525132
O O8 0.986085 0.549378 0.750000
O O9 0.989006 0.601404 0.504286
O O10 0.144752 0.554435 0.555823
O O11 0.000000 0.500000 0.500000
O O12 0.229927 0.250000 0.500000
O O13 0.197689 0.299964 0.250000
O O14 0.080228 0.312328 0.487843
O O15 0.021580 0.845576 0.250000
O O16 0.127957 0.830313 0.997988
O O17 0.759902 0.180876 0.250000
O O18 0.725812 0.109790 0.064043
O O19 0.665520 0.192542 0.983985
O O20 0.458639 0.799002 0.250000
O O21 0.489978 0.750000 0.000000
O O22 0.196046 0.549002 0.250000
#
# Coordination Sequence:
#
# PCOD9436958 Si02
#       8
#     8   8   8   8   8   8   8   8
#     4  10  23  42  64  90 123 161 202 250 307 367
#     4  12  25  40  61  91 123 161 203 248 301 366
#     4  10  20  34  55  85 118 158 203 249 299 356
#     4  10  22  41  64  90 122 164 208 255 310 364
#     4   9  20  38  59  85 121 164 204 248 305 365
#     4  10  21  38  61  89 120 157 200 252 306 361
#     4  11  23  39  62  89 117 153 196 248 305 365
#     4  10  21  38  59  84 118 159 198 246 299 354
#
# _framework density 20.374127000000001
#
# number of rings (size 3 to 8) (size 9 to 14) (size 15 to 20)
#    0.000    1.750    0.000    3.750    1.750    6.500 
#    0.000    1.250    0.000    0.000    0.000    0.000 
#    0.000    0.000    0.000    0.000    0.000    0.000 
#
# Total GULP energy -357274.486266 kJ/mol
# GULP energy per Si atom -5582.413848 kJ/mol
# Density = 2.032775 g / cm^3
# Si number density = 20.374127 Si / 1000 Ang^3
#
#
#
# Elastic Constant Matrix: (Units=GPa)
#
#
# Indices 1 2 3 4 5 6 
#
# 1 74.9955 40.6268 10.0889 0.0000 0.0000 0.0000
# 2 40.6268 85.1466 13.5755 0.0000 0.0000 0.0000
# 3 10.0889 13.5755 41.6757 0.0000 0.0000 0.0000
# 4 0.0000 0.0000 0.0000 33.6300 0.0000 0.0000
# 5 0.0000 0.0000 0.0000 0.0000 19.6021 0.0000
# 6 0.0000 0.0000 0.0000 0.0000 0.0000 29.5181
#
#
#
# Elastic Compliance Matrix: (Units=1/GPa)
#
#
# Indices 1 2 3 4 5 6 
#
# 1 0.018089 -0.008368 -0.001653 0.000000 0.000000 0.000000
# 2 -0.008368 0.016258 -0.003270 0.000000 0.000000 0.000000
# 3 -0.001653 -0.003270 0.025460 0.000000 0.000000 0.000000
# 4 0.000000 0.000000 0.000000 0.029735 0.000000 0.000000
# 5 0.000000 0.000000 0.000000 0.000000 0.051015 0.000000
# 6 0.000000 0.000000 0.000000 0.000000 0.000000 0.033878
#
#
# Mechanical properties :
#
#
# Convention : Reuss Voigt Hill
#
# Bulk Modulus (GPa) = 30.09747 36.71111 33.40429
# Shear Modulus (GPa) = 23.57445 25.71848 24.64646
#
# Velocity S-wave (km/s) = 3.40528 3.55676 3.48184
# Velocity P-wave (km/s) = 5.50142 5.90973 5.70923
#
# Compressibility (1/GPa) = 0.03322539
#
# Stress axis : x y z
#
# Youngs Moduli (GPa) = 55.28074 61.50674 39.27671
#
# Poissons Ratio (x) = 0.51466 0.06494
# Poissons Ratio (y) = 0.46257 0.12845
# Poissons Ratio (z) = 0.09140 0.20115
#
# Static dielectric constant tensor:
#      x y z
#    x 1.755260 0.000000 0.000000 
#    y 0.000000 1.824740 0.000000 
#    z 0.000000 0.000000 1.714920 
# 
# From -- ./inp_files/3870.got.cif
#   From: 2010.05.17/outbox.cif.g08.bks.cpg/sg57_2_cif.got.tgz:3870.got - 2010.06.03 13:58:18.
