data_PCOD9436252
_publ_section_title
;
Structure prediction by ZEFSAII (Michael W. Deem and Ramdas Pophale) SiO2 
 PCOD9436252
Probable space group: P B C M
;
_chemical_formula_sum "Si O2"
_cell_formula_units_Z 64
_cell_length_a 12.383707
_cell_length_b 15.587325
_cell_length_c 17.787540
_cell_angle_alpha 90.000000
_cell_angle_beta 90.000000
_cell_angle_gamma 90.000000
_cell_volume 3433.508670
_symmetry_space_group_name_H-M "P B C M"
_symmetry_group_IT_number 57
_symmetry_cell_setting 'orthorhombic'
loop_
_space_group_symop_operation_xyz
x,y,z
-x,-y,1/2+z
x,1/2-y,-z
-x,1/2+y,1/2-z
-x,-y,-z
x,y,1/2-z
-x,1/2+y,z
x,1/2-y,1/2+z
loop_
_atom_site_type_symbol
_atom_site_label
_atom_site_fract_x
_atom_site_fract_y
_atom_site_fract_z
Si Si1 0.527620 0.475410 0.585425
Si Si2 0.259173 0.468510 0.163359
Si Si3 0.011231 0.282275 0.841684
Si Si4 0.607151 0.374630 0.160237
Si Si5 0.252702 0.264362 0.336330
Si Si6 0.143287 0.872292 0.341893
Si Si7 0.017690 0.522437 0.158599
Si Si8 0.469948 0.222077 0.086381
O O1 0.500000 0.500000 0.500000
O O2 0.650192 0.494951 0.609036
O O3 0.452313 0.538556 0.634414
O O4 0.508862 0.374845 0.597030
O O5 0.275088 0.499417 0.250000
O O6 0.269972 0.366197 0.164553
O O7 0.137476 0.490346 0.139769
O O8 0.007996 0.281658 0.750000
O O9 0.131545 0.253540 0.863184
O O10 0.921636 0.213195 0.865959
O O11 0.994637 0.379755 0.867202
O O12 0.606684 0.371389 0.250000
O O13 0.732046 0.373251 0.133845
O O14 0.541051 0.292513 0.130407
O O15 0.261518 0.232801 0.250000
O O16 0.346925 0.225130 0.385509
O O17 0.143328 0.872746 0.250000
O O18 0.074409 0.955674 0.366533
O O19 0.011950 0.522816 0.250000
O O20 0.474993 0.250000 0.000000
#
# Coordination Sequence:
#
# PCOD9436252 Si02
#       8
#     8   8   8   8   8   8   8   8
#     4  12  25  43  63  86 121 168 205 249 313 369
#     4  10  19  35  60  88 119 154 201 255 296 352
#     4   9  17  30  51  83 118 153 191 239 301 355
#     4  11  24  41  63  95 127 158 206 258 301 364
#     4  10  19  35  60  88 119 153 200 255 297 351
#     4   9  18  33  53  83 124 156 187 245 307 352
#     4   9  17  30  51  83 118 153 193 241 300 355
#     4  12  25  43  63  86 121 169 207 250 312 368
#
# _framework density 18.639823
#
# number of rings (size 3 to 8) (size 9 to 14) (size 15 to 20)
#    0.000    1.750    3.750    0.750    3.500    2.000 
#    0.000    0.000    0.000    3.000    0.000    0.000 
#    0.000    0.000    0.000    0.000    0.000    0.000 
#
# Total GULP energy -357211.941675 kJ/mol
# GULP energy per Si atom -5581.436589 kJ/mol
# Density = 1.859740 g / cm^3
# Si number density = 18.639823 Si / 1000 Ang^3
#
#
#
# Elastic Constant Matrix: (Units=GPa)
#
#
# Indices 1 2 3 4 5 6 
#
# 1 94.3258 20.9731 24.5266 0.0000 0.0000 0.0000
# 2 20.9731 100.0107 11.7380 0.0000 0.0000 0.0000
# 3 24.5266 11.7380 42.7219 0.0000 0.0000 0.0000
# 4 0.0000 0.0000 0.0000 15.1947 0.0000 0.0000
# 5 0.0000 0.0000 0.0000 0.0000 -381.6528 0.0000
# 6 0.0000 0.0000 0.0000 0.0000 0.0000 36.1021
#
#
#
# Elastic Compliance Matrix: (Units=1/GPa)
#
#
# Indices 1 2 3 4 5 6 
#
# 1 0.012796 -0.001882 -0.006829 0.000000 0.000000 0.000000
# 2 -0.001882 0.010609 -0.001834 0.000000 0.000000 0.000000
# 3 -0.006829 -0.001834 0.027832 0.000000 0.000000 0.000000
# 4 0.000000 0.000000 0.000000 0.065812 0.000000 0.000000
# 5 0.000000 0.000000 0.000000 0.000000 -0.002620 0.000000
# 6 0.000000 0.000000 0.000000 0.000000 0.000000 0.027699
#
#
# Mechanical properties :
#
#
# Convention : Reuss Voigt Hill
#
# Bulk Modulus (GPa) = 33.17217 39.05932 36.11575
# Shear Modulus (GPa) = 28.85729 -54.08314 -12.61293
#
# Velocity S-wave (km/s) = 3.93893 -5.39239 -2.60410
# Velocity P-wave (km/s) = 6.20660 4.21547 3.22116
#
# Compressibility (1/GPa) = 0.03014575
#
# Stress axis : x y z
#
# Youngs Moduli (GPa) = 78.15163 94.26072 35.93026
#
# Poissons Ratio (x) = 0.17739 0.24536
# Poissons Ratio (y) = 0.14707 0.06591
# Poissons Ratio (z) = 0.53369 0.17292
#
# Static dielectric constant tensor:
#      x y z
#    x 1.642130 0.000000 0.000000 
#    y 0.000000 1.672510 0.000000 
#    z 0.000000 0.000000 1.224650 
# 
# From -- ./inp_files/22052.got.cif
#   From: 2010.05.17/outbox.cif.g08.bks.cpg/sg57_12_cif.got.tgz:22052.got - 2010.06.03 13:58:18.
