data_PCOD9436598
_publ_section_title
;
Structure prediction by ZEFSAII (Michael W. Deem and Ramdas Pophale) SiO2 
 PCOD9436598
Probable space group: P B C M
;
_chemical_formula_sum "Si O2"
_cell_formula_units_Z 64
_cell_length_a 21.957413
_cell_length_b 19.605452
_cell_length_c 8.888075
_cell_angle_alpha 90.000000
_cell_angle_beta 90.000000
_cell_angle_gamma 90.000000
_cell_volume 3826.183025
_symmetry_space_group_name_H-M "P B C M"
_symmetry_group_IT_number 57
_symmetry_cell_setting 'orthorhombic'
loop_
_space_group_symop_operation_xyz
x,y,z
-x,-y,1/2+z
x,1/2-y,-z
-x,1/2+y,1/2-z
-x,-y,-z
x,y,1/2-z
-x,1/2+y,z
x,1/2-y,1/2+z
loop_
_atom_site_type_symbol
_atom_site_label
_atom_site_fract_x
_atom_site_fract_y
_atom_site_fract_z
Si Si1 0.910540 0.036343 0.077599
Si Si2 0.982570 0.608337 0.577361
Si Si3 0.626502 0.822427 0.926461
Si Si4 0.800658 0.963056 0.570629
Si Si5 0.557976 0.039025 0.929685
Si Si6 0.479836 0.822620 0.573359
Si Si7 0.131028 0.177915 0.069983
Si Si8 0.329068 0.459914 0.428966
O O1 0.894727 0.052482 0.250000
O O2 0.949107 0.965589 0.079905
O O3 0.954014 0.093637 0.006175
O O4 0.851837 0.016966 0.980153
O O5 0.991407 0.629865 0.750000
O O6 0.935814 0.658105 0.493027
O O7 0.642882 0.824400 0.750000
O O8 0.553249 0.831638 0.937578
O O9 0.641651 0.750000 0.000000
O O10 0.657722 0.883121 0.015929
O O11 0.792207 0.965046 0.750000
O O12 0.825820 0.886848 0.531407
O O13 0.738087 0.977563 0.486138
O O14 0.555950 0.032954 0.750000
O O15 0.551593 0.116634 0.983536
O O16 0.500000 0.000000 0.000000
O O17 0.619274 0.005766 0.993328
O O18 0.465260 0.750000 0.500000
O O19 0.464279 0.824611 0.750000
O O20 0.129003 0.183169 0.250000
O O21 0.150736 0.250000 0.000000
O O22 0.334009 0.464984 0.250000
#
# Coordination Sequence:
#
# PCOD9436598 Si02
#       8
#     8   8   8   8   8   8   8   8
#     4   9  16  28  47  71  97 125 162 206 253 299
#     4   9  16  27  46  71  98 128 163 205 251 295
#     4  10  20  34  52  73 102 136 174 217 263 319
#     4  10  21  36  51  70 100 137 178 219 262 313
#     4  12  23  37  57  81 109 140 176 224 280 332
#     4  10  20  35  56  81 108 137 170 212 265 325
#     4  10  20  33  50  72 102 140 179 218 257 303
#     4  12  24  37  54  76 105 141 183 227 275 329
#
# _framework density 16.726852000000001
#
# number of rings (size 3 to 8) (size 9 to 14) (size 15 to 20)
#    0.000    1.750    1.250    4.500    0.000    6.000 
#    0.000    1.250    0.000    0.000    0.000    0.875 
#    0.000    0.000    0.000    0.000    0.000    0.000 
#
# Total GULP energy -357356.548112 kJ/mol
# GULP energy per Si atom -5583.696064 kJ/mol
# Density = 1.668878 g / cm^3
# Si number density = 16.726852 Si / 1000 Ang^3
#
#
#
# Elastic Constant Matrix: (Units=GPa)
#
#
# Indices 1 2 3 4 5 6 
#
# 1 83.6209 34.1974 50.8161 0.0000 0.0000 0.0000
# 2 34.1974 42.1362 27.8295 0.0000 0.0000 0.0000
# 3 50.8161 27.8295 130.8836 0.0000 0.0000 0.0000
# 4 0.0000 0.0000 0.0000 28.1604 0.0000 0.0000
# 5 0.0000 0.0000 0.0000 0.0000 27.7009 0.0000
# 6 0.0000 0.0000 0.0000 0.0000 0.0000 11.0993
#
#
#
# Elastic Compliance Matrix: (Units=1/GPa)
#
#
# Indices 1 2 3 4 5 6 
#
# 1 0.020499 -0.013240 -0.005144 0.000000 0.000000 0.000000
# 2 -0.013240 0.036161 -0.002548 0.000000 0.000000 0.000000
# 3 -0.005144 -0.002548 0.010179 0.000000 0.000000 0.000000
# 4 0.000000 0.000000 0.000000 0.035511 0.000000 0.000000
# 5 0.000000 0.000000 0.000000 0.000000 0.036100 0.000000
# 6 0.000000 0.000000 0.000000 0.000000 0.000000 0.090096
#
#
# Mechanical properties :
#
#
# Convention : Reuss Voigt Hill
#
# Bulk Modulus (GPa) = 40.03901 53.59184 46.81543
# Shear Modulus (GPa) = 17.93820 22.97862 20.45841
#
# Velocity S-wave (km/s) = 3.27833 3.71044 3.50106
# Velocity P-wave (km/s) = 6.19023 7.10391 6.66275
#
# Compressibility (1/GPa) = 0.02497564
#
# Stress axis : x y z
#
# Youngs Moduli (GPa) = 48.78296 27.65424 98.23838
#
# Poissons Ratio (x) = 0.36613 0.50531
# Poissons Ratio (y) = 0.64586 0.25036
# Poissons Ratio (z) = 0.25093 0.07048
#
# Static dielectric constant tensor:
#      x y z
#    x 1.561270 0.000000 0.000000 
#    y 0.000000 1.555340 0.000000 
#    z 0.000000 0.000000 1.556740 
# 
# From -- ./inp_files/8601.got.cif
#   From: 2010.05.17/outbox.cif.g08.bks.cpg/sg57_5_cif.got.tgz:8601.got - 2010.06.03 13:58:18.
