data_PCOD9436666
_publ_section_title
;
Structure prediction by ZEFSAII (Michael W. Deem and Ramdas Pophale) SiO2 
 PCOD9436666
Probable space group: P B C M
;
_chemical_formula_sum "Si O2"
_cell_formula_units_Z 48
_cell_length_a 18.658345
_cell_length_b 16.798391
_cell_length_c 8.870050
_cell_angle_alpha 90.000000
_cell_angle_beta 90.000000
_cell_angle_gamma 90.000000
_cell_volume 2780.141321
_symmetry_space_group_name_H-M "P B C M"
_symmetry_group_IT_number 57
_symmetry_cell_setting 'orthorhombic'
loop_
_space_group_symop_operation_xyz
x,y,z
-x,-y,1/2+z
x,1/2-y,-z
-x,1/2+y,1/2-z
-x,-y,-z
x,y,1/2-z
-x,1/2+y,z
x,1/2-y,1/2+z
loop_
_atom_site_type_symbol
_atom_site_label
_atom_site_fract_x
_atom_site_fract_y
_atom_site_fract_z
Si Si1 0.202873 0.918742 0.076285
Si Si2 0.701560 0.919763 0.577887
Si Si3 0.577737 0.009579 0.070949
Si Si4 0.158361 0.165178 0.432513
Si Si5 0.921740 0.512541 0.569077
Si Si6 0.332452 0.666519 0.069308
O O1 0.187843 0.897335 0.250000
O O2 0.250148 0.999903 0.078080
O O3 0.131322 0.942426 0.987607
O O4 0.254078 0.855302 0.996050
O O5 0.679693 0.903592 0.750000
O O6 0.632272 0.940354 0.481085
O O7 0.758340 0.853526 0.526760
O O8 0.571971 0.008737 0.250000
O O9 0.614793 0.093668 0.026593
O O10 0.500000 0.000000 0.000000
O O11 0.137460 0.250000 0.500000
O O12 0.153034 0.162841 0.250000
O O13 0.111212 0.094493 0.503224
O O14 0.923417 0.515014 0.750000
O O15 0.000000 0.500000 0.500000
O O16 0.329319 0.670719 0.250000
O O17 0.356312 0.750000 0.000000
#
# Coordination Sequence:
#
# PCOD9436666 Si02
#       6
#     8   8   8   8   8   8
#     4   9  17  32  53  76 101 132 169 210 253 303
#     4   8  16  31  51  73  99 130 167 206 248 301
#     4  10  20  33  52  76 103 135 174 214 259 312
#     4  10  20  35  55  80 107 138 175 218 265 312
#     4  11  21  35  55  79 108 142 178 216 259 313
#     4  10  20  34  53  78 104 135 173 216 263 313
#
# _framework density 17.265308999999998
#
# number of rings (size 3 to 8) (size 9 to 14) (size 15 to 20)
#    0.000    2.333    0.000    4.500    0.000    6.667 
#    0.000    1.667    0.000    0.000    0.000    0.000 
#    0.000    0.000    0.000    0.000    0.000    0.000 
#
# Total GULP energy -267654.977572 kJ/mol
# GULP energy per Si atom -5576.145366 kJ/mol
# Density = 1.722601 g / cm^3
# Si number density = 17.265309 Si / 1000 Ang^3
#
#
#
# Elastic Constant Matrix: (Units=GPa)
#
#
# Indices 1 2 3 4 5 6 
#
# 1 141.3930 43.9482 70.3718 0.0000 0.0000 0.0000
# 2 43.9482 76.0896 41.1446 0.0000 0.0000 0.0000
# 3 70.3718 41.1446 103.9805 0.0000 0.0000 0.0000
# 4 0.0000 0.0000 0.0000 25.9001 0.0000 0.0000
# 5 0.0000 0.0000 0.0000 0.0000 32.6953 0.0000
# 6 0.0000 0.0000 0.0000 0.0000 0.0000 16.1647
#
#
#
# Elastic Compliance Matrix: (Units=1/GPa)
#
#
# Indices 1 2 3 4 5 6 
#
# 1 0.011182 -0.003010 -0.006376 0.000000 0.000000 0.000000
# 2 -0.003010 0.017530 -0.004899 0.000000 0.000000 0.000000
# 3 -0.006376 -0.004899 0.015871 0.000000 0.000000 0.000000
# 4 0.000000 0.000000 0.000000 0.038610 0.000000 0.000000
# 5 0.000000 0.000000 0.000000 0.000000 0.030585 0.000000
# 6 0.000000 0.000000 0.000000 0.000000 0.000000 0.061863
#
#
# Mechanical properties :
#
#
# Convention : Reuss Voigt Hill
#
# Bulk Modulus (GPa) = 62.45640 70.26581 66.36111
# Shear Modulus (GPa) = 23.86053 26.01857 24.93955
#
# Velocity S-wave (km/s) = 3.72155 3.88620 3.80477
# Velocity P-wave (km/s) = 7.39727 7.80531 7.60403
#
# Compressibility (1/GPa) = 0.01601117
#
# Stress axis : x y z
#
# Youngs Moduli (GPa) = 89.43154 57.04363 63.00729
#
# Poissons Ratio (x) = 0.17173 0.40176
# Poissons Ratio (y) = 0.26923 0.30869
# Poissons Ratio (z) = 0.57025 0.27947
#
# Static dielectric constant tensor:
#      x y z
#    x 1.576360 0.000000 0.000000 
#    y 0.000000 1.596470 0.000000 
#    z 0.000000 0.000000 1.579830 
# 
# From -- ./inp_files/6510.got.cif
#   From: 2010.05.17/outbox.cif.g08.bks.cpg/sg57_4_cif.got.tgz:6510.got - 2010.06.03 13:58:18.
