data_PCOD9436494
_publ_section_title
;
Structure prediction by ZEFSAII (Michael W. Deem and Ramdas Pophale) SiO2 
 PCOD9436494
Probable space group: P B C M
;
_chemical_formula_sum "Si O2"
_cell_formula_units_Z 48
_cell_length_a 11.721966
_cell_length_b 9.657539
_cell_length_c 23.880235
_cell_angle_alpha 90.000000
_cell_angle_beta 90.000000
_cell_angle_gamma 90.000000
_cell_volume 2703.370213
_symmetry_space_group_name_H-M "P B C M"
_symmetry_group_IT_number 57
_symmetry_cell_setting 'orthorhombic'
loop_
_space_group_symop_operation_xyz
x,y,z
-x,-y,1/2+z
x,1/2-y,-z
-x,1/2+y,1/2-z
-x,-y,-z
x,y,1/2-z
-x,1/2+y,z
x,1/2-y,1/2+z
loop_
_atom_site_type_symbol
_atom_site_label
_atom_site_fract_x
_atom_site_fract_y
_atom_site_fract_z
Si Si1 0.669338 0.465524 0.750000
Si Si2 0.622245 0.659160 0.571402
Si Si3 0.605331 0.154678 0.627704
Si Si4 0.892655 0.090112 0.480503
Si Si5 0.469086 0.823348 0.250000
Si Si6 0.758023 0.417345 0.628974
Si Si7 0.684980 0.565539 0.041447
O O1 0.571414 0.341004 0.750000
O O2 0.597940 0.611198 0.750000
O O3 0.749948 0.445856 0.695516
O O4 0.511391 0.716031 0.602258
O O5 0.671377 0.532313 0.605653
O O6 0.599191 0.603213 0.509083
O O7 0.714462 0.782175 0.565015
O O8 0.585237 0.122259 0.692496
O O9 0.704295 0.266060 0.620931
O O10 0.632184 0.022432 0.590714
O O11 0.903193 0.250000 0.500000
O O12 0.865660 0.077736 0.413568
O O13 0.785080 0.020471 0.512341
O O14 0.000000 0.000000 0.500000
#
# Coordination Sequence:
#
# PCOD9436494 Si02
#       7
#     4   8   8   8   4   8   8
#     4  10  20  38  56  85 125 163 203 230 274 348
#     4  10  20  31  52  84 119 153 185 227 279 350
#     4  11  19  35  51  81 119 161 189 227 274 350
#     4  11  24  42  64  85 109 145 196 259 318 353
#     4  10  22  30  52  81 117 165 197 218 266 336
#     4  10  21  36  58  85 118 156 196 237 292 346
#     4  10  22  35  53  82 114 145 191 239 291 351
#
# _framework density 17.755614000000001
#
# number of rings (size 3 to 8) (size 9 to 14) (size 15 to 20)
#    0.000    1.667    3.333    1.500    7.000    4.000 
#    0.000    0.000    0.000    2.000    0.000    0.000 
#    0.000    0.000    0.000    0.000    0.000    0.000 
#
# Total GULP energy -267218.060823 kJ/mol
# GULP energy per Si atom -5567.042934 kJ/mol
# Density = 1.771520 g / cm^3
# Si number density = 17.755614 Si / 1000 Ang^3
#
#
#
# Elastic Constant Matrix: (Units=GPa)
#
#
# Indices 1 2 3 4 5 6 
#
# 1 52.0962 32.7791 44.1939 0.0000 0.0000 0.0000
# 2 32.7791 51.8376 39.0539 0.0000 0.0000 0.0000
# 3 44.1939 39.0539 156.6716 0.0000 0.0000 0.0000
# 4 0.0000 0.0000 0.0000 126.6011 0.0000 0.0000
# 5 0.0000 0.0000 0.0000 0.0000 22.1626 0.0000
# 6 0.0000 0.0000 0.0000 0.0000 0.0000 23.7440
#
#
#
# Elastic Compliance Matrix: (Units=1/GPa)
#
#
# Indices 1 2 3 4 5 6 
#
# 1 0.035235 -0.018213 -0.005399 0.000000 0.000000 0.000000
# 2 -0.018213 0.033166 -0.003130 0.000000 0.000000 0.000000
# 3 -0.005399 -0.003130 0.008686 0.000000 0.000000 0.000000
# 4 0.000000 0.000000 0.000000 0.007899 0.000000 0.000000
# 5 0.000000 0.000000 0.000000 0.000000 0.045121 0.000000
# 6 0.000000 0.000000 0.000000 0.000000 0.000000 0.042116
#
#
# Mechanical properties :
#
#
# Convention : Reuss Voigt Hill
#
# Bulk Modulus (GPa) = 42.36748 54.73991 48.55370
# Shear Modulus (GPa) = 21.40647 44.14010 32.77328
#
# Velocity S-wave (km/s) = 3.47597 4.99137 4.30094
# Velocity P-wave (km/s) = 6.32638 8.00718 7.21588
#
# Compressibility (1/GPa) = 0.02360301
#
# Stress axis : x y z
#
# Youngs Moduli (GPa) = 28.38081 30.15152 115.12882
#
# Poissons Ratio (x) = 0.54915 0.62159
# Poissons Ratio (y) = 0.51690 0.36033
# Poissons Ratio (z) = 0.15323 0.09437
#
# Static dielectric constant tensor:
#      x y z
#    x 1.603070 0.000000 0.000000 
#    y 0.000000 1.630170 0.000000 
#    z 0.000000 0.000000 1.642660 
# 
# From -- ./inp_files/27134.got.cif
#   From: 2010.05.17/outbox.cif.g08.bks.cpg/sg57_14_cif.got.tgz:27134.got - 2010.06.03 13:58:18.
