data_PCOD9436312
_publ_section_title
;
Structure prediction by ZEFSAII (Michael W. Deem and Ramdas Pophale) SiO2 
 PCOD9436312
Probable space group: P B C M
;
_chemical_formula_sum "Si O2"
_cell_formula_units_Z 48
_cell_length_a 16.008271
_cell_length_b 8.715112
_cell_length_c 14.950084
_cell_angle_alpha 90.000000
_cell_angle_beta 90.000000
_cell_angle_gamma 90.000000
_cell_volume 2085.744146
_symmetry_space_group_name_H-M "P B C M"
_symmetry_group_IT_number 57
_symmetry_cell_setting 'orthorhombic'
loop_
_space_group_symop_operation_xyz
x,y,z
-x,-y,1/2+z
x,1/2-y,-z
-x,1/2+y,1/2-z
-x,-y,-z
x,y,1/2-z
-x,1/2+y,z
x,1/2-y,1/2+z
loop_
_atom_site_type_symbol
_atom_site_label
_atom_site_fract_x
_atom_site_fract_y
_atom_site_fract_z
Si Si1 0.567903 0.197400 0.645924
Si Si2 0.903780 0.313074 0.397993
Si Si3 0.925681 0.821781 0.600067
Si Si4 0.599967 0.858092 0.640209
Si Si5 0.757788 0.839810 0.147189
Si Si6 0.262640 0.673106 0.403965
O O1 0.549186 0.169269 0.750000
O O2 0.483261 0.270322 0.609443
O O3 0.647303 0.308543 0.640873
O O4 0.594154 0.032809 0.607096
O O5 0.898747 0.250000 0.500000
O O6 0.917810 0.494865 0.399679
O O7 0.814525 0.263496 0.358110
O O8 0.985825 0.231036 0.359102
O O9 0.924807 0.750000 0.500000
O O10 0.844819 0.749079 0.645198
O O11 0.601798 0.861353 0.750000
O O12 0.683728 0.769860 0.613894
O O13 0.739421 0.885147 0.250000
O O14 0.762267 0.995720 0.091269
O O15 0.274049 0.750000 0.500000
#
# Coordination Sequence:
#
# PCOD9436312 Si02
#       6
#     8   8   8   8   8   8
#     4  10  19  36  59  83 112 152 198 248 300 362
#     4  10  20  36  59  86 117 154 196 235 288 357
#     4  11  20  37  62  86 115 154 198 241 286 351
#     4   9  19  35  58  83 111 150 194 236 301 376
#     4  11  23  40  60  88 122 158 199 252 309 362
#     4  11  22  38  58  86 119 158 204 248 299 360
#
# _framework density 23.013366999999999
#
# number of rings (size 3 to 8) (size 9 to 14) (size 15 to 20)
#    0.000    1.667    0.000    7.500    0.000    2.667 
#    0.000    9.167    0.000    0.000    0.000    0.000 
#    0.000    0.000    0.000    0.000    0.000    0.000 
#
# Total GULP energy -268414.298438 kJ/mol
# GULP energy per Si atom -5591.964551 kJ/mol
# Density = 2.296099 g / cm^3
# Si number density = 23.013367 Si / 1000 Ang^3
#
#
#
# Elastic Constant Matrix: (Units=GPa)
#
#
# Indices 1 2 3 4 5 6 
#
# 1 102.0498 -31.4093 6.6480 0.0000 0.0000 0.0000
# 2 -31.4093 71.8910 7.7412 0.0000 0.0000 0.0000
# 3 6.6480 7.7412 46.3217 0.0000 0.0000 0.0000
# 4 0.0000 0.0000 0.0000 19.2508 0.0000 0.0000
# 5 0.0000 0.0000 0.0000 0.0000 11.1469 0.0000
# 6 0.0000 0.0000 0.0000 0.0000 0.0000 43.0983
#
#
#
# Elastic Compliance Matrix: (Units=1/GPa)
#
#
# Indices 1 2 3 4 5 6 
#
# 1 0.011612 0.005349 -0.002561 0.000000 0.000000 0.000000
# 2 0.005349 0.016629 -0.003547 0.000000 0.000000 0.000000
# 3 -0.002561 -0.003547 0.022548 0.000000 0.000000 0.000000
# 4 0.000000 0.000000 0.000000 0.051946 0.000000 0.000000
# 5 0.000000 0.000000 0.000000 0.000000 0.089711 0.000000
# 6 0.000000 0.000000 0.000000 0.000000 0.000000 0.023203
#
#
# Mechanical properties :
#
#
# Convention : Reuss Voigt Hill
#
# Bulk Modulus (GPa) = 20.29489 20.69136 20.49313
# Shear Modulus (GPa) = 21.40503 30.51804 25.96153
#
# Velocity S-wave (km/s) = 3.05308 3.64552 3.36237
# Velocity P-wave (km/s) = 4.61154 5.17013 4.89880
#
# Compressibility (1/GPa) = 0.04927349
#
# Stress axis : x y z
#
# Youngs Moduli (GPa) = 86.11541 60.13629 44.34918
#
# Poissons Ratio (x) = -0.32168 0.11356
# Poissons Ratio (y) = -0.46064 0.15729
# Poissons Ratio (z) = 0.22050 0.21328
#
# Static dielectric constant tensor:
#      x y z
#    x 1.874780 0.000000 0.000000 
#    y 0.000000 1.810830 0.000000 
#    z 0.000000 0.000000 1.932700 
# 
# From -- ./inp_files/22445.got.cif
#   From: 2010.05.17/outbox.cif.g08.bks.cpg/sg57_12_cif.got.tgz:22445.got - 2010.06.03 13:58:18.
