data_PCOD9436875
_publ_section_title
;
Structure prediction by ZEFSAII (Michael W. Deem and Ramdas Pophale) SiO2 
 PCOD9436875
Probable space group: P B C M
;
_chemical_formula_sum "Si O2"
_cell_formula_units_Z 48
_cell_length_a 32.047956
_cell_length_b 9.438198
_cell_length_c 8.683775
_cell_angle_alpha 90.000000
_cell_angle_beta 90.000000
_cell_angle_gamma 90.000000
_cell_volume 2626.624446
_symmetry_space_group_name_H-M "P B C M"
_symmetry_group_IT_number 57
_symmetry_cell_setting 'orthorhombic'
loop_
_space_group_symop_operation_xyz
x,y,z
-x,-y,1/2+z
x,1/2-y,-z
-x,1/2+y,1/2-z
-x,-y,-z
x,y,1/2-z
-x,1/2+y,z
x,1/2-y,1/2+z
loop_
_atom_site_type_symbol
_atom_site_label
_atom_site_fract_x
_atom_site_fract_y
_atom_site_fract_z
Si Si1 0.370322 0.090002 0.565320
Si Si2 0.284005 0.410039 0.566231
Si Si3 0.462326 0.408934 0.434356
Si Si4 0.207891 0.908157 0.565376
Si Si5 0.962207 0.908653 0.934232
Si Si6 0.126344 0.407917 0.065371
O O1 0.371641 0.250000 0.500000
O O2 0.365876 0.093460 0.750000
O O3 0.328428 0.028057 0.491854
O O4 0.416123 0.029811 0.526576
O O5 0.279910 0.250000 0.500000
O O6 0.283927 0.402320 0.750000
O O7 0.246221 0.504532 0.505584
O O8 0.464819 0.250000 0.500000
O O9 0.500000 0.500000 0.500000
O O10 0.464939 0.402518 0.250000
O O11 0.206927 0.750000 0.500000
O O12 0.212256 0.904656 0.750000
O O13 0.165067 0.991066 0.528471
O O14 0.963023 0.906655 0.750000
O O15 0.966139 0.750000 0.000000
O O16 0.917046 0.961031 0.992916
O O17 0.000000 0.000000 0.000000
O O18 0.121779 0.398595 0.250000
O O19 0.134062 0.250000 0.000000
#
# Coordination Sequence:
#
# PCOD9436875 Si02
#       6
#     8   8   8   8   8   8
#     4   9  17  31  52  78 106 138 179 224 270 320
#     4  11  21  35  58  84 110 142 182 226 271 323
#     4  10  20  34  54  79 109 143 180 224 271 323
#     4  11  24  40  58  82 114 148 183 226 277 331
#     4  11  22  38  60  86 117 151 189 232 278 328
#     4  10  21  38  60  85 112 146 189 232 275 325
#
# _framework density 18.274407
#
# number of rings (size 3 to 8) (size 9 to 14) (size 15 to 20)
#    0.000    1.667    0.000    7.500    0.000    6.667 
#    0.000    2.500    0.000    4.000    0.000    0.000 
#    0.000    0.000    0.000    0.000    0.000    0.000 
#
# Total GULP energy -268053.066045 kJ/mol
# GULP energy per Si atom -5584.438876 kJ/mol
# Density = 1.823281 g / cm^3
# Si number density = 18.274407 Si / 1000 Ang^3
#
#
#
# Elastic Constant Matrix: (Units=GPa)
#
#
# Indices 1 2 3 4 5 6 
#
# 1 225.5225 90.1286 102.0787 0.0000 0.0000 0.0000
# 2 90.1286 73.2310 48.7006 0.0000 0.0000 0.0000
# 3 102.0787 48.7006 129.0535 0.0000 0.0000 0.0000
# 4 0.0000 0.0000 0.0000 30.3835 0.0000 0.0000
# 5 0.0000 0.0000 0.0000 0.0000 34.5392 0.0000
# 6 0.0000 0.0000 0.0000 0.0000 0.0000 26.1336
#
#
#
# Elastic Compliance Matrix: (Units=1/GPa)
#
#
# Indices 1 2 3 4 5 6 
#
# 1 0.010392 -0.009777 -0.004530 0.000000 0.000000 0.000000
# 2 -0.009777 0.027429 -0.002617 0.000000 0.000000 0.000000
# 3 -0.004530 -0.002617 0.012320 0.000000 0.000000 0.000000
# 4 0.000000 0.000000 0.000000 0.032913 0.000000 0.000000
# 5 0.000000 0.000000 0.000000 0.000000 0.028953 0.000000
# 6 0.000000 0.000000 0.000000 0.000000 0.000000 0.038265
#
#
# Mechanical properties :
#
#
# Convention : Reuss Voigt Hill
#
# Bulk Modulus (GPa) = 61.38202 101.06921 81.22561
# Shear Modulus (GPa) = 26.37802 30.67119 28.52461
#
# Velocity S-wave (km/s) = 3.80339 4.10123 3.95511
# Velocity P-wave (km/s) = 7.27665 8.82345 8.08712
#
# Compressibility (1/GPa) = 0.01629142
#
# Stress axis : x y z
#
# Youngs Moduli (GPa) = 96.22644 36.45737 81.16989
#
# Poissons Ratio (x) = 0.35645 0.36773
# Poissons Ratio (y) = 0.94083 0.21245
# Poissons Ratio (z) = 0.43594 0.09542
#
# Static dielectric constant tensor:
#      x y z
#    x 1.655830 0.000000 0.000000 
#    y 0.000000 1.557530 0.000000 
#    z 0.000000 0.000000 1.610520 
# 
# From -- ./inp_files/9936.got.cif
#   From: 2010.05.17/outbox.cif.g08.bks.cpg/sg57_5_cif.got.tgz:9936.got - 2010.06.03 13:58:18.
