data_PCOD9436006
_publ_section_title
;
Structure prediction by ZEFSAII (Michael W. Deem and Ramdas Pophale) SiO2 
 PCOD9436006
Probable space group: P B C M
;
_chemical_formula_sum "Si O2"
_cell_formula_units_Z 64
_cell_length_a 21.222207
_cell_length_b 18.199818
_cell_length_c 8.616978
_cell_angle_alpha 90.000000
_cell_angle_beta 90.000000
_cell_angle_gamma 90.000000
_cell_volume 3328.224211
_symmetry_space_group_name_H-M "P B C M"
_symmetry_group_IT_number 57
_symmetry_cell_setting 'orthorhombic'
loop_
_space_group_symop_operation_xyz
x,y,z
-x,-y,1/2+z
x,1/2-y,-z
-x,1/2+y,1/2-z
-x,-y,-z
x,y,1/2-z
-x,1/2+y,z
x,1/2-y,1/2+z
loop_
_atom_site_type_symbol
_atom_site_label
_atom_site_fract_x
_atom_site_fract_y
_atom_site_fract_z
Si Si1 0.359725 0.428558 0.435916
Si Si2 0.987676 0.168045 0.935775
Si Si3 0.115591 0.401837 0.562614
Si Si4 0.756614 0.170484 0.436003
Si Si5 0.247566 0.169141 0.436015
Si Si6 0.132920 0.571384 0.937459
Si Si7 0.508590 0.917089 0.563327
Si Si8 0.371799 0.599655 0.061636
O O1 0.359150 0.426821 0.250000
O O2 0.299567 0.387146 0.501905
O O3 0.424774 0.392102 0.495454
O O4 0.360185 0.514572 0.485142
O O5 0.988405 0.170770 0.750000
O O6 0.928455 0.118064 0.984601
O O7 0.980965 0.250000 0.000000
O O8 0.052560 0.132611 0.993894
O O9 0.111073 0.399487 0.750000
O O10 0.177807 0.357039 0.515361
O O11 0.124466 0.486736 0.515902
O O12 0.775190 0.250000 0.500000
O O13 0.756854 0.172659 0.250000
O O14 0.805519 0.109150 0.492246
O O15 0.686225 0.149093 0.491996
O O16 0.260266 0.250000 0.500000
O O17 0.249723 0.169692 0.250000
O O18 0.137877 0.573664 0.750000
O O19 0.512103 0.918242 0.750000
O O20 0.442964 0.878264 0.515642
O O21 0.500000 0.000000 0.500000
O O22 0.370908 0.600225 0.250000
#
# Coordination Sequence:
#
# PCOD9436006 Si02
#       8
#     8   8   8   8   8   8   8   8
#     4  10  19  34  56  82 109 141 184 231 278 335
#     4  11  23  38  59  85 117 153 188 225 274 329
#     4  10  22  40  62  87 115 144 185 234 279 329
#     4  11  22  37  56  80 110 147 187 229 278 331
#     4  11  23  38  56  80 110 146 182 225 278 333
#     4  10  22  40  60  86 115 146 185 231 277 328
#     4   9  16  30  52  79 110 143 182 230 280 333
#     4   8  17  33  54  79 108 142 182 227 275 328
#
# _framework density 19.229472000000001
#
# number of rings (size 3 to 8) (size 9 to 14) (size 15 to 20)
#    0.000    2.000    0.000    4.500    0.000    4.500 
#    0.000    7.500    0.000    1.500    0.000    0.000 
#    0.000    0.000    0.000    0.000    0.000    0.000 
#
# Total GULP energy -357405.029785 kJ/mol
# GULP energy per Si atom -5584.453590 kJ/mol
# Density = 1.918571 g / cm^3
# Si number density = 19.229472 Si / 1000 Ang^3
#
#
#
# Elastic Constant Matrix: (Units=GPa)
#
#
# Indices 1 2 3 4 5 6 
#
# 1 66.1438 -24.4972 11.0039 0.0000 0.0000 0.0000
# 2 -24.4972 34.6398 2.7509 0.0000 0.0000 0.0000
# 3 11.0039 2.7509 31.7928 0.0000 0.0000 0.0000
# 4 0.0000 0.0000 0.0000 19.3509 0.0000 0.0000
# 5 0.0000 0.0000 0.0000 0.0000 26.9455 0.0000
# 6 0.0000 0.0000 0.0000 0.0000 0.0000 -1.2904
#
#
#
# Elastic Compliance Matrix: (Units=1/GPa)
#
#
# Indices 1 2 3 4 5 6 
#
# 1 0.022984 0.017003 -0.009426 0.000000 0.000000 0.000000
# 2 0.017003 0.041646 -0.009488 0.000000 0.000000 0.000000
# 3 -0.009426 -0.009488 0.035537 0.000000 0.000000 0.000000
# 4 0.000000 0.000000 0.000000 0.051677 0.000000 0.000000
# 5 0.000000 0.000000 0.000000 0.000000 0.037112 0.000000
# 6 0.000000 0.000000 0.000000 0.000000 0.000000 -0.774934
#
#
# Mechanical properties :
#
#
# Convention : Reuss Voigt Hill
#
# Bulk Modulus (GPa) = 10.37948 12.34351 11.36149
# Shear Modulus (GPa) = -9.09027 18.55577 4.73275
#
# Velocity S-wave (km/s) = -2.17658 3.10976 1.57052
# Velocity P-wave (km/s) = 0.95252 4.39626 3.03479
#
# Compressibility (1/GPa) = 0.09634399
#
# Stress axis : x y z
#
# Youngs Moduli (GPa) = 43.50856 24.01166 28.13950
#
# Poissons Ratio (x) = -0.40827 0.26525
# Poissons Ratio (y) = -0.73977 0.26700
# Poissons Ratio (z) = 0.41012 0.22783
#
# Static dielectric constant tensor:
#      x y z
#    x 1.678770 0.000000 0.000000 
#    y 0.000000 1.639190 0.000000 
#    z 0.000000 0.000000 1.650330 
# 
# From -- ./inp_files/8498.got.cif
#   From: 2010.05.17/outbox.cif.g08.bks.cpg/sg57_5_cif.got.tgz:8498.got - 2010.06.03 13:58:18.
