data_PCOD9436073
_publ_section_title
;
Structure prediction by ZEFSAII (Michael W. Deem and Ramdas Pophale) SiO2 
 PCOD9436073
Probable space group: P B C M
;
_chemical_formula_sum "Si O2"
_cell_formula_units_Z 64
_cell_length_a 20.427084
_cell_length_b 20.110238
_cell_length_c 8.740951
_cell_angle_alpha 90.000000
_cell_angle_beta 90.000000
_cell_angle_gamma 90.000000
_cell_volume 3590.726037
_symmetry_space_group_name_H-M "P B C M"
_symmetry_group_IT_number 57
_symmetry_cell_setting 'orthorhombic'
loop_
_space_group_symop_operation_xyz
x,y,z
-x,-y,1/2+z
x,1/2-y,-z
-x,1/2+y,1/2-z
-x,-y,-z
x,y,1/2-z
-x,1/2+y,z
x,1/2-y,1/2+z
loop_
_atom_site_type_symbol
_atom_site_label
_atom_site_fract_x
_atom_site_fract_y
_atom_site_fract_z
Si Si1 0.169541 0.823313 0.067950
Si Si2 0.588418 0.440275 0.067831
Si Si3 0.914233 0.951014 0.567853
Si Si4 0.549227 0.906656 0.567568
Si Si5 0.271635 0.571020 0.432619
Si Si6 0.232909 0.072533 0.432517
Si Si7 0.944332 0.093957 0.068715
Si Si8 0.334349 0.322977 0.067656
O O1 0.176179 0.822355 0.250000
O O2 0.177173 0.750000 0.000000
O O3 0.223204 0.873037 0.996924
O O4 0.099061 0.853300 0.021122
O O5 0.594094 0.431273 0.250000
O O6 0.578706 0.519426 0.038071
O O7 0.522852 0.406084 0.004880
O O8 0.653871 0.416524 0.984811
O O9 0.917328 0.966942 0.750000
O O10 0.844401 0.917825 0.538684
O O11 0.978259 0.907408 0.532107
O O12 0.919672 0.020144 0.476915
O O13 0.545468 0.898058 0.750000
O O14 0.597868 0.853612 0.494707
O O15 0.266923 0.567887 0.250000
O O16 0.251390 0.500088 0.504153
O O17 0.244606 0.073354 0.250000
O O18 0.277482 0.127670 0.510805
O O19 0.935761 0.104037 0.250000
O O20 0.335593 0.320819 0.250000
O O21 0.324295 0.250000 0.000000
#
# Coordination Sequence:
#
# PCOD9436073 Si02
#       8
#     8   8   8   8   8   8   8   8
#     4  12  25  42  61  85 119 160 202 249 305 365
#     4  10  20  35  59  89 122 155 193 243 295 346
#     4   9  19  34  57  87 120 153 192 244 297 348
#     4  10  20  36  59  87 120 154 195 244 295 351
#     4  12  23  37  60  91 122 158 201 248 299 357
#     4  11  21  37  60  89 122 158 200 249 301 355
#     4  10  19  34  57  87 118 152 195 242 294 355
#     4  12  25  41  61  86 120 161 204 249 304 365
#
# _framework density 17.823692999999999
#
# number of rings (size 3 to 8) (size 9 to 14) (size 15 to 20)
#    0.000    1.250    2.500    4.875    0.000    2.000 
#    0.000    1.250    0.000    0.000    0.000    0.000 
#    0.000    0.000    0.000    0.000    0.000    0.000 
#
# Total GULP energy -357743.640549 kJ/mol
# GULP energy per Si atom -5589.744384 kJ/mol
# Density = 1.778313 g / cm^3
# Si number density = 17.823693 Si / 1000 Ang^3
#
#
#
# Elastic Constant Matrix: (Units=GPa)
#
#
# Indices 1 2 3 4 5 6 
#
# 1 121.9573 60.9544 44.7953 0.0000 0.0000 0.0000
# 2 60.9544 113.9101 46.1881 0.0000 0.0000 0.0000
# 3 44.7953 46.1881 92.6181 0.0000 0.0000 0.0000
# 4 0.0000 0.0000 0.0000 30.1806 0.0000 0.0000
# 5 0.0000 0.0000 0.0000 0.0000 33.8810 0.0000
# 6 0.0000 0.0000 0.0000 0.0000 0.0000 21.8076
#
#
#
# Elastic Compliance Matrix: (Units=1/GPa)
#
#
# Indices 1 2 3 4 5 6 
#
# 1 0.011921 -0.005066 -0.003240 0.000000 0.000000 0.000000
# 2 -0.005066 0.013156 -0.004111 0.000000 0.000000 0.000000
# 3 -0.003240 -0.004111 0.014414 0.000000 0.000000 0.000000
# 4 0.000000 0.000000 0.000000 0.033134 0.000000 0.000000
# 5 0.000000 0.000000 0.000000 0.000000 0.029515 0.000000
# 6 0.000000 0.000000 0.000000 0.000000 0.000000 0.045855
#
#
# Mechanical properties :
#
#
# Convention : Reuss Voigt Hill
#
# Bulk Modulus (GPa) = 68.21626 70.26235 69.23931
# Shear Modulus (GPa) = 28.13492 28.94370 28.53931
#
# Velocity S-wave (km/s) = 3.97736 4.03412 4.00584
# Velocity P-wave (km/s) = 7.71028 7.82338 7.76703
#
# Compressibility (1/GPa) = 0.01465926
#
# Stress axis : x y z
#
# Youngs Moduli (GPa) = 83.88331 76.00833 69.37679
#
# Poissons Ratio (x) = 0.38503 0.22475
# Poissons Ratio (y) = 0.42492 0.28521
# Poissons Ratio (z) = 0.27175 0.31247
#
# Static dielectric constant tensor:
#      x y z
#    x 1.618330 0.000000 0.000000 
#    y 0.000000 1.569830 0.000000 
#    z 0.000000 0.000000 1.592600 
# 
# From -- ./inp_files/8680.got.cif
#   From: 2010.05.17/outbox.cif.g08.bks.cpg/sg57_5_cif.got.tgz:8680.got - 2010.06.03 13:58:18.
