data_PCOD9436660
_publ_section_title
;
Structure prediction by ZEFSAII (Michael W. Deem and Ramdas Pophale) SiO2 
 PCOD9436660
Probable space group: P B C M
;
_chemical_formula_sum "Si O2"
_cell_formula_units_Z 64
_cell_length_a 19.437233
_cell_length_b 23.585831
_cell_length_c 8.857541
_cell_angle_alpha 90.000000
_cell_angle_beta 90.000000
_cell_angle_gamma 90.000000
_cell_volume 4060.680261
_symmetry_space_group_name_H-M "P B C M"
_symmetry_group_IT_number 57
_symmetry_cell_setting 'orthorhombic'
loop_
_space_group_symop_operation_xyz
x,y,z
-x,-y,1/2+z
x,1/2-y,-z
-x,1/2+y,1/2-z
-x,-y,-z
x,y,1/2-z
-x,1/2+y,z
x,1/2-y,1/2+z
loop_
_atom_site_type_symbol
_atom_site_label
_atom_site_fract_x
_atom_site_fract_y
_atom_site_fract_z
Si Si1 0.395287 0.973610 0.069682
Si Si2 0.893032 0.018121 0.929918
Si Si3 0.026959 0.411746 0.070240
Si Si4 0.892276 0.687823 0.429802
Si Si5 0.478763 0.088843 0.430373
Si Si6 0.609880 0.687771 0.569113
Si Si7 0.242956 0.131616 0.569307
Si Si8 0.749620 0.497466 0.569448
O O1 0.392826 0.967476 0.250000
O O2 0.428360 0.035507 0.035037
O O3 0.447749 0.928343 0.999032
O O4 0.319759 0.972025 0.999418
O O5 0.888308 0.009432 0.750000
O O6 0.949218 0.067209 0.958105
O O7 0.818517 0.028783 0.999364
O O8 0.924179 0.961491 0.005766
O O9 0.037667 0.407582 0.250000
O O10 0.048616 0.353816 0.991516
O O11 0.898235 0.750000 0.500000
O O12 0.893977 0.690712 0.250000
O O13 0.820349 0.660195 0.483969
O O14 0.483387 0.094104 0.250000
O O15 0.445961 0.144580 0.502284
O O16 0.603029 0.750000 0.500000
O O17 0.603994 0.689794 0.750000
O O18 0.685447 0.662491 0.532217
O O19 0.231328 0.136615 0.750000
O O20 0.248564 0.064931 0.533116
O O21 0.749520 0.491907 0.750000
#
# Coordination Sequence:
#
# PCOD9436660 Si02
#       8
#     8   8   8   8   8   8   8   8
#     4  10  20  33  52  75 103 134 170 213 258 309
#     4  10  20  33  52  76 102 134 170 211 259 309
#     4  10  20  35  52  73 102 133 171 215 258 304
#     4  12  24  36  53  73 101 138 179 217 257 305
#     4  10  20  34  52  74 100 133 172 213 259 305
#     4  11  22  36  52  72 101 137 178 216 256 301
#     4  10  21  35  50  72 104 140 178 216 252 297
#     4  11  20  32  52  77 107 139 171 211 256 307
#
# _framework density 15.760904999999999
#
# number of rings (size 3 to 8) (size 9 to 14) (size 15 to 20)
#    0.000    1.500    2.500    3.750    0.000    5.000 
#    0.000    0.000    0.000    0.000    0.000    0.875 
#    0.000    4.000    0.000    0.000    0.000    0.000 
#
# Total GULP energy -357561.662736 kJ/mol
# GULP energy per Si atom -5586.900980 kJ/mol
# Density = 1.572503 g / cm^3
# Si number density = 15.760905 Si / 1000 Ang^3
#
#
#
# Elastic Constant Matrix: (Units=GPa)
#
#
# Indices 1 2 3 4 5 6 
#
# 1 144.6993 60.1802 67.3667 0.0000 0.0000 0.0000
# 2 60.1802 86.7907 51.7192 0.0000 0.0000 0.0000
# 3 67.3667 51.7192 77.3484 0.0000 0.0000 0.0000
# 4 0.0000 0.0000 0.0000 25.8925 0.0000 0.0000
# 5 0.0000 0.0000 0.0000 0.0000 29.6416 0.0000
# 6 0.0000 0.0000 0.0000 0.0000 0.0000 18.3564
#
#
#
# Elastic Compliance Matrix: (Units=1/GPa)
#
#
# Indices 1 2 3 4 5 6 
#
# 1 0.012249 -0.003551 -0.008294 0.000000 0.000000 0.000000
# 2 -0.003551 0.020183 -0.010403 0.000000 0.000000 0.000000
# 3 -0.008294 -0.010403 0.027108 0.000000 0.000000 0.000000
# 4 0.000000 0.000000 0.000000 0.038621 0.000000 0.000000
# 5 0.000000 0.000000 0.000000 0.000000 0.033736 0.000000
# 6 0.000000 0.000000 0.000000 0.000000 0.000000 0.054477
#
#
# Mechanical properties :
#
#
# Convention : Reuss Voigt Hill
#
# Bulk Modulus (GPa) = 66.46823 74.15230 70.31026
# Shear Modulus (GPa) = 21.19669 23.41625 22.30647
#
# Velocity S-wave (km/s) = 3.67125 3.85868 3.76613
# Velocity P-wave (km/s) = 7.76113 8.18553 7.97616
#
# Compressibility (1/GPa) = 0.01504478
#
# Stress axis : x y z
#
# Youngs Moduli (GPa) = 81.63852 49.54569 36.88939
#
# Poissons Ratio (x) = 0.17594 0.30596
# Poissons Ratio (y) = 0.28990 0.38376
# Poissons Ratio (z) = 0.67711 0.51542
#
# Static dielectric constant tensor:
#      x y z
#    x 1.518080 0.000000 0.000000 
#    y 0.000000 1.499650 0.000000 
#    z 0.000000 0.000000 1.518550 
# 
# From -- ./inp_files/7221.got.cif
#   From: 2010.05.17/outbox.cif.g08.bks.cpg/sg57_4_cif.got.tgz:7221.got - 2010.06.03 13:58:18.
