data_PCOD9436560
_publ_section_title
;
Structure prediction by ZEFSAII (Michael W. Deem and Ramdas Pophale) SiO2 
 PCOD9436560
Probable space group: P B C M
;
_chemical_formula_sum "Si O2"
_cell_formula_units_Z 56
_cell_length_a 21.145287
_cell_length_b 18.955249
_cell_length_c 8.812885
_cell_angle_alpha 90.000000
_cell_angle_beta 90.000000
_cell_angle_gamma 90.000000
_cell_volume 3532.329277
_symmetry_space_group_name_H-M "P B C M"
_symmetry_group_IT_number 57
_symmetry_cell_setting 'orthorhombic'
loop_
_space_group_symop_operation_xyz
x,y,z
-x,-y,1/2+z
x,1/2-y,-z
-x,1/2+y,1/2-z
-x,-y,-z
x,y,1/2-z
-x,1/2+y,z
x,1/2-y,1/2+z
loop_
_atom_site_type_symbol
_atom_site_label
_atom_site_fract_x
_atom_site_fract_y
_atom_site_fract_z
Si Si1 0.434293 0.028995 0.568132
Si Si2 0.866910 0.085223 0.432288
Si Si3 0.514357 0.826181 0.067688
Si Si4 0.006715 0.827181 0.568196
Si Si5 0.062301 0.037486 0.067557
Si Si6 0.381051 0.896469 0.432377
Si Si7 0.247489 0.827471 0.432214
O O1 0.435718 0.024012 0.750000
O O2 0.435931 0.111801 0.526748
O O3 0.500000 0.000000 0.500000
O O4 0.383218 0.974744 0.503036
O O5 0.864378 0.082874 0.250000
O O6 0.927176 0.134697 0.476370
O O7 0.804646 0.120016 0.500618
O O8 0.880778 0.007238 0.497201
O O9 0.513250 0.821001 0.250000
O O10 0.444328 0.853841 0.019411
O O11 0.527630 0.750000 0.000000
O O12 0.001535 0.750000 0.500000
O O13 0.007908 0.821775 0.750000
O O14 0.949496 0.880610 0.527700
O O15 0.062687 0.031160 0.250000
O O16 0.000000 0.000000 0.000000
O O17 0.384156 0.903338 0.250000
O O18 0.317643 0.854908 0.472577
O O19 0.237288 0.750000 0.500000
O O20 0.242299 0.825010 0.250000
#
# Coordination Sequence:
#
# PCOD9436560 Si02
#       7
#     8   8   8   8   8   8   8
#     4   9  17  29  45  65  89 117 151 188 227 271
#     4  10  20  33  47  66  92 125 162 194 228 273
#     4   9  17  28  43  66  92 117 147 184 224 269
#     4   9  18  29  44  67  93 119 149 186 228 273
#     4   9  17  30  46  66  91 120 154 192 233 277
#     4   9  19  33  46  64  91 122 157 190 224 268
#     4  11  22  34  48  68  95 126 159 194 228 269
#
# _framework density 15.853560999999999
#
# number of rings (size 3 to 8) (size 9 to 14) (size 15 to 20)
#    0.000    2.571    0.000    4.286    0.000    8.571 
#    0.000    0.000    0.000    0.000    0.000    1.000 
#    0.000    6.857    0.000    0.000    0.000    0.000 
#
# Total GULP energy -311954.288255 kJ/mol
# GULP energy per Si atom -5570.612290 kJ/mol
# Density = 1.581748 g / cm^3
# Si number density = 15.853561 Si / 1000 Ang^3
#
#
#
# Elastic Constant Matrix: (Units=GPa)
#
#
# Indices 1 2 3 4 5 6 
#
# 1 14.3295 -7.0804 3.8057 0.0000 0.0000 0.0000
# 2 -7.0804 76.5705 12.0300 0.0000 0.0000 0.0000
# 3 3.8057 12.0300 23.0526 0.0000 0.0000 0.0000
# 4 0.0000 0.0000 0.0000 33.1165 0.0000 0.0000
# 5 0.0000 0.0000 0.0000 0.0000 20.6172 0.0000
# 6 0.0000 0.0000 0.0000 0.0000 0.0000 28.1685
#
#
#
# Elastic Compliance Matrix: (Units=1/GPa)
#
#
# Indices 1 2 3 4 5 6 
#
# 1 0.079797 0.010292 -0.018545 0.000000 0.000000 0.000000
# 2 0.010292 0.015554 -0.009816 0.000000 0.000000 0.000000
# 3 -0.018545 -0.009816 0.051563 0.000000 0.000000 0.000000
# 4 0.000000 0.000000 0.000000 0.030196 0.000000 0.000000
# 5 0.000000 0.000000 0.000000 0.000000 0.048503 0.000000
# 6 0.000000 0.000000 0.000000 0.000000 0.000000 0.035501
#
#
# Mechanical properties :
#
#
# Convention : Reuss Voigt Hill
#
# Bulk Modulus (GPa) = 9.02713 14.60704 11.81709
# Shear Modulus (GPa) = 14.96217 23.39358 19.17787
#
# Velocity S-wave (km/s) = 3.07542 3.84553 3.48183
# Velocity P-wave (km/s) = 4.27988 5.38063 4.86151
#
# Compressibility (1/GPa) = 0.11077716
#
# Stress axis : x y z
#
# Youngs Moduli (GPa) = 12.53182 64.29320 19.39374
#
# Poissons Ratio (x) = -0.66172 0.35965
# Poissons Ratio (y) = -0.12898 0.19037
# Poissons Ratio (z) = 0.23240 0.63109
#
# Static dielectric constant tensor:
#      x y z
#    x 1.536290 0.000000 0.000000 
#    y 0.000000 1.554400 0.000000 
#    z 0.000000 0.000000 1.524900 
# 
# From -- ./inp_files/8314.got.cif
#   From: 2010.05.17/outbox.cif.g08.bks.cpg/sg57_5_cif.got.tgz:8314.got - 2010.06.03 13:58:18.
