data_PCOD9436868
_publ_section_title
;
Structure prediction by ZEFSAII (Michael W. Deem and Ramdas Pophale) SiO2 
 PCOD9436868
Probable space group: P B C M
;
_chemical_formula_sum "Si O2"
_cell_formula_units_Z 64
_cell_length_a 11.129991
_cell_length_b 34.867991
_cell_length_c 8.631106
_cell_angle_alpha 90.000000
_cell_angle_beta 90.000000
_cell_angle_gamma 90.000000
_cell_volume 3349.563293
_symmetry_space_group_name_H-M "P B C M"
_symmetry_group_IT_number 57
_symmetry_cell_setting 'orthorhombic'
loop_
_space_group_symop_operation_xyz
x,y,z
-x,-y,1/2+z
x,1/2-y,-z
-x,1/2+y,1/2-z
-x,-y,-z
x,y,1/2-z
-x,1/2+y,z
x,1/2-y,1/2+z
loop_
_atom_site_type_symbol
_atom_site_label
_atom_site_fract_x
_atom_site_fract_y
_atom_site_fract_z
Si Si1 0.161934 0.868720 0.565041
Si Si2 0.333269 0.131060 0.936521
Si Si3 0.195019 0.479803 0.935533
Si Si4 0.271682 0.791498 0.064477
Si Si5 0.550434 0.790794 0.436249
Si Si6 0.712297 0.053669 0.436851
Si Si7 0.553967 0.942322 0.935776
Si Si8 0.922017 0.593532 0.935204
O O1 0.162509 0.865031 0.750000
O O2 0.196949 0.827965 0.493154
O O3 0.255046 0.902703 0.521856
O O4 0.034576 0.885190 0.509385
O O5 0.345582 0.128330 0.750000
O O6 0.367221 0.173806 0.985583
O O7 0.199299 0.117129 0.975855
O O8 0.424221 0.101302 0.014078
O O9 0.188777 0.478308 0.750000
O O10 0.326885 0.464437 0.990453
O O11 0.194373 0.523404 0.992645
O O12 0.100483 0.449697 0.004296
O O13 0.268047 0.790180 0.250000
O O14 0.411465 0.796852 0.014658
O O15 0.232065 0.750000 0.000000
O O16 0.591107 0.750000 0.500000
O O17 0.551142 0.789364 0.250000
O O18 0.716511 0.050302 0.250000
O O19 0.576626 0.044842 0.493086
O O20 0.552419 0.945114 0.750000
O O21 0.934545 0.592687 0.750000
#
# Coordination Sequence:
#
# PCOD9436868 Si02
#       8
#     8   8   8   8   8   8   8   8
#     4  11  23  38  56  79 107 140 183 227 263 308
#     4   9  18  33  53  76 102 135 174 215 261 314
#     4  10  20  34  54  79 106 137 176 221 267 319
#     4  10  20  36  59  85 113 142 171 208 258 313
#     4   9  18  32  52  81 112 137 165 204 254 314
#     4  10  21  35  52  77 109 142 175 216 267 321
#     4   9  18  32  51  77 106 135 170 214 266 322
#     4  10  21  38  57  74 101 142 183 224 269 315
#
# _framework density 19.106967999999998
#
# number of rings (size 3 to 8) (size 9 to 14) (size 15 to 20)
#    0.000    2.250    0.000    2.625    0.000    4.000 
#    0.000    0.625    0.000    1.500    0.000    0.000 
#    0.000    0.000    0.000    0.000    0.000    0.000 
#
# Total GULP energy -357275.863073 kJ/mol
# GULP energy per Si atom -5582.435361 kJ/mol
# Density = 1.906348 g / cm^3
# Si number density = 19.106968 Si / 1000 Ang^3
#
#
#
# Elastic Constant Matrix: (Units=GPa)
#
#
# Indices 1 2 3 4 5 6 
#
# 1 55.0879 18.7671 14.3434 0.0000 0.0000 0.0000
# 2 18.7671 107.3222 25.3955 0.0000 0.0000 0.0000
# 3 14.3434 25.3955 18.0321 0.0000 0.0000 0.0000
# 4 0.0000 0.0000 0.0000 32.9792 0.0000 0.0000
# 5 0.0000 0.0000 0.0000 0.0000 20.2881 0.0000
# 6 0.0000 0.0000 0.0000 0.0000 0.0000 22.1851
#
#
#
# Elastic Compliance Matrix: (Units=1/GPa)
#
#
# Indices 1 2 3 4 5 6 
#
# 1 0.022910 0.000459 -0.018869 0.000000 0.000000 0.000000
# 2 0.000459 0.013984 -0.020060 0.000000 0.000000 0.000000
# 3 -0.018869 -0.020060 0.098717 0.000000 0.000000 0.000000
# 4 0.000000 0.000000 0.000000 0.030322 0.000000 0.000000
# 5 0.000000 0.000000 0.000000 0.000000 0.049290 0.000000
# 6 0.000000 0.000000 0.000000 0.000000 0.000000 0.045075
#
#
# Mechanical properties :
#
#
# Convention : Reuss Voigt Hill
#
# Bulk Modulus (GPa) = 17.04437 33.05049 25.04743
# Shear Modulus (GPa) = 14.01365 23.21956 18.61661
#
# Velocity S-wave (km/s) = 2.71113 3.48981 3.12482
# Velocity P-wave (km/s) = 4.32899 5.79427 5.11438
#
# Compressibility (1/GPa) = 0.05867038
#
# Stress axis : x y z
#
# Youngs Moduli (GPa) = 43.64996 71.50941 10.12999
#
# Poissons Ratio (x) = -0.03282 0.19115
# Poissons Ratio (y) = -0.02003 0.20320
# Poissons Ratio (z) = 0.82365 1.43445
#
# Static dielectric constant tensor:
#      x y z
#    x 1.677960 0.000000 0.000000 
#    y 0.000000 1.658610 0.000000 
#    z 0.000000 0.000000 1.633920 
# 
# From -- ./inp_files/3907.got.cif
#   From: 2010.05.17/outbox.cif.g08.bks.cpg/sg57_2_cif.got.tgz:3907.got - 2010.06.03 13:58:18.
