data_PCOD9436501
_publ_section_title
;
Structure prediction by ZEFSAII (Michael W. Deem and Ramdas Pophale) SiO2 
 PCOD9436501
Probable space group: P B C M
;
_chemical_formula_sum "Si O2"
_cell_formula_units_Z 56
_cell_length_a 20.331854
_cell_length_b 13.415907
_cell_length_c 9.079536
_cell_angle_alpha 90.000000
_cell_angle_beta 90.000000
_cell_angle_gamma 90.000000
_cell_volume 2476.627417
_symmetry_space_group_name_H-M "P B C M"
_symmetry_group_IT_number 57
_symmetry_cell_setting 'orthorhombic'
loop_
_space_group_symop_operation_xyz
x,y,z
-x,-y,1/2+z
x,1/2-y,-z
-x,1/2+y,1/2-z
-x,-y,-z
x,y,1/2-z
-x,1/2+y,z
x,1/2-y,1/2+z
loop_
_atom_site_type_symbol
_atom_site_label
_atom_site_fract_x
_atom_site_fract_y
_atom_site_fract_z
Si Si1 0.524079 0.400216 0.080485
Si Si2 0.183959 0.347855 0.577832
Si Si3 0.652509 0.422948 0.927464
Si Si4 0.376148 0.152533 0.583221
Si Si5 0.922387 0.384688 0.582664
Si Si6 0.947706 0.621937 0.914555
Si Si7 0.787434 0.076761 0.572415
O O1 0.543786 0.418440 0.250000
O O2 0.455966 0.340411 0.084963
O O3 0.500000 0.500000 0.000000
O O4 0.587778 0.367843 0.989038
O O5 0.211589 0.250000 0.500000
O O6 0.192870 0.337481 0.750000
O O7 0.107270 0.350221 0.532875
O O8 0.209791 0.457535 0.535625
O O9 0.655178 0.416998 0.750000
O O10 0.642440 0.541050 0.970064
O O11 0.719222 0.386307 0.003261
O O12 0.352635 0.250000 0.500000
O O13 0.352036 0.157295 0.750000
O O14 0.923114 0.343883 0.750000
O O15 0.938731 0.502651 0.596828
O O16 0.851382 0.376138 0.505587
O O17 0.980517 0.351959 0.473900
O O18 0.935380 0.662364 0.750000
O O19 0.790192 0.087618 0.750000
#
# Coordination Sequence:
#
# PCOD9436501 Si02
#       7
#     8   8   8   8   8   8   8
#     4   9  17  31  49  70  94 122 157 197 238 280
#     4  10  20  32  45  63  90 124 160 194 233 279
#     4  10  20  33  48  69  96 128 163 198 238 285
#     4   9  19  32  48  71  97 124 157 195 235 280
#     4   9  16  27  44  65  88 113 144 186 229 268
#     4   9  16  27  44  64  86 113 147 188 230 269
#     4  10  20  32  46  66  92 124 158 192 231 277
#
# _framework density 22.611395999999999
#
# number of rings (size 3 to 8) (size 9 to 14) (size 15 to 20)
#    0.000    2.571    0.000    3.429    0.000    9.143 
#    0.000    2.857    0.000    0.000    0.000    1.000 
#    0.000    2.286    0.000    0.000    0.000    0.000 
#
# Total GULP energy -312577.116579 kJ/mol
# GULP energy per Si atom -5581.734225 kJ/mol
# Density = 2.255993 g / cm^3
# Si number density = 22.611396 Si / 1000 Ang^3
#
#
#
# Elastic Constant Matrix: (Units=GPa)
#
#
# Indices 1 2 3 4 5 6 
#
# 1 170.8409 -17.3783 34.0649 0.0000 0.0000 0.0000
# 2 -17.3783 49.6130 7.5835 0.0000 0.0000 0.0000
# 3 34.0649 7.5835 67.6323 0.0000 0.0000 0.0000
# 4 0.0000 0.0000 0.0000 18.8325 0.0000 0.0000
# 5 0.0000 0.0000 0.0000 0.0000 22.3782 0.0000
# 6 0.0000 0.0000 0.0000 0.0000 0.0000 -9.8039
#
#
#
# Elastic Compliance Matrix: (Units=1/GPa)
#
#
# Indices 1 2 3 4 5 6 
#
# 1 0.006922 0.003009 -0.003824 0.000000 0.000000 0.000000
# 2 0.003009 0.021816 -0.003962 0.000000 0.000000 0.000000
# 3 -0.003824 -0.003962 0.017156 0.000000 0.000000 0.000000
# 4 0.000000 0.000000 0.000000 0.053100 0.000000 0.000000
# 5 0.000000 0.000000 0.000000 0.000000 0.044686 0.000000
# 6 0.000000 0.000000 0.000000 0.000000 0.000000 -0.102001
#
#
# Mechanical properties :
#
#
# Convention : Reuss Voigt Hill
#
# Bulk Modulus (GPa) = 27.51746 37.40294 32.46020
# Shear Modulus (GPa) = 78.93220 23.86911 51.40065
#
# Velocity S-wave (km/s) = 5.91472 3.25256 4.77300
# Velocity P-wave (km/s) = 7.67081 5.53923 6.69046
#
# Compressibility (1/GPa) = 0.03634056
#
# Stress axis : x y z
#
# Youngs Moduli (GPa) = 144.46807 45.83877 58.28851
#
# Poissons Ratio (x) = -0.13793 0.22289
# Poissons Ratio (y) = -0.43472 0.23092
# Poissons Ratio (z) = 0.55242 0.18160
#
# Static dielectric constant tensor:
#      x y z
#    x 1.835440 0.000000 0.000000 
#    y 0.000000 1.906510 0.000000 
#    z 0.000000 0.000000 1.781050 
# 
# From -- ./inp_files/6998.got.cif
#   From: 2010.05.17/outbox.cif.g08.bks.cpg/sg57_4_cif.got.tgz:6998.got - 2010.06.03 13:58:18.
