data_PCOD9436941
_publ_section_title
;
Structure prediction by ZEFSAII (Michael W. Deem and Ramdas Pophale) SiO2 
 PCOD9436941
Probable space group: P B C M
;
_chemical_formula_sum "Si O2"
_cell_formula_units_Z 48
_cell_length_a 14.082529
_cell_length_b 11.087556
_cell_length_c 13.497417
_cell_angle_alpha 90.000000
_cell_angle_beta 90.000000
_cell_angle_gamma 90.000000
_cell_volume 2107.497879
_symmetry_space_group_name_H-M "P B C M"
_symmetry_group_IT_number 57
_symmetry_cell_setting 'orthorhombic'
loop_
_space_group_symop_operation_xyz
x,y,z
-x,-y,1/2+z
x,1/2-y,-z
-x,1/2+y,1/2-z
-x,-y,-z
x,y,1/2-z
-x,1/2+y,z
x,1/2-y,1/2+z
loop_
_atom_site_type_symbol
_atom_site_label
_atom_site_fract_x
_atom_site_fract_y
_atom_site_fract_z
Si Si1 0.496920 0.873985 0.062779
Si Si2 0.098672 0.628995 0.546403
Si Si3 0.296976 0.945302 0.437810
Si Si4 0.300742 0.425453 0.363916
Si Si5 0.195493 0.315568 0.631899
Si Si6 0.994086 0.441108 0.860373
O O1 0.391647 0.888921 0.107102
O O2 0.591016 0.874755 0.129419
O O3 0.499220 0.750000 0.000000
O O4 0.500000 0.000000 0.000000
O O5 0.062728 0.750000 0.500000
O O6 0.205837 0.636533 0.580786
O O7 0.037951 0.575037 0.634335
O O8 0.084723 0.550754 0.445988
O O9 0.301912 0.966074 0.556892
O O10 0.268514 0.078454 0.399208
O O11 0.278650 0.457163 0.250000
O O12 0.230550 0.317135 0.400060
O O13 0.199890 0.309907 0.750000
O O14 0.087916 0.361271 0.611133
O O15 0.961892 0.409375 0.750000
#
# Coordination Sequence:
#
# PCOD9436941 Si02
#       6
#     8   8   8   8   8   8
#     4  10  20  36  56  78 107 146 186 230 282 334
#     4  10  21  36  56  82 110 146 188 229 282 346
#     4  10  20  35  55  78 113 147 182 230 286 339
#     4  10  20  34  55  83 110 143 189 235 279 330
#     4   9  18  34  57  82 109 146 190 232 278 329
#     4   9  20  37  56  81 112 146 187 234 281 335
#
# _framework density 22.775822000000002
#
# number of rings (size 3 to 8) (size 9 to 14) (size 15 to 20)
#    0.000    2.333    0.000    3.000    0.000    6.000 
#    0.000    6.667    0.000    8.000    0.000    0.000 
#    0.000    0.000    0.000    0.000    0.000    0.000 
#
# Total GULP energy -267366.475243 kJ/mol
# GULP energy per Si atom -5570.134901 kJ/mol
# Density = 2.272398 g / cm^3
# Si number density = 22.775822 Si / 1000 Ang^3
#
#
#
# Elastic Constant Matrix: (Units=GPa)
#
#
# Indices 1 2 3 4 5 6 
#
# 1 77.3126 -4.4900 0.3388 0.0000 0.0000 0.0000
# 2 -4.4900 66.6581 1.8592 0.0000 0.0000 0.0000
# 3 0.3388 1.8592 39.0497 0.0000 0.0000 0.0000
# 4 0.0000 0.0000 0.0000 15.5025 0.0000 0.0000
# 5 0.0000 0.0000 0.0000 0.0000 21.1077 0.0000
# 6 0.0000 0.0000 0.0000 0.0000 0.0000 228.5829
#
#
#
# Elastic Compliance Matrix: (Units=1/GPa)
#
#
# Indices 1 2 3 4 5 6 
#
# 1 0.012986 0.000879 -0.000155 0.000000 0.000000 0.000000
# 2 0.000879 0.015081 -0.000726 0.000000 0.000000 0.000000
# 3 -0.000155 -0.000726 0.025644 0.000000 0.000000 0.000000
# 4 0.000000 0.000000 0.000000 0.064506 0.000000 0.000000
# 5 0.000000 0.000000 0.000000 0.000000 0.047376 0.000000
# 6 0.000000 0.000000 0.000000 0.000000 0.000000 0.004375
#
#
# Mechanical properties :
#
#
# Convention : Reuss Voigt Hill
#
# Bulk Modulus (GPa) = 18.61866 19.82628 19.22247
# Shear Modulus (GPa) = 26.61359 65.39278 46.00318
#
# Velocity S-wave (km/s) = 3.42204 5.36412 4.49912
# Velocity P-wave (km/s) = 4.87917 6.86214 5.95379
#
# Compressibility (1/GPa) = 0.05370957
#
# Stress axis : x y z
#
# Youngs Moduli (GPa) = 77.00467 66.30694 38.99507
#
# Poissons Ratio (x) = -0.05829 0.00603
# Poissons Ratio (y) = -0.06769 0.02830
# Poissons Ratio (z) = 0.01190 0.04812
#
# Static dielectric constant tensor:
#      x y z
#    x 1.916450 0.000000 0.000000 
#    y 0.000000 2.106010 0.000000 
#    z 0.000000 0.000000 0.606050 
# 
# From -- ./inp_files/18424.got.cif
#   From: 2010.05.17/outbox.cif.g08.bks.cpg/sg57_10_cif.got.tgz:18424.got - 2010.06.03 13:58:18.
