data_PCOD9436912
_publ_section_title
;
Structure prediction by ZEFSAII (Michael W. Deem and Ramdas Pophale) SiO2 
 PCOD9436912
Probable space group: P B C M
;
_chemical_formula_sum "Si O2"
_cell_formula_units_Z 40
_cell_length_a 18.817013
_cell_length_b 5.132167
_cell_length_c 21.124205
_cell_angle_alpha 90.000000
_cell_angle_beta 90.000000
_cell_angle_gamma 90.000000
_cell_volume 2040.007848
_symmetry_space_group_name_H-M "P B C M"
_symmetry_group_IT_number 57
_symmetry_cell_setting 'orthorhombic'
loop_
_space_group_symop_operation_xyz
x,y,z
-x,-y,1/2+z
x,1/2-y,-z
-x,1/2+y,1/2-z
-x,-y,-z
x,y,1/2-z
-x,1/2+y,z
x,1/2-y,1/2+z
loop_
_atom_site_type_symbol
_atom_site_label
_atom_site_fract_x
_atom_site_fract_y
_atom_site_fract_z
Si Si1 0.959985 0.819758 0.673329
Si Si2 0.545689 0.832016 0.825377
Si Si3 0.823604 0.487225 0.821637
Si Si4 0.693504 0.677600 0.885417
Si Si5 0.762517 0.190015 0.568109
O O1 0.961984 0.831569 0.750000
O O2 0.884607 0.688997 0.658314
O O3 0.981118 0.107749 0.651813
O O4 0.560962 0.816725 0.750000
O O5 0.485182 0.617259 0.838940
O O6 0.616471 0.761461 0.863111
O O7 0.837911 0.395949 0.750000
O O8 0.747070 0.629174 0.826297
O O9 0.814304 0.260794 0.873482
O O10 0.699351 0.403759 0.922110
O O11 0.730896 0.904631 0.925328
O O12 0.795253 0.250000 0.500000
#
# Coordination Sequence:
#
# PCOD9436912 Si02
#       5
#     8   8   8   8   8
#     4   9  18  31  48  75 115 148 174 220 285 340
#     4  10  20  34  54  83 119 149 177 226 291 337
#     4   9  21  34  58  89 111 143 192 239 280 327
#     4  10  21  36  59  81 111 143 192 234 272 330
#     4  10  22  38  59  82 112 152 189 234 283 332
#
# _framework density 19.607766000000002
#
# number of rings (size 3 to 8) (size 9 to 14) (size 15 to 20)
#    1.200    1.200    0.000    2.400    2.800    1.600 
#    0.000    0.000    0.000   13.200    0.000    0.000 
#    0.000    0.000    0.000    0.000    0.000    0.000 
#
# Total GULP energy -222803.635708 kJ/mol
# GULP energy per Si atom -5570.090893 kJ/mol
# Density = 1.956314 g / cm^3
# Si number density = 19.607766 Si / 1000 Ang^3
#
#
#
# Elastic Constant Matrix: (Units=GPa)
#
#
# Indices 1 2 3 4 5 6 
#
# 1 53.9974 -18.3592 6.9214 0.0000 0.0000 0.0000
# 2 -18.3592 65.2700 1.4965 0.0000 0.0000 0.0000
# 3 6.9214 1.4965 61.5245 0.0000 0.0000 0.0000
# 4 0.0000 0.0000 0.0000 15.4979 0.0000 0.0000
# 5 0.0000 0.0000 0.0000 0.0000 3.4966 0.0000
# 6 0.0000 0.0000 0.0000 0.0000 0.0000 19.1014
#
#
#
# Elastic Compliance Matrix: (Units=1/GPa)
#
#
# Indices 1 2 3 4 5 6 
#
# 1 0.020852 0.005922 -0.002490 0.000000 0.000000 0.000000
# 2 0.005922 0.017012 -0.001080 0.000000 0.000000 0.000000
# 3 -0.002490 -0.001080 0.016560 0.000000 0.000000 0.000000
# 4 0.000000 0.000000 0.000000 0.064525 0.000000 0.000000
# 5 0.000000 0.000000 0.000000 0.000000 0.285995 0.000000
# 6 0.000000 0.000000 0.000000 0.000000 0.000000 0.052352
#
#
# Mechanical properties :
#
#
# Convention : Reuss Voigt Hill
#
# Bulk Modulus (GPa) = 16.91222 17.87880 17.39551
# Shear Modulus (GPa) = 10.58647 20.33471 15.46059
#
# Velocity S-wave (km/s) = 2.32612 3.22386 2.81106
# Velocity P-wave (km/s) = 3.98227 4.79538 4.40761
#
# Compressibility (1/GPa) = 0.05912885
#
# Stress axis : x y z
#
# Youngs Moduli (GPa) = 47.95655 58.78338 60.38624
#
# Poissons Ratio (x) = -0.34814 0.15036
# Poissons Ratio (y) = -0.28402 0.06522
# Poissons Ratio (z) = 0.11941 0.06349
#
# Static dielectric constant tensor:
#      x y z
#    x 1.685610 0.000000 0.000000 
#    y 0.000000 1.707030 0.000000 
#    z 0.000000 0.000000 1.695410 
# 
# From -- ./inp_files/22985.got.cif
#   From: 2010.05.17/outbox.cif.g08.bks.cpg/sg57_12_cif.got.tgz:22985.got - 2010.06.03 13:58:18.
