data_PCOD9436325
_publ_section_title
;
Structure prediction by ZEFSAII (Michael W. Deem and Ramdas Pophale) SiO2 
 PCOD9436325
Probable space group: P B C M
;
_chemical_formula_sum "Si O2"
_cell_formula_units_Z 48
_cell_length_a 15.290535
_cell_length_b 10.450694
_cell_length_c 16.733310
_cell_angle_alpha 90.000000
_cell_angle_beta 90.000000
_cell_angle_gamma 90.000000
_cell_volume 2673.927758
_symmetry_space_group_name_H-M "P B C M"
_symmetry_group_IT_number 57
_symmetry_cell_setting 'orthorhombic'
loop_
_space_group_symop_operation_xyz
x,y,z
-x,-y,1/2+z
x,1/2-y,-z
-x,1/2+y,1/2-z
-x,-y,-z
x,y,1/2-z
-x,1/2+y,z
x,1/2-y,1/2+z
loop_
_atom_site_type_symbol
_atom_site_label
_atom_site_fract_x
_atom_site_fract_y
_atom_site_fract_z
Si Si1 0.611975 0.377295 0.446694
Si Si2 0.740242 0.714699 0.842316
Si Si3 0.066364 0.290922 0.155926
Si Si4 0.234371 0.514845 0.844702
Si Si5 0.417325 0.125589 0.556471
Si Si6 0.041627 0.016743 0.412192
O O1 0.623747 0.250000 0.500000
O O2 0.691260 0.398618 0.385424
O O3 0.515093 0.375499 0.407309
O O4 0.603362 0.499086 0.505635
O O5 0.742172 0.678875 0.750000
O O6 0.835934 0.684137 0.877161
O O7 0.731600 0.868220 0.848354
O O8 0.660530 0.644890 0.882557
O O9 0.073939 0.259778 0.250000
O O10 0.029924 0.164213 0.113599
O O11 0.009541 0.415883 0.142636
O O12 0.218473 0.543415 0.750000
O O13 0.144175 0.514982 0.895652
O O14 0.415771 0.250000 0.500000
O O15 0.000000 0.000000 0.500000
#
# Coordination Sequence:
#
# PCOD9436325 Si02
#       6
#     8   8   8   8   8   8
#     4  10  22  36  57  88 118 150 191 240 290 342
#     4   9  19  35  61  85 108 150 200 237 280 347
#     4  10  21  39  59  84 117 152 190 240 295 348
#     4  10  21  40  60  82 118 161 193 232 297 358
#     4  10  19  36  60  84 114 150 191 242 288 338
#     4  11  23  37  60  89 114 149 197 243 288 348
#
# _framework density 17.951122000000002
#
# number of rings (size 3 to 8) (size 9 to 14) (size 15 to 20)
#    0.000    2.000    1.667    3.000    2.333    2.000 
#    0.000    0.833    0.000    0.000    0.000    0.000 
#    0.000    0.000    0.000    0.000    0.000    0.000 
#
# Total GULP energy -267598.270703 kJ/mol
# GULP energy per Si atom -5574.963973 kJ/mol
# Density = 1.791026 g / cm^3
# Si number density = 17.951122 Si / 1000 Ang^3
#
#
#
# Elastic Constant Matrix: (Units=GPa)
#
#
# Indices 1 2 3 4 5 6 
#
# 1 113.5852 51.4064 52.5444 0.0000 0.0000 0.0000
# 2 51.4064 76.9950 17.8460 0.0000 0.0000 0.0000
# 3 52.5444 17.8460 69.6512 0.0000 0.0000 0.0000
# 4 0.0000 0.0000 0.0000 26.8771 0.0000 0.0000
# 5 0.0000 0.0000 0.0000 0.0000 33.4945 0.0000
# 6 0.0000 0.0000 0.0000 0.0000 0.0000 32.9070
#
#
#
# Elastic Compliance Matrix: (Units=1/GPa)
#
#
# Indices 1 2 3 4 5 6 
#
# 1 0.018496 -0.009690 -0.011470 0.000000 0.000000 0.000000
# 2 -0.009690 0.018885 0.002472 0.000000 0.000000 0.000000
# 3 -0.011470 0.002472 0.022377 0.000000 0.000000 0.000000
# 4 0.000000 0.000000 0.000000 0.037206 0.000000 0.000000
# 5 0.000000 0.000000 0.000000 0.000000 0.029856 0.000000
# 6 0.000000 0.000000 0.000000 0.000000 0.000000 0.030389
#
#
# Mechanical properties :
#
#
# Convention : Reuss Voigt Hill
#
# Bulk Modulus (GPa) = 44.68311 55.98055 50.33183
# Shear Modulus (GPa) = 24.74690 27.88471 26.31580
#
# Velocity S-wave (km/s) = 3.71694 3.94556 3.83295
# Velocity P-wave (km/s) = 6.58532 7.21174 6.90564
#
# Compressibility (1/GPa) = 0.02237982
#
# Stress axis : x y z
#
# Youngs Moduli (GPa) = 54.06680 52.95283 44.68874
#
# Poissons Ratio (x) = 0.51312 0.51259
# Poissons Ratio (y) = 0.52392 -0.11045
# Poissons Ratio (z) = 0.62016 -0.13088
#
# Static dielectric constant tensor:
#      x y z
#    x 1.644620 0.000000 0.000000 
#    y 0.000000 1.596000 0.000000 
#    z 0.000000 0.000000 1.619680 
# 
# From -- ./inp_files/18381.got.cif
#   From: 2010.05.17/outbox.cif.g08.bks.cpg/sg57_10_cif.got.tgz:18381.got - 2010.06.03 13:58:18.
