data_PCOD9436756
_publ_section_title
;
Structure prediction by ZEFSAII (Michael W. Deem and Ramdas Pophale) SiO2 
 PCOD9436756
Probable space group: P B C M
;
_chemical_formula_sum "Si O2"
_cell_formula_units_Z 64
_cell_length_a 16.044492
_cell_length_b 26.007158
_cell_length_c 8.665587
_cell_angle_alpha 90.000000
_cell_angle_beta 90.000000
_cell_angle_gamma 90.000000
_cell_volume 3615.903686
_symmetry_space_group_name_H-M "P B C M"
_symmetry_group_IT_number 57
_symmetry_cell_setting 'orthorhombic'
loop_
_space_group_symop_operation_xyz
x,y,z
-x,-y,1/2+z
x,1/2-y,-z
-x,1/2+y,1/2-z
-x,-y,-z
x,y,1/2-z
-x,1/2+y,z
x,1/2-y,1/2+z
loop_
_atom_site_type_symbol
_atom_site_label
_atom_site_fract_x
_atom_site_fract_y
_atom_site_fract_z
Si Si1 0.802224 0.540189 0.067923
Si Si2 0.380673 0.693765 0.933699
Si Si3 0.882935 0.059411 0.432359
Si Si4 0.019735 0.802746 0.930461
Si Si5 0.793748 0.163514 0.430936
Si Si6 0.949469 0.595516 0.929930
Si Si7 0.452013 0.582496 0.564267
Si Si8 0.386212 0.472236 0.564606
O O1 0.807086 0.528371 0.250000
O O2 0.705783 0.548052 0.028916
O O3 0.836571 0.492476 0.971185
O O4 0.866236 0.584857 0.025632
O O5 0.391277 0.696236 0.750000
O O6 0.424877 0.639937 0.989696
O O7 0.406546 0.750000 0.000000
O O8 0.283272 0.685353 0.974760
O O9 0.898105 0.066215 0.250000
O O10 0.823239 0.106577 0.481829
O O11 0.972107 0.061095 0.515759
O O12 0.999766 0.809653 0.750000
O O13 0.120237 0.805297 0.942742
O O14 0.989002 0.750000 0.000000
O O15 0.982176 0.848164 0.030761
O O16 0.769460 0.161850 0.250000
O O17 0.934020 0.587566 0.750000
O O18 0.449030 0.584529 0.750000
O O19 0.395472 0.532708 0.516549
O O20 0.542865 0.563149 0.510625
O O21 0.398199 0.471018 0.750000
#
# Coordination Sequence:
#
# PCOD9436756 Si02
#       8
#     8   8   8   8   8   8   8   8
#     4  11  21  34  52  76 106 136 169 210 257 309
#     4  11  22  34  51  76 108 143 176 211 254 307
#     4  10  20  34  51  74 105 141 177 212 253 302
#     4  10  20  35  53  74 100 133 174 217 261 305
#     4   9  19  33  50  74 104 137 174 212 249 296
#     4  11  22  35  51  73 102 138 176 214 258 303
#     4   9  19  36  55  78 106 134 168 210 257 310
#     4   9  19  35  57  81 103 132 168 211 262 311
#
# _framework density 17.699586
#
# number of rings (size 3 to 8) (size 9 to 14) (size 15 to 20)
#    0.000    2.000    0.000    4.875    0.000    7.000 
#    0.000    2.500    0.000    0.750    0.000    1.750 
#    0.000    0.000    0.000    0.000    0.000    0.000 
#
# Total GULP energy -356953.142944 kJ/mol
# GULP energy per Si atom -5577.392859 kJ/mol
# Density = 1.765930 g / cm^3
# Si number density = 17.699586 Si / 1000 Ang^3
#
#
#
# Elastic Constant Matrix: (Units=GPa)
#
#
# Indices 1 2 3 4 5 6 
#
# 1 70.5232 28.4708 8.8037 0.0000 0.0000 0.0000
# 2 28.4708 90.8610 15.2832 0.0000 0.0000 0.0000
# 3 8.8037 15.2832 25.5268 0.0000 0.0000 0.0000
# 4 0.0000 0.0000 0.0000 25.7048 0.0000 0.0000
# 5 0.0000 0.0000 0.0000 0.0000 24.9768 0.0000
# 6 0.0000 0.0000 0.0000 0.0000 0.0000 16.1120
#
#
#
# Elastic Compliance Matrix: (Units=1/GPa)
#
#
# Indices 1 2 3 4 5 6 
#
# 1 0.016420 -0.004662 -0.002872 0.000000 0.000000 0.000000
# 2 -0.004662 0.013562 -0.006512 0.000000 0.000000 0.000000
# 3 -0.002872 -0.006512 0.044064 0.000000 0.000000 0.000000
# 4 0.000000 0.000000 0.000000 0.038903 0.000000 0.000000
# 5 0.000000 0.000000 0.000000 0.000000 0.040037 0.000000
# 6 0.000000 0.000000 0.000000 0.000000 0.000000 0.062066
#
#
# Mechanical properties :
#
#
# Convention : Reuss Voigt Hill
#
# Bulk Modulus (GPa) = 21.76068 32.44738 27.10403
# Shear Modulus (GPa) = 19.34522 22.31561 20.83042
#
# Velocity S-wave (km/s) = 3.30961 3.55462 3.43430
# Velocity P-wave (km/s) = 5.18901 5.93458 5.57427
#
# Compressibility (1/GPa) = 0.04595446
#
# Stress axis : x y z
#
# Youngs Moduli (GPa) = 60.89986 73.73535 22.69448
#
# Poissons Ratio (x) = 0.34377 0.06517
# Poissons Ratio (y) = 0.28393 0.14778
# Poissons Ratio (z) = 0.17489 0.48015
#
# Static dielectric constant tensor:
#      x y z
#    x 1.586350 0.000000 0.000000 
#    y 0.000000 1.533140 0.000000 
#    z 0.000000 0.000000 1.599940 
# 
# From -- ./inp_files/5690.got.cif
#   From: 2010.05.17/outbox.cif.g08.bks.cpg/sg57_3_cif.got.tgz:5690.got - 2010.06.03 13:58:18.
