data_PCOD9436293
_publ_section_title
;
Structure prediction by ZEFSAII (Michael W. Deem and Ramdas Pophale) SiO2 
 PCOD9436293
Probable space group: P B C M
;
_chemical_formula_sum "Si O2"
_cell_formula_units_Z 52
_cell_length_a 15.480838
_cell_length_b 8.050754
_cell_length_c 19.810577
_cell_angle_alpha 90.000000
_cell_angle_beta 90.000000
_cell_angle_gamma 90.000000
_cell_volume 2469.040122
_symmetry_space_group_name_H-M "P B C M"
_symmetry_group_IT_number 57
_symmetry_cell_setting 'orthorhombic'
loop_
_space_group_symop_operation_xyz
x,y,z
-x,-y,1/2+z
x,1/2-y,-z
-x,1/2+y,1/2-z
-x,-y,-z
x,y,1/2-z
-x,1/2+y,z
x,1/2-y,1/2+z
loop_
_atom_site_type_symbol
_atom_site_label
_atom_site_fract_x
_atom_site_fract_y
_atom_site_fract_z
Si Si1 0.735283 0.579409 0.174407
Si Si2 0.391572 0.013898 0.935337
Si Si3 0.781375 0.568619 0.624128
Si Si4 0.089770 0.504213 0.607336
Si Si5 0.125157 0.250000 0.500000
Si Si6 0.064644 0.663832 0.327116
Si Si7 0.579774 0.908249 0.584643
O O1 0.746297 0.519026 0.250000
O O2 0.750311 0.778801 0.170661
O O3 0.810165 0.508415 0.127112
O O4 0.641660 0.538065 0.144935
O O5 0.302481 0.965355 0.899502
O O6 0.401305 0.213080 0.925953
O O7 0.477889 0.932049 0.906165
O O8 0.393700 0.993108 0.016401
O O9 0.818061 0.657375 0.556612
O O10 0.858246 0.464899 0.657498
O O11 0.076763 0.398066 0.539484
O O12 0.067684 0.695978 0.615081
O O13 0.028528 0.419597 0.663242
O O14 0.073296 0.725662 0.250000
#
# Coordination Sequence:
#
# PCOD9436293 Si02
#       7
#     8   8   8   8   4   8   8
#     4  10  19  36  57  81 111 154 195 238 293 352
#     4   9  17  34  54  80 108 146 189 238 294 339
#     4  10  21  37  61  84 119 154 196 249 295 355
#     4  11  24  40  63  85 119 154 194 248 295 356
#     4  10  22  42  62  92 118 154 200 248 310 348
#     4  12  25  41  60  88 118 160 202 239 295 364
#     4   9  18  32  55  78 109 144 188 238 289 352
#
# _framework density 21.060817
#
# number of rings (size 3 to 8) (size 9 to 14) (size 15 to 20)
#    0.000    1.846    0.000    6.462    0.000    4.308 
#    0.000    6.923    0.000    0.000    0.000    0.000 
#    0.000    0.000    0.000    0.000    0.000    0.000 
#
# Total GULP energy -290263.297091 kJ/mol
# GULP energy per Si atom -5581.986483 kJ/mol
# Density = 2.101288 g / cm^3
# Si number density = 21.060817 Si / 1000 Ang^3
#
#
#
# Elastic Constant Matrix: (Units=GPa)
#
#
# Indices 1 2 3 4 5 6 
#
# 1 56.8404 10.8693 24.3943 0.0000 0.0000 0.0000
# 2 10.8693 27.8067 4.1113 0.0000 0.0000 0.0000
# 3 24.3943 4.1113 64.5081 0.0000 0.0000 0.0000
# 4 0.0000 0.0000 0.0000 21.8064 0.0000 0.0000
# 5 0.0000 0.0000 0.0000 0.0000 4.0302 0.0000
# 6 0.0000 0.0000 0.0000 0.0000 0.0000 35.3563
#
#
#
# Elastic Compliance Matrix: (Units=1/GPa)
#
#
# Indices 1 2 3 4 5 6 
#
# 1 0.022489 -0.007605 -0.008020 0.000000 0.000000 0.000000
# 2 -0.007605 0.038876 0.000398 0.000000 0.000000 0.000000
# 3 -0.008020 0.000398 0.018509 0.000000 0.000000 0.000000
# 4 0.000000 0.000000 0.000000 0.045858 0.000000 0.000000
# 5 0.000000 0.000000 0.000000 0.000000 0.248124 0.000000
# 6 0.000000 0.000000 0.000000 0.000000 0.000000 0.028283
#
#
# Mechanical properties :
#
#
# Convention : Reuss Voigt Hill
#
# Bulk Modulus (GPa) = 20.23403 25.32278 22.77841
# Shear Modulus (GPa) = 11.13418 19.55729 15.34574
#
# Velocity S-wave (km/s) = 2.30177 3.05062 2.70226
# Velocity P-wave (km/s) = 4.08565 4.94551 4.53600
#
# Compressibility (1/GPa) = 0.04942168
#
# Stress axis : x y z
#
# Youngs Moduli (GPa) = 44.46564 25.72259 54.02682
#
# Poissons Ratio (x) = 0.19562 0.43329
# Poissons Ratio (y) = 0.33816 -0.02151
# Poissons Ratio (z) = 0.35661 -0.01024
#
# Static dielectric constant tensor:
#      x y z
#    x 1.749840 0.000000 0.000000 
#    y 0.000000 1.791510 0.000000 
#    z 0.000000 0.000000 1.732510 
# 
# From -- ./inp_files/25297.got.cif
#   From: 2010.05.17/outbox.cif.g08.bks.cpg/sg57_13_cif.got.tgz:25297.got - 2010.06.03 13:58:18.
