data_PCOD9436443
_publ_section_title
;
Structure prediction by ZEFSAII (Michael W. Deem and Ramdas Pophale) SiO2 
 PCOD9436443
Probable space group: P B C M
;
_chemical_formula_sum "Si O2"
_cell_formula_units_Z 32
_cell_length_a 16.299946
_cell_length_b 17.096451
_cell_length_c 5.356053
_cell_angle_alpha 90.000000
_cell_angle_beta 90.000000
_cell_angle_gamma 90.000000
_cell_volume 1492.577867
_symmetry_space_group_name_H-M "P B C M"
_symmetry_group_IT_number 57
_symmetry_cell_setting 'orthorhombic'
loop_
_space_group_symop_operation_xyz
x,y,z
-x,-y,1/2+z
x,1/2-y,-z
-x,1/2+y,1/2-z
-x,-y,-z
x,y,1/2-z
-x,1/2+y,z
x,1/2-y,1/2+z
loop_
_atom_site_type_symbol
_atom_site_label
_atom_site_fract_x
_atom_site_fract_y
_atom_site_fract_z
Si Si1 0.509267 0.274805 0.250000
Si Si2 0.918665 0.799644 0.750000
Si Si3 0.726208 0.700399 0.250000
Si Si4 0.536059 0.460042 0.250000
Si Si5 0.219185 0.960034 0.750000
Si Si6 0.711728 0.971416 0.750000
Si Si7 0.974220 0.046097 0.250000
Si Si8 0.305943 0.792846 0.750000
O O1 0.464962 0.250000 0.500000
O O2 0.522149 0.367168 0.250000
O O3 0.595039 0.223722 0.250000
O O4 0.932805 0.750000 0.500000
O O5 0.822976 0.823441 0.750000
O O6 0.976853 0.873497 0.750000
O O7 0.714056 0.750000 0.500000
O O8 0.680709 0.617675 0.250000
O O9 0.500000 0.500000 0.500000
O O10 0.632886 0.473159 0.250000
O O11 0.123370 0.939802 0.750000
O O12 0.276369 0.882143 0.750000
O O13 0.239246 0.009342 0.501871
O O14 0.000000 0.000000 0.500000
O O15 0.275452 0.750000 0.500000
#
# Coordination Sequence:
#
# PCOD9436443 Si02
#       8
#     4   4   4   4   4   4   4   4
#     4  10  19  38  64  91 126 168 207 250 310 388
#     4  10  21  38  60  86 124 170 212 259 319 375
#     4  10  21  39  63  89 119 164 217 266 316 373
#     4  12  26  45  68 100 134 170 210 263 331 403
#     4  12  24  40  68  99 129 173 221 268 319 383
#     4  12  24  44  68  94 127 165 215 271 321 382
#     4  12  25  41  62  95 138 175 217 268 325 384
#     4  10  20  35  59  92 125 161 209 261 311 374
#
# _framework density 21.439415
#
# number of rings (size 3 to 8) (size 9 to 14) (size 15 to 20)
#    0.000    1.000    0.000    9.000    0.000    3.000 
#    0.000    3.750    0.000    0.000    0.000    0.000 
#    0.000    0.000    0.000    0.000    0.000    0.000 
#
# Total GULP energy -179119.481794 kJ/mol
# GULP energy per Si atom -5597.483806 kJ/mol
# Density = 2.139062 g / cm^3
# Si number density = 21.439415 Si / 1000 Ang^3
#
#
#
# Elastic Constant Matrix: (Units=GPa)
#
#
# Indices 1 2 3 4 5 6 
#
# 1 106.3702 22.8317 23.5936 0.0000 0.0000 0.0000
# 2 22.8317 113.3109 50.7191 0.0000 0.0000 0.0000
# 3 23.5936 50.7191 211.3458 0.0000 0.0000 0.0000
# 4 0.0000 0.0000 0.0000 38.6860 0.0000 0.0000
# 5 0.0000 0.0000 0.0000 0.0000 34.0572 0.0000
# 6 0.0000 0.0000 0.0000 0.0000 0.0000 33.0005
#
#
#
# Elastic Compliance Matrix: (Units=1/GPa)
#
#
# Indices 1 2 3 4 5 6 
#
# 1 0.009919 -0.001684 -0.000703 0.000000 0.000000 0.000000
# 2 -0.001684 0.010173 -0.002253 0.000000 0.000000 0.000000
# 3 -0.000703 -0.002253 0.005351 0.000000 0.000000 0.000000
# 4 0.000000 0.000000 0.000000 0.025849 0.000000 0.000000
# 5 0.000000 0.000000 0.000000 0.000000 0.029362 0.000000
# 6 0.000000 0.000000 0.000000 0.000000 0.000000 0.030303
#
#
# Mechanical properties :
#
#
# Convention : Reuss Voigt Hill
#
# Bulk Modulus (GPa) = 61.87423 69.47952 65.67688
# Shear Modulus (GPa) = 39.80109 43.40757 41.60433
#
# Velocity S-wave (km/s) = 4.31332 4.50451 4.40995
# Velocity P-wave (km/s) = 7.33001 7.71569 7.52532
#
# Compressibility (1/GPa) = 0.01616182
#
# Stress axis : x y z
#
# Youngs Moduli (GPa) = 100.82161 98.29745 186.88590
#
# Poissons Ratio (x) = 0.16551 0.13141
# Poissons Ratio (y) = 0.16976 0.42113
# Poissons Ratio (z) = 0.07090 0.22150
#
# Static dielectric constant tensor:
#      x y z
#    x 1.771910 0.000000 0.000000 
#    y 0.000000 1.639320 0.000000 
#    z 0.000000 0.000000 1.740040 
# 
# From -- ./inp_files/452.got.cif
#   From: 2010.05.17/outbox.cif.g08.bks.cpg/sg57_1_cif.got.tgz:452.got - 2010.06.03 13:58:18.
