data_PCOD9436048
_publ_section_title
;
Structure prediction by ZEFSAII (Michael W. Deem and Ramdas Pophale) SiO2 
 PCOD9436048
Probable space group: P B C M
;
_chemical_formula_sum "Si O2"
_cell_formula_units_Z 56
_cell_length_a 21.880412
_cell_length_b 14.820179
_cell_length_c 9.262709
_cell_angle_alpha 90.000000
_cell_angle_beta 90.000000
_cell_angle_gamma 90.000000
_cell_volume 3003.633676
_symmetry_space_group_name_H-M "P B C M"
_symmetry_group_IT_number 57
_symmetry_cell_setting 'orthorhombic'
loop_
_space_group_symop_operation_xyz
x,y,z
-x,-y,1/2+z
x,1/2-y,-z
-x,1/2+y,1/2-z
-x,-y,-z
x,y,1/2-z
-x,1/2+y,z
x,1/2-y,1/2+z
loop_
_atom_site_type_symbol
_atom_site_label
_atom_site_fract_x
_atom_site_fract_y
_atom_site_fract_z
Si Si1 0.911872 0.017286 0.421388
Si Si2 0.997494 0.847759 0.076664
Si Si3 0.698064 0.840514 0.577908
Si Si4 0.769387 0.993342 0.417400
Si Si5 0.440250 0.889582 0.084378
Si Si6 0.439446 0.391738 0.916186
Si Si7 0.318339 0.664988 0.417595
O O1 0.921616 0.034981 0.250000
O O2 0.839795 0.014124 0.449593
O O3 0.941836 0.918733 0.451386
O O4 0.945446 0.095226 0.512327
O O5 0.002782 0.835790 0.250000
O O6 0.991226 0.750000 0.000000
O O7 0.718116 0.750000 0.500000
O O8 0.699958 0.832948 0.750000
O O9 0.740570 0.920330 0.522703
O O10 0.627363 0.859840 0.535859
O O11 0.766039 0.961663 0.250000
O O12 0.727108 0.081193 0.429149
O O13 0.435269 0.860020 0.250000
O O14 0.438565 0.998971 0.081908
O O15 0.504677 0.861444 0.015452
O O16 0.382968 0.856760 0.992094
O O17 0.449662 0.363640 0.750000
O O18 0.290994 0.750000 0.500000
O O19 0.328083 0.685179 0.250000
#
# Coordination Sequence:
#
# PCOD9436048 Si02
#       7
#     8   8   8   8   8   8   8
#     4   9  20  39  61  88 121 156 197 238 284 338
#     4  10  20  36  61  91 124 158 193 237 283 334
#     4  11  23  39  59  84 115 151 194 241 290 349
#     4  10  22  41  62  85 117 155 194 240 287 337
#     4  10  19  34  57  82 109 143 187 238 293 350
#     4   9  19  35  55  80 110 146 187 235 293 350
#     4  11  23  38  58  82 112 149 191 238 291 349
#
# _framework density 18.644083999999999
#
# number of rings (size 3 to 8) (size 9 to 14) (size 15 to 20)
#    0.000    2.000    1.429    1.714    0.000    5.143 
#    0.000    4.286    0.000    0.000    0.000    0.000 
#    0.000    0.000    0.000    0.000    0.000    0.000 
#
# Total GULP energy -312750.102770 kJ/mol
# GULP energy per Si atom -5584.823264 kJ/mol
# Density = 1.860165 g / cm^3
# Si number density = 18.644084 Si / 1000 Ang^3
#
#
#
# Elastic Constant Matrix: (Units=GPa)
#
#
# Indices 1 2 3 4 5 6 
#
# 1 96.3189 24.7676 56.9303 0.0000 0.0000 0.0000
# 2 24.7676 87.3063 56.5259 0.0000 0.0000 0.0000
# 3 56.9303 56.5259 103.7075 0.0000 0.0000 0.0000
# 4 0.0000 0.0000 0.0000 29.1738 0.0000 0.0000
# 5 0.0000 0.0000 0.0000 0.0000 39.4250 0.0000
# 6 0.0000 0.0000 0.0000 0.0000 0.0000 -223.4569
#
#
#
# Elastic Compliance Matrix: (Units=1/GPa)
#
#
# Indices 1 2 3 4 5 6 
#
# 1 0.015535 0.001722 -0.009466 0.000000 0.000000 0.000000
# 2 0.001722 0.017891 -0.010697 0.000000 0.000000 0.000000
# 3 -0.009466 -0.010697 0.020669 0.000000 0.000000 0.000000
# 4 0.000000 0.000000 0.000000 0.034277 0.000000 0.000000
# 5 0.000000 0.000000 0.000000 0.000000 0.025365 0.000000
# 6 0.000000 0.000000 0.000000 0.000000 0.000000 -0.004475
#
#
# Mechanical properties :
#
#
# Convention : Reuss Voigt Hill
#
# Bulk Modulus (GPa) = 58.09675 62.64226 60.36950
# Shear Modulus (GPa) = 32.92043 -21.03104 5.94469
#
# Velocity S-wave (km/s) = 4.20662 -3.36226 1.78758
# Velocity P-wave (km/s) = 7.40424 4.31265 6.05895
#
# Compressibility (1/GPa) = 0.01721267
#
# Stress axis : x y z
#
# Youngs Moduli (GPa) = 64.37276 55.89399 48.38097
#
# Poissons Ratio (x) = -0.09625 0.45799
# Poissons Ratio (y) = -0.11084 0.51752
# Poissons Ratio (z) = 0.60937 0.59789
#
# Static dielectric constant tensor:
#      x y z
#    x 1.613650 0.000000 0.000000 
#    y 0.000000 1.659750 0.000000 
#    z 0.000000 0.000000 1.627740 
# 
# From -- ./inp_files/8063.got.cif
#   From: 2010.05.17/outbox.cif.g08.bks.cpg/sg57_5_cif.got.tgz:8063.got - 2010.06.03 13:58:18.
