data_PCOD9436847
_publ_section_title
;
Structure prediction by ZEFSAII (Michael W. Deem and Ramdas Pophale) SiO2 
 PCOD9436847
Probable space group: P B C M
;
_chemical_formula_sum "Si O2"
_cell_formula_units_Z 48
_cell_length_a 9.904825
_cell_length_b 23.917804
_cell_length_c 9.294272
_cell_angle_alpha 90.000000
_cell_angle_beta 90.000000
_cell_angle_gamma 90.000000
_cell_volume 2201.828493
_symmetry_space_group_name_H-M "P B C M"
_symmetry_group_IT_number 57
_symmetry_cell_setting 'orthorhombic'
loop_
_space_group_symop_operation_xyz
x,y,z
-x,-y,1/2+z
x,1/2-y,-z
-x,1/2+y,1/2-z
-x,-y,-z
x,y,1/2-z
-x,1/2+y,z
x,1/2-y,1/2+z
loop_
_atom_site_type_symbol
_atom_site_label
_atom_site_fract_x
_atom_site_fract_y
_atom_site_fract_z
Si Si1 0.879865 0.198496 0.915669
Si Si2 0.620957 0.153665 0.082966
Si Si3 0.663332 0.043710 0.581426
Si Si4 0.320128 0.305871 0.582498
Si Si5 0.020286 0.575991 0.909980
Si Si6 0.761074 0.570472 0.076916
O O1 0.853624 0.212903 0.750000
O O2 0.969665 0.143200 0.920011
O O3 0.942467 0.250000 0.000000
O O4 0.739520 0.182978 0.993799
O O5 0.660663 0.147841 0.250000
O O6 0.482691 0.187930 0.076372
O O7 0.599485 0.092208 0.014610
O O8 0.622107 0.047902 0.750000
O O9 0.824599 0.057492 0.576837
O O10 0.660992 0.979503 0.528832
O O11 0.278750 0.250000 0.500000
O O12 0.279628 0.301300 0.750000
O O13 0.270838 0.366593 0.527032
O O14 0.972583 0.559999 0.750000
O O15 0.912530 0.556680 0.025920
O O16 0.753595 0.570135 0.250000
#
# Coordination Sequence:
#
# PCOD9436847 Si02
#       6
#     8   8   8   8   8   8
#     4  10  20  34  53  79 109 140 179 227 276 322
#     4  10  20  35  56  81 108 138 177 223 269 321
#     4   9  19  36  57  82 111 139 172 221 275 321
#     4  10  23  40  56  78 108 143 182 221 263 313
#     4   9  19  34  52  78 109 140 177 220 267 320
#     4  10  21  37  56  78 108 145 181 219 265 318
#
# _framework density 21.800062
#
# number of rings (size 3 to 8) (size 9 to 14) (size 15 to 20)
#    0.000    2.333    0.000    3.000    0.000    8.667 
#    0.000    3.333    0.000    0.000    0.000    0.000 
#    0.000    0.000    0.000    0.000    0.000    0.000 
#
# Total GULP energy -268071.838436 kJ/mol
# GULP energy per Si atom -5584.829967 kJ/mol
# Density = 2.175044 g / cm^3
# Si number density = 21.800062 Si / 1000 Ang^3
#
#
#
# Elastic Constant Matrix: (Units=GPa)
#
#
# Indices 1 2 3 4 5 6 
#
# 1 26.5573 -3.6598 7.7480 0.0000 0.0000 0.0000
# 2 -3.6598 142.2690 47.9394 0.0000 0.0000 0.0000
# 3 7.7480 47.9394 73.2008 0.0000 0.0000 0.0000
# 4 0.0000 0.0000 0.0000 28.9084 0.0000 0.0000
# 5 0.0000 0.0000 0.0000 0.0000 13.2544 0.0000
# 6 0.0000 0.0000 0.0000 0.0000 0.0000 12.2212
#
#
#
# Elastic Compliance Matrix: (Units=1/GPa)
#
#
# Indices 1 2 3 4 5 6 
#
# 1 0.039921 0.003145 -0.006285 0.000000 0.000000 0.000000
# 2 0.003145 0.009267 -0.006402 0.000000 0.000000 0.000000
# 3 -0.006285 -0.006402 0.018519 0.000000 0.000000 0.000000
# 4 0.000000 0.000000 0.000000 0.034592 0.000000 0.000000
# 5 0.000000 0.000000 0.000000 0.000000 0.075447 0.000000
# 6 0.000000 0.000000 0.000000 0.000000 0.000000 0.081825
#
#
# Mechanical properties :
#
#
# Convention : Reuss Voigt Hill
#
# Bulk Modulus (GPa) = 20.56635 38.45359 29.50997
# Shear Modulus (GPa) = 16.95700 23.54341 20.25021
#
# Velocity S-wave (km/s) = 2.79201 3.28985 3.05110
# Velocity P-wave (km/s) = 4.45514 5.66642 5.09689
#
# Compressibility (1/GPa) = 0.04862312
#
# Stress axis : x y z
#
# Youngs Moduli (GPa) = 25.04917 107.90951 53.99888
#
# Poissons Ratio (x) = -0.33935 0.33939
# Poissons Ratio (y) = -0.07877 0.34569
# Poissons Ratio (z) = 0.15744 0.69082
#
# Static dielectric constant tensor:
#      x y z
#    x 1.796720 0.000000 0.000000 
#    y 0.000000 1.865050 0.000000 
#    z 0.000000 0.000000 1.745900 
# 
# From -- ./inp_files/3128.got.cif
#   From: 2010.05.17/outbox.cif.g08.bks.cpg/sg57_2_cif.got.tgz:3128.got - 2010.06.03 13:58:18.
