data_PCOD9436118
_publ_section_title
;
Structure prediction by ZEFSAII (Michael W. Deem and Ramdas Pophale) SiO2 
 PCOD9436118
Probable space group: P B C M
;
_chemical_formula_sum "Si O2"
_cell_formula_units_Z 64
_cell_length_a 9.675453
_cell_length_b 24.004626
_cell_length_c 13.900681
_cell_angle_alpha 90.000000
_cell_angle_beta 90.000000
_cell_angle_gamma 90.000000
_cell_volume 3228.511432
_symmetry_space_group_name_H-M "P B C M"
_symmetry_group_IT_number 57
_symmetry_cell_setting 'orthorhombic'
loop_
_space_group_symop_operation_xyz
x,y,z
-x,-y,1/2+z
x,1/2-y,-z
-x,1/2+y,1/2-z
-x,-y,-z
x,y,1/2-z
-x,1/2+y,z
x,1/2-y,1/2+z
loop_
_atom_site_type_symbol
_atom_site_label
_atom_site_fract_x
_atom_site_fract_y
_atom_site_fract_z
Si Si1 0.185271 0.631669 0.142460
Si Si2 0.722002 0.151866 0.559871
Si Si3 0.038054 0.915842 0.361705
Si Si4 0.222910 0.227321 0.136765
Si Si5 0.582394 0.669487 0.636496
Si Si6 0.080950 0.741717 0.859344
Si Si7 0.067258 0.454990 0.861871
Si Si8 0.798135 0.878963 0.497922
O O1 0.244561 0.623445 0.250000
O O2 0.116017 0.692849 0.141201
O O3 0.065444 0.585816 0.127350
O O4 0.286024 0.633320 0.051373
O O5 0.806976 0.104413 0.616312
O O6 0.575219 0.166482 0.603939
O O7 0.821758 0.205361 0.573506
O O8 0.003401 0.906424 0.250000
O O9 0.934578 0.882814 0.431270
O O10 0.027309 0.981507 0.382218
O O11 0.222799 0.211107 0.250000
O O12 0.349447 0.269418 0.119326
O O13 0.081377 0.261382 0.119742
O O14 0.215494 0.174127 0.068382
O O15 0.595513 0.658749 0.750000
O O16 0.670575 0.625773 0.574465
O O17 0.104929 0.721245 0.750000
O O18 0.109706 0.451590 0.750000
O O19 0.184637 0.431845 0.932244
#
# Coordination Sequence:
#
# PCOD9436118 Si02
#       8
#     8   8   8   8   8   8   8   8
#     4  10  21  37  62  93 124 157 201 263 319 372
#     4  12  23  40  62  88 124 169 213 253 313 379
#     4  11  23  39  67  96 125 162 212 266 318 378
#     4  10  21  38  60  89 125 167 206 257 315 374
#     4  11  26  42  56  85 132 172 208 255 313 374
#     4  10  19  34  60  91 121 155 205 257 309 372
#     4  10  21  40  65  97 128 157 204 268 325 376
#     4  12  21  38  63  94 120 162 211 260 311 373
#
# _framework density 19.823378000000002
#
# number of rings (size 3 to 8) (size 9 to 14) (size 15 to 20)
#    0.000    1.250    2.500    3.750    0.000    4.000 
#    0.000    3.125    0.000    0.750    0.000    0.000 
#    0.000    0.000    0.000    0.000    0.000    0.000 
#
# Total GULP energy -357672.921907 kJ/mol
# GULP energy per Si atom -5588.639405 kJ/mol
# Density = 1.977826 g / cm^3
# Si number density = 19.823378 Si / 1000 Ang^3
#
#
#
# Elastic Constant Matrix: (Units=GPa)
#
#
# Indices 1 2 3 4 5 6 
#
# 1 100.2703 27.7787 45.9723 0.0000 0.0000 0.0000
# 2 27.7787 104.0106 42.0233 0.0000 0.0000 0.0000
# 3 45.9723 42.0233 136.3638 0.0000 0.0000 0.0000
# 4 0.0000 0.0000 0.0000 30.1397 0.0000 0.0000
# 5 0.0000 0.0000 0.0000 0.0000 29.1139 0.0000
# 6 0.0000 0.0000 0.0000 0.0000 0.0000 4.5618
#
#
#
# Elastic Compliance Matrix: (Units=1/GPa)
#
#
# Indices 1 2 3 4 5 6 
#
# 1 0.012086 -0.001807 -0.003518 0.000000 0.000000 0.000000
# 2 -0.001807 0.011252 -0.002858 0.000000 0.000000 0.000000
# 3 -0.003518 -0.002858 0.009400 0.000000 0.000000 0.000000
# 4 0.000000 0.000000 0.000000 0.033179 0.000000 0.000000
# 5 0.000000 0.000000 0.000000 0.000000 0.034348 0.000000
# 6 0.000000 0.000000 0.000000 0.000000 0.000000 0.219212
#
#
# Mechanical properties :
#
#
# Convention : Reuss Voigt Hill
#
# Bulk Modulus (GPa) = 61.07815 63.57706 62.32760
# Shear Modulus (GPa) = 14.64983 27.75444 21.20213
#
# Velocity S-wave (km/s) = 2.72144 3.74583 3.27395
# Velocity P-wave (km/s) = 6.38381 7.13090 6.76767
#
# Compressibility (1/GPa) = 0.01637247
#
# Stress axis : x y z
#
# Youngs Moduli (GPa) = 82.73711 88.87476 106.38064
#
# Poissons Ratio (x) = 0.16057 0.37424
# Poissons Ratio (y) = 0.14948 0.30408
# Poissons Ratio (z) = 0.29107 0.25404
#
# Static dielectric constant tensor:
#      x y z
#    x 1.662380 0.000000 0.000000 
#    y 0.000000 1.714020 0.000000 
#    z 0.000000 0.000000 1.773820 
# 
# From -- ./inp_files/16966.got.cif
#   From: 2010.05.17/outbox.cif.g08.bks.cpg/sg57_9_cif.got.tgz:16966.got - 2010.06.03 13:58:18.
