data_PCOD9436768
_publ_section_title
;
Structure prediction by ZEFSAII (Michael W. Deem and Ramdas Pophale) SiO2 
 PCOD9436768
Probable space group: P B C M
;
_chemical_formula_sum "Si O2"
_cell_formula_units_Z 40
_cell_length_a 13.299452
_cell_length_b 19.877919
_cell_length_c 8.912640
_cell_angle_alpha 90.000000
_cell_angle_beta 90.000000
_cell_angle_gamma 90.000000
_cell_volume 2356.193902
_symmetry_space_group_name_H-M "P B C M"
_symmetry_group_IT_number 57
_symmetry_cell_setting 'orthorhombic'
loop_
_space_group_symop_operation_xyz
x,y,z
-x,-y,1/2+z
x,1/2-y,-z
-x,1/2+y,1/2-z
-x,-y,-z
x,y,1/2-z
-x,1/2+y,z
x,1/2-y,1/2+z
loop_
_atom_site_type_symbol
_atom_site_label
_atom_site_fract_x
_atom_site_fract_y
_atom_site_fract_z
Si Si1 0.004442 0.574528 0.570392
Si Si2 0.612209 0.322807 0.569465
Si Si3 0.218684 0.079717 0.929962
Si Si4 0.617939 0.676846 0.070414
Si Si5 0.790401 0.078311 0.430698
O O1 0.011896 0.569927 0.750000
O O2 0.106178 0.604962 0.503314
O O3 0.000000 0.500000 0.500000
O O4 0.894859 0.604864 0.534214
O O5 0.634019 0.250000 0.500000
O O6 0.615872 0.317480 0.750000
O O7 0.497413 0.341380 0.528427
O O8 0.694783 0.377495 0.523440
O O9 0.231507 0.084042 0.750000
O O10 0.224057 0.000429 0.971143
O O11 0.303109 0.123068 0.009928
O O12 0.623769 0.681215 0.250000
O O13 0.638581 0.750000 0.000000
O O14 0.800752 0.080683 0.250000
#
# Coordination Sequence:
#
# PCOD9436768 Si02
#       5
#     8   8   8   8   8
#     4   9  17  30  49  73 101 131 162 198 243 291
#     4   9  19  35  52  72  99 131 165 202 246 292
#     4   9  18  32  50  73 101 130 161 201 244 287
#     4  10  20  34  52  72  97 130 166 203 245 294
#     4   9  18  33  52  74 102 132 162 200 244 290
#
# _framework density 16.976531999999999
#
# number of rings (size 3 to 8) (size 9 to 14) (size 15 to 20)
#    0.000    2.800    0.000    2.400    0.000    6.400 
#    0.000    1.000    0.000    2.400    0.000    0.000 
#    0.000    0.000    0.000    0.000    0.000    0.000 
#
# Total GULP energy -222852.143646 kJ/mol
# GULP energy per Si atom -5571.303591 kJ/mol
# Density = 1.693789 g / cm^3
# Si number density = 16.976532 Si / 1000 Ang^3
#
#
#
# Elastic Constant Matrix: (Units=GPa)
#
#
# Indices 1 2 3 4 5 6 
#
# 1 177.0028 95.3625 55.0196 0.0000 0.0000 0.0000
# 2 95.3625 73.7184 33.2813 0.0000 0.0000 0.0000
# 3 55.0196 33.2813 30.1110 0.0000 0.0000 0.0000
# 4 0.0000 0.0000 0.0000 24.5594 0.0000 0.0000
# 5 0.0000 0.0000 0.0000 0.0000 30.9444 0.0000
# 6 0.0000 0.0000 0.0000 0.0000 0.0000 -18.7612
#
#
#
# Elastic Compliance Matrix: (Units=1/GPa)
#
#
# Indices 1 2 3 4 5 6 
#
# 1 0.022651 -0.021189 -0.017968 0.000000 0.000000 0.000000
# 2 -0.021189 0.046898 -0.013118 0.000000 0.000000 0.000000
# 3 -0.017968 -0.013118 0.080541 0.000000 0.000000 0.000000
# 4 0.000000 0.000000 0.000000 0.040718 0.000000 0.000000
# 5 0.000000 0.000000 0.000000 0.000000 0.032316 0.000000
# 6 0.000000 0.000000 0.000000 0.000000 0.000000 -0.053302
#
#
# Mechanical properties :
#
#
# Convention : Reuss Voigt Hill
#
# Bulk Modulus (GPa) = 21.95905 72.01769 46.98837
# Shear Modulus (GPa) = 17.26801 13.82645 15.54723
#
# Velocity S-wave (km/s) = 3.19277 2.85694 3.02951
# Velocity P-wave (km/s) = 5.15313 7.30731 6.32264
#
# Compressibility (1/GPa) = 0.04553930
#
# Stress axis : x y z
#
# Youngs Moduli (GPa) = 44.14868 21.32278 12.41600
#
# Poissons Ratio (x) = 0.45181 0.22309
# Poissons Ratio (y) = 0.93548 0.16288
# Poissons Ratio (z) = 0.79325 0.27972
#
# Static dielectric constant tensor:
#      x y z
#    x 1.604650 0.000000 0.000000 
#    y 0.000000 1.544940 0.000000 
#    z 0.000000 0.000000 1.567890 
# 
# From -- ./inp_files/2877.got.cif
#   From: 2010.05.17/outbox.cif.g08.bks.cpg/sg57_2_cif.got.tgz:2877.got - 2010.06.03 13:58:18.
