data_PCOD9436790
_publ_section_title
;
Structure prediction by ZEFSAII (Michael W. Deem and Ramdas Pophale) SiO2 
 PCOD9436790
Probable space group: P B C M
;
_chemical_formula_sum "Si O2"
_cell_formula_units_Z 40
_cell_length_a 15.192690
_cell_length_b 12.996555
_cell_length_c 9.208299
_cell_angle_alpha 90.000000
_cell_angle_beta 90.000000
_cell_angle_gamma 90.000000
_cell_volume 1818.202866
_symmetry_space_group_name_H-M "P B C M"
_symmetry_group_IT_number 57
_symmetry_cell_setting 'orthorhombic'
loop_
_space_group_symop_operation_xyz
x,y,z
-x,-y,1/2+z
x,1/2-y,-z
-x,1/2+y,1/2-z
-x,-y,-z
x,y,1/2-z
-x,1/2+y,z
x,1/2-y,1/2+z
loop_
_atom_site_type_symbol
_atom_site_label
_atom_site_fract_x
_atom_site_fract_y
_atom_site_fract_z
Si Si1 0.621082 0.080979 0.922146
Si Si2 0.030137 0.897727 0.416773
Si Si3 0.442072 0.350759 0.921820
Si Si4 0.831391 0.846848 0.412997
Si Si5 0.200524 0.914954 0.924643
O O1 0.620786 0.103678 0.750000
O O2 0.612222 0.956658 0.939409
O O3 0.535827 0.127302 0.001082
O O4 0.709393 0.118428 0.000374
O O5 0.057029 0.917817 0.250000
O O6 0.114365 0.862069 0.507522
O O7 0.938212 0.837370 0.409494
O O8 0.000000 0.000000 0.500000
O O9 0.453254 0.332950 0.750000
O O10 0.404624 0.250000 0.000000
O O11 0.797352 0.750000 0.500000
O O12 0.797495 0.839648 0.250000
O O13 0.810135 0.962713 0.462227
O O14 0.201699 0.904694 0.750000
#
# Coordination Sequence:
#
# PCOD9436790 Si02
#       5
#     8   8   8   8   8
#     4  10  21  37  58  84 112 145 184 226 275 330
#     4   9  17  31  49  70  96 130 170 209 253 306
#     4  10  21  38  60  84 112 146 182 224 275 332
#     4   9  19  32  48  72 102 135 172 215 262 313
#     4  10  20  34  52  76 104 136 175 219 266 317
#
# _framework density 21.999745999999998
#
# number of rings (size 3 to 8) (size 9 to 14) (size 15 to 20)
#    0.000    2.400    0.000    3.600    0.000    8.000 
#    0.000    5.000    0.000    2.400    0.000    0.000 
#    0.000    0.000    0.000    0.000    0.000    0.000 
#
# Total GULP energy -223319.974673 kJ/mol
# GULP energy per Si atom -5582.999367 kJ/mol
# Density = 2.194967 g / cm^3
# Si number density = 21.999746 Si / 1000 Ang^3
#
#
#
# Elastic Constant Matrix: (Units=GPa)
#
#
# Indices 1 2 3 4 5 6 
#
# 1 138.5938 -7.1153 55.2115 0.0000 0.0000 0.0000
# 2 -7.1153 88.1679 39.7525 0.0000 0.0000 0.0000
# 3 55.2115 39.7525 120.2024 0.0000 0.0000 0.0000
# 4 0.0000 0.0000 0.0000 24.9060 0.0000 0.0000
# 5 0.0000 0.0000 0.0000 0.0000 23.9154 0.0000
# 6 0.0000 0.0000 0.0000 0.0000 0.0000 -4.9636
#
#
#
# Elastic Compliance Matrix: (Units=1/GPa)
#
#
# Indices 1 2 3 4 5 6 
#
# 1 0.009556 0.003232 -0.005458 0.000000 0.000000 0.000000
# 2 0.003232 0.014423 -0.006254 0.000000 0.000000 0.000000
# 3 -0.005458 -0.006254 0.012895 0.000000 0.000000 0.000000
# 4 0.000000 0.000000 0.000000 0.040151 0.000000 0.000000
# 5 0.000000 0.000000 0.000000 0.000000 0.041814 0.000000
# 6 0.000000 0.000000 0.000000 0.000000 0.000000 -0.201468
#
#
# Mechanical properties :
#
#
# Convention : Reuss Voigt Hill
#
# Bulk Modulus (GPa) = 50.22001 58.07349 54.14675
# Shear Modulus (GPa) = -84.69929 26.04594 -29.32667
#
# Velocity S-wave (km/s) = -6.21158 3.44455 -3.65505
# Velocity P-wave (km/s) = 5.34489 6.50189 2.61789
#
# Compressibility (1/GPa) = 0.01991238
#
# Stress axis : x y z
#
# Youngs Moduli (GPa) = 104.65162 69.33507 77.55177
#
# Poissons Ratio (x) = -0.22409 0.42327
# Poissons Ratio (y) = -0.33823 0.48503
# Poissons Ratio (z) = 0.57118 0.43364
#
# Static dielectric constant tensor:
#      x y z
#    x 1.806840 0.000000 0.000000 
#    y 0.000000 1.855760 0.000000 
#    z 0.000000 0.000000 1.749640 
# 
# From -- ./inp_files/4294.got.cif
#   From: 2010.05.17/outbox.cif.g08.bks.cpg/sg57_3_cif.got.tgz:4294.got - 2010.06.03 13:58:18.
