data_PCOD9436365
_publ_section_title
;
Structure prediction by ZEFSAII (Michael W. Deem and Ramdas Pophale) SiO2 
 PCOD9436365
Probable space group: P B C M
;
_chemical_formula_sum "Si O2"
_cell_formula_units_Z 64
_cell_length_a 22.282102
_cell_length_b 9.761155
_cell_length_c 15.717758
_cell_angle_alpha 90.000000
_cell_angle_beta 90.000000
_cell_angle_gamma 90.000000
_cell_volume 3418.597454
_symmetry_space_group_name_H-M "P B C M"
_symmetry_group_IT_number 57
_symmetry_cell_setting 'orthorhombic'
loop_
_space_group_symop_operation_xyz
x,y,z
-x,-y,1/2+z
x,1/2-y,-z
-x,1/2+y,1/2-z
-x,-y,-z
x,y,1/2-z
-x,1/2+y,z
x,1/2-y,1/2+z
loop_
_atom_site_type_symbol
_atom_site_label
_atom_site_fract_x
_atom_site_fract_y
_atom_site_fract_z
Si Si1 0.771538 0.376514 0.435813
Si Si2 0.241061 0.377345 0.442025
Si Si3 0.873622 0.558916 0.650418
Si Si4 0.112253 0.742246 0.648290
Si Si5 0.349645 0.963662 0.650932
Si Si6 0.650997 0.367460 0.153732
Si Si7 0.560922 0.414410 0.001454
Si Si8 0.008157 0.130780 0.560815
O O1 0.756115 0.250000 0.500000
O O2 0.780977 0.506392 0.493823
O O3 0.829176 0.338094 0.381623
O O4 0.716063 0.414473 0.375876
O O5 0.261664 0.250000 0.500000
O O6 0.180334 0.352156 0.388841
O O7 0.293176 0.448064 0.384233
O O8 0.862746 0.555313 0.750000
O O9 0.875192 0.399498 0.621323
O O10 0.940202 0.609035 0.629613
O O11 0.104603 0.738027 0.750000
O O12 0.053940 0.680156 0.602745
O O13 0.362688 0.001529 0.750000
O O14 0.340743 0.798413 0.651283
O O15 0.401732 0.970767 0.579843
O O16 0.635348 0.405977 0.250000
O O17 0.602900 0.422986 0.085608
O O18 0.548713 0.250000 0.000000
O O19 0.500000 0.500000 0.000000
O O20 0.030696 0.250000 0.500000
O O21 0.000000 0.000000 0.500000
#
# Coordination Sequence:
#
# PCOD9436365 Si02
#       8
#     8   8   8   8   8   8   8   8
#     4  12  19  38  65  90 120 159 211 254 312 380
#     4  12  24  39  62  93 129 161 203 261 327 382
#     4  11  23  41  62  88 120 159 205 258 318 388
#     4  11  23  39  62  91 117 156 210 262 310 380
#     4  10  20  39  66  92 123 170 217 255 306 379
#     4  10  19  36  64  97 125 161 216 265 304 364
#     4  10  21  39  63  93 128 169 213 259 308 363
#     4  12  23  41  60  86 118 156 207 255 319 385
#
# _framework density 18.721126999999999
#
# number of rings (size 3 to 8) (size 9 to 14) (size 15 to 20)
#    0.000    1.000    5.000    3.000    0.000    3.000 
#    0.000    3.750    0.000    0.000    0.000    0.000 
#    0.000    0.000    0.000    0.000    0.000    0.000 
#
# Total GULP energy -356948.220809 kJ/mol
# GULP energy per Si atom -5577.315950 kJ/mol
# Density = 1.867852 g / cm^3
# Si number density = 18.721127 Si / 1000 Ang^3
#
#
#
# Elastic Constant Matrix: (Units=GPa)
#
#
# Indices 1 2 3 4 5 6 
#
# 1 128.7141 14.1970 58.4965 0.0000 0.0000 0.0000
# 2 14.1970 48.5369 28.3140 0.0000 0.0000 0.0000
# 3 58.4965 28.3140 112.9258 0.0000 0.0000 0.0000
# 4 0.0000 0.0000 0.0000 14.5297 0.0000 0.0000
# 5 0.0000 0.0000 0.0000 0.0000 6.9158 0.0000
# 6 0.0000 0.0000 0.0000 0.0000 0.0000 28.3558
#
#
#
# Elastic Compliance Matrix: (Units=1/GPa)
#
#
# Indices 1 2 3 4 5 6 
#
# 1 0.010162 0.000115 -0.005293 0.000000 0.000000 0.000000
# 2 0.000115 0.024134 -0.006111 0.000000 0.000000 0.000000
# 3 -0.005293 -0.006111 0.013129 0.000000 0.000000 0.000000
# 4 0.000000 0.000000 0.000000 0.068824 0.000000 0.000000
# 5 0.000000 0.000000 0.000000 0.000000 0.144595 0.000000
# 6 0.000000 0.000000 0.000000 0.000000 0.000000 0.035266
#
#
# Mechanical properties :
#
#
# Convention : Reuss Voigt Hill
#
# Bulk Modulus (GPa) = 40.24432 54.68800 47.46616
# Shear Modulus (GPa) = 15.29189 22.57156 18.93173
#
# Velocity S-wave (km/s) = 2.86112 3.47605 3.18346
# Velocity P-wave (km/s) = 5.69720 6.73690 6.23875
#
# Compressibility (1/GPa) = 0.02484823
#
# Stress axis : x y z
#
# Youngs Moduli (GPa) = 98.40710 41.43550 76.16571
#
# Poissons Ratio (x) = -0.00477 0.40313
# Poissons Ratio (y) = -0.01134 0.46543
# Poissons Ratio (z) = 0.52085 0.25320
#
# Static dielectric constant tensor:
#      x y z
#    x 1.585310 0.000000 0.000000 
#    y 0.000000 1.653910 0.000000 
#    z 0.000000 0.000000 1.653930 
# 
# From -- ./inp_files/19525.got.cif
#   From: 2010.05.17/outbox.cif.g08.bks.cpg/sg57_10_cif.got.tgz:19525.got - 2010.06.03 13:58:18.
