data_PCOD9436383
_publ_section_title
;
Structure prediction by ZEFSAII (Michael W. Deem and Ramdas Pophale) SiO2 
 PCOD9436383
Probable space group: P B C M
;
_chemical_formula_sum "Si O2"
_cell_formula_units_Z 64
_cell_length_a 7.961462
_cell_length_b 14.148442
_cell_length_c 27.386189
_cell_angle_alpha 90.000000
_cell_angle_beta 90.000000
_cell_angle_gamma 90.000000
_cell_volume 3084.842861
_symmetry_space_group_name_H-M "P B C M"
_symmetry_group_IT_number 57
_symmetry_cell_setting 'orthorhombic'
loop_
_space_group_symop_operation_xyz
x,y,z
-x,-y,1/2+z
x,1/2-y,-z
-x,1/2+y,1/2-z
-x,-y,-z
x,y,1/2-z
-x,1/2+y,z
x,1/2-y,1/2+z
loop_
_atom_site_type_symbol
_atom_site_label
_atom_site_fract_x
_atom_site_fract_y
_atom_site_fract_z
Si Si1 0.388686 0.083786 0.897462
Si Si2 0.252453 0.140909 0.500188
Si Si3 0.879048 0.182174 0.805281
Si Si4 0.092496 0.315227 0.861563
Si Si5 0.051950 0.668729 0.559113
Si Si6 0.592648 0.907678 0.898590
Si Si7 0.639528 0.256695 0.106014
Si Si8 0.037167 0.477556 0.362569
O O1 0.326519 0.083983 0.953734
O O2 0.466584 0.186313 0.890883
O O3 0.229860 0.056243 0.864874
O O4 0.540884 0.013325 0.887013
O O5 0.314686 0.250000 0.500000
O O6 0.051768 0.148810 0.510183
O O7 0.312201 0.096358 0.450213
O O8 0.821488 0.188531 0.750000
O O9 0.744777 0.219503 0.845189
O O10 0.037204 0.251098 0.816276
O O11 0.939705 0.076640 0.819296
O O12 0.055572 0.245702 0.908226
O O13 0.278837 0.357219 0.862033
O O14 0.980834 0.410331 0.863586
O O15 0.044887 0.571375 0.589567
O O16 0.240473 0.707369 0.561962
O O17 0.418266 0.850181 0.900901
#
# Coordination Sequence:
#
# PCOD9436383 Si02
#       8
#     8   8   8   8   8   8   8   8
#     4  11  21  37  58  86 119 153 197 242 293 335
#     4  11  20  38  53  79 118 159 197 239 274 333
#     4  10  22  40  62  87 113 148 193 238 293 366
#     4  10  19  37  61  84 112 157 192 230 288 353
#     4   9  19  36  55  77 113 155 197 230 279 340
#     4  12  21  36  61  86 121 155 195 246 290 333
#     4  10  20  38  59  84 114 150 187 244 303 341
#     4   9  19  38  61  83 114 154 193 229 289 352
#
# _framework density 20.746600000000001
#
# number of rings (size 3 to 8) (size 9 to 14) (size 15 to 20)
#    0.000    2.000    2.500    4.875    0.000    0.500 
#    2.250    8.125    0.000    3.000    0.000    0.000 
#    0.000    0.000    0.000    0.000    0.000    0.000 
#
# Total GULP energy -357100.076883 kJ/mol
# GULP energy per Si atom -5579.688701 kJ/mol
# Density = 2.069938 g / cm^3
# Si number density = 20.746600 Si / 1000 Ang^3
#
#
#
# Elastic Constant Matrix: (Units=GPa)
#
#
# Indices 1 2 3 4 5 6 
#
# 1 85.5556 -0.8160 14.5609 0.0000 0.0000 0.0000
# 2 -0.8160 83.5096 -2.3461 0.0000 0.0000 0.0000
# 3 14.5609 -2.3461 74.5377 0.0000 0.0000 0.0000
# 4 0.0000 0.0000 0.0000 12.2520 0.0000 0.0000
# 5 0.0000 0.0000 0.0000 0.0000 14.6038 0.0000
# 6 0.0000 0.0000 0.0000 0.0000 0.0000 38.7219
#
#
#
# Elastic Compliance Matrix: (Units=1/GPa)
#
#
# Indices 1 2 3 4 5 6 
#
# 1 0.012090 0.000052 -0.002360 0.000000 0.000000 0.000000
# 2 0.000052 0.011985 0.000367 0.000000 0.000000 0.000000
# 3 -0.002360 0.000367 0.013889 0.000000 0.000000 0.000000
# 4 0.000000 0.000000 0.000000 0.081619 0.000000 0.000000
# 5 0.000000 0.000000 0.000000 0.000000 0.068475 0.000000
# 6 0.000000 0.000000 0.000000 0.000000 0.000000 0.025825
#
#
# Mechanical properties :
#
#
# Convention : Reuss Voigt Hill
#
# Bulk Modulus (GPa) = 29.34094 29.60006 29.47050
# Shear Modulus (GPa) = 21.82190 28.59581 25.20886
#
# Velocity S-wave (km/s) = 3.24671 3.71662 3.48959
# Velocity P-wave (km/s) = 5.31301 5.71980 5.52015
#
# Compressibility (1/GPa) = 0.03408207
#
# Stress axis : x y z
#
# Youngs Moduli (GPa) = 82.70963 83.43420 72.00126
#
# Poissons Ratio (x) = -0.00432 0.16994
# Poissons Ratio (y) = -0.00429 -0.02643
# Poissons Ratio (z) = 0.19521 -0.03063
#
# Static dielectric constant tensor:
#      x y z
#    x 1.807660 0.000000 0.000000 
#    y 0.000000 1.734660 0.000000 
#    z 0.000000 0.000000 1.730880 
# 
# From -- ./inp_files/29651.got.cif
#   From: 2010.05.17/outbox.cif.g08.bks.cpg/sg57_15_cif.got.tgz:29651.got - 2010.06.03 13:58:18.
