data_PCOD9436916
_publ_section_title
;
Structure prediction by ZEFSAII (Michael W. Deem and Ramdas Pophale) SiO2 
 PCOD9436916
Probable space group: P B C M
;
_chemical_formula_sum "Si O2"
_cell_formula_units_Z 40
_cell_length_a 9.630782
_cell_length_b 12.067380
_cell_length_c 15.051900
_cell_angle_alpha 90.000000
_cell_angle_beta 90.000000
_cell_angle_gamma 90.000000
_cell_volume 1749.306321
_symmetry_space_group_name_H-M "P B C M"
_symmetry_group_IT_number 57
_symmetry_cell_setting 'orthorhombic'
loop_
_space_group_symop_operation_xyz
x,y,z
-x,-y,1/2+z
x,1/2-y,-z
-x,1/2+y,1/2-z
-x,-y,-z
x,y,1/2-z
-x,1/2+y,z
x,1/2-y,1/2+z
loop_
_atom_site_type_symbol
_atom_site_label
_atom_site_fract_x
_atom_site_fract_y
_atom_site_fract_z
Si Si1 0.144748 0.358309 0.555586
Si Si2 0.709291 0.100321 0.750000
Si Si3 0.893671 0.898548 0.750000
Si Si4 0.497295 0.600521 0.250000
Si Si5 0.163879 0.545435 0.438739
Si Si6 0.608831 0.231196 0.099195
Si Si7 0.179776 0.516531 0.250000
O O1 0.175267 0.250000 0.500000
O O2 0.162897 0.347055 0.660206
O O3 0.218771 0.466934 0.516478
O O4 0.982813 0.395711 0.541718
O O5 0.678284 0.173524 0.838362
O O6 0.853623 0.030578 0.750000
O O7 0.599200 0.000999 0.750000
O O8 0.061108 0.887349 0.750000
O O9 0.505350 0.675956 0.337233
O O10 0.339066 0.553962 0.250000
O O11 0.270038 0.642583 0.418828
O O12 0.152905 0.469877 0.348811
O O13 0.552757 0.250000 0.000000
#
# Coordination Sequence:
#
# PCOD9436916 Si02
#       7
#     8   4   4   4   8   8   4
#     4  10  20  34  54  85 127 164 196 251 309 351
#     4  11  23  40  63  91 124 157 198 256 306 359
#     4  10  21  37  56  89 124 156 202 249 305 371
#     4   9  21  40  58  87 122 151 202 256 297 359
#     4   9  18  34  56  88 119 153 208 250 289 366
#     4  10  20  38  65  86 112 163 210 245 299 365
#     4   8  17  35  59  81 116 156 188 247 304 343
#
# _framework density 22.866205999999998
#
# number of rings (size 3 to 8) (size 9 to 14) (size 15 to 20)
#    0.000    2.400    0.000    2.400    0.000    4.800 
#    0.000   10.000    0.000    0.000    0.000    0.000 
#    0.000    0.000    0.000    0.000    0.000    0.000 
#
# Total GULP energy -223033.652691 kJ/mol
# GULP energy per Si atom -5575.841317 kJ/mol
# Density = 2.281416 g / cm^3
# Si number density = 22.866206 Si / 1000 Ang^3
#
#
#
# Elastic Constant Matrix: (Units=GPa)
#
#
# Indices 1 2 3 4 5 6 
#
# 1 62.1121 14.2789 5.2476 0.0000 0.0000 0.0000
# 2 14.2789 105.4331 69.3999 0.0000 0.0000 0.0000
# 3 5.2476 69.3999 187.7761 0.0000 0.0000 0.0000
# 4 0.0000 0.0000 0.0000 29.5216 0.0000 0.0000
# 5 0.0000 0.0000 0.0000 0.0000 -0.8969 0.0000
# 6 0.0000 0.0000 0.0000 0.0000 0.0000 25.4035
#
#
#
# Elastic Compliance Matrix: (Units=1/GPa)
#
#
# Indices 1 2 3 4 5 6 
#
# 1 0.016651 -0.002575 0.000486 0.000000 0.000000 0.000000
# 2 -0.002575 0.012932 -0.004708 0.000000 0.000000 0.000000
# 3 0.000486 -0.004708 0.007052 0.000000 0.000000 0.000000
# 4 0.000000 0.000000 0.000000 0.033873 0.000000 0.000000
# 5 0.000000 0.000000 0.000000 0.000000 -1.115003 0.000000
# 6 0.000000 0.000000 0.000000 0.000000 0.000000 0.039365
#
#
# Mechanical properties :
#
#
# Convention : Reuss Voigt Hill
#
# Bulk Modulus (GPa) = 43.39903 59.24158 51.32030
# Shear Modulus (GPa) = -5.08204 28.56532 11.74164
#
# Velocity S-wave (km/s) = -1.49243 3.53829 2.26850
# Velocity P-wave (km/s) = 4.00637 6.53122 5.41792
#
# Compressibility (1/GPa) = 0.02304199
#
# Stress axis : x y z
#
# Youngs Moduli (GPa) = 60.05703 77.32652 141.80823
#
# Poissons Ratio (x) = 0.19913 -0.06898
# Poissons Ratio (y) = 0.15466 0.66758
# Poissons Ratio (z) = -0.02921 0.36402
#
# Static dielectric constant tensor:
#      x y z
#    x 1.876310 0.000000 0.000000 
#    y 0.000000 1.839430 0.000000 
#    z 0.000000 0.000000 2.000670 
# 
# From -- ./inp_files/17468.got.cif
#   From: 2010.05.17/outbox.cif.g08.bks.cpg/sg57_9_cif.got.tgz:17468.got - 2010.06.03 13:58:18.
