data_PCOD9436610
_publ_section_title
;
Structure prediction by ZEFSAII (Michael W. Deem and Ramdas Pophale) SiO2 
 PCOD9436610
Probable space group: P B C M
;
_chemical_formula_sum "Si O2"
_cell_formula_units_Z 64
_cell_length_a 23.807914
_cell_length_b 13.811149
_cell_length_c 8.452947
_cell_angle_alpha 90.000000
_cell_angle_beta 90.000000
_cell_angle_gamma 90.000000
_cell_volume 2779.452789
_symmetry_space_group_name_H-M "P B C M"
_symmetry_group_IT_number 57
_symmetry_cell_setting 'orthorhombic'
loop_
_space_group_symop_operation_xyz
x,y,z
-x,-y,1/2+z
x,1/2-y,-z
-x,1/2+y,1/2-z
-x,-y,-z
x,y,1/2-z
-x,1/2+y,z
x,1/2-y,1/2+z
loop_
_atom_site_type_symbol
_atom_site_label
_atom_site_fract_x
_atom_site_fract_y
_atom_site_fract_z
Si Si1 0.335293 0.149362 0.569622
Si Si2 0.678614 0.068198 0.437795
Si Si3 0.793261 0.049230 0.561849
Si Si4 0.029678 0.138711 0.441229
Si Si5 0.907930 0.360559 0.558750
Si Si6 0.154180 0.358473 0.941054
Si Si7 0.436564 0.613897 0.572346
Si Si8 0.551371 0.880275 0.575519
O O1 0.313034 0.250000 0.500000
O O2 0.317634 0.145894 0.750000
O O3 0.403164 0.152483 0.552077
O O4 0.322556 0.043445 0.496923
O O5 0.669837 0.065021 0.250000
O O6 0.741060 0.101563 0.479555
O O7 0.626634 0.126309 0.510793
O O8 0.784701 0.051601 0.750000
O O9 0.853126 0.094406 0.519237
O O10 0.800546 0.937396 0.506679
O O11 0.028714 0.250000 0.500000
O O12 0.029640 0.136448 0.250000
O O13 0.091715 0.106311 0.494761
O O14 0.969125 0.096707 0.492108
O O15 0.908905 0.250000 0.500000
O O16 0.903853 0.365338 0.750000
O O17 0.154153 0.357220 0.750000
O O18 0.163613 0.250000 0.000000
O O19 0.442557 0.651338 0.750000
O O20 0.487731 0.647372 0.463443
O O21 0.445035 0.497170 0.577155
O O22 0.568642 0.846705 0.750000
#
# Coordination Sequence:
#
# PCOD9436610 Si02
#       8
#     8   8   8   8   8   8   8   8
#     4  10  20  33  50  73 103 139 178 221 268 317
#     4  10  21  36  52  72 100 137 183 227 266 315
#     4  11  23  37  54  79 111 147 189 234 279 330
#     4   8  15  30  52  78 107 139 176 220 274 334
#     4  10  20  36  59  84 109 138 176 226 283 339
#     4   9  19  35  54  78 111 149 187 228 275 329
#     4   9  16  28  48  72  97 125 159 203 254 303
#     4   9  16  27  46  72  99 126 159 200 248 302
#
# _framework density 23.026112999999999
#
# number of rings (size 3 to 8) (size 9 to 14) (size 15 to 20)
#    0.000    2.500    0.000    2.250    0.000    7.000 
#    0.000    2.500    0.000    0.750    0.000    5.250 
#    0.000    0.000    0.000    0.000    0.000    0.000 
#
# Total GULP energy -357233.547124 kJ/mol
# GULP energy per Si atom -5581.774174 kJ/mol
# Density = 2.297370 g / cm^3
# Si number density = 23.026113 Si / 1000 Ang^3
#
#
#
# Elastic Constant Matrix: (Units=GPa)
#
#
# Indices 1 2 3 4 5 6 
#
# 1 136.3607 -1.7619 -3.8147 0.0000 0.0000 0.0000
# 2 -1.7619 44.4534 -6.6376 0.0000 0.0000 0.0000
# 3 -3.8147 -6.6376 32.3048 0.0000 0.0000 0.0000
# 4 0.0000 0.0000 0.0000 20.9483 0.0000 0.0000
# 5 0.0000 0.0000 0.0000 0.0000 15.1143 0.0000
# 6 0.0000 0.0000 0.0000 0.0000 0.0000 -7.8974
#
#
#
# Elastic Compliance Matrix: (Units=1/GPa)
#
#
# Indices 1 2 3 4 5 6 
#
# 1 0.007366 0.000435 0.000959 0.000000 0.000000 0.000000
# 2 0.000435 0.023233 0.004825 0.000000 0.000000 0.000000
# 3 0.000959 0.004825 0.032060 0.000000 0.000000 0.000000
# 4 0.000000 0.000000 0.000000 0.047736 0.000000 0.000000
# 5 0.000000 0.000000 0.000000 0.000000 0.066163 0.000000
# 6 0.000000 0.000000 0.000000 0.000000 0.000000 -0.126623
#
#
# Mechanical properties :
#
#
# Convention : Reuss Voigt Hill
#
# Bulk Modulus (GPa) = 13.31595 20.96560 17.14078
# Shear Modulus (GPa) = 79.96356 20.65525 50.30940
#
# Velocity S-wave (km/s) = 5.89938 2.99830 4.67935
# Velocity P-wave (km/s) = 7.22490 4.59471 6.05436
#
# Compressibility (1/GPa) = 0.07509792
#
# Stress axis : x y z
#
# Youngs Moduli (GPa) = 135.75985 43.04188 31.19170
#
# Poissons Ratio (x) = -0.01873 -0.02992
# Poissons Ratio (y) = -0.05908 -0.15050
# Poissons Ratio (z) = -0.13022 -0.20768
#
# Static dielectric constant tensor:
#      x y z
#    x 1.874040 0.000000 0.000000 
#    y 0.000000 1.962950 0.000000 
#    z 0.000000 0.000000 2.014680 
# 
# From -- ./inp_files/9483.got.cif
#   From: 2010.05.17/outbox.cif.g08.bks.cpg/sg57_5_cif.got.tgz:9483.got - 2010.06.03 13:58:18.
