data_PCOD9436128
_publ_section_title
;
Structure prediction by ZEFSAII (Michael W. Deem and Ramdas Pophale) SiO2 
 PCOD9436128
Probable space group: P B C M
;
_chemical_formula_sum "Si O2"
_cell_formula_units_Z 44
_cell_length_a 16.363895
_cell_length_b 5.369758
_cell_length_c 31.901126
_cell_angle_alpha 90.000000
_cell_angle_beta 90.000000
_cell_angle_gamma 90.000000
_cell_volume 2803.156921
_symmetry_space_group_name_H-M "P B C M"
_symmetry_group_IT_number 57
_symmetry_cell_setting 'orthorhombic'
loop_
_space_group_symop_operation_xyz
x,y,z
-x,-y,1/2+z
x,1/2-y,-z
-x,1/2+y,1/2-z
-x,-y,-z
x,y,1/2-z
-x,1/2+y,z
x,1/2-y,1/2+z
loop_
_atom_site_type_symbol
_atom_site_label
_atom_site_fract_x
_atom_site_fract_y
_atom_site_fract_z
Si Si1 0.952119 0.360151 0.250000
Si Si2 0.916996 0.690776 0.451828
Si Si3 0.169576 0.764668 0.174087
Si Si4 0.100349 0.690605 0.418103
Si Si5 0.736846 0.741322 0.699212
Si Si6 0.454638 0.299374 0.199110
O O1 0.899229 0.303277 0.290877
O O2 0.977309 0.650091 0.250000
O O3 0.937010 0.750000 0.500000
O O4 0.874266 0.426053 0.446199
O O5 0.002327 0.669035 0.426151
O O6 0.868069 0.923298 0.433274
O O7 0.126855 0.743414 0.129015
O O8 0.217200 0.508971 0.184495
O O9 0.226498 0.008846 0.178607
O O10 0.745537 0.763491 0.750000
O O11 0.640993 0.716645 0.689013
O O12 0.459362 0.301044 0.250000
O O13 0.496696 0.554737 0.184520
#
# Coordination Sequence:
#
# PCOD9436128 Si02
#       6
#     4   8   8   8   8   8
#     4  12  26  36  50  60  88 130 184 228 242 274
#     4  10  19  35  52  70  88 115 153 204 263 305
#     4  12  23  36  47  69  94 132 172 204 265 276
#     4  10  20  30  49  68  90 113 157 202 238 296
#     4  11  20  36  50  66  97 133 164 203 249 302
#     4   9  17  29  49  73  90 113 158 207 241 280
#
# _framework density 15.696588999999999
#
# number of rings (size 3 to 8) (size 9 to 14) (size 15 to 20)
#    0.000    1.455    1.818    6.000    5.091    2.909 
#    0.000    0.000    0.000    0.000    0.000    0.000 
#    0.000    0.000    0.000    0.000    0.000  374.545 
#
# Total GULP energy -245346.404390 kJ/mol
# GULP energy per Si atom -5576.054645 kJ/mol
# Density = 1.566086 g / cm^3
# Si number density = 15.696589 Si / 1000 Ang^3
#
#
#
# Elastic Constant Matrix: (Units=GPa)
#
#
# Indices 1 2 3 4 5 6 
#
# 1 36.9160 -4.9606 15.2814 0.0000 0.0000 0.0000
# 2 -4.9606 83.2096 -13.6069 0.0000 0.0000 0.0000
# 3 15.2814 -13.6069 46.6749 0.0000 0.0000 0.0000
# 4 0.0000 0.0000 0.0000 21.6637 0.0000 0.0000
# 5 0.0000 0.0000 0.0000 0.0000 15.2435 0.0000
# 6 0.0000 0.0000 0.0000 0.0000 0.0000 27.1976
#
#
#
# Elastic Compliance Matrix: (Units=1/GPa)
#
#
# Indices 1 2 3 4 5 6 
#
# 1 0.031338 0.000200 -0.010202 0.000000 0.000000 0.000000
# 2 0.000200 0.012621 0.003614 0.000000 0.000000 0.000000
# 3 -0.010202 0.003614 0.025818 0.000000 0.000000 0.000000
# 4 0.000000 0.000000 0.000000 0.046160 0.000000 0.000000
# 5 0.000000 0.000000 0.000000 0.000000 0.065602 0.000000
# 6 0.000000 0.000000 0.000000 0.000000 0.000000 0.036768
#
#
# Mechanical properties :
#
#
# Convention : Reuss Voigt Hill
#
# Bulk Modulus (GPa) = 17.54345 17.80312 17.67329
# Shear Modulus (GPa) = 19.99326 24.16007 22.07667
#
# Velocity S-wave (km/s) = 3.57281 3.92751 3.75435
# Velocity P-wave (km/s) = 5.31233 5.65100 5.48428
#
# Compressibility (1/GPa) = 0.05700133
#
# Stress axis : x y z
#
# Youngs Moduli (GPa) = 31.90965 79.23485 38.73202
#
# Poissons Ratio (x) = -0.01585 0.39514
# Poissons Ratio (y) = -0.00638 -0.13997
# Poissons Ratio (z) = 0.32554 -0.28634
#
# Static dielectric constant tensor:
#      x y z
#    x 1.511360 0.000000 0.000000 
#    y 0.000000 1.608620 0.000000 
#    z 0.000000 0.000000 1.505930 
# 
# From -- ./inp_files/28724.got.cif
#   From: 2010.05.17/outbox.cif.g08.bks.cpg/sg57_15_cif.got.tgz:28724.got - 2010.06.03 13:58:18.
