data_PCOD9436025
_publ_section_title
;
Structure prediction by ZEFSAII (Michael W. Deem and Ramdas Pophale) SiO2 
 PCOD9436025
Probable space group: P B C M
;
_chemical_formula_sum "Si O2"
_cell_formula_units_Z 56
_cell_length_a 20.037584
_cell_length_b 18.439329
_cell_length_c 8.645806
_cell_angle_alpha 90.000000
_cell_angle_beta 90.000000
_cell_angle_gamma 90.000000
_cell_volume 3194.448975
_symmetry_space_group_name_H-M "P B C M"
_symmetry_group_IT_number 57
_symmetry_cell_setting 'orthorhombic'
loop_
_space_group_symop_operation_xyz
x,y,z
-x,-y,1/2+z
x,1/2-y,-z
-x,1/2+y,1/2-z
-x,-y,-z
x,y,1/2-z
-x,1/2+y,z
x,1/2-y,1/2+z
loop_
_atom_site_type_symbol
_atom_site_label
_atom_site_fract_x
_atom_site_fract_y
_atom_site_fract_z
Si Si1 0.564280 0.669236 0.064007
Si Si2 0.797567 0.023451 0.935301
Si Si3 0.842196 0.330406 0.565678
Si Si4 0.657516 0.534043 0.437505
Si Si5 0.997498 0.170106 0.434912
Si Si6 0.542367 0.067677 0.935681
Si Si7 0.934368 0.961464 0.067616
O O1 0.565140 0.671274 0.250000
O O2 0.618333 0.607262 0.011521
O O3 0.576721 0.750000 0.000000
O O4 0.492430 0.638162 0.007920
O O5 0.797469 0.024343 0.750000
O O6 0.733180 0.977859 0.989830
O O7 0.797454 0.106212 0.994797
O O8 0.866060 0.988603 0.994153
O O9 0.829843 0.250000 0.500000
O O10 0.835252 0.328774 0.750000
O O11 0.920010 0.350252 0.531089
O O12 0.657300 0.538115 0.250000
O O13 0.616384 0.460474 0.476704
O O14 0.004636 0.250000 0.500000
O O15 0.006213 0.165847 0.250000
O O16 0.050410 0.120793 0.522204
O O17 0.537216 0.072075 0.750000
O O18 0.500000 0.000000 0.000000
O O19 0.931976 0.973615 0.250000
O O20 0.000000 0.000000 0.000000
#
# Coordination Sequence:
#
# PCOD9436025 Si02
#       7
#     8   8   8   8   8   8   8
#     4  10  19  34  56  85 115 146 187 229 271 320
#     4  11  21  36  57  79 108 147 185 228 280 330
#     4  10  20  34  53  77 104 133 173 221 274 333
#     4   8  18  35  55  79 110 147 184 224 272 328
#     4  10  20  35  55  78 105 134 171 223 280 332
#     4   9  16  31  54  80 108 139 177 218 262 313
#     4  12  23  36  54  79 107 140 183 231 277 329
#
# _framework density 17.530408999999999
#
# number of rings (size 3 to 8) (size 9 to 14) (size 15 to 20)
#    0.000    2.000    1.429    4.286    0.000    1.143 
#    0.000   10.000    0.000    1.714    0.000    0.000 
#    0.000    0.000    0.000    0.000    0.000    0.000 
#
# Total GULP energy -312154.299486 kJ/mol
# GULP energy per Si atom -5574.183919 kJ/mol
# Density = 1.749051 g / cm^3
# Si number density = 17.530409 Si / 1000 Ang^3
#
#
#
# Elastic Constant Matrix: (Units=GPa)
#
#
# Indices 1 2 3 4 5 6 
#
# 1 111.3159 61.5548 30.8725 0.0000 0.0000 0.0000
# 2 61.5548 117.3784 33.5451 0.0000 0.0000 0.0000
# 3 30.8725 33.5451 63.7610 0.0000 0.0000 0.0000
# 4 0.0000 0.0000 0.0000 32.8760 0.0000 0.0000
# 5 0.0000 0.0000 0.0000 0.0000 18.6151 0.0000
# 6 0.0000 0.0000 0.0000 0.0000 0.0000 27.3943
#
#
#
# Elastic Compliance Matrix: (Units=1/GPa)
#
#
# Indices 1 2 3 4 5 6 
#
# 1 0.013196 -0.005996 -0.003235 0.000000 0.000000 0.000000
# 2 -0.005996 0.012751 -0.003805 0.000000 0.000000 0.000000
# 3 -0.003235 -0.003805 0.019252 0.000000 0.000000 0.000000
# 4 0.000000 0.000000 0.000000 0.030417 0.000000 0.000000
# 5 0.000000 0.000000 0.000000 0.000000 0.053720 0.000000
# 6 0.000000 0.000000 0.000000 0.000000 0.000000 0.036504
#
#
# Mechanical properties :
#
#
# Convention : Reuss Voigt Hill
#
# Bulk Modulus (GPa) = 52.28223 60.48892 56.38557
# Shear Modulus (GPa) = 25.21576 26.87592 26.04584
#
# Velocity S-wave (km/s) = 3.79674 3.91973 3.85873
# Velocity P-wave (km/s) = 7.00777 7.42063 7.21715
#
# Compressibility (1/GPa) = 0.01912696
#
# Stress axis : x y z
#
# Youngs Moduli (GPa) = 75.77981 78.42381 51.94251
#
# Poissons Ratio (x) = 0.47020 0.16804
# Poissons Ratio (y) = 0.45435 0.19766
# Poissons Ratio (z) = 0.24515 0.29844
#
# Static dielectric constant tensor:
#      x y z
#    x 1.618840 0.000000 0.000000 
#    y 0.000000 1.613210 0.000000 
#    z 0.000000 0.000000 1.590760 
# 
# From -- ./inp_files/8301.got.cif
#   From: 2010.05.17/outbox.cif.g08.bks.cpg/sg57_5_cif.got.tgz:8301.got - 2010.06.03 13:58:18.
