data_PCOD9436612
_publ_section_title
;
Structure prediction by ZEFSAII (Michael W. Deem and Ramdas Pophale) SiO2 
 PCOD9436612
Probable space group: P B C M
;
_chemical_formula_sum "Si O2"
_cell_formula_units_Z 40
_cell_length_a 12.152872
_cell_length_b 22.018781
_cell_length_c 7.512439
_cell_angle_alpha 90.000000
_cell_angle_beta 90.000000
_cell_angle_gamma 90.000000
_cell_volume 2010.264273
_symmetry_space_group_name_H-M "P B C M"
_symmetry_group_IT_number 57
_symmetry_cell_setting 'orthorhombic'
loop_
_space_group_symop_operation_xyz
x,y,z
-x,-y,1/2+z
x,1/2-y,-z
-x,1/2+y,1/2-z
-x,-y,-z
x,y,1/2-z
-x,1/2+y,z
x,1/2-y,1/2+z
loop_
_atom_site_type_symbol
_atom_site_label
_atom_site_fract_x
_atom_site_fract_y
_atom_site_fract_z
Si Si1 0.334138 0.969198 0.467244
Si Si2 0.024107 0.179153 0.963870
Si Si3 0.727492 0.819640 0.036934
Si Si4 0.085970 0.554695 0.536419
Si Si5 0.543988 0.905822 0.043533
O O1 0.335646 0.971029 0.250000
O O2 0.209086 0.960847 0.527612
O O3 0.421643 0.917989 0.527397
O O4 0.388351 0.031393 0.533195
O O5 0.025872 0.175173 0.750000
O O6 0.149031 0.168476 0.031076
O O7 0.953086 0.121475 0.028332
O O8 0.993042 0.250000 0.000000
O O9 0.732109 0.830543 0.250000
O O10 0.627594 0.858211 0.960236
O O11 0.705166 0.750000 0.000000
O O12 0.092909 0.558829 0.750000
O O13 0.000000 0.500000 0.500000
O O14 0.528206 0.888884 0.250000
#
# Coordination Sequence:
#
# PCOD9436612 Si02
#       5
#     8   8   8   8   8
#     4   9  18  31  48  70  94 121 152 189 233 277
#     4   9  18  32  48  67  93 125 159 195 236 281
#     4   9  17  29  46  66  88 117 152 189 228 270
#     4  10  20  33  50  73  99 126 160 200 239 282
#     4   9  17  31  49  68  93 122 151 187 232 278
#
# _framework density 19.897880000000001
#
# number of rings (size 3 to 8) (size 9 to 14) (size 15 to 20)
#    0.000    2.800    0.000    1.200    0.000    4.000 
#    0.000    5.000    0.000    0.000    0.000    0.000 
#    0.000    0.000    0.000    0.000    0.000    0.000 
#
# Total GULP energy -222840.175243 kJ/mol
# GULP energy per Si atom -5571.004381 kJ/mol
# Density = 1.985259 g / cm^3
# Si number density = 19.897880 Si / 1000 Ang^3
#
#
#
# Elastic Constant Matrix: (Units=GPa)
#
#
# Indices 1 2 3 4 5 6 
#
# 1 164.8881 71.6930 -4.9125 0.0000 0.0000 0.0000
# 2 71.6930 57.6326 -13.9638 0.0000 0.0000 0.0000
# 3 -4.9125 -13.9638 53.9263 0.0000 0.0000 0.0000
# 4 0.0000 0.0000 0.0000 17.1655 0.0000 0.0000
# 5 0.0000 0.0000 0.0000 0.0000 5.4525 0.0000
# 6 0.0000 0.0000 0.0000 0.0000 0.0000 47.8310
#
#
#
# Elastic Compliance Matrix: (Units=1/GPa)
#
#
# Indices 1 2 3 4 5 6 
#
# 1 0.013768 -0.017949 -0.003394 0.000000 0.000000 0.000000
# 2 -0.017949 0.041912 0.009218 0.000000 0.000000 0.000000
# 3 -0.003394 0.009218 0.020622 0.000000 0.000000 0.000000
# 4 0.000000 0.000000 0.000000 0.058256 0.000000 0.000000
# 5 0.000000 0.000000 0.000000 0.000000 0.183402 0.000000
# 6 0.000000 0.000000 0.000000 0.000000 0.000000 0.020907
#
#
# Mechanical properties :
#
#
# Convention : Reuss Voigt Hill
#
# Bulk Modulus (GPa) = 19.21129 42.45336 30.83232
# Shear Modulus (GPa) = 13.14175 28.99849 21.07012
#
# Velocity S-wave (km/s) = 2.57273 3.82169 3.25762
# Velocity P-wave (km/s) = 4.30130 6.39184 5.44779
#
# Compressibility (1/GPa) = 0.05205272
#
# Stress axis : x y z
#
# Youngs Moduli (GPa) = 72.63380 23.85932 48.49290
#
# Poissons Ratio (x) = 0.42825 0.16456
# Poissons Ratio (y) = 1.30369 -0.44700
# Poissons Ratio (z) = 0.24648 -0.21993
#
# Static dielectric constant tensor:
#      x y z
#    x 1.725550 0.000000 0.000000 
#    y 0.000000 1.693690 0.000000 
#    z 0.000000 0.000000 1.793990 
# 
# From -- ./inp_files/2867.got.cif
#   From: 2010.05.17/outbox.cif.g08.bks.cpg/sg57_2_cif.got.tgz:2867.got - 2010.06.03 13:58:18.
