data_PCOD9436421
_publ_section_title
;
Structure prediction by ZEFSAII (Michael W. Deem and Ramdas Pophale) SiO2 
 PCOD9436421
Probable space group: P B C M
;
_chemical_formula_sum "Si O2"
_cell_formula_units_Z 48
_cell_length_a 9.415493
_cell_length_b 14.314880
_cell_length_c 18.187263
_cell_angle_alpha 90.000000
_cell_angle_beta 90.000000
_cell_angle_gamma 90.000000
_cell_volume 2451.309360
_symmetry_space_group_name_H-M "P B C M"
_symmetry_group_IT_number 57
_symmetry_cell_setting 'orthorhombic'
loop_
_space_group_symop_operation_xyz
x,y,z
-x,-y,1/2+z
x,1/2-y,-z
-x,1/2+y,1/2-z
-x,-y,-z
x,y,1/2-z
-x,1/2+y,z
x,1/2-y,1/2+z
loop_
_atom_site_type_symbol
_atom_site_label
_atom_site_fract_x
_atom_site_fract_y
_atom_site_fract_z
Si Si1 0.206980 0.539697 0.623103
Si Si2 0.948376 0.840573 0.397105
Si Si3 0.362081 0.109210 0.615871
Si Si4 0.570150 0.426188 0.250000
Si Si5 0.692429 0.084770 0.459206
Si Si6 0.505025 0.750000 0.500000
Si Si7 0.984857 0.874346 0.568908
O O1 0.321558 0.534496 0.685935
O O2 0.280785 0.564950 0.545466
O O3 0.090354 0.619823 0.639499
O O4 0.114802 0.447059 0.609954
O O5 0.802102 0.874736 0.362844
O O6 0.950854 0.878958 0.481540
O O7 0.955810 0.729681 0.403858
O O8 0.463679 0.113129 0.685166
O O9 0.402482 0.187787 0.555612
O O10 0.372007 0.006741 0.578477
O O11 0.594518 0.176609 0.456090
O O12 0.847866 0.103889 0.424919
#
# Coordination Sequence:
#
# PCOD9436421 Si02
#       7
#     8   8   8   4   8   4   8
#     4  11  21  45  67  97 136 180 225 281 341 410
#     4  10  20  39  73 103 132 165 239 284 332 397
#     4  12  25  44  68 105 136 183 222 289 343 419
#     4  12  30  42  64  96 150 184 216 276 372 410
#     4  11  21  43  73 102 131 179 230 286 336 409
#     4  12  24  38  74 102 138 172 234 274 350 416
#     4  10  19  37  76 109 121 167 241 293 326 390
#
# _framework density 19.581371000000001
#
# number of rings (size 3 to 8) (size 9 to 14) (size 15 to 20)
#    0.000    1.000    5.000    4.500    0.000    0.667 
#    0.000    4.167    0.000    0.000    0.000    0.000 
#    0.000    0.000    0.000    0.000    0.000    0.000 
#
# Total GULP energy -267334.976244 kJ/mol
# GULP energy per Si atom -5569.478672 kJ/mol
# Density = 1.953680 g / cm^3
# Si number density = 19.581371 Si / 1000 Ang^3
#
#
#
# Elastic Constant Matrix: (Units=GPa)
#
#
# Indices 1 2 3 4 5 6 
#
# 1 58.0884 17.9900 20.8214 0.0000 0.0000 0.0000
# 2 17.9900 89.2686 21.5024 0.0000 0.0000 0.0000
# 3 20.8214 21.5024 56.3700 0.0000 0.0000 0.0000
# 4 0.0000 0.0000 0.0000 5.4539 0.0000 0.0000
# 5 0.0000 0.0000 0.0000 0.0000 14.6125 0.0000
# 6 0.0000 0.0000 0.0000 0.0000 0.0000 37.9515
#
#
#
# Elastic Compliance Matrix: (Units=1/GPa)
#
#
# Indices 1 2 3 4 5 6 
#
# 1 0.020345 -0.002522 -0.006553 0.000000 0.000000 0.000000
# 2 -0.002522 0.012648 -0.003893 0.000000 0.000000 0.000000
# 3 -0.006553 -0.003893 0.021645 0.000000 0.000000 0.000000
# 4 0.000000 0.000000 0.000000 0.183354 0.000000 0.000000
# 5 0.000000 0.000000 0.000000 0.000000 0.068435 0.000000
# 6 0.000000 0.000000 0.000000 0.000000 0.000000 0.026349
#
#
# Mechanical properties :
#
#
# Convention : Reuss Voigt Hill
#
# Bulk Modulus (GPa) = 34.83965 36.03941 35.43953
# Shear Modulus (GPa) = 13.57662 21.16447 17.37055
#
# Velocity S-wave (km/s) = 2.63600 3.29119 2.98165
# Velocity P-wave (km/s) = 5.20534 5.73476 5.47645
#
# Compressibility (1/GPa) = 0.02870293
#
# Stress axis : x y z
#
# Youngs Moduli (GPa) = 49.15226 79.06334 46.19904
#
# Poissons Ratio (x) = 0.19937 0.30274
# Poissons Ratio (y) = 0.12394 0.17986
# Poissons Ratio (z) = 0.32209 0.30781
#
# Static dielectric constant tensor:
#      x y z
#    x 1.726200 0.000000 0.000000 
#    y 0.000000 1.696400 0.000000 
#    z 0.000000 0.000000 1.646960 
# 
# From -- ./inp_files/20994.got.cif
#   From: 2010.05.17/outbox.cif.g08.bks.cpg/sg57_11_cif.got.tgz:20994.got - 2010.06.03 13:58:18.
