data_PCOD9436236
_publ_section_title
;
Structure prediction by ZEFSAII (Michael W. Deem and Ramdas Pophale) SiO2 
 PCOD9436236
Probable space group: P B C M
;
_chemical_formula_sum "Si O2"
_cell_formula_units_Z 64
_cell_length_a 24.373857
_cell_length_b 15.128908
_cell_length_c 8.791042
_cell_angle_alpha 90.000000
_cell_angle_beta 90.000000
_cell_angle_gamma 90.000000
_cell_volume 3241.695332
_symmetry_space_group_name_H-M "P B C M"
_symmetry_group_IT_number 57
_symmetry_cell_setting 'orthorhombic'
loop_
_space_group_symop_operation_xyz
x,y,z
-x,-y,1/2+z
x,1/2-y,-z
-x,1/2+y,1/2-z
-x,-y,-z
x,y,1/2-z
-x,1/2+y,z
x,1/2-y,1/2+z
loop_
_atom_site_type_symbol
_atom_site_label
_atom_site_fract_x
_atom_site_fract_y
_atom_site_fract_z
Si Si1 0.606472 0.160383 0.922835
Si Si2 0.249698 0.037798 0.435372
Si Si3 0.870705 0.967709 0.566782
Si Si4 0.644037 0.848539 0.933771
Si Si5 0.036504 0.345294 0.068021
Si Si6 0.560221 0.513329 0.930950
Si Si7 0.090411 0.843898 0.432047
Si Si8 0.261624 0.660583 0.921399
O O1 0.585591 0.149719 0.750000
O O2 0.672269 0.167924 0.913060
O O3 0.585123 0.250000 0.000000
O O4 0.592409 0.075435 0.021901
O O5 0.252950 0.033165 0.250000
O O6 0.188858 0.070690 0.475732
O O7 0.300665 0.098295 0.482483
O O8 0.252999 0.936360 0.491626
O O9 0.875845 0.963298 0.750000
O O10 0.921183 0.916525 0.494263
O O11 0.874363 0.071094 0.523180
O O12 0.642469 0.846149 0.750000
O O13 0.644388 0.750000 0.000000
O O14 0.592578 0.904644 0.995201
O O15 0.038828 0.342648 0.250000
O O16 0.973127 0.362393 0.022782
O O17 0.051368 0.250000 0.000000
O O18 0.557893 0.523443 0.750000
O O19 0.500000 0.500000 0.000000
O O20 0.106802 0.750000 0.500000
O O21 0.091661 0.836559 0.250000
O O22 0.238800 0.658880 0.750000
O O23 0.241461 0.750000 0.000000
#
# Coordination Sequence:
#
# PCOD9436236 Si02
#       8
#     8   8   8   8   8   8   8   8
#     4  10  19  35  59  88 121 154 189 233 283 338
#     4   9  19  37  59  82 117 158 194 238 294 348
#     4  10  20  35  56  83 114 151 194 243 296 350
#     4  11  23  44  67  90 120 160 203 247 296 351
#     4  10  20  35  54  78 109 147 192 245 299 354
#     4  12  25  42  65  94 124 158 197 243 294 349
#     4   9  19  34  54  80 113 152 193 238 295 356
#     4   9  17  32  54  81 111 147 183 224 277 336
#
# _framework density 19.742756
#
# number of rings (size 3 to 8) (size 9 to 14) (size 15 to 20)
#    0.000    2.000    1.250    2.625    0.000    3.000 
#    0.000    5.625    0.000    0.000    0.000    0.000 
#    0.000    0.000    0.000    0.000    0.000    0.000 
#
# Total GULP energy -357310.268681 kJ/mol
# GULP energy per Si atom -5582.972948 kJ/mol
# Density = 1.969782 g / cm^3
# Si number density = 19.742756 Si / 1000 Ang^3
#
#
#
# Elastic Constant Matrix: (Units=GPa)
#
#
# Indices 1 2 3 4 5 6 
#
# 1 111.2301 61.0454 35.6490 0.0000 0.0000 0.0000
# 2 61.0454 139.0360 40.8889 0.0000 0.0000 0.0000
# 3 35.6490 40.8889 67.2017 0.0000 0.0000 0.0000
# 4 0.0000 0.0000 0.0000 35.9815 0.0000 0.0000
# 5 0.0000 0.0000 0.0000 0.0000 5.4003 0.0000
# 6 0.0000 0.0000 0.0000 0.0000 0.0000 -3.1972
#
#
#
# Elastic Compliance Matrix: (Units=1/GPa)
#
#
# Indices 1 2 3 4 5 6 
#
# 1 0.012698 -0.004378 -0.004073 0.000000 0.000000 0.000000
# 2 -0.004378 0.010269 -0.003926 0.000000 0.000000 0.000000
# 3 -0.004073 -0.003926 0.019430 0.000000 0.000000 0.000000
# 4 0.000000 0.000000 0.000000 0.027792 0.000000 0.000000
# 5 0.000000 0.000000 0.000000 0.000000 0.185176 0.000000
# 6 0.000000 0.000000 0.000000 0.000000 0.000000 -0.312772
#
#
# Mechanical properties :
#
#
# Convention : Reuss Voigt Hill
#
# Bulk Modulus (GPa) = 56.67428 65.84825 61.26127
# Shear Modulus (GPa) = -186.74877 19.62922 -83.55978
#
# Velocity S-wave (km/s) = -9.73634 3.15659 -6.51277
# Velocity P-wave (km/s) = 9.88061 6.83454 5.04557
#
# Compressibility (1/GPa) = 0.01764469
#
# Stress axis : x y z
#
# Youngs Moduli (GPa) = 78.75182 97.38058 51.46752
#
# Poissons Ratio (x) = 0.42629 0.20960
# Poissons Ratio (y) = 0.34474 0.20206
# Poissons Ratio (z) = 0.32072 0.38231
#
# Static dielectric constant tensor:
#      x y z
#    x 1.711970 0.000000 0.000000 
#    y 0.000000 1.683070 0.000000 
#    z 0.000000 0.000000 1.684780 
# 
# From -- ./inp_files/9291.got.cif
#   From: 2010.05.17/outbox.cif.g08.bks.cpg/sg57_5_cif.got.tgz:9291.got - 2010.06.03 13:58:18.
