data_PCOD9436795
_publ_section_title
;
Structure prediction by ZEFSAII (Michael W. Deem and Ramdas Pophale) SiO2 
 PCOD9436795
Probable space group: P B C M
;
_chemical_formula_sum "Si O2"
_cell_formula_units_Z 56
_cell_length_a 17.012423
_cell_length_b 21.756627
_cell_length_c 9.091899
_cell_angle_alpha 90.000000
_cell_angle_beta 90.000000
_cell_angle_gamma 90.000000
_cell_volume 3365.211321
_symmetry_space_group_name_H-M "P B C M"
_symmetry_group_IT_number 57
_symmetry_cell_setting 'orthorhombic'
loop_
_space_group_symop_operation_xyz
x,y,z
-x,-y,1/2+z
x,1/2-y,-z
-x,1/2+y,1/2-z
-x,-y,-z
x,y,1/2-z
-x,1/2+y,z
x,1/2-y,1/2+z
loop_
_atom_site_type_symbol
_atom_site_label
_atom_site_fract_x
_atom_site_fract_y
_atom_site_fract_z
Si Si1 0.786829 0.015166 0.424816
Si Si2 0.465979 0.408686 0.423710
Si Si3 0.635811 0.685922 0.422791
Si Si4 0.042256 0.941087 0.573359
Si Si5 0.044620 0.184720 0.073723
Si Si6 0.798372 0.885361 0.577091
Si Si7 0.376868 0.977541 0.424080
O O1 0.773533 0.015161 0.250000
O O2 0.805084 0.946184 0.480335
O O3 0.864819 0.054362 0.457549
O O4 0.707747 0.035709 0.507172
O O5 0.449695 0.406910 0.250000
O O6 0.437485 0.347283 0.501411
O O7 0.415093 0.463414 0.496442
O O8 0.557593 0.424854 0.444067
O O9 0.651513 0.750000 0.500000
O O10 0.622545 0.693820 0.250000
O O11 0.712601 0.643447 0.442063
O O12 0.031090 0.946357 0.750000
O O13 0.006470 0.875148 0.527951
O O14 0.000000 0.000000 0.500000
O O15 0.036808 0.191368 0.250000
O O16 0.134295 0.163980 0.040954
O O17 0.025944 0.250000 0.000000
O O18 0.808482 0.901896 0.750000
O O19 0.369288 0.990463 0.250000
#
# Coordination Sequence:
#
# PCOD9436795 Si02
#       7
#     8   8   8   8   8   8   8
#     4  11  21  32  53  82 110 141 180 224 270 322
#     4  10  20  34  53  77 104 136 177 219 260 314
#     4  11  22  34  51  76 109 147 182 216 263 319
#     4  10  21  36  55  81 110 143 182 228 276 326
#     4  10  21  37  55  77 109 145 184 226 270 326
#     4  10  20  34  52  76 109 146 178 216 266 322
#     4  10  20  34  53  77 106 138 171 214 269 319
#
# _framework density 16.640857
#
# number of rings (size 3 to 8) (size 9 to 14) (size 15 to 20)
#    0.000    1.714    2.857    2.143    0.000    4.000 
#    0.000    0.000    0.000    0.857    0.000    4.000 
#    0.000    0.000    0.000    0.000    0.000    0.000 
#
# Total GULP energy -312553.437213 kJ/mol
# GULP energy per Si atom -5581.311379 kJ/mol
# Density = 1.660298 g / cm^3
# Si number density = 16.640857 Si / 1000 Ang^3
#
#
#
# Elastic Constant Matrix: (Units=GPa)
#
#
# Indices 1 2 3 4 5 6 
#
# 1 107.2267 45.3741 55.4245 0.0000 0.0000 0.0000
# 2 45.3741 83.2764 47.6423 0.0000 0.0000 0.0000
# 3 55.4245 47.6423 68.7405 0.0000 0.0000 0.0000
# 4 0.0000 0.0000 0.0000 29.5274 0.0000 0.0000
# 5 0.0000 0.0000 0.0000 0.0000 25.4797 0.0000
# 6 0.0000 0.0000 0.0000 0.0000 0.0000 18.7674
#
#
#
# Elastic Compliance Matrix: (Units=1/GPa)
#
#
# Indices 1 2 3 4 5 6 
#
# 1 0.016240 -0.002249 -0.011535 0.000000 0.000000 0.000000
# 2 -0.002249 0.020209 -0.012193 0.000000 0.000000 0.000000
# 3 -0.011535 -0.012193 0.032299 0.000000 0.000000 0.000000
# 4 0.000000 0.000000 0.000000 0.033867 0.000000 0.000000
# 5 0.000000 0.000000 0.000000 0.000000 0.039247 0.000000
# 6 0.000000 0.000000 0.000000 0.000000 0.000000 0.053284
#
#
# Mechanical properties :
#
#
# Convention : Reuss Voigt Hill
#
# Bulk Modulus (GPa) = 59.54792 61.79172 60.66982
# Shear Modulus (GPa) = 19.78633 22.14176 20.96404
#
# Velocity S-wave (km/s) = 3.45196 3.65165 3.55321
# Velocity P-wave (km/s) = 7.19374 7.41570 7.30556
#
# Compressibility (1/GPa) = 0.01679320
#
# Stress axis : x y z
#
# Youngs Moduli (GPa) = 61.57469 49.48196 30.96075
#
# Poissons Ratio (x) = 0.11130 0.35715
# Poissons Ratio (y) = 0.13851 0.37750
# Poissons Ratio (z) = 0.71029 0.60333
#
# Static dielectric constant tensor:
#      x y z
#    x 1.570100 0.000000 0.000000 
#    y 0.000000 1.550760 0.000000 
#    z 0.000000 0.000000 1.558710 
# 
# From -- ./inp_files/5199.got.cif
#   From: 2010.05.17/outbox.cif.g08.bks.cpg/sg57_3_cif.got.tgz:5199.got - 2010.06.03 13:58:18.
