data_PCOD9436349
_publ_section_title
;
Structure prediction by ZEFSAII (Michael W. Deem and Ramdas Pophale) SiO2 
 PCOD9436349
Probable space group: P B C M
;
_chemical_formula_sum "Si O2"
_cell_formula_units_Z 64
_cell_length_a 10.171931
_cell_length_b 17.600467
_cell_length_c 14.462513
_cell_angle_alpha 90.000000
_cell_angle_beta 90.000000
_cell_angle_gamma 90.000000
_cell_volume 2589.234345
_symmetry_space_group_name_H-M "P B C M"
_symmetry_group_IT_number 57
_symmetry_cell_setting 'orthorhombic'
loop_
_space_group_symop_operation_xyz
x,y,z
-x,-y,1/2+z
x,1/2-y,-z
-x,1/2+y,1/2-z
-x,-y,-z
x,y,1/2-z
-x,1/2+y,z
x,1/2-y,1/2+z
loop_
_atom_site_type_symbol
_atom_site_label
_atom_site_fract_x
_atom_site_fract_y
_atom_site_fract_z
Si Si1 0.904717 0.423018 0.640504
Si Si2 0.826549 0.638844 0.137514
Si Si3 0.703619 0.701663 0.637462
Si Si4 0.431529 0.755316 0.637070
Si Si5 0.352636 0.507709 0.606934
Si Si6 0.801509 0.157642 0.646449
Si Si7 0.601797 0.422853 0.594225
Si Si8 0.070142 0.093435 0.635896
O O1 0.925885 0.426159 0.750000
O O2 0.750029 0.409450 0.629685
O O3 0.932776 0.507294 0.603488
O O4 0.021175 0.368266 0.607418
O O5 0.819845 0.639901 0.250000
O O6 0.763182 0.717834 0.106806
O O7 0.744195 0.564623 0.108660
O O8 0.707868 0.700321 0.750000
O O9 0.551444 0.700018 0.611712
O O10 0.796244 0.633827 0.605848
O O11 0.428458 0.760803 0.750000
O O12 0.295699 0.718949 0.603603
O O13 0.457741 0.838636 0.598573
O O14 0.279338 0.578745 0.653365
O O15 0.494796 0.478080 0.642805
O O16 0.377124 0.540121 0.505049
O O17 0.830128 0.186179 0.750000
O O18 0.941117 0.138090 0.603440
O O19 0.066523 0.092913 0.750000
#
# Coordination Sequence:
#
# PCOD9436349 Si02
#       8
#     8   8   8   8   8   8   8   8
#     4  10  21  36  60  90 116 146 191 246 295 336
#     4  10  19  36  62  87 113 151 195 241 296 346
#     4   9  18  32  55  85 116 145 182 236 292 344
#     4  10  21  37  59  88 115 147 192 240 290 341
#     4  11  23  41  59  81 117 161 197 231 290 346
#     4  10  21  37  62  88 114 148 192 242 291 345
#     4  11  25  39  57  85 119 158 196 240 285 345
#     4   9  18  34  55  86 118 143 181 236 294 347
#
# _framework density 24.717732000000002
#
# number of rings (size 3 to 8) (size 9 to 14) (size 15 to 20)
#    0.000    2.000    2.500    0.750    3.500    2.500 
#    0.000    0.000    0.000    0.750    0.000    0.000 
#    0.000    0.000    0.000    0.000    0.000    0.000 
#
# Total GULP energy -357920.721246 kJ/mol
# GULP energy per Si atom -5592.511269 kJ/mol
# Density = 2.466147 g / cm^3
# Si number density = 24.717732 Si / 1000 Ang^3
#
#
#
# Elastic Constant Matrix: (Units=GPa)
#
#
# Indices 1 2 3 4 5 6 
#
# 1 113.6715 -11.9770 11.1781 0.0000 0.0000 0.0000
# 2 -11.9770 22.0219 5.7380 0.0000 0.0000 0.0000
# 3 11.1781 5.7380 71.7007 0.0000 0.0000 0.0000
# 4 0.0000 0.0000 0.0000 -131.6036 0.0000 0.0000
# 5 0.0000 0.0000 0.0000 0.0000 24.6532 0.0000
# 6 0.0000 0.0000 0.0000 0.0000 0.0000 46.2570
#
#
#
# Elastic Compliance Matrix: (Units=1/GPa)
#
#
# Indices 1 2 3 4 5 6 
#
# 1 0.009593 0.005726 -0.001954 0.000000 0.000000 0.000000
# 2 0.005726 0.049795 -0.004878 0.000000 0.000000 0.000000
# 3 -0.001954 -0.004878 0.014642 0.000000 0.000000 0.000000
# 4 0.000000 0.000000 0.000000 -0.007599 0.000000 0.000000
# 5 0.000000 0.000000 0.000000 0.000000 0.040563 0.000000
# 6 0.000000 0.000000 0.000000 0.000000 0.000000 0.021618
#
#
# Mechanical properties :
#
#
# Convention : Reuss Voigt Hill
#
# Bulk Modulus (GPa) = 13.92392 24.14136 19.03264
# Shear Modulus (GPa) = 32.30781 1.35832 16.83306
#
# Velocity S-wave (km/s) = 3.61926 0.74211 2.61245
# Velocity P-wave (km/s) = 4.80737 3.24381 4.10080
#
# Compressibility (1/GPa) = 0.07181884
#
# Stress axis : x y z
#
# Youngs Moduli (GPa) = 104.24534 20.08253 68.29764
#
# Poissons Ratio (x) = -0.11500 0.13344
# Poissons Ratio (y) = -0.59694 0.33313
# Poissons Ratio (z) = 0.20367 0.09795
#
# Static dielectric constant tensor:
#      x y z
#    x 1.973870 0.000000 0.000000 
#    y 0.000000 1.891460 0.000000 
#    z 0.000000 0.000000 1.988340 
# 
# From -- ./inp_files/21384.got.cif
#   From: 2010.05.17/outbox.cif.g08.bks.cpg/sg57_11_cif.got.tgz:21384.got - 2010.06.03 13:58:18.
