data_PCOD9436805
_publ_section_title
;
Structure prediction by ZEFSAII (Michael W. Deem and Ramdas Pophale) SiO2 
 PCOD9436805
Probable space group: P B C M
;
_chemical_formula_sum "Si O2"
_cell_formula_units_Z 48
_cell_length_a 7.962846
_cell_length_b 33.314359
_cell_length_c 7.354945
_cell_angle_alpha 90.000000
_cell_angle_beta 90.000000
_cell_angle_gamma 90.000000
_cell_volume 1951.098556
_symmetry_space_group_name_H-M "P B C M"
_symmetry_group_IT_number 57
_symmetry_cell_setting 'orthorhombic'
loop_
_space_group_symop_operation_xyz
x,y,z
-x,-y,1/2+z
x,1/2-y,-z
-x,1/2+y,1/2-z
-x,-y,-z
x,y,1/2-z
-x,1/2+y,z
x,1/2-y,1/2+z
loop_
_atom_site_type_symbol
_atom_site_label
_atom_site_fract_x
_atom_site_fract_y
_atom_site_fract_z
Si Si1 0.069016 0.318936 0.452270
Si Si2 0.288387 0.852080 0.471865
Si Si3 0.199380 0.402803 0.955531
Si Si4 0.679879 0.517953 0.034010
Si Si5 0.584938 0.794225 0.032880
Si Si6 0.841191 0.062604 0.528908
O O1 0.036990 0.302363 0.250000
O O2 0.159697 0.362379 0.441091
O O3 0.223464 0.295121 0.541918
O O4 0.884795 0.329274 0.531555
O O5 0.284261 0.851408 0.250000
O O6 0.454558 0.828312 0.531578
O O7 0.275073 0.899122 0.524467
O O8 0.248879 0.391981 0.750000
O O9 0.315801 0.436875 0.039939
O O10 0.022478 0.425970 0.956298
O O11 0.709377 0.522388 0.250000
O O12 0.797348 0.482074 0.965308
O O13 0.500000 0.500000 0.000000
O O14 0.600127 0.799681 0.250000
O O15 0.512390 0.750000 0.000000
O O16 0.844259 0.062077 0.750000
#
# Coordination Sequence:
#
# PCOD9436805 Si02
#       6
#     8   8   8   8   8   8
#     4   9  19  36  58  79 104 146 186 216 263 327
#     4   8  16  33  55  78 102 132 180 222 252 315
#     4  10  20  34  52  79 110 138 176 229 277 313
#     4  10  22  34  49  77 110 144 182 225 270 318
#     4  10  21  36  56  81 107 138 174 219 271 324
#     4   9  18  35  56  75 100 142 188 223 263 323
#
# _framework density 24.601524999999999
#
# number of rings (size 3 to 8) (size 9 to 14) (size 15 to 20)
#    0.000    2.667    0.000    2.000    2.333    3.333 
#    0.000    3.333    0.000    0.000    0.000    0.000 
#    0.000    0.000    0.000    0.000    0.000    0.000 
#
# Total GULP energy -267783.424964 kJ/mol
# GULP energy per Si atom -5578.821353 kJ/mol
# Density = 2.454553 g / cm^3
# Si number density = 24.601525 Si / 1000 Ang^3
#
#
#
# Elastic Constant Matrix: (Units=GPa)
#
#
# Indices 1 2 3 4 5 6 
#
# 1 72.4168 11.2848 -0.0712 0.0000 0.0000 0.0000
# 2 11.2848 36.8957 2.1791 0.0000 0.0000 0.0000
# 3 -0.0712 2.1791 101.2751 0.0000 0.0000 0.0000
# 4 0.0000 0.0000 0.0000 7.3261 0.0000 0.0000
# 5 0.0000 0.0000 0.0000 0.0000 6.3609 0.0000
# 6 0.0000 0.0000 0.0000 0.0000 0.0000 46.0467
#
#
#
# Elastic Compliance Matrix: (Units=1/GPa)
#
#
# Indices 1 2 3 4 5 6 
#
# 1 0.014501 -0.004442 0.000106 0.000000 0.000000 0.000000
# 2 -0.004442 0.028498 -0.000616 0.000000 0.000000 0.000000
# 3 0.000106 -0.000616 0.009887 0.000000 0.000000 0.000000
# 4 0.000000 0.000000 0.000000 0.136499 0.000000 0.000000
# 5 0.000000 0.000000 0.000000 0.000000 0.157211 0.000000
# 6 0.000000 0.000000 0.000000 0.000000 0.000000 0.021717
#
#
# Mechanical properties :
#
#
# Convention : Reuss Voigt Hill
#
# Bulk Modulus (GPa) = 23.26511 26.37475 24.81993
# Shear Modulus (GPa) = 12.73739 25.09305 18.91522
#
# Velocity S-wave (km/s) = 2.27788 3.19718 2.77585
# Velocity P-wave (km/s) = 4.04915 4.93693 4.51491
#
# Compressibility (1/GPa) = 0.04298282
#
# Stress axis : x y z
#
# Youngs Moduli (GPa) = 68.95987 35.08977 101.13850
#
# Poissons Ratio (x) = 0.15585 -0.01070
# Poissons Ratio (y) = 0.30629 0.06233
# Poissons Ratio (z) = -0.00729 0.02163
#
# Static dielectric constant tensor:
#      x y z
#    x 2.002680 0.000000 0.000000 
#    y 0.000000 2.274230 0.000000 
#    z 0.000000 0.000000 1.972220 
# 
# From -- ./inp_files/2040.got.cif
#   From: 2010.05.17/outbox.cif.g08.bks.cpg/sg57_2_cif.got.tgz:2040.got - 2010.06.03 13:58:18.
