data_PCOD9436098
_publ_section_title
;
Structure prediction by ZEFSAII (Michael W. Deem and Ramdas Pophale) SiO2 
 PCOD9436098
Probable space group: P B C M
;
_chemical_formula_sum "Si O2"
_cell_formula_units_Z 56
_cell_length_a 10.271682
_cell_length_b 20.673206
_cell_length_c 13.930255
_cell_angle_alpha 90.000000
_cell_angle_beta 90.000000
_cell_angle_gamma 90.000000
_cell_volume 2958.070118
_symmetry_space_group_name_H-M "P B C M"
_symmetry_group_IT_number 57
_symmetry_cell_setting 'orthorhombic'
loop_
_space_group_symop_operation_xyz
x,y,z
-x,-y,1/2+z
x,1/2-y,-z
-x,1/2+y,1/2-z
-x,-y,-z
x,y,1/2-z
-x,1/2+y,z
x,1/2-y,1/2+z
loop_
_atom_site_type_symbol
_atom_site_label
_atom_site_fract_x
_atom_site_fract_y
_atom_site_fract_z
Si Si1 0.538115 0.920316 0.952354
Si Si2 0.419977 0.146177 0.639956
Si Si3 0.277022 0.977115 0.976290
Si Si4 0.863091 0.914539 0.361293
Si Si5 0.495304 0.788616 0.635600
Si Si6 0.191917 0.725432 0.136216
Si Si7 0.110920 0.855741 0.035786
O O1 0.401999 0.950007 0.917326
O O2 0.565015 0.851933 0.904217
O O3 0.515327 0.902347 0.064667
O O4 0.655635 0.970991 0.951860
O O5 0.465429 0.138612 0.750000
O O6 0.267372 0.129233 0.636991
O O7 0.448144 0.219156 0.607132
O O8 0.180119 0.017622 0.908777
O O9 0.204552 0.917538 0.025140
O O10 0.902183 0.922387 0.250000
O O11 0.975157 0.880978 0.422821
O O12 0.503427 0.790861 0.750000
O O13 0.342203 0.790218 0.610285
O O14 0.173155 0.716729 0.250000
O O15 0.165011 0.799365 0.105420
O O16 0.106053 0.678913 0.068672
#
# Coordination Sequence:
#
# PCOD9436098 Si02
#       7
#     8   8   8   8   8   8   8
#     4  10  19  35  58  85 122 150 190 248 302 356
#     4   9  19  35  59  88 117 153 195 241 301 359
#     4  10  21  36  58  85 115 159 198 237 294 353
#     4  10  22  40  60  85 120 164 205 242 291 353
#     4  10  19  34  58  87 118 149 189 247 306 356
#     4  10  22  38  62  90 114 149 195 248 306 354
#     4  11  21  39  62  84 121 156 204 245 288 349
#
# _framework density 18.931260999999999
#
# number of rings (size 3 to 8) (size 9 to 14) (size 15 to 20)
#    0.000    2.000    1.429    2.143    2.000    1.143 
#   10.286    4.286    0.000    0.857    0.000    0.000 
#    0.000    0.000    0.000    0.000    0.000    0.000 
#
# Total GULP energy -312387.977389 kJ/mol
# GULP energy per Si atom -5578.356739 kJ/mol
# Density = 1.888817 g / cm^3
# Si number density = 18.931261 Si / 1000 Ang^3
#
#
#
# Elastic Constant Matrix: (Units=GPa)
#
#
# Indices 1 2 3 4 5 6 
#
# 1 51.3675 45.5022 39.8238 0.0000 0.0000 0.0000
# 2 45.5022 134.8202 42.0533 0.0000 0.0000 0.0000
# 3 39.8238 42.0533 77.0612 0.0000 0.0000 0.0000
# 4 0.0000 0.0000 0.0000 17.7044 0.0000 0.0000
# 5 0.0000 0.0000 0.0000 0.0000 22.1234 0.0000
# 6 0.0000 0.0000 0.0000 0.0000 0.0000 39.3935
#
#
#
# Elastic Compliance Matrix: (Units=1/GPa)
#
#
# Indices 1 2 3 4 5 6 
#
# 1 0.038855 -0.008256 -0.015574 0.000000 0.000000 0.000000
# 2 -0.008256 0.010693 -0.001569 0.000000 0.000000 0.000000
# 3 -0.015574 -0.001569 0.021881 0.000000 0.000000 0.000000
# 4 0.000000 0.000000 0.000000 0.056483 0.000000 0.000000
# 5 0.000000 0.000000 0.000000 0.000000 0.045201 0.000000
# 6 0.000000 0.000000 0.000000 0.000000 0.000000 0.025385
#
#
# Mechanical properties :
#
#
# Convention : Reuss Voigt Hill
#
# Bulk Modulus (GPa) = 48.46953 57.55638 53.01296
# Shear Modulus (GPa) = 19.51806 24.90224 22.21015
#
# Velocity S-wave (km/s) = 3.21440 3.63078 3.42892
# Velocity P-wave (km/s) = 6.27973 6.93149 6.61364
#
# Compressibility (1/GPa) = 0.02063152
#
# Stress axis : x y z
#
# Youngs Moduli (GPa) = 25.73685 93.51932 45.70111
#
# Poissons Ratio (x) = 0.77207 0.71176
# Poissons Ratio (y) = 0.21248 0.07170
# Poissons Ratio (z) = 0.40083 0.14672
#
# Static dielectric constant tensor:
#      x y z
#    x 1.650490 0.000000 0.000000 
#    y 0.000000 1.671580 0.000000 
#    z 0.000000 0.000000 1.676860 
# 
# From -- ./inp_files/16757.got.cif
#   From: 2010.05.17/outbox.cif.g08.bks.cpg/sg57_9_cif.got.tgz:16757.got - 2010.06.03 13:58:18.
