data_PCOD9436053
_publ_section_title
;
Structure prediction by ZEFSAII (Michael W. Deem and Ramdas Pophale) SiO2 
 PCOD9436053
Probable space group: P B C M
;
_chemical_formula_sum "Si O2"
_cell_formula_units_Z 56
_cell_length_a 19.757628
_cell_length_b 5.095032
_cell_length_c 26.918768
_cell_angle_alpha 90.000000
_cell_angle_beta 90.000000
_cell_angle_gamma 90.000000
_cell_volume 2709.797886
_symmetry_space_group_name_H-M "P B C M"
_symmetry_group_IT_number 57
_symmetry_cell_setting 'orthorhombic'
loop_
_space_group_symop_operation_xyz
x,y,z
-x,-y,1/2+z
x,1/2-y,-z
-x,1/2+y,1/2-z
-x,-y,-z
x,y,1/2-z
-x,1/2+y,z
x,1/2-y,1/2+z
loop_
_atom_site_type_symbol
_atom_site_label
_atom_site_fract_x
_atom_site_fract_y
_atom_site_fract_z
Si Si1 0.955407 0.421124 0.250000
Si Si2 0.654853 0.600723 0.303396
Si Si3 0.236734 0.009578 0.966990
Si Si4 0.953535 0.158371 0.859644
Si Si5 0.454446 0.115383 0.750000
Si Si6 0.278666 0.696395 0.877532
Si Si7 0.793457 0.563878 0.694075
Si Si8 0.158452 0.330973 0.600682
O O1 0.019286 0.220572 0.250000
O O2 0.922971 0.363700 0.196525
O O3 0.653965 0.451275 0.250000
O O4 0.594215 0.807679 0.296315
O O5 0.655026 0.420803 0.351837
O O6 0.725814 0.756058 0.304796
O O7 0.166623 0.119702 0.942902
O O8 0.281911 0.918785 0.919539
O O9 0.264391 0.250000 0.000000
O O10 0.226792 0.750000 0.000000
O O11 0.898165 0.053462 0.898268
O O12 0.014066 0.944470 0.864275
O O13 0.485015 0.827764 0.750000
O O14 0.231090 0.474052 0.900596
O O15 0.234894 0.801330 0.830776
O O16 0.819144 0.541416 0.750000
O O17 0.844189 0.681968 0.653542
#
# Coordination Sequence:
#
# PCOD9436053 Si02
#       8
#     4   8   8   8   4   8   8   8
#     4   8  16  34  47  66  95 134 166 206 254 296
#     4   8  18  32  53  79 124 161 197 240 268 315
#     4  11  22  39  60  83 111 140 178 242 311 370
#     4  10  22  36  55  74 108 143 184 228 271 339
#     4  10  22  34  53  82 125 182 214 226 260 310
#     4  10  19  34  57  83 113 147 189 236 298 342
#     4   9  18  31  51  82 116 151 187 232 281 334
#     4  10  22  36  56  84 105 148 188 229 299 354
#
# _framework density 20.665749999999999
#
# number of rings (size 3 to 8) (size 9 to 14) (size 15 to 20)
#    0.429    2.000    1.429    0.429    7.000    0.571 
#    0.000    0.000    0.000    2.571    0.000    0.000 
#    0.000    3.429    0.000    0.000    0.000    0.000 
#
# Total GULP energy -312164.098111 kJ/mol
# GULP energy per Si atom -5574.358895 kJ/mol
# Density = 2.061871 g / cm^3
# Si number density = 20.665750 Si / 1000 Ang^3
#
#
#
# Elastic Constant Matrix: (Units=GPa)
#
#
# Indices 1 2 3 4 5 6 
#
# 1 50.7201 17.6330 9.3300 0.0000 0.0000 0.0000
# 2 17.6330 96.9381 30.9758 0.0000 0.0000 0.0000
# 3 9.3300 30.9758 81.0965 0.0000 0.0000 0.0000
# 4 0.0000 0.0000 0.0000 36.6308 0.0000 0.0000
# 5 0.0000 0.0000 0.0000 0.0000 7.5692 0.0000
# 6 0.0000 0.0000 0.0000 0.0000 0.0000 29.1991
#
#
#
# Elastic Compliance Matrix: (Units=1/GPa)
#
#
# Indices 1 2 3 4 5 6 
#
# 1 0.021132 -0.003493 -0.001097 0.000000 0.000000 0.000000
# 2 -0.003493 0.012327 -0.004307 0.000000 0.000000 0.000000
# 3 -0.001097 -0.004307 0.014102 0.000000 0.000000 0.000000
# 4 0.000000 0.000000 0.000000 0.027299 0.000000 0.000000
# 5 0.000000 0.000000 0.000000 0.000000 0.132115 0.000000
# 6 0.000000 0.000000 0.000000 0.000000 0.000000 0.034248
#
#
# Mechanical properties :
#
#
# Convention : Reuss Voigt Hill
#
# Bulk Modulus (GPa) = 33.59319 38.29247 35.94283
# Shear Modulus (GPa) = 18.59147 26.06755 22.32951
#
# Velocity S-wave (km/s) = 3.00263 3.55546 3.29067
# Velocity P-wave (km/s) = 5.32089 5.95186 5.64520
#
# Compressibility (1/GPa) = 0.02976794
#
# Stress axis : x y z
#
# Youngs Moduli (GPa) = 47.32082 81.11948 70.91099
#
# Poissons Ratio (x) = 0.28339 0.07778
# Poissons Ratio (y) = 0.16531 0.30539
# Poissons Ratio (z) = 0.05190 0.34936
#
# Static dielectric constant tensor:
#      x y z
#    x 1.750240 0.000000 0.000000 
#    y 0.000000 1.851280 0.000000 
#    z 0.000000 0.000000 1.811170 
# 
# From -- ./inp_files/28909.got.cif
#   From: 2010.05.17/outbox.cif.g08.bks.cpg/sg57_15_cif.got.tgz:28909.got - 2010.06.03 13:58:18.
