data_PCOD9436490
_publ_section_title
;
Structure prediction by ZEFSAII (Michael W. Deem and Ramdas Pophale) SiO2 
 PCOD9436490
Probable space group: P B C M
;
_chemical_formula_sum "Si O2"
_cell_formula_units_Z 56
_cell_length_a 15.313275
_cell_length_b 18.654744
_cell_length_c 10.542376
_cell_angle_alpha 90.000000
_cell_angle_beta 90.000000
_cell_angle_gamma 90.000000
_cell_volume 3011.590211
_symmetry_space_group_name_H-M "P B C M"
_symmetry_group_IT_number 57
_symmetry_cell_setting 'orthorhombic'
loop_
_space_group_symop_operation_xyz
x,y,z
-x,-y,1/2+z
x,1/2-y,-z
-x,1/2+y,1/2-z
-x,-y,-z
x,y,1/2-z
-x,1/2+y,z
x,1/2-y,1/2+z
loop_
_atom_site_type_symbol
_atom_site_label
_atom_site_fract_x
_atom_site_fract_y
_atom_site_fract_z
Si Si1 0.116966 0.492624 0.612020
Si Si2 0.642982 0.686565 0.896613
Si Si3 0.005431 0.882772 0.011709
Si Si4 0.241687 0.531699 0.392805
Si Si5 0.157504 0.194918 0.887327
Si Si6 0.167175 0.808318 0.602577
Si Si7 0.434235 0.031301 0.603093
O O1 0.157334 0.484497 0.750000
O O2 0.042279 0.433847 0.589740
O O3 0.186222 0.491311 0.499137
O O4 0.068666 0.568492 0.596373
O O5 0.626643 0.710548 0.750000
O O6 0.745272 0.662690 0.899306
O O7 0.586709 0.615380 0.920952
O O8 0.631101 0.750000 0.000000
O O9 0.926803 0.853724 0.096062
O O10 0.067704 0.827444 0.938857
O O11 0.212865 0.511013 0.250000
O O12 0.220442 0.616603 0.405923
O O13 0.342742 0.511709 0.405102
O O14 0.154624 0.231002 0.750000
O O15 0.150371 0.250000 0.000000
O O16 0.198796 0.750000 0.500000
O O17 0.169898 0.784407 0.750000
O O18 0.464835 0.024908 0.750000
O O19 0.500000 0.000000 0.500000
#
# Coordination Sequence:
#
# PCOD9436490 Si02
#       7
#     8   8   8   8   8   8   8
#     4  10  20  32  50  75 101 136 185 232 270 318
#     4   9  19  36  57  82 113 147 180 215 264 326
#     4  10  20  31  47  71 105 142 180 227 278 319
#     4   9  20  39  58  77 108 145 178 221 283 341
#     4  10  20  33  50  72 101 139 178 215 259 311
#     4  10  21  36  53  73 103 146 190 232 276 321
#     4  10  21  39  63  89 114 142 177 219 272 333
#
# _framework density 18.594826999999999
#
# number of rings (size 3 to 8) (size 9 to 14) (size 15 to 20)
#    0.000    2.286    0.000    2.143    0.000   11.429 
#    0.000    3.571    0.000    3.429    0.000    0.000 
#    0.000    0.000    0.000    0.000    0.000    0.000 
#
# Total GULP energy -312254.224563 kJ/mol
# GULP energy per Si atom -5575.968296 kJ/mol
# Density = 1.855250 g / cm^3
# Si number density = 18.594827 Si / 1000 Ang^3
#
#
#
# Elastic Constant Matrix: (Units=GPa)
#
#
# Indices 1 2 3 4 5 6 
#
# 1 65.1701 31.9217 58.1909 0.0000 0.0000 0.0000
# 2 31.9217 67.9677 67.2761 0.0000 0.0000 0.0000
# 3 58.1909 67.2761 167.5275 0.0000 0.0000 0.0000
# 4 0.0000 0.0000 0.0000 -4.1430 0.0000 0.0000
# 5 0.0000 0.0000 0.0000 0.0000 24.8585 0.0000
# 6 0.0000 0.0000 0.0000 0.0000 0.0000 16.1147
#
#
#
# Elastic Compliance Matrix: (Units=1/GPa)
#
#
# Indices 1 2 3 4 5 6 
#
# 1 0.023164 -0.004838 -0.006103 0.000000 0.000000 0.000000
# 2 -0.004838 0.025430 -0.008532 0.000000 0.000000 0.000000
# 3 -0.006103 -0.008532 0.011515 0.000000 0.000000 0.000000
# 4 0.000000 0.000000 0.000000 -0.241372 0.000000 0.000000
# 5 0.000000 0.000000 0.000000 0.000000 0.040228 0.000000
# 6 0.000000 0.000000 0.000000 0.000000 0.000000 0.062055
#
#
# Mechanical properties :
#
#
# Convention : Reuss Voigt Hill
#
# Bulk Modulus (GPa) = 47.25174 68.38253 57.81714
# Shear Modulus (GPa) = -151.60521 16.91783 -67.34369
#
# Velocity S-wave (km/s) = -9.03924 3.01958 -6.02453
# Velocity P-wave (km/s) = 9.13660 7.00086 4.15123
#
# Compressibility (1/GPa) = 0.02116324
#
# Stress axis : x y z
#
# Youngs Moduli (GPa) = 43.17095 39.32353 86.84125
#
# Poissons Ratio (x) = 0.19025 0.53000
# Poissons Ratio (y) = 0.20887 0.74091
# Poissons Ratio (z) = 0.26347 0.33550
#
# Static dielectric constant tensor:
#      x y z
#    x 1.622980 0.000000 0.000000 
#    y 0.000000 1.682400 0.000000 
#    z 0.000000 0.000000 1.653700 
# 
# From -- ./inp_files/5104.got.cif
#   From: 2010.05.17/outbox.cif.g08.bks.cpg/sg57_3_cif.got.tgz:5104.got - 2010.06.03 13:58:18.
