data_PCOD9436582
_publ_section_title
;
Structure prediction by ZEFSAII (Michael W. Deem and Ramdas Pophale) SiO2 
 PCOD9436582
Probable space group: P B C M
;
_chemical_formula_sum "Si O2"
_cell_formula_units_Z 64
_cell_length_a 22.161873
_cell_length_b 19.676613
_cell_length_c 8.870463
_cell_angle_alpha 90.000000
_cell_angle_beta 90.000000
_cell_angle_gamma 90.000000
_cell_volume 3868.148108
_symmetry_space_group_name_H-M "P B C M"
_symmetry_group_IT_number 57
_symmetry_cell_setting 'orthorhombic'
loop_
_space_group_symop_operation_xyz
x,y,z
-x,-y,1/2+z
x,1/2-y,-z
-x,1/2+y,1/2-z
-x,-y,-z
x,y,1/2-z
-x,1/2+y,z
x,1/2-y,1/2+z
loop_
_atom_site_type_symbol
_atom_site_label
_atom_site_fract_x
_atom_site_fract_y
_atom_site_fract_z
Si Si1 0.418472 0.525322 0.570808
Si Si2 0.295110 0.461375 0.571280
Si Si3 0.526097 0.891560 0.073049
Si Si4 0.874764 0.822158 0.926952
Si Si5 0.020014 0.677610 0.427176
Si Si6 0.942799 0.460635 0.070248
Si Si7 0.364579 0.178510 0.070496
Si Si8 0.831829 0.540445 0.928377
O O1 0.429691 0.509723 0.750000
O O2 0.347079 0.518107 0.550212
O O3 0.445256 0.464846 0.469261
O O4 0.455413 0.594252 0.538132
O O5 0.280967 0.457837 0.750000
O O6 0.324072 0.387621 0.528542
O O7 0.235672 0.477091 0.478457
O O8 0.532459 0.877332 0.250000
O O9 0.567111 0.838678 0.982882
O O10 0.859246 0.823836 0.750000
O O11 0.947304 0.831191 0.940095
O O12 0.859263 0.750000 0.000000
O O13 0.843621 0.883021 0.014775
O O14 0.034916 0.750000 0.500000
O O15 0.034729 0.675873 0.250000
O O16 0.051305 0.616536 0.514931
O O17 0.945656 0.465746 0.250000
O O18 0.881830 0.494485 0.009807
O O19 0.000000 0.500000 0.000000
O O20 0.363300 0.183475 0.250000
O O21 0.344694 0.250000 0.000000
O O22 0.839763 0.535811 0.750000
#
# Coordination Sequence:
#
# PCOD9436582 Si02
#       8
#     8   8   8   8   8   8   8   8
#     4   8  15  28  46  68  94 124 157 198 245 291
#     4   9  19  35  50  67  97 134 173 212 253 302
#     4   9  15  25  45  71  96 123 158 200 245 288
#     4  10  20  34  52  72 100 134 170 212 258 311
#     4  10  20  35  56  81 107 135 167 207 259 318
#     4  12  23  37  57  80 107 138 173 220 274 322
#     4  10  20  33  49  70 100 138 176 213 251 295
#     4  12  24  36  52  75 104 138 179 221 267 322
#
# _framework density 16.545385
#
# number of rings (size 3 to 8) (size 9 to 14) (size 15 to 20)
#    0.000    2.000    1.250    4.500    0.000    4.500 
#    0.000    1.250    0.000    0.000    0.000    0.875 
#    0.000    2.000    0.000    0.000    0.000    0.000 
#
# Total GULP energy -356958.876405 kJ/mol
# GULP energy per Si atom -5577.482444 kJ/mol
# Density = 1.650773 g / cm^3
# Si number density = 16.545385 Si / 1000 Ang^3
#
#
#
# Elastic Constant Matrix: (Units=GPa)
#
#
# Indices 1 2 3 4 5 6 
#
# 1 86.9029 34.5590 51.6700 0.0000 0.0000 0.0000
# 2 34.5590 43.2106 26.8418 0.0000 0.0000 0.0000
# 3 51.6700 26.8418 99.4376 0.0000 0.0000 0.0000
# 4 0.0000 0.0000 0.0000 27.5469 0.0000 0.0000
# 5 0.0000 0.0000 0.0000 0.0000 25.6379 0.0000
# 6 0.0000 0.0000 0.0000 0.0000 0.0000 11.8212
#
#
#
# Elastic Compliance Matrix: (Units=1/GPa)
#
#
# Indices 1 2 3 4 5 6 
#
# 1 0.020729 -0.011880 -0.007564 0.000000 0.000000 0.000000
# 2 -0.011880 0.034613 -0.003170 0.000000 0.000000 0.000000
# 3 -0.007564 -0.003170 0.014843 0.000000 0.000000 0.000000
# 4 0.000000 0.000000 0.000000 0.036302 0.000000 0.000000
# 5 0.000000 0.000000 0.000000 0.000000 0.039005 0.000000
# 6 0.000000 0.000000 0.000000 0.000000 0.000000 0.084594
#
#
# Mechanical properties :
#
#
# Convention : Reuss Voigt Hill
#
# Bulk Modulus (GPa) = 40.07062 50.63253 45.35157
# Shear Modulus (GPa) = 17.62845 20.76656 19.19751
#
# Velocity S-wave (km/s) = 3.26768 3.54662 3.41000
# Velocity P-wave (km/s) = 6.20549 6.88767 6.55546
#
# Compressibility (1/GPa) = 0.02495594
#
# Stress axis : x y z
#
# Youngs Moduli (GPa) = 48.24176 28.89092 67.37173
#
# Poissons Ratio (x) = 0.34321 0.50963
# Poissons Ratio (y) = 0.57310 0.21359
# Poissons Ratio (z) = 0.36492 0.09159
#
# Static dielectric constant tensor:
#      x y z
#    x 1.585180 0.000000 0.000000 
#    y 0.000000 1.553980 0.000000 
#    z 0.000000 0.000000 1.553660 
# 
# From -- ./inp_files/8590.got.cif
#   From: 2010.05.17/outbox.cif.g08.bks.cpg/sg57_5_cif.got.tgz:8590.got - 2010.06.03 13:58:18.
