data_PCOD9436169
_publ_section_title
;
Structure prediction by ZEFSAII (Michael W. Deem and Ramdas Pophale) SiO2 
 PCOD9436169
Probable space group: P B C M
;
_chemical_formula_sum "Si O2"
_cell_formula_units_Z 40
_cell_length_a 6.996377
_cell_length_b 15.268652
_cell_length_c 16.859942
_cell_angle_alpha 90.000000
_cell_angle_beta 90.000000
_cell_angle_gamma 90.000000
_cell_volume 1801.067446
_symmetry_space_group_name_H-M "P B C M"
_symmetry_group_IT_number 57
_symmetry_cell_setting 'orthorhombic'
loop_
_space_group_symop_operation_xyz
x,y,z
-x,-y,1/2+z
x,1/2-y,-z
-x,1/2+y,1/2-z
-x,-y,-z
x,y,1/2-z
-x,1/2+y,z
x,1/2-y,1/2+z
loop_
_atom_site_type_symbol
_atom_site_label
_atom_site_fract_x
_atom_site_fract_y
_atom_site_fract_z
Si Si1 0.965612 0.598481 0.653982
Si Si2 0.485376 0.339389 0.546828
Si Si3 0.256436 0.754595 0.159743
Si Si4 0.473018 0.409866 0.116671
Si Si5 0.249440 0.056310 0.159727
O O1 0.964730 0.600560 0.750000
O O2 0.079349 0.686602 0.629888
O O3 0.084198 0.510814 0.633001
O O4 0.752746 0.594938 0.623091
O O5 0.443811 0.250000 0.500000
O O6 0.668270 0.321167 0.602573
O O7 0.529400 0.405874 0.475887
O O8 0.305656 0.367342 0.599926
O O9 0.224303 0.725024 0.250000
O O10 0.428638 0.826075 0.158027
O O11 0.561460 0.495088 0.156902
O O12 0.214040 0.085775 0.250000
#
# Coordination Sequence:
#
# PCOD9436169 Si02
#       5
#     8   8   8   8   8
#     4   9  18  34  59  85 107 141 189 235 278 327
#     4  10  21  36  53  79 115 150 180 222 280 334
#     4   9  18  35  57  80 112 151 189 230 276 333
#     4  10  19  35  57  82 111 143 185 235 283 328
#     4  10  20  36  58  80 105 141 186 233 278 333
#
# _framework density 22.209053000000001
#
# number of rings (size 3 to 8) (size 9 to 14) (size 15 to 20)
#    0.000    2.400    0.000    4.200    0.000    0.800 
#    0.000   19.000    0.000   12.000    0.000    0.000 
#    0.000    0.000    0.000    0.000    0.000    0.000 
#
# Total GULP energy -223421.192395 kJ/mol
# GULP energy per Si atom -5585.529810 kJ/mol
# Density = 2.215850 g / cm^3
# Si number density = 22.209053 Si / 1000 Ang^3
#
#
#
# Elastic Constant Matrix: (Units=GPa)
#
#
# Indices 1 2 3 4 5 6 
#
# 1 124.2524 7.6460 7.6184 0.0000 0.0000 0.0000
# 2 7.6460 32.9852 14.1829 0.0000 0.0000 0.0000
# 3 7.6184 14.1829 52.7943 0.0000 0.0000 0.0000
# 4 0.0000 0.0000 0.0000 17.4677 0.0000 0.0000
# 5 0.0000 0.0000 0.0000 0.0000 6.4651 0.0000
# 6 0.0000 0.0000 0.0000 0.0000 0.0000 1.6917
#
#
#
# Elastic Compliance Matrix: (Units=1/GPa)
#
#
# Indices 1 2 3 4 5 6 
#
# 1 0.008191 -0.001572 -0.000760 0.000000 0.000000 0.000000
# 2 -0.001572 0.034578 -0.009062 0.000000 0.000000 0.000000
# 3 -0.000760 -0.009062 0.021486 0.000000 0.000000 0.000000
# 4 0.000000 0.000000 0.000000 0.057249 0.000000 0.000000
# 5 0.000000 0.000000 0.000000 0.000000 0.154676 0.000000
# 6 0.000000 0.000000 0.000000 0.000000 0.000000 0.591136
#
#
# Mechanical properties :
#
#
# Convention : Reuss Voigt Hill
#
# Bulk Modulus (GPa) = 24.11585 29.88074 26.99830
# Shear Modulus (GPa) = 5.53143 17.16387 11.34765
#
# Velocity S-wave (km/s) = 1.57988 2.78300 2.26287
# Velocity P-wave (km/s) = 3.76964 4.87958 4.36007
#
# Compressibility (1/GPa) = 0.04146650
#
# Stress axis : x y z
#
# Youngs Moduli (GPa) = 122.07843 28.92043 46.54284
#
# Poissons Ratio (x) = 0.04547 0.03536
# Poissons Ratio (y) = 0.19192 0.42178
# Poissons Ratio (z) = 0.09274 0.26208
#
# Static dielectric constant tensor:
#      x y z
#    x 1.801700 0.000000 0.000000 
#    y 0.000000 1.871350 0.000000 
#    z 0.000000 0.000000 1.851860 
# 
# From -- ./inp_files/20002.got.cif
#   From: 2010.05.17/outbox.cif.g08.bks.cpg/sg57_11_cif.got.tgz:20002.got - 2010.06.03 13:58:18.
