data_PCOD9436736
_publ_section_title
;
Structure prediction by ZEFSAII (Michael W. Deem and Ramdas Pophale) SiO2 
 PCOD9436736
Probable space group: P B C M
;
_chemical_formula_sum "Si O2"
_cell_formula_units_Z 64
_cell_length_a 12.629693
_cell_length_b 32.069367
_cell_length_c 8.521453
_cell_angle_alpha 90.000000
_cell_angle_beta 90.000000
_cell_angle_gamma 90.000000
_cell_volume 3451.412238
_symmetry_space_group_name_H-M "P B C M"
_symmetry_group_IT_number 57
_symmetry_cell_setting 'orthorhombic'
loop_
_space_group_symop_operation_xyz
x,y,z
-x,-y,1/2+z
x,1/2-y,-z
-x,1/2+y,1/2-z
-x,-y,-z
x,y,1/2-z
-x,1/2+y,z
x,1/2-y,1/2+z
loop_
_atom_site_type_symbol
_atom_site_label
_atom_site_fract_x
_atom_site_fract_y
_atom_site_fract_z
Si Si1 0.828099 0.982966 0.432660
Si Si2 0.818246 0.613213 0.936745
Si Si3 0.578385 0.892659 0.435414
Si Si4 0.203298 0.704150 0.437832
Si Si5 0.831881 0.429453 0.435166
Si Si6 0.353321 0.626947 0.061299
Si Si7 0.396091 0.019635 0.430001
Si Si8 0.024467 0.855665 0.936642
O O1 0.856303 0.983593 0.250000
O O2 0.839888 0.935077 0.491843
O O3 0.702982 0.990212 0.460302
O O4 0.872341 0.024595 0.513601
O O5 0.837055 0.612769 0.750000
O O6 0.695725 0.626498 0.958580
O O7 0.902394 0.642778 0.018375
O O8 0.574973 0.905202 0.250000
O O9 0.467562 0.871476 0.478512
O O10 0.583880 0.931551 0.552384
O O11 0.224055 0.750000 0.500000
O O12 0.204496 0.706212 0.250000
O O13 0.287878 0.668570 0.482868
O O14 0.089570 0.685211 0.487459
O O15 0.817126 0.429733 0.250000
O O16 0.721460 0.412176 0.510399
O O17 0.918441 0.395265 0.484342
O O18 0.365122 0.625414 0.250000
O O19 0.375345 0.007490 0.250000
O O20 0.500000 0.000000 0.500000
O O21 0.037696 0.860119 0.750000
#
# Coordination Sequence:
#
# PCOD9436736 Si02
#       8
#     8   8   8   8   8   8   8   8
#     4  10  20  34  48  67  99 136 179 229 271 309
#     4   9  20  36  53  74 102 140 185 225 261 307
#     4  10  20  34  51  74 103 137 177 215 256 306
#     4   9  20  37  59  87 112 134 162 203 256 314
#     4  11  21  33  51  75 103 139 182 224 272 320
#     4  10  20  35  54  80 111 139 171 212 263 316
#     4  11  20  30  44  64  93 132 177 222 266 307
#     4  10  21  37  56  79 107 137 173 217 265 315
#
# _framework density 18.543133999999998
#
# number of rings (size 3 to 8) (size 9 to 14) (size 15 to 20)
#    0.000    2.000    0.000    6.000    0.000    6.500 
#    0.000    0.000    0.000    0.750    0.000    0.000 
#    0.000    0.000    0.000    0.000    0.000    0.000 
#
# Total GULP energy -356804.513395 kJ/mol
# GULP energy per Si atom -5575.070522 kJ/mol
# Density = 1.850093 g / cm^3
# Si number density = 18.543134 Si / 1000 Ang^3
#
#
#
# Elastic Constant Matrix: (Units=GPa)
#
#
# Indices 1 2 3 4 5 6 
#
# 1 74.3008 22.2180 21.5314 0.0000 0.0000 0.0000
# 2 22.2180 66.3311 14.4425 0.0000 0.0000 0.0000
# 3 21.5314 14.4425 54.4848 0.0000 0.0000 0.0000
# 4 0.0000 0.0000 0.0000 23.8605 0.0000 0.0000
# 5 0.0000 0.0000 0.0000 0.0000 28.9282 0.0000
# 6 0.0000 0.0000 0.0000 0.0000 0.0000 15.2655
#
#
#
# Elastic Compliance Matrix: (Units=1/GPa)
#
#
# Indices 1 2 3 4 5 6 
#
# 1 0.016279 -0.004300 -0.005293 0.000000 0.000000 0.000000
# 2 -0.004300 0.017135 -0.002843 0.000000 0.000000 0.000000
# 3 -0.005293 -0.002843 0.021199 0.000000 0.000000 0.000000
# 4 0.000000 0.000000 0.000000 0.041910 0.000000 0.000000
# 5 0.000000 0.000000 0.000000 0.000000 0.034568 0.000000
# 6 0.000000 0.000000 0.000000 0.000000 0.000000 0.065507
#
#
# Mechanical properties :
#
#
# Convention : Reuss Voigt Hill
#
# Bulk Modulus (GPa) = 33.62388 34.61115 34.11752
# Shear Modulus (GPa) = 21.60909 22.73917 22.17413
#
# Velocity S-wave (km/s) = 3.41741 3.50563 3.46181
# Velocity P-wave (km/s) = 5.80894 5.92382 5.86666
#
# Compressibility (1/GPa) = 0.02974077
#
# Stress axis : x y z
#
# Youngs Moduli (GPa) = 61.43059 58.35942 47.17198
#
# Poissons Ratio (x) = 0.25095 0.24969
# Poissons Ratio (y) = 0.26416 0.13410
# Poissons Ratio (z) = 0.32516 0.16590
#
# Static dielectric constant tensor:
#      x y z
#    x 1.642390 0.000000 0.000000 
#    y 0.000000 1.643360 0.000000 
#    z 0.000000 0.000000 1.628550 
# 
# From -- ./inp_files/3737.got.cif
#   From: 2010.05.17/outbox.cif.g08.bks.cpg/sg57_2_cif.got.tgz:3737.got - 2010.06.03 13:58:18.
