data_PCOD9436198
_publ_section_title
;
Structure prediction by ZEFSAII (Michael W. Deem and Ramdas Pophale) SiO2 
 PCOD9436198
Probable space group: P B C M
;
_chemical_formula_sum "Si O2"
_cell_formula_units_Z 48
_cell_length_a 10.543103
_cell_length_b 29.035046
_cell_length_c 8.805536
_cell_angle_alpha 90.000000
_cell_angle_beta 90.000000
_cell_angle_gamma 90.000000
_cell_volume 2695.546107
_symmetry_space_group_name_H-M "P B C M"
_symmetry_group_IT_number 57
_symmetry_cell_setting 'orthorhombic'
loop_
_space_group_symop_operation_xyz
x,y,z
-x,-y,1/2+z
x,1/2-y,-z
-x,1/2+y,1/2-z
-x,-y,-z
x,y,1/2-z
-x,1/2+y,z
x,1/2-y,1/2+z
loop_
_atom_site_type_symbol
_atom_site_label
_atom_site_fract_x
_atom_site_fract_y
_atom_site_fract_z
Si Si1 0.899679 0.700807 0.068048
Si Si2 0.497646 0.603883 0.433263
Si Si3 0.988776 0.607105 0.932242
Si Si4 0.750928 0.443043 0.432958
Si Si5 0.398664 0.201223 0.067660
Si Si6 0.245382 0.449831 0.933493
O O1 0.909584 0.701349 0.250000
O O2 0.750159 0.694189 0.028056
O O3 0.938675 0.750000 0.000000
O O4 0.975590 0.658106 0.000057
O O5 0.489754 0.603537 0.250000
O O6 0.371607 0.581979 0.500436
O O7 0.523284 0.656526 0.482744
O O8 0.621645 0.574059 0.475504
O O9 0.983820 0.609189 0.750000
O O10 0.119855 0.582649 0.978401
O O11 0.870965 0.577325 0.993147
O O12 0.743111 0.442013 0.250000
O O13 0.754915 0.496664 0.478698
O O14 0.405084 0.203801 0.250000
O O15 0.440104 0.250000 0.000000
O O16 0.233111 0.446816 0.750000
#
# Coordination Sequence:
#
# PCOD9436198 Si02
#       6
#     8   8   8   8   8   8
#     4  10  19  35  58  84 113 143 181 231 280 327
#     4  10  20  36  57  82 111 144 185 228 279 336
#     4  11  22  36  55  84 115 147 190 230 273 333
#     4  10  23  38  54  80 115 150 186 230 279 332
#     4   9  18  33  54  82 109 137 176 224 272 324
#     4  10  20  38  59  80 110 147 189 237 280 325
#
# _framework density 17.807153
#
# number of rings (size 3 to 8) (size 9 to 14) (size 15 to 20)
#    0.000    2.000    1.667    2.000    0.000    4.000 
#    0.000    0.833    0.000    2.000    0.000    0.000 
#    0.000    0.000    0.000    0.000    0.000    0.000 
#
# Total GULP energy -268046.188834 kJ/mol
# GULP energy per Si atom -5584.295601 kJ/mol
# Density = 1.776662 g / cm^3
# Si number density = 17.807153 Si / 1000 Ang^3
#
#
#
# Elastic Constant Matrix: (Units=GPa)
#
#
# Indices 1 2 3 4 5 6 
#
# 1 136.4997 93.6280 35.3422 0.0000 0.0000 0.0000
# 2 93.6280 198.4527 42.2610 0.0000 0.0000 0.0000
# 3 35.3422 42.2610 20.9963 0.0000 0.0000 0.0000
# 4 0.0000 0.0000 0.0000 33.4222 0.0000 0.0000
# 5 0.0000 0.0000 0.0000 0.0000 26.0783 0.0000
# 6 0.0000 0.0000 0.0000 0.0000 0.0000 -1.0402
#
#
#
# Elastic Compliance Matrix: (Units=1/GPa)
#
#
# Indices 1 2 3 4 5 6 
#
# 1 0.013784 -0.002734 -0.017699 0.000000 0.000000 0.000000
# 2 -0.002734 0.009361 -0.014240 0.000000 0.000000 0.000000
# 3 -0.017699 -0.014240 0.106081 0.000000 0.000000 0.000000
# 4 0.000000 0.000000 0.000000 0.029920 0.000000 0.000000
# 5 0.000000 0.000000 0.000000 0.000000 0.038346 0.000000
# 6 0.000000 0.000000 0.000000 0.000000 0.000000 -0.961340
#
#
# Mechanical properties :
#
#
# Convention : Reuss Voigt Hill
#
# Bulk Modulus (GPa) = 16.69989 77.60123 47.15056
# Shear Modulus (GPa) = -7.41245 24.00656 8.29705
#
# Velocity S-wave (km/s) = -2.04246 3.67569 2.16090
# Velocity P-wave (km/s) = 1.95866 7.85414 5.72380
#
# Compressibility (1/GPa) = 0.05988064
#
# Stress axis : x y z
#
# Youngs Moduli (GPa) = 72.54831 106.82127 9.42673
#
# Poissons Ratio (x) = 0.29207 0.16684
# Poissons Ratio (y) = 0.19836 0.13424
# Poissons Ratio (z) = 1.28400 1.52116
#
# Static dielectric constant tensor:
#      x y z
#    x 1.573860 0.000000 0.000000 
#    y 0.000000 1.602320 0.000000 
#    z 0.000000 0.000000 1.604080 
# 
# From -- ./inp_files/2010.got.cif
#   From: 2010.05.17/outbox.cif.g08.bks.cpg/sg57_2_cif.got.tgz:2010.got - 2010.06.03 13:58:18.
