data_PCOD9436904
_publ_section_title
;
Structure prediction by ZEFSAII (Michael W. Deem and Ramdas Pophale) SiO2 
 PCOD9436904
Probable space group: P B C M
;
_chemical_formula_sum "Si O2"
_cell_formula_units_Z 64
_cell_length_a 21.422511
_cell_length_b 19.127476
_cell_length_c 8.834201
_cell_angle_alpha 90.000000
_cell_angle_beta 90.000000
_cell_angle_gamma 90.000000
_cell_volume 3619.889525
_symmetry_space_group_name_H-M "P B C M"
_symmetry_group_IT_number 57
_symmetry_cell_setting 'orthorhombic'
loop_
_space_group_symop_operation_xyz
x,y,z
-x,-y,1/2+z
x,1/2-y,-z
-x,1/2+y,1/2-z
-x,-y,-z
x,y,1/2-z
-x,1/2+y,z
x,1/2-y,1/2+z
loop_
_atom_site_type_symbol
_atom_site_label
_atom_site_fract_x
_atom_site_fract_y
_atom_site_fract_z
Si Si1 0.812076 0.032532 0.067483
Si Si2 0.499549 0.576935 0.931718
Si Si3 0.397368 0.675749 0.431332
Si Si4 0.250977 0.676174 0.068360
Si Si5 0.122501 0.323908 0.931048
Si Si6 0.063276 0.470032 0.568768
Si Si7 0.617414 0.827114 0.432685
Si Si8 0.752372 0.886585 0.067898
O O1 0.819207 0.033701 0.250000
O O2 0.786205 0.107548 0.017793
O O3 0.764964 0.968329 0.032406
O O4 0.877658 0.013257 0.992764
O O5 0.497908 0.573839 0.750000
O O6 0.560929 0.621556 0.976631
O O7 0.500000 0.500000 0.000000
O O8 0.439499 0.616775 0.995362
O O9 0.417508 0.750000 0.500000
O O10 0.403975 0.676072 0.250000
O O11 0.324229 0.666642 0.468940
O O12 0.246424 0.680472 0.250000
O O13 0.229882 0.750000 0.000000
O O14 0.124677 0.319115 0.750000
O O15 0.077936 0.389131 0.973204
O O16 0.102929 0.250000 0.000000
O O17 0.191368 0.343745 0.992167
O O18 0.061054 0.474033 0.750000
O O19 0.000000 0.500000 0.500000
O O20 0.609319 0.750000 0.500000
O O21 0.617230 0.822153 0.250000
O O22 0.684512 0.859081 0.478924
O O23 0.757409 0.878811 0.250000
#
# Coordination Sequence:
#
# PCOD9436904 Si02
#       8
#     8   8   8   8   8   8   8   8
#     4   9  18  34  57  81 108 144 181 217 268 321
#     4  11  24  39  55  77 105 141 184 231 281 333
#     4  10  20  36  58  80 107 141 182 229 277 333
#     4   9  19  34  56  82 109 143 181 227 277 328
#     4  10  20  34  54  82 113 142 178 220 262 311
#     4  10  21  37  57  82 112 145 182 223 264 312
#     4  10  22  37  55  77 106 140 177 219 269 326
#     4   9  18  33  55  80 107 140 176 217 266 321
#
# _framework density 17.680097
#
# number of rings (size 3 to 8) (size 9 to 14) (size 15 to 20)
#    0.000    2.250    0.000    2.250    1.750    6.000 
#    0.000    0.625    0.000    0.000    0.000    0.000 
#    0.000    0.000    0.000    0.000    0.000    0.000 
#
# Total GULP energy -357270.207754 kJ/mol
# GULP energy per Si atom -5582.346996 kJ/mol
# Density = 1.763986 g / cm^3
# Si number density = 17.680097 Si / 1000 Ang^3
#
#
#
# Elastic Constant Matrix: (Units=GPa)
#
#
# Indices 1 2 3 4 5 6 
#
# 1 97.0160 97.0487 38.7761 0.0000 0.0000 0.0000
# 2 97.0487 196.9684 54.4706 0.0000 0.0000 0.0000
# 3 38.7761 54.4706 35.5834 0.0000 0.0000 0.0000
# 4 0.0000 0.0000 0.0000 33.2264 0.0000 0.0000
# 5 0.0000 0.0000 0.0000 0.0000 25.5528 0.0000
# 6 0.0000 0.0000 0.0000 0.0000 0.0000 23.8885
#
#
#
# Elastic Compliance Matrix: (Units=1/GPa)
#
#
# Indices 1 2 3 4 5 6 
#
# 1 0.023666 -0.007853 -0.013768 0.000000 0.000000 0.000000
# 2 -0.007853 0.011410 -0.008908 0.000000 0.000000 0.000000
# 3 -0.013768 -0.008908 0.056744 0.000000 0.000000 0.000000
# 4 0.000000 0.000000 0.000000 0.030097 0.000000 0.000000
# 5 0.000000 0.000000 0.000000 0.000000 0.039135 0.000000
# 6 0.000000 0.000000 0.000000 0.000000 0.000000 0.041861
#
#
# Mechanical properties :
#
#
# Convention : Reuss Voigt Hill
#
# Bulk Modulus (GPa) = 32.50963 78.90653 55.70808
# Shear Modulus (GPa) = 18.23320 25.81838 22.02579
#
# Velocity S-wave (km/s) = 3.21484 3.82554 3.53341
# Velocity P-wave (km/s) = 5.67520 8.01499 6.94435
#
# Compressibility (1/GPa) = 0.03076011
#
# Stress axis : x y z
#
# Youngs Moduli (GPa) = 42.25391 87.64367 17.62316
#
# Poissons Ratio (x) = 0.68828 0.24264
# Poissons Ratio (y) = 0.33183 0.15699
# Poissons Ratio (z) = 0.58177 0.78075
#
# Static dielectric constant tensor:
#      x y z
#    x 1.578940 0.000000 0.000000 
#    y 0.000000 1.570730 0.000000 
#    z 0.000000 0.000000 1.592250 
# 
# From -- ./inp_files/8596.got.cif
#   From: 2010.05.17/outbox.cif.g08.bks.cpg/sg57_5_cif.got.tgz:8596.got - 2010.06.03 13:58:18.
