data_PCOD9436521
_publ_section_title
;
Structure prediction by ZEFSAII (Michael W. Deem and Ramdas Pophale) SiO2 
 PCOD9436521
Probable space group: P B C M
;
_chemical_formula_sum "Si O2"
_cell_formula_units_Z 64
_cell_length_a 13.149559
_cell_length_b 26.409413
_cell_length_c 9.577982
_cell_angle_alpha 90.000000
_cell_angle_beta 90.000000
_cell_angle_gamma 90.000000
_cell_volume 3326.166252
_symmetry_space_group_name_H-M "P B C M"
_symmetry_group_IT_number 57
_symmetry_cell_setting 'orthorhombic'
loop_
_space_group_symop_operation_xyz
x,y,z
-x,-y,1/2+z
x,1/2-y,-z
-x,1/2+y,1/2-z
-x,-y,-z
x,y,1/2-z
-x,1/2+y,z
x,1/2-y,1/2+z
loop_
_atom_site_type_symbol
_atom_site_label
_atom_site_fract_x
_atom_site_fract_y
_atom_site_fract_z
Si Si1 0.127114 0.459558 0.096608
Si Si2 0.584692 0.882569 0.913167
Si Si3 0.027080 0.199081 0.584274
Si Si4 0.832841 0.373606 0.092664
Si Si5 0.233167 0.196390 0.078405
Si Si6 0.035211 0.567872 0.098835
Si Si7 0.390746 0.605641 0.587205
Si Si8 0.681133 0.991521 0.914632
O O1 0.152279 0.439207 0.250000
O O2 0.055147 0.508459 0.115652
O O3 0.223569 0.477965 0.010916
O O4 0.058355 0.423321 0.003554
O O5 0.564343 0.874563 0.750000
O O6 0.680727 0.846436 0.948116
O O7 0.610002 0.942313 0.932131
O O8 0.483574 0.872648 0.000311
O O9 0.002332 0.250000 0.500000
O O10 0.052126 0.205742 0.750000
O O11 0.127305 0.181342 0.498175
O O12 0.922124 0.167450 0.581637
O O13 0.841084 0.395837 0.250000
O O14 0.714074 0.362598 0.072905
O O15 0.863959 0.412300 0.973578
O O16 0.223175 0.201591 0.250000
O O17 0.259589 0.250000 0.000000
O O18 0.017307 0.591016 0.250000
O O19 0.418658 0.605075 0.750000
O O20 0.365258 0.546593 0.550010
O O21 0.710621 0.993390 0.750000
#
# Coordination Sequence:
#
# PCOD9436521 Si02
#       8
#     8   8   8   8   8   8   8   8
#     4  10  20  32  48  75 109 147 191 237 280 333
#     4  10  23  39  58  86 117 151 198 248 292 343
#     4  10  21  38  61  88 118 148 182 233 291 356
#     4  10  21  37  57  83 114 148 191 238 286 342
#     4  10  21  40  64  90 119 149 187 242 297 350
#     4  10  20  32  49  74 107 148 189 232 282 336
#     4  10  21  38  59  82 116 160 199 239 285 340
#     4  10  20  36  56  80 115 157 195 240 290 338
#
# _framework density 19.241371999999998
#
# number of rings (size 3 to 8) (size 9 to 14) (size 15 to 20)
#    0.000    2.000    1.250    2.625    1.750    4.500 
#    0.000    0.625    0.000    3.000    0.000    0.000 
#    0.000    0.000    0.000    0.000    0.000    0.000 
#
# Total GULP energy -356459.789050 kJ/mol
# GULP energy per Si atom -5569.684204 kJ/mol
# Density = 1.919758 g / cm^3
# Si number density = 19.241372 Si / 1000 Ang^3
#
#
#
# Elastic Constant Matrix: (Units=GPa)
#
#
# Indices 1 2 3 4 5 6 
#
# 1 120.8112 48.5858 67.9649 0.0000 0.0000 0.0000
# 2 48.5858 56.6942 24.8109 0.0000 0.0000 0.0000
# 3 67.9649 24.8109 103.3351 0.0000 0.0000 0.0000
# 4 0.0000 0.0000 0.0000 15.9370 0.0000 0.0000
# 5 0.0000 0.0000 0.0000 0.0000 82.5388 0.0000
# 6 0.0000 0.0000 0.0000 0.0000 0.0000 23.1340
#
#
#
# Elastic Compliance Matrix: (Units=1/GPa)
#
#
# Indices 1 2 3 4 5 6 
#
# 1 0.017989 -0.011441 -0.009085 0.000000 0.000000 0.000000
# 2 -0.011441 0.026985 0.001045 0.000000 0.000000 0.000000
# 3 -0.009085 0.001045 0.015401 0.000000 0.000000 0.000000
# 4 0.000000 0.000000 0.000000 0.062747 0.000000 0.000000
# 5 0.000000 0.000000 0.000000 0.000000 0.012116 0.000000
# 6 0.000000 0.000000 0.000000 0.000000 0.000000 0.043226
#
#
# Mechanical properties :
#
#
# Convention : Reuss Voigt Hill
#
# Bulk Modulus (GPa) = 46.69406 62.61819 54.65612
# Shear Modulus (GPa) = 22.26537 33.62055 27.94296
#
# Velocity S-wave (km/s) = 3.40540 4.18461 3.81495
# Velocity P-wave (km/s) = 6.30734 7.48079 6.91898
#
# Compressibility (1/GPa) = 0.02141600
#
# Stress axis : x y z
#
# Youngs Moduli (GPa) = 55.58862 37.05705 64.92879
#
# Poissons Ratio (x) = 0.42396 0.58987
# Poissons Ratio (y) = 0.63597 -0.06788
# Poissons Ratio (z) = 0.50502 -0.03874
#
# Static dielectric constant tensor:
#      x y z
#    x 1.661750 0.000000 0.000000 
#    y 0.000000 1.732240 0.000000 
#    z 0.000000 0.000000 1.718130 
# 
# From -- ./inp_files/3735.got.cif
#   From: 2010.05.17/outbox.cif.g08.bks.cpg/sg57_2_cif.got.tgz:3735.got - 2010.06.03 13:58:18.
