data_PCOD9436311
_publ_section_title
;
Structure prediction by ZEFSAII (Michael W. Deem and Ramdas Pophale) SiO2 
 PCOD9436311
Probable space group: P B C M
;
_chemical_formula_sum "Si O2"
_cell_formula_units_Z 48
_cell_length_a 15.298978
_cell_length_b 10.366432
_cell_length_c 17.711791
_cell_angle_alpha 90.000000
_cell_angle_beta 90.000000
_cell_angle_gamma 90.000000
_cell_volume 2809.015931
_symmetry_space_group_name_H-M "P B C M"
_symmetry_group_IT_number 57
_symmetry_cell_setting 'orthorhombic'
loop_
_space_group_symop_operation_xyz
x,y,z
-x,-y,1/2+z
x,1/2-y,-z
-x,1/2+y,1/2-z
-x,-y,-z
x,y,1/2-z
-x,1/2+y,z
x,1/2-y,1/2+z
loop_
_atom_site_type_symbol
_atom_site_label
_atom_site_fract_x
_atom_site_fract_y
_atom_site_fract_z
Si Si1 0.241251 0.722869 0.161671
Si Si2 0.893113 0.879417 0.547429
Si Si3 0.430370 0.726834 0.410313
Si Si4 0.754623 0.529272 0.163181
Si Si5 0.449655 0.493761 0.840492
Si Si6 0.092222 0.628640 0.056875
O O1 0.252952 0.691317 0.250000
O O2 0.331166 0.699917 0.116737
O O3 0.161087 0.649251 0.123385
O O4 0.224174 0.876700 0.156604
O O5 0.882839 0.750000 0.500000
O O6 0.818215 0.894220 0.608893
O O7 0.991044 0.878621 0.581978
O O8 0.888464 0.000659 0.490885
O O9 0.433292 0.750000 0.500000
O O10 0.489303 0.607521 0.383318
O O11 0.460376 0.640514 0.630580
O O12 0.767053 0.567431 0.250000
O O13 0.651982 0.541625 0.144973
O O14 0.464125 0.488939 0.750000
O O15 0.100334 0.750000 0.000000
#
# Coordination Sequence:
#
# PCOD9436311 Si02
#       6
#     8   8   8   8   8   8
#     4  10  20  36  60  84 108 149 194 232 278 337
#     4  10  21  35  56  85 113 146 182 233 286 330
#     4  11  22  37  60  88 113 147 193 241 280 339
#     4   9  19  36  58  79 109 153 189 223 281 345
#     4  10  21  39  59  82 115 152 189 231 288 343
#     4  10  19  36  59  81 109 145 188 230 278 333
#
# _framework density 17.087834999999998
#
# number of rings (size 3 to 8) (size 9 to 14) (size 15 to 20)
#    0.000    2.000    1.667    3.500    2.333    1.333 
#    3.000    0.833    0.000    0.000    0.000    0.000 
#    0.000    0.000    0.000    0.000    0.000    0.000 
#
# Total GULP energy -267895.581694 kJ/mol
# GULP energy per Si atom -5581.157952 kJ/mol
# Density = 1.704894 g / cm^3
# Si number density = 17.087835 Si / 1000 Ang^3
#
#
#
# Elastic Constant Matrix: (Units=GPa)
#
#
# Indices 1 2 3 4 5 6 
#
# 1 85.9047 48.1100 60.1971 0.0000 0.0000 0.0000
# 2 48.1100 83.9043 32.2326 0.0000 0.0000 0.0000
# 3 60.1971 32.2326 86.9645 0.0000 0.0000 0.0000
# 4 0.0000 0.0000 0.0000 24.7386 0.0000 0.0000
# 5 0.0000 0.0000 0.0000 0.0000 17.3268 0.0000
# 6 0.0000 0.0000 0.0000 0.0000 0.0000 34.9445
#
#
#
# Elastic Compliance Matrix: (Units=1/GPa)
#
#
# Indices 1 2 3 4 5 6 
#
# 1 0.028582 -0.010247 -0.015987 0.000000 0.000000 0.000000
# 2 -0.010247 0.017571 0.000581 0.000000 0.000000 0.000000
# 3 -0.015987 0.000581 0.022350 0.000000 0.000000 0.000000
# 4 0.000000 0.000000 0.000000 0.040423 0.000000 0.000000
# 5 0.000000 0.000000 0.000000 0.000000 0.057714 0.000000
# 6 0.000000 0.000000 0.000000 0.000000 0.000000 0.028617
#
#
# Mechanical properties :
#
#
# Convention : Reuss Voigt Hill
#
# Bulk Modulus (GPa) = 58.15173 59.76146 58.95659
# Shear Modulus (GPa) = 19.81804 23.15089 21.48446
#
# Velocity S-wave (km/s) = 3.40924 3.68478 3.54968
# Velocity P-wave (km/s) = 7.04288 7.29057 7.16780
#
# Compressibility (1/GPa) = 0.01719639
#
# Stress axis : x y z
#
# Youngs Moduli (GPa) = 34.98664 56.91185 44.74326
#
# Poissons Ratio (x) = 0.58320 0.71530
# Poissons Ratio (y) = 0.35852 -0.02599
# Poissons Ratio (z) = 0.55932 -0.03305
#
# Static dielectric constant tensor:
#      x y z
#    x 1.573300 0.000000 0.000000 
#    y 0.000000 1.558550 0.000000 
#    z 0.000000 0.000000 1.559560 
# 
# From -- ./inp_files/18391.got.cif
#   From: 2010.05.17/outbox.cif.g08.bks.cpg/sg57_10_cif.got.tgz:18391.got - 2010.06.03 13:58:18.
