data_PCOD9436627
_publ_section_title
;
Structure prediction by ZEFSAII (Michael W. Deem and Ramdas Pophale) SiO2 
 PCOD9436627
Probable space group: P B C M
;
_chemical_formula_sum "Si O2"
_cell_formula_units_Z 56
_cell_length_a 14.905891
_cell_length_b 19.856489
_cell_length_c 10.047549
_cell_angle_alpha 90.000000
_cell_angle_beta 90.000000
_cell_angle_gamma 90.000000
_cell_volume 2973.860096
_symmetry_space_group_name_H-M "P B C M"
_symmetry_group_IT_number 57
_symmetry_cell_setting 'orthorhombic'
loop_
_space_group_symop_operation_xyz
x,y,z
-x,-y,1/2+z
x,1/2-y,-z
-x,1/2+y,1/2-z
-x,-y,-z
x,y,1/2-z
-x,1/2+y,z
x,1/2-y,1/2+z
loop_
_atom_site_type_symbol
_atom_site_label
_atom_site_fract_x
_atom_site_fract_y
_atom_site_fract_z
Si Si1 0.846938 0.426871 0.593425
Si Si2 0.511546 0.811561 0.905258
Si Si3 0.023415 0.690984 0.098084
Si Si4 0.773510 0.963199 0.906787
Si Si5 0.299194 0.688491 0.404461
Si Si6 0.567672 0.961056 0.905498
Si Si7 0.192952 0.190478 0.402810
O O1 0.849172 0.445516 0.750000
O O2 0.933313 0.380680 0.562799
O O3 0.834648 0.490489 0.498941
O O4 0.762628 0.376323 0.572685
O O5 0.524962 0.793942 0.750000
O O6 0.404948 0.825611 0.924693
O O7 0.561861 0.881156 0.933047
O O8 0.536944 0.750000 0.000000
O O9 0.052203 0.705522 0.250000
O O10 0.915768 0.689178 0.095447
O O11 0.053518 0.750000 0.000000
O O12 0.797479 0.968573 0.750000
O O13 0.669823 0.984559 0.922526
O O14 0.778580 0.884431 0.942856
O O15 0.274401 0.750000 0.500000
O O16 0.287626 0.708281 0.250000
O O17 0.542600 0.969833 0.750000
O O18 0.500000 0.000000 0.000000
O O19 0.223296 0.250000 0.500000
O O20 0.222242 0.202289 0.250000
#
# Coordination Sequence:
#
# PCOD9436627 Si02
#       7
#     8   8   8   8   8   8   8
#     4  10  20  33  50  75 106 138 174 213 253 303
#     4   9  18  32  49  70  96 125 160 205 254 302
#     4   9  18  33  54  79 107 140 176 213 254 302
#     4  10  22  37  53  76 105 137 172 213 262 311
#     4   9  17  29  46  69  98 130 163 203 250 299
#     4  10  21  37  55  75 102 136 173 214 261 312
#     4   9  19  37  57  78 106 138 174 216 260 307
#
# _framework density 18.830743999999999
#
# number of rings (size 3 to 8) (size 9 to 14) (size 15 to 20)
#    0.000    2.571    0.000    1.286    0.000    5.143 
#    0.000    2.857    0.000    0.000    0.000    0.000 
#    0.000    0.000    0.000    0.000    0.000    0.000 
#
# Total GULP energy -312560.773339 kJ/mol
# GULP energy per Si atom -5581.442381 kJ/mol
# Density = 1.878788 g / cm^3
# Si number density = 18.830744 Si / 1000 Ang^3
#
#
#
# Elastic Constant Matrix: (Units=GPa)
#
#
# Indices 1 2 3 4 5 6 
#
# 1 22.1174 4.1253 11.0490 0.0000 0.0000 0.0000
# 2 4.1253 91.5824 65.6104 0.0000 0.0000 0.0000
# 3 11.0490 65.6104 65.8458 0.0000 0.0000 0.0000
# 4 0.0000 0.0000 0.0000 43.3558 0.0000 0.0000
# 5 0.0000 0.0000 0.0000 0.0000 12.4294 0.0000
# 6 0.0000 0.0000 0.0000 0.0000 0.0000 27.3225
#
#
#
# Elastic Compliance Matrix: (Units=1/GPa)
#
#
# Indices 1 2 3 4 5 6 
#
# 1 0.054186 0.014234 -0.023276 0.000000 0.000000 0.000000
# 2 0.014234 0.041898 -0.044136 0.000000 0.000000 0.000000
# 3 -0.023276 -0.044136 0.063071 0.000000 0.000000 0.000000
# 4 0.000000 0.000000 0.000000 0.023065 0.000000 0.000000
# 5 0.000000 0.000000 0.000000 0.000000 0.080455 0.000000
# 6 0.000000 0.000000 0.000000 0.000000 0.000000 0.036600
#
#
# Mechanical properties :
#
#
# Convention : Reuss Voigt Hill
#
# Bulk Modulus (GPa) = 18.93974 37.90166 28.42070
# Shear Modulus (GPa) = 11.81392 23.20560 17.50976
#
# Velocity S-wave (km/s) = 2.50746 3.51426 3.05265
# Velocity P-wave (km/s) = 4.29684 6.05293 5.24885
#
# Compressibility (1/GPa) = 0.05279903
#
# Stress axis : x y z
#
# Youngs Moduli (GPa) = 18.45495 23.86772 15.85508
#
# Poissons Ratio (x) = -0.33974 0.36904
# Poissons Ratio (y) = -0.26269 0.69979
# Poissons Ratio (z) = 0.42955 1.05343
#
# Static dielectric constant tensor:
#      x y z
#    x 1.689260 0.000000 0.000000 
#    y 0.000000 1.619560 0.000000 
#    z 0.000000 0.000000 1.631450 
# 
# From -- ./inp_files/5227.got.cif
#   From: 2010.05.17/outbox.cif.g08.bks.cpg/sg57_3_cif.got.tgz:5227.got - 2010.06.03 13:58:18.
