data_PCOD9436833
_publ_section_title
;
Structure prediction by ZEFSAII (Michael W. Deem and Ramdas Pophale) SiO2 
 PCOD9436833
Probable space group: P B C M
;
_chemical_formula_sum "Si O2"
_cell_formula_units_Z 64
_cell_length_a 21.493806
_cell_length_b 18.624387
_cell_length_c 8.914693
_cell_angle_alpha 90.000000
_cell_angle_beta 90.000000
_cell_angle_gamma 90.000000
_cell_volume 3568.631493
_symmetry_space_group_name_H-M "P B C M"
_symmetry_group_IT_number 57
_symmetry_cell_setting 'orthorhombic'
loop_
_space_group_symop_operation_xyz
x,y,z
-x,-y,1/2+z
x,1/2-y,-z
-x,1/2+y,1/2-z
-x,-y,-z
x,y,1/2-z
-x,1/2+y,z
x,1/2-y,1/2+z
loop_
_atom_site_type_symbol
_atom_site_label
_atom_site_fract_x
_atom_site_fract_y
_atom_site_fract_z
Si Si1 0.569848 0.415864 0.427078
Si Si2 0.933928 0.082199 0.930376
Si Si3 0.935308 0.584909 0.069439
Si Si4 0.812948 0.828391 0.570640
Si Si5 0.812093 0.171321 0.930008
Si Si6 0.297617 0.416377 0.072959
Si Si7 0.697269 0.088244 0.072497
Si Si8 0.434775 0.072903 0.929691
O O1 0.581246 0.409485 0.250000
O O2 0.629229 0.387061 0.516065
O O3 0.565766 0.499739 0.474640
O O4 0.500028 0.387474 0.460273
O O5 0.938909 0.084801 0.750000
O O6 0.874458 0.128523 0.976004
O O7 0.924914 0.998576 0.973879
O O8 0.998810 0.107719 0.000662
O O9 0.939432 0.587643 0.250000
O O10 0.876846 0.632549 0.021467
O O11 0.808555 0.750000 0.500000
O O12 0.813842 0.823152 0.750000
O O13 0.754544 0.876121 0.520003
O O14 0.810888 0.175389 0.750000
O O15 0.812635 0.250000 0.000000
O O16 0.751954 0.128704 0.987420
O O17 0.285641 0.405642 0.250000
O O18 0.297099 0.502307 0.044766
O O19 0.368373 0.390593 0.040875
O O20 0.702456 0.099744 0.250000
O O21 0.434924 0.054366 0.750000
#
# Coordination Sequence:
#
# PCOD9436833 Si02
#       8
#     8   8   8   8   8   8   8   8
#     4   9  15  25  45  73 104 136 170 213 263 311
#     4   9  19  36  58  82 106 133 168 211 257 307
#     4   9  19  36  57  80 105 134 170 211 255 306
#     4  11  23  37  53  75 105 140 178 218 260 308
#     4  11  23  38  55  77 107 141 178 218 261 310
#     4   9  18  33  53  77 105 137 174 216 261 310
#     4  10  20  34  53  78 107 139 176 217 262 314
#     4   8  15  27  44  71 105 136 169 213 263 313
#
# _framework density 17.934045999999999
#
# number of rings (size 3 to 8) (size 9 to 14) (size 15 to 20)
#    0.000    2.500    0.000    3.000    0.000    6.500 
#    0.000    5.000    0.000    0.750    0.000    3.500 
#    0.000    0.000    0.000    0.000    0.000    0.000 
#
# Total GULP energy -356847.974668 kJ/mol
# GULP energy per Si atom -5575.749604 kJ/mol
# Density = 1.789323 g / cm^3
# Si number density = 17.934046 Si / 1000 Ang^3
#
#
#
# Elastic Constant Matrix: (Units=GPa)
#
#
# Indices 1 2 3 4 5 6 
#
# 1 171.6283 57.3172 55.3376 0.0000 0.0000 0.0000
# 2 57.3172 45.7685 32.5733 0.0000 0.0000 0.0000
# 3 55.3376 32.5733 43.7599 0.0000 0.0000 0.0000
# 4 0.0000 0.0000 0.0000 21.4007 0.0000 0.0000
# 5 0.0000 0.0000 0.0000 0.0000 33.2637 0.0000
# 6 0.0000 0.0000 0.0000 0.0000 0.0000 -6.0790
#
#
#
# Elastic Compliance Matrix: (Units=1/GPa)
#
#
# Indices 1 2 3 4 5 6 
#
# 1 0.011165 -0.008365 -0.007892 0.000000 0.000000 0.000000
# 2 -0.008365 0.052732 -0.028673 0.000000 0.000000 0.000000
# 3 -0.007892 -0.028673 0.054175 0.000000 0.000000 0.000000
# 4 0.000000 0.000000 0.000000 0.046727 0.000000 0.000000
# 5 0.000000 0.000000 0.000000 0.000000 0.030063 0.000000
# 6 0.000000 0.000000 0.000000 0.000000 0.000000 -0.164500
#
#
# Mechanical properties :
#
#
# Convention : Reuss Voigt Hill
#
# Bulk Modulus (GPa) = 35.44705 61.29032 48.36869
# Shear Modulus (GPa) = 38.57250 17.44566 28.00908
#
# Velocity S-wave (km/s) = 4.64270 3.12231 3.95623
# Velocity P-wave (km/s) = 6.96762 6.87372 6.92083
#
# Compressibility (1/GPa) = 0.02821109
#
# Stress axis : x y z
#
# Youngs Moduli (GPa) = 89.56719 18.96385 18.45873
#
# Poissons Ratio (x) = 0.15864 0.14567
# Poissons Ratio (y) = 0.74927 0.52927
# Poissons Ratio (z) = 0.70684 0.54375
#
# Static dielectric constant tensor:
#      x y z
#    x 1.635380 0.000000 0.000000 
#    y 0.000000 1.585710 0.000000 
#    z 0.000000 0.000000 1.599640 
# 
# From -- ./inp_files/8559.got.cif
#   From: 2010.05.17/outbox.cif.g08.bks.cpg/sg57_5_cif.got.tgz:8559.got - 2010.06.03 13:58:18.
