data_PCOD9436990
_publ_section_title
;
Structure prediction by ZEFSAII (Michael W. Deem and Ramdas Pophale) SiO2 
 PCOD9436990
Probable space group: P B C M
;
_chemical_formula_sum "Si O2"
_cell_formula_units_Z 60
_cell_length_a 26.362117
_cell_length_b 11.378587
_cell_length_c 9.022249
_cell_angle_alpha 90.000000
_cell_angle_beta 90.000000
_cell_angle_gamma 90.000000
_cell_volume 2706.346667
_symmetry_space_group_name_H-M "P B C M"
_symmetry_group_IT_number 57
_symmetry_cell_setting 'orthorhombic'
loop_
_space_group_symop_operation_xyz
x,y,z
-x,-y,1/2+z
x,1/2-y,-z
-x,1/2+y,1/2-z
-x,-y,-z
x,y,1/2-z
-x,1/2+y,z
x,1/2-y,1/2+z
loop_
_atom_site_type_symbol
_atom_site_label
_atom_site_fract_x
_atom_site_fract_y
_atom_site_fract_z
Si Si1 0.570926 0.895218 0.580618
Si Si2 0.535179 0.350442 0.417203
Si Si3 0.109439 0.750000 0.500000
Si Si4 0.325958 0.372354 0.426201
Si Si5 0.797488 0.399552 0.590004
Si Si6 0.858198 0.870369 0.079120
Si Si7 0.298929 0.873212 0.075682
Si Si8 0.946492 0.484193 0.079718
O O1 0.579170 0.852524 0.750000
O O2 0.515104 0.868099 0.516814
O O3 0.613935 0.864516 0.463724
O O4 0.568961 0.035391 0.588374
O O5 0.565156 0.250000 0.500000
O O6 0.520338 0.320904 0.250000
O O7 0.149876 0.672018 0.408425
O O8 0.074167 0.650131 0.571605
O O9 0.304717 0.250000 0.500000
O O10 0.316436 0.373092 0.250000
O O11 0.311778 0.499524 0.499379
O O12 0.771307 0.380914 0.750000
O O13 0.812805 0.535628 0.576165
O O14 0.761949 0.368200 0.453064
O O15 0.871461 0.848710 0.250000
O O16 0.844753 0.750000 0.000000
O O17 0.905187 0.932690 0.998035
O O18 0.311526 0.876450 0.250000
O O19 0.317204 0.750000 0.000000
O O20 0.951448 0.518316 0.250000
O O21 0.000000 0.500000 0.000000
#
# Coordination Sequence:
#
# PCOD9436990 Si02
#       8
#     8   8   4   8   8   8   8   8
#     4  10  21  38  59  86 123 167 218 271 329 400
#     4  10  20  34  56  86 121 164 215 272 331 392
#     4  10  22  40  68  94 126 164 218 262 320 378
#     4  12  26  46  70  97 134 178 226 278 341 413
#     4  10  21  40  67  97 126 161 210 264 320 382
#     4  10  22  40  62  90 126 164 206 253 307 368
#     4  12  26  45  71 102 136 173 218 274 337 402
#     4  11  24  40  61  89 124 167 211 257 309 367
#
# _framework density 22.170107999999999
#
# number of rings (size 3 to 8) (size 9 to 14) (size 15 to 20)
#    0.000    1.333    0.667    4.800    0.933    6.933 
#    0.000    2.667    0.000    0.000    0.000    0.000 
#    0.000    0.000    0.000    0.000    0.000    0.000 
#
# Total GULP energy -334896.023732 kJ/mol
# GULP energy per Si atom -5581.600396 kJ/mol
# Density = 2.211965 g / cm^3
# Si number density = 22.170108 Si / 1000 Ang^3
#
#
#
# Elastic Constant Matrix: (Units=GPa)
#
#
# Indices 1 2 3 4 5 6 
#
# 1 60.2520 14.5956 16.3448 0.0000 0.0000 0.0000
# 2 14.5956 182.5121 76.5065 0.0000 0.0000 0.0000
# 3 16.3448 76.5065 183.6932 0.0000 0.0000 0.0000
# 4 0.0000 0.0000 0.0000 32.9919 0.0000 0.0000
# 5 0.0000 0.0000 0.0000 0.0000 27.9849 0.0000
# 6 0.0000 0.0000 0.0000 0.0000 0.0000 496.0310
#
#
#
# Elastic Compliance Matrix: (Units=1/GPa)
#
#
# Indices 1 2 3 4 5 6 
#
# 1 0.017125 -0.000885 -0.001155 0.000000 0.000000 0.000000
# 2 -0.000885 0.006684 -0.002705 0.000000 0.000000 0.000000
# 3 -0.001155 -0.002705 0.006673 0.000000 0.000000 0.000000
# 4 0.000000 0.000000 0.000000 0.030310 0.000000 0.000000
# 5 0.000000 0.000000 0.000000 0.000000 0.035734 0.000000
# 6 0.000000 0.000000 0.000000 0.000000 0.000000 0.002016
#
#
# Mechanical properties :
#
#
# Convention : Reuss Voigt Hill
#
# Bulk Modulus (GPa) = 47.63907 71.26123 59.45015
# Shear Modulus (GPa) = 43.46719 132.66894 88.06807
#
# Velocity S-wave (km/s) = 4.43269 7.74411 6.30952
# Velocity P-wave (km/s) = 6.90891 10.59124 8.94168
#
# Compressibility (1/GPa) = 0.02099118
#
# Stress axis : x y z
#
# Youngs Moduli (GPa) = 58.39504 149.61628 149.85272
#
# Poissons Ratio (x) = 0.13246 0.17308
# Poissons Ratio (y) = 0.05170 0.40534
# Poissons Ratio (z) = 0.06745 0.40470
#
# Static dielectric constant tensor:
#      x y z
#    x 1.815210 0.000000 0.000000 
#    y 0.000000 1.986530 0.000000 
#    z 0.000000 0.000000 1.797320 
# 
# From -- ./inp_files/9765.got.cif
#   From: 2010.05.17/outbox.cif.g08.bks.cpg/sg57_5_cif.got.tgz:9765.got - 2010.06.03 13:58:18.
