data_PCOD9436989
_publ_section_title
;
Structure prediction by ZEFSAII (Michael W. Deem and Ramdas Pophale) SiO2 
 PCOD9436989
Probable space group: P B C M
;
_chemical_formula_sum "Si O2"
_cell_formula_units_Z 48
_cell_length_a 10.001776
_cell_length_b 22.138062
_cell_length_c 9.613822
_cell_angle_alpha 90.000000
_cell_angle_beta 90.000000
_cell_angle_gamma 90.000000
_cell_volume 2128.691863
_symmetry_space_group_name_H-M "P B C M"
_symmetry_group_IT_number 57
_symmetry_cell_setting 'orthorhombic'
loop_
_space_group_symop_operation_xyz
x,y,z
-x,-y,1/2+z
x,1/2-y,-z
-x,1/2+y,1/2-z
-x,-y,-z
x,y,1/2-z
-x,1/2+y,z
x,1/2-y,1/2+z
loop_
_atom_site_type_symbol
_atom_site_label
_atom_site_fract_x
_atom_site_fract_y
_atom_site_fract_z
Si Si1 0.815479 0.116741 0.599912
Si Si2 0.941709 0.196122 0.401029
Si Si3 0.916696 0.545991 0.593822
Si Si4 0.224633 0.368135 0.908063
Si Si5 0.448485 0.191155 0.580852
Si Si6 0.441148 0.554512 0.589119
O O1 0.772846 0.142793 0.750000
O O2 0.818966 0.161299 0.471300
O O3 0.969312 0.097168 0.613233
O O4 0.719456 0.060128 0.575061
O O5 0.978853 0.250000 0.500000
O O6 0.904712 0.218801 0.250000
O O7 0.073968 0.155656 0.389187
O O8 0.881168 0.524262 0.750000
O O9 0.000000 0.500000 0.500000
O O10 0.794079 0.573646 0.507302
O O11 0.277479 0.378940 0.750000
O O12 0.309754 0.320767 0.997539
O O13 0.507974 0.250000 0.500000
O O14 0.436368 0.200538 0.750000
O O15 0.516049 0.124578 0.559211
O O16 0.500000 0.500000 0.500000
O O17 0.475317 0.543148 0.750000
#
# Coordination Sequence:
#
# PCOD9436989 Si02
#       6
#     8   8   8   8   8   8
#     4   9  20  39  58  81 114 152 195 243 294 357
#     4  10  20  34  56  86 118 154 194 242 300 362
#     4  10  20  34  56  86 121 158 198 246 302 367
#     4  10  21  37  58  87 122 161 204 252 310 373
#     4  11  24  42  64  93 126 165 213 266 319 380
#     4  10  24  44  65  91 123 163 212 261 315 375
#
# _framework density 22.549057999999999
#
# number of rings (size 3 to 8) (size 9 to 14) (size 15 to 20)
#    0.000    2.000    0.000    2.500    2.333    6.667 
#    0.000    1.667    0.000    0.000    0.000    0.000 
#    0.000    0.000    0.000    0.000    0.000    0.000 
#
# Total GULP energy -267418.004957 kJ/mol
# GULP energy per Si atom -5571.208437 kJ/mol
# Density = 2.249774 g / cm^3
# Si number density = 22.549058 Si / 1000 Ang^3
#
#
#
# Elastic Constant Matrix: (Units=GPa)
#
#
# Indices 1 2 3 4 5 6 
#
# 1 48.0026 15.3155 21.6151 0.0000 0.0000 0.0000
# 2 15.3155 90.5209 62.6475 0.0000 0.0000 0.0000
# 3 21.6151 62.6475 187.5690 0.0000 0.0000 0.0000
# 4 0.0000 0.0000 0.0000 93.0547 0.0000 0.0000
# 5 0.0000 0.0000 0.0000 0.0000 -167.1616 0.0000
# 6 0.0000 0.0000 0.0000 0.0000 0.0000 32.8131
#
#
#
# Elastic Compliance Matrix: (Units=1/GPa)
#
#
# Indices 1 2 3 4 5 6 
#
# 1 0.022437 -0.002610 -0.001714 0.000000 0.000000 0.000000
# 2 -0.002610 0.014672 -0.004600 0.000000 0.000000 0.000000
# 3 -0.001714 -0.004600 0.007065 0.000000 0.000000 0.000000
# 4 0.000000 0.000000 0.000000 0.010746 0.000000 0.000000
# 5 0.000000 0.000000 0.000000 0.000000 -0.005982 0.000000
# 6 0.000000 0.000000 0.000000 0.000000 0.000000 0.030476
#
#
# Mechanical properties :
#
#
# Convention : Reuss Voigt Hill
#
# Bulk Modulus (GPa) = 37.98398 58.36095 48.17246
# Shear Modulus (GPa) = 47.15368 6.84222 26.99795
#
# Velocity S-wave (km/s) = 4.57788 1.74383 3.46395
# Velocity P-wave (km/s) = 6.69509 5.47655 6.11624
#
# Compressibility (1/GPa) = 0.02632689
#
# Stress axis : x y z
#
# Youngs Moduli (GPa) = 44.56993 68.15656 141.53994
#
# Poissons Ratio (x) = 0.17789 0.24257
# Poissons Ratio (y) = 0.11633 0.65104
# Poissons Ratio (z) = 0.07638 0.31350
#
# Static dielectric constant tensor:
#      x y z
#    x 1.924180 0.000000 0.000000 
#    y 0.000000 1.902030 0.000000 
#    z 0.000000 0.000000 1.905400 
# 
# From -- ./inp_files/3108.got.cif
#   From: 2010.05.17/outbox.cif.g08.bks.cpg/sg57_2_cif.got.tgz:3108.got - 2010.06.03 13:58:18.
