data_PCOD9436221
_publ_section_title
;
Structure prediction by ZEFSAII (Michael W. Deem and Ramdas Pophale) SiO2 
 PCOD9436221
Probable space group: P B C M
;
_chemical_formula_sum "Si O2"
_cell_formula_units_Z 48
_cell_length_a 16.889298
_cell_length_b 18.158431
_cell_length_c 8.929059
_cell_angle_alpha 90.000000
_cell_angle_beta 90.000000
_cell_angle_gamma 90.000000
_cell_volume 2738.391962
_symmetry_space_group_name_H-M "P B C M"
_symmetry_group_IT_number 57
_symmetry_cell_setting 'orthorhombic'
loop_
_space_group_symop_operation_xyz
x,y,z
-x,-y,1/2+z
x,1/2-y,-z
-x,1/2+y,1/2-z
-x,-y,-z
x,y,1/2-z
-x,1/2+y,z
x,1/2-y,1/2+z
loop_
_atom_site_type_symbol
_atom_site_label
_atom_site_fract_x
_atom_site_fract_y
_atom_site_fract_z
Si Si1 0.315464 0.609082 0.426930
Si Si2 0.236777 0.050522 0.927327
Si Si3 0.490797 0.580844 0.069532
Si Si4 0.084230 0.519207 0.570062
Si Si5 0.837099 0.325677 0.072097
Si Si6 0.649387 0.830612 0.570115
O O1 0.309503 0.626296 0.250000
O O2 0.289322 0.523738 0.446320
O O3 0.406353 0.615185 0.476456
O O4 0.251536 0.656982 0.514627
O O5 0.227736 0.063292 0.750000
O O6 0.282056 0.117279 0.005185
O O7 0.152722 0.032570 0.002425
O O8 0.488618 0.573140 0.250000
O O9 0.565556 0.631145 0.029698
O O10 0.500000 0.500000 0.000000
O O11 0.082552 0.512794 0.750000
O O12 0.110596 0.602892 0.531377
O O13 0.000000 0.500000 0.500000
O O14 0.836574 0.318923 0.250000
O O15 0.865729 0.250000 0.000000
O O16 0.653913 0.750000 0.500000
O O17 0.654624 0.827163 0.750000
#
# Coordination Sequence:
#
# PCOD9436221 Si02
#       6
#     8   8   8   8   8   8
#     4   9  18  33  54  80 109 144 186 227 274 331
#     4  10  19  35  59  82 109 144 183 227 278 335
#     4  10  20  34  54  80 110 147 192 237 282 331
#     4  10  21  38  61  89 116 145 186 228 276 336
#     4  10  21  36  56  83 115 148 182 226 278 331
#     4  11  23  37  54  78 112 150 192 239 285 333
#
# _framework density 17.528534000000001
#
# number of rings (size 3 to 8) (size 9 to 14) (size 15 to 20)
#    0.000    2.000    1.667    2.000    0.000    4.667 
#    0.000    2.500    0.000    2.000    0.000    0.000 
#    0.000    0.000    0.000    0.000    0.000    0.000 
#
# Total GULP energy -268026.280086 kJ/mol
# GULP energy per Si atom -5583.880835 kJ/mol
# Density = 1.748864 g / cm^3
# Si number density = 17.528534 Si / 1000 Ang^3
#
#
#
# Elastic Constant Matrix: (Units=GPa)
#
#
# Indices 1 2 3 4 5 6 
#
# 1 165.7668 74.6429 61.6993 0.0000 0.0000 0.0000
# 2 74.6429 118.2168 61.5830 0.0000 0.0000 0.0000
# 3 61.6993 61.5830 64.1064 0.0000 0.0000 0.0000
# 4 0.0000 0.0000 0.0000 32.3685 0.0000 0.0000
# 5 0.0000 0.0000 0.0000 0.0000 29.4250 0.0000
# 6 0.0000 0.0000 0.0000 0.0000 0.0000 15.5740
#
#
#
# Elastic Compliance Matrix: (Units=1/GPa)
#
#
# Indices 1 2 3 4 5 6 
#
# 1 0.009767 -0.002542 -0.006958 0.000000 0.000000 0.000000
# 2 -0.002542 0.017594 -0.014455 0.000000 0.000000 0.000000
# 3 -0.006958 -0.014455 0.036182 0.000000 0.000000 0.000000
# 4 0.000000 0.000000 0.000000 0.030894 0.000000 0.000000
# 5 0.000000 0.000000 0.000000 0.000000 0.033985 0.000000
# 6 0.000000 0.000000 0.000000 0.000000 0.000000 0.064209
#
#
# Mechanical properties :
#
#
# Convention : Reuss Voigt Hill
#
# Bulk Modulus (GPa) = 63.96900 82.66004 73.31452
# Shear Modulus (GPa) = 20.34559 25.48449 22.91504
#
# Velocity S-wave (km/s) = 3.41062 3.81712 3.61958
# Velocity P-wave (km/s) = 7.21687 8.16621 7.70617
#
# Compressibility (1/GPa) = 0.01563257
#
# Stress axis : x y z
#
# Youngs Moduli (GPa) = 102.38296 56.83663 27.63813
#
# Poissons Ratio (x) = 0.14450 0.19231
# Poissons Ratio (y) = 0.26029 0.39951
# Poissons Ratio (z) = 0.71241 0.82157
#
# Static dielectric constant tensor:
#      x y z
#    x 1.582000 0.000000 0.000000 
#    y 0.000000 1.576270 0.000000 
#    z 0.000000 0.000000 1.581590 
# 
# From -- ./inp_files/4718.got.cif
#   From: 2010.05.17/outbox.cif.g08.bks.cpg/sg57_3_cif.got.tgz:4718.got - 2010.06.03 13:58:18.
