data_PCOD9436497
_publ_section_title
;
Structure prediction by ZEFSAII (Michael W. Deem and Ramdas Pophale) SiO2 
 PCOD9436497
Probable space group: P B C M
;
_chemical_formula_sum "Si O2"
_cell_formula_units_Z 56
_cell_length_a 20.549115
_cell_length_b 13.315466
_cell_length_c 9.203072
_cell_angle_alpha 90.000000
_cell_angle_beta 90.000000
_cell_angle_gamma 90.000000
_cell_volume 2518.154151
_symmetry_space_group_name_H-M "P B C M"
_symmetry_group_IT_number 57
_symmetry_cell_setting 'orthorhombic'
loop_
_space_group_symop_operation_xyz
x,y,z
-x,-y,1/2+z
x,1/2-y,-z
-x,1/2+y,1/2-z
-x,-y,-z
x,y,1/2-z
-x,1/2+y,z
x,1/2-y,1/2+z
loop_
_atom_site_type_symbol
_atom_site_label
_atom_site_fract_x
_atom_site_fract_y
_atom_site_fract_z
Si Si1 0.810833 0.653565 0.419443
Si Si2 0.063921 0.384350 0.415235
Si Si3 0.377432 0.153056 0.585566
Si Si4 0.523580 0.400965 0.416595
Si Si5 0.922421 0.414467 0.079966
Si Si6 0.222299 0.577277 0.921581
Si Si7 0.648758 0.421592 0.576042
O O1 0.782709 0.750000 0.500000
O O2 0.801326 0.664860 0.250000
O O3 0.887020 0.653682 0.462790
O O4 0.786938 0.541753 0.459806
O O5 0.087772 0.367277 0.250000
O O6 0.065863 0.502979 0.454583
O O7 0.988820 0.351285 0.423173
O O8 0.354839 0.250000 0.500000
O O9 0.353282 0.158855 0.750000
O O10 0.358841 0.040802 0.532816
O O11 0.456435 0.159901 0.588389
O O12 0.500000 0.500000 0.500000
O O13 0.542218 0.422294 0.250000
O O14 0.587144 0.366920 0.503384
O O15 0.920406 0.454556 0.250000
O O16 0.849332 0.374711 0.056250
O O17 0.237959 0.584079 0.750000
O O18 0.282278 0.615408 0.016095
O O19 0.644506 0.415831 0.750000
#
# Coordination Sequence:
#
# PCOD9436497 Si02
#       7
#     8   8   8   8   8   8   8
#     4  10  20  32  44  61  88 121 156 189 226 273
#     4   9  15  25  43  63  83 109 142 183 226 263
#     4   9  19  32  47  69  94 119 151 188 226 270
#     4   9  17  31  49  69  92 119 152 191 233 274
#     4   8  15  27  42  62  86 110 141 180 222 265
#     4   9  18  31  45  63  89 121 152 184 223 266
#     4  10  20  32  46  68  95 125 160 192 226 274
#
# _framework density 22.238510000000002
#
# number of rings (size 3 to 8) (size 9 to 14) (size 15 to 20)
#    0.000    2.857    0.000    3.429    0.000    7.429 
#    0.000    2.857    0.000    0.000    0.000    1.000 
#    0.000    4.571    0.000    0.000    0.000    0.000 
#
# Total GULP energy -311971.865898 kJ/mol
# GULP energy per Si atom -5570.926177 kJ/mol
# Density = 2.218789 g / cm^3
# Si number density = 22.238510 Si / 1000 Ang^3
#
#
#
# Elastic Constant Matrix: (Units=GPa)
#
#
# Indices 1 2 3 4 5 6 
#
# 1 173.0617 -9.7497 43.4424 0.0000 0.0000 0.0000
# 2 -9.7497 36.9093 16.4451 0.0000 0.0000 0.0000
# 3 43.4424 16.4451 60.7685 0.0000 0.0000 0.0000
# 4 0.0000 0.0000 0.0000 16.3986 0.0000 0.0000
# 5 0.0000 0.0000 0.0000 0.0000 20.2269 0.0000
# 6 0.0000 0.0000 0.0000 0.0000 0.0000 -8.2787
#
#
#
# Elastic Compliance Matrix: (Units=1/GPa)
#
#
# Indices 1 2 3 4 5 6 
#
# 1 0.007827 0.005186 -0.006999 0.000000 0.000000 0.000000
# 2 0.005186 0.034244 -0.012975 0.000000 0.000000 0.000000
# 3 -0.006999 -0.012975 0.024971 0.000000 0.000000 0.000000
# 4 0.000000 0.000000 0.000000 0.060981 0.000000 0.000000
# 5 0.000000 0.000000 0.000000 0.000000 0.049439 0.000000
# 6 0.000000 0.000000 0.000000 0.000000 0.000000 -0.120792
#
#
# Mechanical properties :
#
#
# Convention : Reuss Voigt Hill
#
# Bulk Modulus (GPa) = 26.69014 41.22389 33.95702
# Shear Modulus (GPa) = 50.64104 20.37615 35.50859
#
# Velocity S-wave (km/s) = 4.77716 3.03025 4.00023
# Velocity P-wave (km/s) = 6.51583 5.55164 6.05296
#
# Compressibility (1/GPa) = 0.03746702
#
# Stress axis : x y z
#
# Youngs Moduli (GPa) = 127.75648 29.20202 40.04707
#
# Poissons Ratio (x) = -0.15144 0.28029
# Poissons Ratio (y) = -0.66256 0.51959
# Poissons Ratio (z) = 0.89418 0.37888
#
# Static dielectric constant tensor:
#      x y z
#    x 1.881770 0.000000 0.000000 
#    y 0.000000 1.890490 0.000000 
#    z 0.000000 0.000000 1.768240 
# 
# From -- ./inp_files/8648.got.cif
#   From: 2010.05.17/outbox.cif.g08.bks.cpg/sg57_5_cif.got.tgz:8648.got - 2010.06.03 13:58:18.
