data_PCOD9436239
_publ_section_title
;
Structure prediction by ZEFSAII (Michael W. Deem and Ramdas Pophale) SiO2 
 PCOD9436239
Probable space group: P B C M
;
_chemical_formula_sum "Si O2"
_cell_formula_units_Z 64
_cell_length_a 23.950394
_cell_length_b 15.591269
_cell_length_c 8.628609
_cell_angle_alpha 90.000000
_cell_angle_beta 90.000000
_cell_angle_gamma 90.000000
_cell_volume 3222.069593
_symmetry_space_group_name_H-M "P B C M"
_symmetry_group_IT_number 57
_symmetry_cell_setting 'orthorhombic'
loop_
_space_group_symop_operation_xyz
x,y,z
-x,-y,1/2+z
x,1/2-y,-z
-x,1/2+y,1/2-z
-x,-y,-z
x,y,1/2-z
-x,1/2+y,z
x,1/2-y,1/2+z
loop_
_atom_site_type_symbol
_atom_site_label
_atom_site_fract_x
_atom_site_fract_y
_atom_site_fract_z
Si Si1 0.368990 0.987885 0.565694
Si Si2 0.575648 0.843313 0.935622
Si Si3 0.942176 0.106764 0.929270
Si Si4 0.247120 0.511370 0.935274
Si Si5 0.549216 0.157001 0.935640
Si Si6 0.182007 0.341360 0.936806
Si Si7 0.940161 0.600297 0.432739
Si Si8 0.829313 0.340889 0.931736
O O1 0.376041 0.986304 0.750000
O O2 0.386423 0.080613 0.499929
O O3 0.305321 0.970859 0.518596
O O4 0.409074 0.916814 0.489896
O O5 0.576290 0.842361 0.750000
O O6 0.592448 0.750000 0.000000
O O7 0.512424 0.859087 0.994954
O O8 0.931233 0.128363 0.750000
O O9 0.936983 0.003306 0.946606
O O10 0.895168 0.148371 0.035383
O O11 0.005057 0.130145 0.976673
O O12 0.255369 0.510562 0.750000
O O13 0.221697 0.419588 0.983950
O O14 0.202249 0.583195 0.979811
O O15 0.545557 0.159859 0.750000
O O16 0.567311 0.250000 0.000000
O O17 0.181121 0.340133 0.750000
O O18 0.118345 0.360879 0.988526
O O19 0.200451 0.250000 0.000000
O O20 0.947112 0.619264 0.250000
O O21 0.818009 0.346083 0.750000
O O22 0.810901 0.250000 0.000000
#
# Coordination Sequence:
#
# PCOD9436239 Si02
#       8
#     8   8   8   8   8   8   8   8
#     4  12  25  42  64  94 127 167 214 260 308 371
#     4  11  22  40  65  97 133 172 211 259 312 367
#     4  10  19  35  59  88 121 157 196 247 304 365
#     4  11  24  46  66  88 122 161 206 262 312 361
#     4  11  22  40  65  97 133 171 209 257 311 368
#     4  10  22  40  63  88 120 157 199 249 304 364
#     4   9  18  35  57  86 121 159 196 243 303 365
#     4  12  25  42  65  91 119 158 203 253 310 375
#
# _framework density 19.863009000000002
#
# number of rings (size 3 to 8) (size 9 to 14) (size 15 to 20)
#    0.000    1.250    1.250    6.375    0.000    3.500 
#    0.000    5.000    0.000    0.000    0.000    0.000 
#    0.000    0.000    0.000    0.000    0.000    0.000 
#
# Total GULP energy -358065.390966 kJ/mol
# GULP energy per Si atom -5594.771734 kJ/mol
# Density = 1.981780 g / cm^3
# Si number density = 19.863009 Si / 1000 Ang^3
#
#
#
# Elastic Constant Matrix: (Units=GPa)
#
#
# Indices 1 2 3 4 5 6 
#
# 1 26.4018 -3.9103 1.8656 0.0000 0.0000 0.0000
# 2 -3.9103 48.5511 8.9185 0.0000 0.0000 0.0000
# 3 1.8656 8.9185 94.6332 0.0000 0.0000 0.0000
# 4 0.0000 0.0000 0.0000 31.8058 0.0000 0.0000
# 5 0.0000 0.0000 0.0000 0.0000 24.6895 0.0000
# 6 0.0000 0.0000 0.0000 0.0000 0.0000 -32.2367
#
#
#
# Elastic Compliance Matrix: (Units=1/GPa)
#
#
# Indices 1 2 3 4 5 6 
#
# 1 0.038439 0.003292 -0.001068 0.000000 0.000000 0.000000
# 2 0.003292 0.021242 -0.002067 0.000000 0.000000 0.000000
# 3 -0.001068 -0.002067 0.010783 0.000000 0.000000 0.000000
# 4 0.000000 0.000000 0.000000 0.031441 0.000000 0.000000
# 5 0.000000 0.000000 0.000000 0.000000 0.040503 0.000000
# 6 0.000000 0.000000 0.000000 0.000000 0.000000 -0.031021
#
#
# Mechanical properties :
#
#
# Convention : Reuss Voigt Hill
#
# Bulk Modulus (GPa) = 14.12861 20.37040 17.24951
# Shear Modulus (GPa) = 37.12910 15.69922 26.41416
#
# Velocity S-wave (km/s) = 4.32818 2.81441 3.65062
# Velocity P-wave (km/s) = 5.66622 4.56497 5.14514
#
# Compressibility (1/GPa) = 0.07077835
#
# Stress axis : x y z
#
# Youngs Moduli (GPa) = 26.01512 47.07730 92.73903
#
# Poissons Ratio (x) = -0.15498 0.09905
# Poissons Ratio (y) = -0.08564 0.19167
# Poissons Ratio (z) = 0.02778 0.09730
#
# Static dielectric constant tensor:
#      x y z
#    x 1.674400 0.000000 0.000000 
#    y 0.000000 1.698330 0.000000 
#    z 0.000000 0.000000 1.663350 
# 
# From -- ./inp_files/9377.got.cif
#   From: 2010.05.17/outbox.cif.g08.bks.cpg/sg57_5_cif.got.tgz:9377.got - 2010.06.03 13:58:18.
