data_PCOD9436424
_publ_section_title
;
Structure prediction by ZEFSAII (Michael W. Deem and Ramdas Pophale) SiO2 
 PCOD9436424
Probable space group: P B C M
;
_chemical_formula_sum "Si O2"
_cell_formula_units_Z 56
_cell_length_a 15.156810
_cell_length_b 8.941163
_cell_length_c 21.794747
_cell_angle_alpha 90.000000
_cell_angle_beta 90.000000
_cell_angle_gamma 90.000000
_cell_volume 2953.613407
_symmetry_space_group_name_H-M "P B C M"
_symmetry_group_IT_number 57
_symmetry_cell_setting 'orthorhombic'
loop_
_space_group_symop_operation_xyz
x,y,z
-x,-y,1/2+z
x,1/2-y,-z
-x,1/2+y,1/2-z
-x,-y,-z
x,y,1/2-z
-x,1/2+y,z
x,1/2-y,1/2+z
loop_
_atom_site_type_symbol
_atom_site_label
_atom_site_fract_x
_atom_site_fract_y
_atom_site_fract_z
Si Si1 0.886322 0.659454 0.178313
Si Si2 0.427504 0.841732 0.178582
Si Si3 0.744037 0.451117 0.121510
Si Si4 0.539127 0.439891 0.903001
Si Si5 0.031346 0.051816 0.879606
Si Si6 0.881170 0.261315 0.569597
Si Si7 0.634782 0.913269 0.985440
O O1 0.867365 0.658353 0.250000
O O2 0.804968 0.588993 0.141501
O O3 0.912054 0.824847 0.156159
O O4 0.968715 0.548820 0.163987
O O5 0.445458 0.812921 0.250000
O O6 0.334260 0.924548 0.169500
O O7 0.423115 0.695117 0.136421
O O8 0.502410 0.940911 0.145823
O O9 0.806594 0.307000 0.113818
O O10 0.698460 0.489191 0.056743
O O11 0.454983 0.391404 0.945001
O O12 0.607660 0.506929 0.951552
O O13 0.965757 0.150740 0.922016
O O14 0.089932 0.929433 0.914614
O O15 0.850610 0.250000 0.500000
O O16 0.672114 0.750000 0.000000
#
# Coordination Sequence:
#
# PCOD9436424 Si02
#       7
#     8   8   8   8   8   8   8
#     4  10  19  38  59  85 118 159 199 245 292 349
#     4  11  22  40  59  86 119 155 197 245 295 356
#     4  10  24  35  57  86 121 159 190 243 309 345
#     4  10  21  37  65  86 110 152 198 244 293 348
#     4   9  20  36  60  86 113 151 210 237 287 349
#     4  10  20  36  57  86 116 155 189 246 294 352
#     4  10  20  38  61  88 116 147 197 249 289 353
#
# _framework density 18.959827000000001
#
# number of rings (size 3 to 8) (size 9 to 14) (size 15 to 20)
#    0.000    2.000    1.429    1.714    2.000    1.143 
#    0.000    3.571    0.000    0.000    0.000    0.000 
#    0.000    0.000    0.000    0.000    0.000    0.000 
#
# Total GULP energy -312612.742432 kJ/mol
# GULP energy per Si atom -5582.370401 kJ/mol
# Density = 1.891667 g / cm^3
# Si number density = 18.959827 Si / 1000 Ang^3
#
#
#
# Elastic Constant Matrix: (Units=GPa)
#
#
# Indices 1 2 3 4 5 6 
#
# 1 60.7060 33.8556 29.7477 0.0000 0.0000 0.0000
# 2 33.8556 115.0622 33.2525 0.0000 0.0000 0.0000
# 3 29.7477 33.2525 98.1577 0.0000 0.0000 0.0000
# 4 0.0000 0.0000 0.0000 22.4091 0.0000 0.0000
# 5 0.0000 0.0000 0.0000 0.0000 6.6500 0.0000
# 6 0.0000 0.0000 0.0000 0.0000 0.0000 2.1038
#
#
#
# Elastic Compliance Matrix: (Units=1/GPa)
#
#
# Indices 1 2 3 4 5 6 
#
# 1 0.021625 -0.004954 -0.004875 0.000000 0.000000 0.000000
# 2 -0.004954 0.010769 -0.002147 0.000000 0.000000 0.000000
# 3 -0.004875 -0.002147 0.012393 0.000000 0.000000 0.000000
# 4 0.000000 0.000000 0.000000 0.044625 0.000000 0.000000
# 5 0.000000 0.000000 0.000000 0.000000 0.150376 0.000000
# 6 0.000000 0.000000 0.000000 0.000000 0.000000 0.475331
#
#
# Mechanical properties :
#
#
# Convention : Reuss Voigt Hill
#
# Bulk Modulus (GPa) = 47.99844 51.95972 49.97908
# Shear Modulus (GPa) = 6.70228 18.03725 12.36977
#
# Velocity S-wave (km/s) = 1.88220 3.08773 2.55702
# Velocity P-wave (km/s) = 5.48583 6.33851 5.92753
#
# Compressibility (1/GPa) = 0.02083401
#
# Stress axis : x y z
#
# Youngs Moduli (GPa) = 46.24352 92.85922 80.69395
#
# Poissons Ratio (x) = 0.46001 0.39341
# Poissons Ratio (y) = 0.22908 0.17324
# Poissons Ratio (z) = 0.22545 0.19936
#
# Static dielectric constant tensor:
#      x y z
#    x 1.660340 0.000000 0.000000 
#    y 0.000000 1.662120 0.000000 
#    z 0.000000 0.000000 1.623870 
# 
# From -- ./inp_files/25391.got.cif
#   From: 2010.05.17/outbox.cif.g08.bks.cpg/sg57_13_cif.got.tgz:25391.got - 2010.06.03 13:58:18.
