data_PCOD9436539
_publ_section_title
;
Structure prediction by ZEFSAII (Michael W. Deem and Ramdas Pophale) SiO2 
 PCOD9436539
Probable space group: P B C M
;
_chemical_formula_sum "Si O2"
_cell_formula_units_Z 56
_cell_length_a 12.437630
_cell_length_b 21.683603
_cell_length_c 11.799437
_cell_angle_alpha 90.000000
_cell_angle_beta 90.000000
_cell_angle_gamma 90.000000
_cell_volume 3182.221211
_symmetry_space_group_name_H-M "P B C M"
_symmetry_group_IT_number 57
_symmetry_cell_setting 'orthorhombic'
loop_
_space_group_symop_operation_xyz
x,y,z
-x,-y,1/2+z
x,1/2-y,-z
-x,1/2+y,1/2-z
-x,-y,-z
x,y,1/2-z
-x,1/2+y,z
x,1/2-y,1/2+z
loop_
_atom_site_type_symbol
_atom_site_label
_atom_site_fract_x
_atom_site_fract_y
_atom_site_fract_z
Si Si1 0.114542 0.642506 0.377697
Si Si2 0.314946 0.939493 0.886879
Si Si3 0.195057 0.177460 0.619491
Si Si4 0.007824 0.250000 0.000000
Si Si5 0.534441 0.869896 0.883291
Si Si6 0.741401 0.939852 0.971714
Si Si7 0.038788 0.026188 0.123437
Si Si8 0.619675 0.750000 0.000000
O O1 0.140082 0.663040 0.250000
O O2 0.219398 0.606949 0.422229
O O3 0.068210 0.698919 0.446272
O O4 0.020934 0.591577 0.372404
O O5 0.308377 0.947184 0.750000
O O6 0.428559 0.908352 0.916028
O O7 0.296028 0.004810 0.946715
O O8 0.193533 0.160211 0.750000
O O9 0.089232 0.216140 0.586684
O O10 0.206550 0.116417 0.543190
O O11 0.298388 0.220348 0.591751
O O12 0.527254 0.856775 0.750000
O O13 0.550579 0.805766 0.949323
O O14 0.639343 0.911036 0.908574
O O15 0.833894 0.965200 0.889633
O O16 0.014843 0.997022 0.250000
O O17 0.000000 0.000000 0.000000
#
# Coordination Sequence:
#
# PCOD9436539 Si02
#       8
#     8   8   8   4   8   8   8   4
#     4  10  21  37  55  79 114 152 190 232 286 344
#     4  10  21  37  58  81 112 152 194 237 289 352
#     4  10  20  32  52  82 114 144 184 239 295 348
#     4  11  20  35  52  82 110 153 195 234 288 342
#     4  10  21  37  58  83 110 148 192 237 290 347
#     4  11  20  36  57  86 113 149 186 244 293 351
#     4  11  22  38  60  87 119 155 191 236 294 354
#     4   9  20  35  54  78 108 145 187 234 290 346
#
# _framework density 17.597771000000002
#
# number of rings (size 3 to 8) (size 9 to 14) (size 15 to 20)
#    0.000    1.714    2.857    2.143    0.000    1.143 
#    0.000    0.000    0.000    2.571    0.000    0.000 
#    0.000    0.000    0.000    0.000    0.000    0.000 
#
# Total GULP energy -312258.693345 kJ/mol
# GULP energy per Si atom -5576.048095 kJ/mol
# Density = 1.755772 g / cm^3
# Si number density = 17.597771 Si / 1000 Ang^3
#
#
#
# Elastic Constant Matrix: (Units=GPa)
#
#
# Indices 1 2 3 4 5 6 
#
# 1 90.6782 33.2511 13.1706 0.0000 0.0000 0.0000
# 2 33.2511 74.1673 21.2355 0.0000 0.0000 0.0000
# 3 13.1706 21.2355 63.9474 0.0000 0.0000 0.0000
# 4 0.0000 0.0000 0.0000 15.3927 0.0000 0.0000
# 5 0.0000 0.0000 0.0000 0.0000 17.6743 0.0000
# 6 0.0000 0.0000 0.0000 0.0000 0.0000 20.1628
#
#
#
# Elastic Compliance Matrix: (Units=1/GPa)
#
#
# Indices 1 2 3 4 5 6 
#
# 1 0.013238 -0.005696 -0.000835 0.000000 0.000000 0.000000
# 2 -0.005696 0.017350 -0.004589 0.000000 0.000000 0.000000
# 3 -0.000835 -0.004589 0.017334 0.000000 0.000000 0.000000
# 4 0.000000 0.000000 0.000000 0.064966 0.000000 0.000000
# 5 0.000000 0.000000 0.000000 0.000000 0.056579 0.000000
# 6 0.000000 0.000000 0.000000 0.000000 0.000000 0.049596
#
#
# Mechanical properties :
#
#
# Convention : Reuss Voigt Hill
#
# Bulk Modulus (GPa) = 38.93614 40.45638 39.69626
# Shear Modulus (GPa) = 20.01095 21.38834 20.69964
#
# Velocity S-wave (km/s) = 3.37579 3.49004 3.43339
# Velocity P-wave (km/s) = 6.11296 6.26737 6.19065
#
# Compressibility (1/GPa) = 0.02568308
#
# Stress axis : x y z
#
# Youngs Moduli (GPa) = 75.54058 57.63553 57.69142
#
# Poissons Ratio (x) = 0.32828 0.04817
# Poissons Ratio (y) = 0.43027 0.26472
# Poissons Ratio (z) = 0.06308 0.26447
#
# Static dielectric constant tensor:
#      x y z
#    x 1.595470 0.000000 0.000000 
#    y 0.000000 1.555060 0.000000 
#    z 0.000000 0.000000 1.623520 
# 
# From -- ./inp_files/13123.got.cif
#   From: 2010.05.17/outbox.cif.g08.bks.cpg/sg57_7_cif.got.tgz:13123.got - 2010.06.03 13:58:18.
