data_PCOD9436719
_publ_section_title
;
Structure prediction by ZEFSAII (Michael W. Deem and Ramdas Pophale) SiO2 
 PCOD9436719
Probable space group: P B C M
;
_chemical_formula_sum "Si O2"
_cell_formula_units_Z 48
_cell_length_a 7.224896
_cell_length_b 14.485990
_cell_length_c 17.144344
_cell_angle_alpha 90.000000
_cell_angle_beta 90.000000
_cell_angle_gamma 90.000000
_cell_volume 1794.323121
_symmetry_space_group_name_H-M "P B C M"
_symmetry_group_IT_number 57
_symmetry_cell_setting 'orthorhombic'
loop_
_space_group_symop_operation_xyz
x,y,z
-x,-y,1/2+z
x,1/2-y,-z
-x,1/2+y,1/2-z
-x,-y,-z
x,y,1/2-z
-x,1/2+y,z
x,1/2-y,1/2+z
loop_
_atom_site_type_symbol
_atom_site_label
_atom_site_fract_x
_atom_site_fract_y
_atom_site_fract_z
Si Si1 0.128279 0.596812 0.750000
Si Si2 0.021025 0.905075 0.750000
Si Si3 0.367194 0.081941 0.914838
Si Si4 0.997267 0.143949 0.084475
Si Si5 0.548493 0.937364 0.250000
Si Si6 0.978841 0.354374 0.418212
Si Si7 0.410962 0.110179 0.080769
Si Si8 0.428474 0.364559 0.750000
O O1 0.977285 0.515813 0.750000
O O2 0.329116 0.555596 0.750000
O O3 0.116884 0.643006 0.834633
O O4 0.097008 0.870491 0.667488
O O5 0.799839 0.875117 0.750000
O O6 0.393468 0.116223 0.826999
O O7 0.146114 0.073060 0.919855
O O8 0.477361 0.985838 0.915431
O O9 0.430188 0.140311 0.990283
O O10 0.060229 0.250907 0.081061
O O11 0.189632 0.087279 0.085938
O O12 0.886135 0.131376 0.003297
O O13 0.574850 0.047992 0.250000
O O14 0.456320 0.167786 0.159226
#
# Coordination Sequence:
#
# PCOD9436719 Si02
#       8
#     4   4   8   8   4   8   8   4
#     4  11  22  34  52  80 107 145 192 233 272 326
#     4   9  17  31  50  72 105 142 177 216 273 326
#     4   9  16  29  50  77 103 132 172 222 268 323
#     4   9  18  34  55  79 108 147 183 225 281 337
#     4   9  17  29  46  68 100 134 167 210 269 316
#     4  10  20  33  55  83 108 138 190 238 271 320
#     4   8  14  26  49  75 101 131 170 215 267 319
#     4   7  12  24  42  68  94 125 162 201 248 310
#
# _framework density 26.751035999999999
#
# number of rings (size 3 to 8) (size 9 to 14) (size 15 to 20)
#    0.000    3.000    0.000    2.000    0.000    0.667 
#    0.000    0.000    0.000   12.000    0.000    0.000 
#    0.000    0.000    0.000    0.000    0.000    0.000 
#
# Total GULP energy -267342.438756 kJ/mol
# GULP energy per Si atom -5569.634141 kJ/mol
# Density = 2.669015 g / cm^3
# Si number density = 26.751036 Si / 1000 Ang^3
#
#
#
# Elastic Constant Matrix: (Units=GPa)
#
#
# Indices 1 2 3 4 5 6 
#
# 1 64.7775 -0.2218 18.3748 0.0000 0.0000 0.0000
# 2 -0.2218 53.3618 32.1865 0.0000 0.0000 0.0000
# 3 18.3748 32.1865 376.4065 0.0000 0.0000 0.0000
# 4 0.0000 0.0000 0.0000 10.7295 0.0000 0.0000
# 5 0.0000 0.0000 0.0000 0.0000 9.3654 0.0000
# 6 0.0000 0.0000 0.0000 0.0000 0.0000 5.8489
#
#
#
# Elastic Compliance Matrix: (Units=1/GPa)
#
#
# Indices 1 2 3 4 5 6 
#
# 1 0.015670 0.000555 -0.000812 0.000000 0.000000 0.000000
# 2 0.000555 0.019779 -0.001718 0.000000 0.000000 0.000000
# 3 -0.000812 -0.001718 0.002843 0.000000 0.000000 0.000000
# 4 0.000000 0.000000 0.000000 0.093201 0.000000 0.000000
# 5 0.000000 0.000000 0.000000 0.000000 0.106776 0.000000
# 6 0.000000 0.000000 0.000000 0.000000 0.000000 0.170972
#
#
# Mechanical properties :
#
#
# Convention : Reuss Voigt Hill
#
# Bulk Modulus (GPa) = 29.12000 66.13607 47.62804
# Shear Modulus (GPa) = 11.77469 34.80251 23.28860
#
# Velocity S-wave (km/s) = 2.10027 3.61082 2.95374
# Velocity P-wave (km/s) = 4.09765 6.49311 5.42914
#
# Compressibility (1/GPa) = 0.03434065
#
# Stress axis : x y z
#
# Youngs Moduli (GPa) = 63.81700 50.55916 351.70387
#
# Poissons Ratio (x) = -0.02807 0.28573
# Poissons Ratio (y) = -0.03543 0.60436
# Poissons Ratio (z) = 0.05185 0.08688
#
# Static dielectric constant tensor:
#      x y z
#    x 2.071630 0.000000 0.000000 
#    y 0.000000 2.129020 0.000000 
#    z 0.000000 0.000000 2.210940 
# 
# From -- ./inp_files/21044.got.cif
#   From: 2010.05.17/outbox.cif.g08.bks.cpg/sg57_11_cif.got.tgz:21044.got - 2010.06.03 13:58:18.
