data_PCOD9436357
_publ_section_title
;
Structure prediction by ZEFSAII (Michael W. Deem and Ramdas Pophale) SiO2 
 PCOD9436357
Probable space group: P B C M
;
_chemical_formula_sum "Si O2"
_cell_formula_units_Z 64
_cell_length_a 11.052061
_cell_length_b 14.494168
_cell_length_c 16.054558
_cell_angle_alpha 90.000000
_cell_angle_beta 90.000000
_cell_angle_gamma 90.000000
_cell_volume 2571.786532
_symmetry_space_group_name_H-M "P B C M"
_symmetry_group_IT_number 57
_symmetry_cell_setting 'orthorhombic'
loop_
_space_group_symop_operation_xyz
x,y,z
-x,-y,1/2+z
x,1/2-y,-z
-x,1/2+y,1/2-z
-x,-y,-z
x,y,1/2-z
-x,1/2+y,z
x,1/2-y,1/2+z
loop_
_atom_site_type_symbol
_atom_site_label
_atom_site_fract_x
_atom_site_fract_y
_atom_site_fract_z
Si Si1 0.670258 0.533466 0.879713
Si Si2 0.442039 0.299893 0.850780
Si Si3 0.064575 0.682272 0.647913
Si Si4 0.315993 0.040233 0.425278
Si Si5 0.936205 0.968450 0.850957
Si Si6 0.819645 0.362378 0.650066
Si Si7 0.417957 0.870374 0.155236
Si Si8 0.803245 0.707255 0.655045
O O1 0.704894 0.426800 0.868277
O O2 0.547300 0.575627 0.842784
O O3 0.776888 0.597514 0.842617
O O4 0.671667 0.551809 0.977527
O O5 0.444824 0.300098 0.750000
O O6 0.424504 0.401882 0.883640
O O7 0.549535 0.231751 0.875833
O O8 0.317735 0.250935 0.881980
O O9 0.062235 0.680516 0.750000
O O10 0.067236 0.575862 0.622779
O O11 0.165290 0.756456 0.621320
O O12 0.934788 0.721499 0.618224
O O13 0.187171 0.072201 0.389086
O O14 0.334217 0.933940 0.400178
O O15 0.928961 0.963343 0.750000
O O16 0.059329 0.917929 0.877782
O O17 0.824193 0.358284 0.750000
O O18 0.369982 0.866338 0.250000
O O19 0.808574 0.742170 0.750000
#
# Coordination Sequence:
#
# PCOD9436357 Si02
#       8
#     8   8   8   8   8   8   8   8
#     4  11  22  37  60  87 124 160 200 250 314 374
#     4   9  19  37  64  90 111 152 206 248 295 355
#     4   9  17  31  56  87 116 156 209 254 295 344
#     4  12  24  39  60  91 131 158 194 250 320 381
#     4  10  20  36  60  87 122 163 203 255 301 348
#     4  10  19  36  62  90 122 165 214 255 296 361
#     4  10  22  42  66  88 114 154 207 261 301 358
#     4   9  16  33  59  87 118 157 211 260 286 336
#
# _framework density 24.885424
#
# number of rings (size 3 to 8) (size 9 to 14) (size 15 to 20)
#    0.000    2.000    1.250    4.125    0.000    4.500 
#    2.250    0.625    0.000    0.000    0.000    0.000 
#    0.000    0.000    0.000    0.000    0.000    0.000 
#
# Total GULP energy -357883.420432 kJ/mol
# GULP energy per Si atom -5591.928444 kJ/mol
# Density = 2.482878 g / cm^3
# Si number density = 24.885424 Si / 1000 Ang^3
#
#
#
# Elastic Constant Matrix: (Units=GPa)
#
#
# Indices 1 2 3 4 5 6 
#
# 1 89.2307 5.2358 3.9092 0.0000 0.0000 0.0000
# 2 5.2358 121.5304 6.6110 0.0000 0.0000 0.0000
# 3 3.9092 6.6110 30.3469 0.0000 0.0000 0.0000
# 4 0.0000 0.0000 0.0000 -5.5792 0.0000 0.0000
# 5 0.0000 0.0000 0.0000 0.0000 -9.7822 0.0000
# 6 0.0000 0.0000 0.0000 0.0000 0.0000 42.2408
#
#
#
# Elastic Compliance Matrix: (Units=1/GPa)
#
#
# Indices 1 2 3 4 5 6 
#
# 1 0.011291 -0.000412 -0.001365 0.000000 0.000000 0.000000
# 2 -0.000412 0.008342 -0.001764 0.000000 0.000000 0.000000
# 3 -0.001365 -0.001764 0.033512 0.000000 0.000000 0.000000
# 4 0.000000 0.000000 0.000000 -0.179236 0.000000 0.000000
# 5 0.000000 0.000000 0.000000 0.000000 -0.102227 0.000000
# 6 0.000000 0.000000 0.000000 0.000000 0.000000 0.023674
#
#
# Mechanical properties :
#
#
# Convention : Reuss Voigt Hill
#
# Bulk Modulus (GPa) = 21.70925 30.29112 26.00018
# Shear Modulus (GPa) = -27.44129 20.39934 -3.52098
#
# Velocity S-wave (km/s) = -3.32430 2.86620 -1.19078
# Velocity P-wave (km/s) = 2.44786 4.81167 2.92917
#
# Compressibility (1/GPa) = 0.04606331
#
# Stress axis : x y z
#
# Youngs Moduli (GPa) = 88.56706 119.87358 29.83964
#
# Poissons Ratio (x) = 0.04941 0.04072
# Poissons Ratio (y) = 0.03651 0.05264
# Poissons Ratio (z) = 0.12086 0.21148
#
# Static dielectric constant tensor:
#      x y z
#    x 1.986480 0.000000 0.000000 
#    y 0.000000 2.028800 0.000000 
#    z 0.000000 0.000000 1.883180 
# 
# From -- ./inp_files/22001.got.cif
#   From: 2010.05.17/outbox.cif.g08.bks.cpg/sg57_12_cif.got.tgz:22001.got - 2010.06.03 13:58:18.
