data_PCOD9436788
_publ_section_title
;
Structure prediction by ZEFSAII (Michael W. Deem and Ramdas Pophale) SiO2 
 PCOD9436788
Probable space group: P B C M
;
_chemical_formula_sum "Si O2"
_cell_formula_units_Z 32
_cell_length_a 11.572747
_cell_length_b 18.248317
_cell_length_c 8.913922
_cell_angle_alpha 90.000000
_cell_angle_beta 90.000000
_cell_angle_gamma 90.000000
_cell_volume 1882.470179
_symmetry_space_group_name_H-M "P B C M"
_symmetry_group_IT_number 57
_symmetry_cell_setting 'orthorhombic'
loop_
_space_group_symop_operation_xyz
x,y,z
-x,-y,1/2+z
x,1/2-y,-z
-x,1/2+y,1/2-z
-x,-y,-z
x,y,1/2-z
-x,1/2+y,z
x,1/2-y,1/2+z
loop_
_atom_site_type_symbol
_atom_site_label
_atom_site_fract_x
_atom_site_fract_y
_atom_site_fract_z
Si Si1 0.278053 0.826284 0.568652
Si Si2 0.168260 0.045699 0.920312
Si Si3 0.962294 0.388025 0.921241
Si Si4 0.380106 0.525899 0.570954
O O1 0.319915 0.750000 0.500000
O O2 0.285494 0.827862 0.750000
O O3 0.142332 0.836713 0.526705
O O4 0.344244 0.895894 0.500274
O O5 0.204635 0.060906 0.750000
O O6 0.098239 0.968481 0.918917
O O7 0.076727 0.104784 0.980288
O O8 0.278480 0.030587 0.023773
O O9 0.993278 0.369825 0.750000
O O10 0.500000 0.500000 0.500000
O O11 0.387127 0.531384 0.750000
#
# Coordination Sequence:
#
# PCOD9436788 Si02
#       4
#     8   8   8   8
#     4  10  20  34  52  76 104 134 170 211 259 312
#     4   9  16  27  45  70  97 124 158 199 244 292
#     4   8  15  27  44  68  97 126 156 193 240 293
#     4  11  21  34  52  74 102 136 176 219 262 307
#
# _framework density 16.998940999999999
#
# number of rings (size 3 to 8) (size 9 to 14) (size 15 to 20)
#    0.000    2.500    0.000    5.250    0.000    7.000 
#    0.000    0.000    0.000    1.500    0.000    7.000 
#    0.000    0.000    0.000    0.000    0.000    0.000 
#
# Total GULP energy -178317.262973 kJ/mol
# GULP energy per Si atom -5572.414468 kJ/mol
# Density = 1.696025 g / cm^3
# Si number density = 16.998941 Si / 1000 Ang^3
#
#
#
# Elastic Constant Matrix: (Units=GPa)
#
#
# Indices 1 2 3 4 5 6 
#
# 1 104.2808 44.9693 65.5652 0.0000 0.0000 0.0000
# 2 44.9693 64.4377 40.4157 0.0000 0.0000 0.0000
# 3 65.5652 40.4157 116.3120 0.0000 0.0000 0.0000
# 4 0.0000 0.0000 0.0000 18.1099 0.0000 0.0000
# 5 0.0000 0.0000 0.0000 0.0000 30.5445 0.0000
# 6 0.0000 0.0000 0.0000 0.0000 0.0000 15.7118
#
#
#
# Elastic Compliance Matrix: (Units=1/GPa)
#
#
# Indices 1 2 3 4 5 6 
#
# 1 0.017375 -0.007650 -0.007136 0.000000 0.000000 0.000000
# 2 -0.007650 0.023212 -0.003753 0.000000 0.000000 0.000000
# 3 -0.007136 -0.003753 0.013924 0.000000 0.000000 0.000000
# 4 0.000000 0.000000 0.000000 0.055219 0.000000 0.000000
# 5 0.000000 0.000000 0.000000 0.000000 0.032739 0.000000
# 6 0.000000 0.000000 0.000000 0.000000 0.000000 0.063646
#
#
# Mechanical properties :
#
#
# Convention : Reuss Voigt Hill
#
# Bulk Modulus (GPa) = 57.36407 65.21453 61.28930
# Shear Modulus (GPa) = 20.07995 21.81192 20.94594
#
# Velocity S-wave (km/s) = 3.44066 3.58597 3.51407
# Velocity P-wave (km/s) = 7.04295 7.45606 7.25244
#
# Compressibility (1/GPa) = 0.01743252
#
# Stress axis : x y z
#
# Youngs Moduli (GPa) = 57.55344 43.08209 71.81595
#
# Poissons Ratio (x) = 0.32957 0.51250
# Poissons Ratio (y) = 0.44027 0.26955
# Poissons Ratio (z) = 0.41072 0.16170
#
# Static dielectric constant tensor:
#      x y z
#    x 1.573430 0.000000 0.000000 
#    y 0.000000 1.588350 0.000000 
#    z 0.000000 0.000000 1.579040 
# 
# From -- ./inp_files/2384.got.cif
#   From: 2010.05.17/outbox.cif.g08.bks.cpg/sg57_2_cif.got.tgz:2384.got - 2010.06.03 13:58:18.
