data_PCOD9436024
_publ_section_title
;
Structure prediction by ZEFSAII (Michael W. Deem and Ramdas Pophale) SiO2 
 PCOD9436024
Probable space group: P B C M
;
_chemical_formula_sum "Si O2"
_cell_formula_units_Z 64
_cell_length_a 21.508435
_cell_length_b 19.169674
_cell_length_c 8.545378
_cell_angle_alpha 90.000000
_cell_angle_beta 90.000000
_cell_angle_gamma 90.000000
_cell_volume 3523.342130
_symmetry_space_group_name_H-M "P B C M"
_symmetry_group_IT_number 57
_symmetry_cell_setting 'orthorhombic'
loop_
_space_group_symop_operation_xyz
x,y,z
-x,-y,1/2+z
x,1/2-y,-z
-x,1/2+y,1/2-z
-x,-y,-z
x,y,1/2-z
-x,1/2+y,z
x,1/2-y,1/2+z
loop_
_atom_site_type_symbol
_atom_site_label
_atom_site_fract_x
_atom_site_fract_y
_atom_site_fract_z
Si Si1 0.119815 0.826770 0.437921
Si Si2 0.389269 0.174638 0.938521
Si Si3 0.499294 0.578111 0.560943
Si Si4 0.062625 0.534639 0.436613
Si Si5 0.749283 0.106307 0.560128
Si Si6 0.753748 0.674080 0.562380
Si Si7 0.618584 0.171346 0.939687
Si Si8 0.812293 0.965587 0.562093
O O1 0.105505 0.750000 0.500000
O O2 0.118063 0.827575 0.250000
O O3 0.074458 0.886968 0.501035
O O4 0.190068 0.849104 0.488028
O O5 0.389533 0.176031 0.750000
O O6 0.438145 0.117247 0.992056
O O7 0.318152 0.163054 0.989517
O O8 0.409334 0.250000 0.000000
O O9 0.500000 0.500000 0.500000
O O10 0.498892 0.576996 0.750000
O O11 0.438959 0.622560 0.510824
O O12 0.061880 0.535484 0.250000
O O13 0.121560 0.490414 0.497038
O O14 0.000000 0.500000 0.500000
O O15 0.747935 0.107377 0.750000
O O16 0.684295 0.138442 0.505693
O O17 0.763230 0.026318 0.513352
O O18 0.773371 0.750000 0.500000
O O19 0.755647 0.674849 0.750000
O O20 0.793091 0.609751 0.499040
O O21 0.619089 0.173054 0.750000
O O22 0.611766 0.250000 0.000000
O O23 0.814890 0.965307 0.750000
#
# Coordination Sequence:
#
# PCOD9436024 Si02
#       8
#     8   8   8   8   8   8   8   8
#     4  10  19  34  56  84 117 152 191 234 277 327
#     4   9  19  35  53  75 102 136 180 230 278 333
#     4  10  22  36  51  73 104 138 180 228 276 330
#     4  11  22  39  61  86 117 154 192 229 274 325
#     4   8  17  32  52  79 111 143 180 222 270 326
#     4  10  20  35  55  80 109 142 184 233 285 338
#     4  10  20  35  53  76 105 140 178 222 272 326
#     4  10  20  36  58  84 114 147 183 226 275 327
#
# _framework density 18.164570999999999
#
# number of rings (size 3 to 8) (size 9 to 14) (size 15 to 20)
#    0.000    2.250    0.000    3.750    1.750    1.500 
#    0.000    3.750    0.000    0.000    0.000    0.000 
#    0.000    0.000    0.000    0.000    0.000    0.000 
#
# Total GULP energy -357262.238905 kJ/mol
# GULP energy per Si atom -5582.222483 kJ/mol
# Density = 1.812323 g / cm^3
# Si number density = 18.164571 Si / 1000 Ang^3
#
#
#
# Elastic Constant Matrix: (Units=GPa)
#
#
# Indices 1 2 3 4 5 6 
#
# 1 91.4512 99.5610 29.8427 0.0000 0.0000 0.0000
# 2 99.5610 202.8105 47.7765 0.0000 0.0000 0.0000
# 3 29.8427 47.7765 54.4622 0.0000 0.0000 0.0000
# 4 0.0000 0.0000 0.0000 32.5238 0.0000 0.0000
# 5 0.0000 0.0000 0.0000 0.0000 17.3989 0.0000
# 6 0.0000 0.0000 0.0000 0.0000 0.0000 27.5964
#
#
#
# Elastic Compliance Matrix: (Units=1/GPa)
#
#
# Indices 1 2 3 4 5 6 
#
# 1 0.024020 -0.010955 -0.003552 0.000000 0.000000 0.000000
# 2 -0.010955 0.011211 -0.003832 0.000000 0.000000 0.000000
# 3 -0.003552 -0.003832 0.023669 0.000000 0.000000 0.000000
# 4 0.000000 0.000000 0.000000 0.030747 0.000000 0.000000
# 5 0.000000 0.000000 0.000000 0.000000 0.057475 0.000000
# 6 0.000000 0.000000 0.000000 0.000000 0.000000 0.036237
#
#
# Mechanical properties :
#
#
# Convention : Reuss Voigt Hill
#
# Bulk Modulus (GPa) = 44.99854 78.12046 61.55950
# Shear Modulus (GPa) = 21.98332 26.94007 24.46169
#
# Velocity S-wave (km/s) = 3.48261 3.85530 3.67368
# Velocity P-wave (km/s) = 6.40296 7.93210 7.20819
#
# Compressibility (1/GPa) = 0.02222295
#
# Stress axis : x y z
#
# Youngs Moduli (GPa) = 41.63128 89.19500 42.24864
#
# Poissons Ratio (x) = 0.97714 0.15006
# Poissons Ratio (y) = 0.45607 0.16191
# Poissons Ratio (z) = 0.14787 0.34182
#
# Static dielectric constant tensor:
#      x y z
#    x 1.618890 0.000000 0.000000 
#    y 0.000000 1.593420 0.000000 
#    z 0.000000 0.000000 1.609710 
# 
# From -- ./inp_files/8568.got.cif
#   From: 2010.05.17/outbox.cif.g08.bks.cpg/sg57_5_cif.got.tgz:8568.got - 2010.06.03 13:58:18.
