data_PCOD9436688
_publ_section_title
;
Structure prediction by ZEFSAII (Michael W. Deem and Ramdas Pophale) SiO2 
 PCOD9436688
Probable space group: P B C M
;
_chemical_formula_sum "Si O2"
_cell_formula_units_Z 64
_cell_length_a 19.872294
_cell_length_b 19.522516
_cell_length_c 8.639444
_cell_angle_alpha 90.000000
_cell_angle_beta 90.000000
_cell_angle_gamma 90.000000
_cell_volume 3351.734310
_symmetry_space_group_name_H-M "P B C M"
_symmetry_group_IT_number 57
_symmetry_cell_setting 'orthorhombic'
loop_
_space_group_symop_operation_xyz
x,y,z
-x,-y,1/2+z
x,1/2-y,-z
-x,1/2+y,1/2-z
-x,-y,-z
x,y,1/2-z
-x,1/2+y,z
x,1/2-y,1/2+z
loop_
_atom_site_type_symbol
_atom_site_label
_atom_site_fract_x
_atom_site_fract_y
_atom_site_fract_z
Si Si1 0.545835 0.673442 0.063234
Si Si2 0.588011 0.408096 0.936805
Si Si3 0.209691 0.449151 0.935419
Si Si4 0.721293 0.326307 0.563571
Si Si5 0.020734 0.825710 0.936205
Si Si6 0.873475 0.825352 0.434490
Si Si7 0.635460 0.547820 0.436569
Si Si8 0.148975 0.585694 0.063113
O O1 0.545495 0.677276 0.250000
O O2 0.476301 0.636434 0.014176
O O3 0.604936 0.621054 0.015917
O O4 0.551794 0.750000 0.000000
O O5 0.587220 0.411510 0.750000
O O6 0.656230 0.369527 0.987052
O O7 0.591580 0.484928 0.000396
O O8 0.208969 0.444358 0.750000
O O9 0.287030 0.460439 0.986717
O O10 0.179854 0.380276 0.006804
O O11 0.164306 0.512573 0.989631
O O12 0.718608 0.250000 0.500000
O O13 0.720320 0.323674 0.750000
O O14 0.789706 0.364401 0.516349
O O15 0.017111 0.822224 0.750000
O O16 0.078614 0.879290 0.980506
O O17 0.037626 0.750000 0.000000
O O18 0.947694 0.844341 0.002407
O O19 0.858344 0.750000 0.500000
O O20 0.875389 0.822975 0.250000
O O21 0.633444 0.544934 0.250000
O O22 0.150298 0.579012 0.250000
#
# Coordination Sequence:
#
# PCOD9436688 Si02
#       8
#     8   8   8   8   8   8   8   8
#     4  10  22  39  58  86 118 150 192 240 289 344
#     4  10  20  36  59  84 115 153 191 235 285 344
#     4  11  23  39  60  86 116 152 195 243 291 346
#     4  10  20  33  52  81 115 151 193 232 277 335
#     4  10  20  36  59  86 118 154 193 239 289 345
#     4  11  23  41  64  87 115 150 191 241 291 347
#     4  10  22  39  59  85 117 151 194 242 289 346
#     4  10  21  37  56  82 118 155 194 238 285 344
#
# _framework density 19.094591999999999
#
# number of rings (size 3 to 8) (size 9 to 14) (size 15 to 20)
#    0.000    1.750    1.250    3.750    0.000    4.500 
#    0.000    1.250    0.000    0.000    0.000    0.000 
#    0.000    0.000    0.000    0.000    0.000    0.000 
#
# Total GULP energy -357622.668613 kJ/mol
# GULP energy per Si atom -5587.854197 kJ/mol
# Density = 1.905113 g / cm^3
# Si number density = 19.094592 Si / 1000 Ang^3
#
#
#
# Elastic Constant Matrix: (Units=GPa)
#
#
# Indices 1 2 3 4 5 6 
#
# 1 38.8254 39.8908 15.7368 0.0000 0.0000 0.0000
# 2 39.8908 126.5343 23.9347 0.0000 0.0000 0.0000
# 3 15.7368 23.9347 31.7355 0.0000 0.0000 0.0000
# 4 0.0000 0.0000 0.0000 39.9972 0.0000 0.0000
# 5 0.0000 0.0000 0.0000 0.0000 4.6188 0.0000
# 6 0.0000 0.0000 0.0000 0.0000 0.0000 38.8409
#
#
#
# Elastic Compliance Matrix: (Units=1/GPa)
#
#
# Indices 1 2 3 4 5 6 
#
# 1 0.042046 -0.010861 -0.012658 0.000000 0.000000 0.000000
# 2 -0.010861 0.012024 -0.003682 0.000000 0.000000 0.000000
# 3 -0.012658 -0.003682 0.040565 0.000000 0.000000 0.000000
# 4 0.000000 0.000000 0.000000 0.025002 0.000000 0.000000
# 5 0.000000 0.000000 0.000000 0.000000 0.216505 0.000000
# 6 0.000000 0.000000 0.000000 0.000000 0.000000 0.025746
#
#
# Mechanical properties :
#
#
# Convention : Reuss Voigt Hill
#
# Bulk Modulus (GPa) = 24.85653 39.57998 32.21826
# Shear Modulus (GPa) = 11.63601 24.52692 18.08147
#
# Velocity S-wave (km/s) = 2.47126 3.58787 3.08058
# Velocity P-wave (km/s) = 4.60311 6.15932 5.43718
#
# Compressibility (1/GPa) = 0.04023088
#
# Stress axis : x y z
#
# Youngs Moduli (GPa) = 23.78352 83.17031 24.65204
#
# Poissons Ratio (x) = 0.90330 0.31205
# Poissons Ratio (y) = 0.25831 0.09078
# Poissons Ratio (z) = 0.30106 0.30627
#
# Static dielectric constant tensor:
#      x y z
#    x 1.663520 0.000000 0.000000 
#    y 0.000000 1.629520 0.000000 
#    z 0.000000 0.000000 1.647510 
# 
# From -- ./inp_files/8609.got.cif
#   From: 2010.05.17/outbox.cif.g08.bks.cpg/sg57_5_cif.got.tgz:8609.got - 2010.06.03 13:58:18.
