data_PCOD9436608
_publ_section_title
;
Structure prediction by ZEFSAII (Michael W. Deem and Ramdas Pophale) SiO2 
 PCOD9436608
Probable space group: P B C M
;
_chemical_formula_sum "Si O2"
_cell_formula_units_Z 64
_cell_length_a 30.771725
_cell_length_b 13.995800
_cell_length_c 8.846248
_cell_angle_alpha 90.000000
_cell_angle_beta 90.000000
_cell_angle_gamma 90.000000
_cell_volume 3809.857050
_symmetry_space_group_name_H-M "P B C M"
_symmetry_group_IT_number 57
_symmetry_cell_setting 'orthorhombic'
loop_
_space_group_symop_operation_xyz
x,y,z
-x,-y,1/2+z
x,1/2-y,-z
-x,1/2+y,1/2-z
-x,-y,-z
x,y,1/2-z
-x,1/2+y,z
x,1/2-y,1/2+z
loop_
_atom_site_type_symbol
_atom_site_label
_atom_site_fract_x
_atom_site_fract_y
_atom_site_fract_z
Si Si1 0.357761 0.647549 0.929223
Si Si2 0.817671 0.022414 0.433611
Si Si3 0.517503 0.645639 0.430456
Si Si4 0.568487 0.475345 0.930424
Si Si5 0.254719 0.854036 0.069786
Si Si6 0.045437 0.473200 0.423899
Si Si7 0.123315 0.143943 0.432040
Si Si8 0.106879 0.655848 0.079444
O O1 0.365209 0.650344 0.750000
O O2 0.306355 0.633338 0.955797
O O3 0.369785 0.750000 0.000000
O O4 0.387340 0.566742 0.003272
O O5 0.819043 0.015652 0.250000
O O6 0.771550 0.059404 0.492570
O O7 0.849972 0.107796 0.486385
O O8 0.839070 0.926567 0.502415
O O9 0.520417 0.750000 0.500000
O O10 0.521322 0.649287 0.250000
O O11 0.470716 0.598386 0.467767
O O12 0.553720 0.575154 0.497935
O O13 0.571029 0.483680 0.750000
O O14 0.246697 0.852542 0.250000
O O15 0.242787 0.750000 0.000000
O O16 0.039581 0.440565 0.250000
O O17 0.076967 0.399890 0.512027
O O18 0.072063 0.571965 0.420611
O O19 0.000000 0.500000 0.500000
O O20 0.128170 0.250000 0.500000
O O21 0.124825 0.145241 0.250000
O O22 0.117500 0.683080 0.250000
O O23 0.091026 0.750000 0.000000
#
# Coordination Sequence:
#
# PCOD9436608 Si02
#       8
#     8   8   8   8   8   8   8   8
#     4  10  20  33  50  74 106 140 175 213 256 308
#     4  10  20  35  54  78 106 134 168 212 254 301
#     4  10  20  33  50  73 101 133 172 217 262 310
#     4  10  20  33  51  74 101 135 174 215 261 311
#     4  10  20  33  51  78 109 142 175 210 256 310
#     4  10  21  37  53  75 105 137 174 214 254 299
#     4  11  22  38  59  81 105 137 176 219 263 308
#     4   9  19  32  48  71  99 128 160 197 240 289
#
# _framework density 16.798531000000001
#
# number of rings (size 3 to 8) (size 9 to 14) (size 15 to 20)
#    0.000    2.000    0.000    4.875    0.000    8.500 
#    0.000    1.250    0.000    0.750    0.000    0.000 
#    0.000    0.000    0.000    0.000    0.000    0.000 
#
# Total GULP energy -357056.068652 kJ/mol
# GULP energy per Si atom -5579.001073 kJ/mol
# Density = 1.676030 g / cm^3
# Si number density = 16.798531 Si / 1000 Ang^3
#
#
#
# Elastic Constant Matrix: (Units=GPa)
#
#
# Indices 1 2 3 4 5 6 
#
# 1 68.2521 46.9639 47.9297 0.0000 0.0000 0.0000
# 2 46.9639 116.9119 60.7644 0.0000 0.0000 0.0000
# 3 47.9297 60.7644 97.8583 0.0000 0.0000 0.0000
# 4 0.0000 0.0000 0.0000 32.2913 0.0000 0.0000
# 5 0.0000 0.0000 0.0000 0.0000 28.3534 0.0000
# 6 0.0000 0.0000 0.0000 0.0000 0.0000 12.2418
#
#
#
# Elastic Compliance Matrix: (Units=1/GPa)
#
#
# Indices 1 2 3 4 5 6 
#
# 1 0.024367 -0.005294 -0.008647 0.000000 0.000000 0.000000
# 2 -0.005294 0.013779 -0.005963 0.000000 0.000000 0.000000
# 3 -0.008647 -0.005963 0.018157 0.000000 0.000000 0.000000
# 4 0.000000 0.000000 0.000000 0.030968 0.000000 0.000000
# 5 0.000000 0.000000 0.000000 0.000000 0.035269 0.000000
# 6 0.000000 0.000000 0.000000 0.000000 0.000000 0.081687
#
#
# Mechanical properties :
#
#
# Convention : Reuss Voigt Hill
#
# Bulk Modulus (GPa) = 60.62731 66.03757 63.33244
# Shear Modulus (GPa) = 20.03727 23.06828 21.55277
#
# Velocity S-wave (km/s) = 3.45744 3.70973 3.58581
# Velocity P-wave (km/s) = 7.21857 7.59910 7.41128
#
# Compressibility (1/GPa) = 0.01649422
#
# Stress axis : x y z
#
# Youngs Moduli (GPa) = 41.03955 72.57192 55.07473
#
# Poissons Ratio (x) = 0.38418 0.47625
# Poissons Ratio (y) = 0.21725 0.32843
# Poissons Ratio (z) = 0.35488 0.43278
#
# Static dielectric constant tensor:
#      x y z
#    x 1.576440 0.000000 0.000000 
#    y 0.000000 1.546460 0.000000 
#    z 0.000000 0.000000 1.569670 
# 
# From -- ./inp_files/10282.got.cif
#   From: 2010.05.17/outbox.cif.g08.bks.cpg/sg57_6_cif.got.tgz:10282.got - 2010.06.03 13:58:18.
