data_PCOD9436562
_publ_section_title
;
Structure prediction by ZEFSAII (Michael W. Deem and Ramdas Pophale) SiO2 
 PCOD9436562
Probable space group: P B C M
;
_chemical_formula_sum "Si O2"
_cell_formula_units_Z 64
_cell_length_a 21.915862
_cell_length_b 19.204164
_cell_length_c 9.013078
_cell_angle_alpha 90.000000
_cell_angle_beta 90.000000
_cell_angle_gamma 90.000000
_cell_volume 3793.386486
_symmetry_space_group_name_H-M "P B C M"
_symmetry_group_IT_number 57
_symmetry_cell_setting 'orthorhombic'
loop_
_space_group_symop_operation_xyz
x,y,z
-x,-y,1/2+z
x,1/2-y,-z
-x,1/2+y,1/2-z
-x,-y,-z
x,y,1/2-z
-x,1/2+y,z
x,1/2-y,1/2+z
loop_
_atom_site_type_symbol
_atom_site_label
_atom_site_fract_x
_atom_site_fract_y
_atom_site_fract_z
Si Si1 0.030395 0.174320 0.928365
Si Si2 0.726746 0.640824 0.081520
Si Si3 0.196937 0.941772 0.927256
Si Si4 0.395106 0.181180 0.573999
Si Si5 0.317228 0.520254 0.918908
Si Si6 0.155149 0.097849 0.926848
Si Si7 0.437952 0.473431 0.072233
Si Si8 0.097147 0.825651 0.928708
O O1 0.023546 0.180676 0.750000
O O2 0.087383 0.124257 0.960056
O O3 0.042767 0.250000 0.000000
O O4 0.967122 0.149833 0.001655
O O5 0.725334 0.667480 0.250000
O O6 0.707883 0.559202 0.084463
O O7 0.674500 0.674772 0.982351
O O8 0.793776 0.642579 0.011818
O O9 0.206970 0.941647 0.750000
O O10 0.150724 0.879819 0.964119
O O11 0.166266 0.016615 0.964227
O O12 0.262188 0.937304 0.007074
O O13 0.422570 0.250000 0.500000
O O14 0.396293 0.187954 0.750000
O O15 0.426817 0.108048 0.533017
O O16 0.328793 0.542255 0.750000
O O17 0.379751 0.515914 0.010462
O O18 0.165248 0.105340 0.750000
O O19 0.440023 0.478750 0.250000
O O20 0.500000 0.500000 0.000000
O O21 0.091667 0.819972 0.750000
O O22 0.109088 0.750000 0.000000
#
# Coordination Sequence:
#
# PCOD9436562 Si02
#       8
#     8   8   8   8   8   8   8   8
#     4  10  20  33  48  65  90 125 162 202 247 297
#     4   9  17  29  46  69  97 128 161 197 238 286
#     4   9  18  33  52  73  97 126 160 201 249 296
#     4  10  20  33  50  73 102 136 172 210 248 287
#     4   9  17  30  50  76 102 127 158 197 239 284
#     4   9  18  32  48  68  96 129 164 201 244 293
#     4  10  20  34  54  79 107 140 174 206 245 294
#     4  10  20  34  52  71  93 123 160 204 254 307
#
# _framework density 16.871468
#
# number of rings (size 3 to 8) (size 9 to 14) (size 15 to 20)
#    0.000    2.500    0.000    3.000    0.000    7.500 
#    0.000    1.250    0.000    0.750    0.000    5.250 
#    0.000    0.000    0.000    0.000    0.000    0.000 
#
# Total GULP energy -356881.985262 kJ/mol
# GULP energy per Si atom -5576.281020 kJ/mol
# Density = 1.683307 g / cm^3
# Si number density = 16.871468 Si / 1000 Ang^3
#
#
#
# Elastic Constant Matrix: (Units=GPa)
#
#
# Indices 1 2 3 4 5 6 
#
# 1 150.4590 65.1743 68.7834 0.0000 0.0000 0.0000
# 2 65.1743 62.4603 43.9838 0.0000 0.0000 0.0000
# 3 68.7834 43.9838 73.4202 0.0000 0.0000 0.0000
# 4 0.0000 0.0000 0.0000 21.9750 0.0000 0.0000
# 5 0.0000 0.0000 0.0000 0.0000 32.5991 0.0000
# 6 0.0000 0.0000 0.0000 0.0000 0.0000 14.6929
#
#
#
# Elastic Compliance Matrix: (Units=1/GPa)
#
#
# Indices 1 2 3 4 5 6 
#
# 1 0.014263 -0.009467 -0.007691 0.000000 0.000000 0.000000
# 2 -0.009467 0.033976 -0.011485 0.000000 0.000000 0.000000
# 3 -0.007691 -0.011485 0.027706 0.000000 0.000000 0.000000
# 4 0.000000 0.000000 0.000000 0.045506 0.000000 0.000000
# 5 0.000000 0.000000 0.000000 0.000000 0.030676 0.000000
# 6 0.000000 0.000000 0.000000 0.000000 0.000000 0.068060
#
#
# Mechanical properties :
#
#
# Convention : Reuss Voigt Hill
#
# Bulk Modulus (GPa) = 53.59292 71.35805 62.47548
# Shear Modulus (GPa) = 17.62474 21.07995 19.35234
#
# Velocity S-wave (km/s) = 3.23561 3.53858 3.39048
# Velocity P-wave (km/s) = 6.76707 7.68650 7.24139
#
# Compressibility (1/GPa) = 0.01865918
#
# Stress axis : x y z
#
# Youngs Moduli (GPa) = 70.11089 29.43254 36.09367
#
# Poissons Ratio (x) = 0.27864 0.27759
# Poissons Ratio (y) = 0.66374 0.41453
# Poissons Ratio (z) = 0.53922 0.33803
#
# Static dielectric constant tensor:
#      x y z
#    x 1.547680 0.000000 0.000000 
#    y 0.000000 1.576510 0.000000 
#    z 0.000000 0.000000 1.571920 
# 
# From -- ./inp_files/8561.got.cif
#   From: 2010.05.17/outbox.cif.g08.bks.cpg/sg57_5_cif.got.tgz:8561.got - 2010.06.03 13:58:18.
