data_PCOD9436386
_publ_section_title
;
Structure prediction by ZEFSAII (Michael W. Deem and Ramdas Pophale) SiO2 
 PCOD9436386
Probable space group: P B C M
;
_chemical_formula_sum "Si O2"
_cell_formula_units_Z 36
_cell_length_a 7.100599
_cell_length_b 14.394961
_cell_length_c 15.727438
_cell_angle_alpha 90.000000
_cell_angle_beta 90.000000
_cell_angle_gamma 90.000000
_cell_volume 1607.546193
_symmetry_space_group_name_H-M "P B C M"
_symmetry_group_IT_number 57
_symmetry_cell_setting 'orthorhombic'
loop_
_space_group_symop_operation_xyz
x,y,z
-x,-y,1/2+z
x,1/2-y,-z
-x,1/2+y,1/2-z
-x,-y,-z
x,y,1/2-z
-x,1/2+y,z
x,1/2-y,1/2+z
loop_
_atom_site_type_symbol
_atom_site_label
_atom_site_fract_x
_atom_site_fract_y
_atom_site_fract_z
Si Si1 0.211526 0.483604 0.750000
Si Si2 0.948413 0.205125 0.413235
Si Si3 0.166146 0.241294 0.250000
Si Si4 0.327399 0.947897 0.899603
Si Si5 0.613202 0.580790 0.750000
Si Si6 0.229263 0.455780 0.929969
O O1 0.223635 0.368855 0.750000
O O2 0.397314 0.547508 0.750000
O O3 0.135559 0.499624 0.845014
O O4 0.873877 0.250000 0.500000
O O5 0.043639 0.259431 0.335071
O O6 0.115046 0.137338 0.446262
O O7 0.781734 0.143898 0.372515
O O8 0.341506 0.311043 0.250000
O O9 0.551494 0.933451 0.909888
O O10 0.303745 0.030519 0.832814
O O11 0.239121 0.977778 0.989594
#
# Coordination Sequence:
#
# PCOD9436386 Si02
#       6
#     4   8   4   8   4   8
#     4   8  18  36  58  86 118 154 196 246 296 354
#     4  11  22  37  57  84 118 153 194 245 295 355
#     4  10  21  37  59  87 118 162 204 243 306 357
#     4  10  20  36  59  85 115 154 198 244 297 354
#     4  10  19  37  61  85 120 162 200 247 302 355
#     4   9  19  36  57  80 111 153 192 241 298 345
#
# _framework density 22.394379000000001
#
# number of rings (size 3 to 8) (size 9 to 14) (size 15 to 20)
#    0.000    2.222    0.000    2.667    0.000    0.889 
#    0.000   12.222    0.000    8.000    0.000    0.000 
#    0.000    0.000    0.000    0.000    0.000    0.000 
#
# Total GULP energy -200771.488223 kJ/mol
# GULP energy per Si atom -5576.985784 kJ/mol
# Density = 2.234341 g / cm^3
# Si number density = 22.394379 Si / 1000 Ang^3
#
#
#
# Elastic Constant Matrix: (Units=GPa)
#
#
# Indices 1 2 3 4 5 6 
#
# 1 52.4680 19.8099 -11.9256 0.0000 0.0000 0.0000
# 2 19.8099 37.8730 -2.3237 0.0000 0.0000 0.0000
# 3 -11.9256 -2.3237 96.7612 0.0000 0.0000 0.0000
# 4 0.0000 0.0000 0.0000 32.5362 0.0000 0.0000
# 5 0.0000 0.0000 0.0000 0.0000 -12.9442 0.0000
# 6 0.0000 0.0000 0.0000 0.0000 0.0000 30.6176
#
#
#
# Elastic Compliance Matrix: (Units=1/GPa)
#
#
# Indices 1 2 3 4 5 6 
#
# 1 0.024439 -0.012617 0.002709 0.000000 0.000000 0.000000
# 2 -0.012617 0.032956 -0.000764 0.000000 0.000000 0.000000
# 3 0.002709 -0.000764 0.010650 0.000000 0.000000 0.000000
# 4 0.000000 0.000000 0.000000 0.030735 0.000000 0.000000
# 5 0.000000 0.000000 0.000000 0.000000 -0.077255 0.000000
# 6 0.000000 0.000000 0.000000 0.000000 0.000000 0.032661
#
#
# Mechanical properties :
#
#
# Convention : Reuss Voigt Hill
#
# Bulk Modulus (GPa) = 21.41191 22.02480 21.71836
# Shear Modulus (GPa) = 54.88701 22.14471 38.51586
#
# Velocity S-wave (km/s) = 4.95606 3.14801 4.15165
# Velocity P-wave (km/s) = 6.50631 4.80308 5.71846
#
# Compressibility (1/GPa) = 0.04670297
#
# Stress axis : x y z
#
# Youngs Moduli (GPa) = 40.91900 30.34313 93.89439
#
# Poissons Ratio (x) = 0.38283 -0.25436
# Poissons Ratio (y) = 0.51626 0.07169
# Poissons Ratio (z) = -0.11085 0.02317
#
# Static dielectric constant tensor:
#      x y z
#    x 1.841030 0.000000 0.000000 
#    y 0.000000 1.800710 0.000000 
#    z 0.000000 0.000000 1.839200 
# 
# From -- ./inp_files/15849.got.cif
#   From: 2010.05.17/outbox.cif.g08.bks.cpg/sg57_8_cif.got.tgz:15849.got - 2010.06.03 13:58:18.
