data_PCOD9436296
_publ_section_title
;
Structure prediction by ZEFSAII (Michael W. Deem and Ramdas Pophale) SiO2 
 PCOD9436296
Probable space group: P B C M
;
_chemical_formula_sum "Si O2"
_cell_formula_units_Z 64
_cell_length_a 24.561316
_cell_length_b 15.500060
_cell_length_c 8.395446
_cell_angle_alpha 90.000000
_cell_angle_beta 90.000000
_cell_angle_gamma 90.000000
_cell_volume 3196.162006
_symmetry_space_group_name_H-M "P B C M"
_symmetry_group_IT_number 57
_symmetry_cell_setting 'orthorhombic'
loop_
_space_group_symop_operation_xyz
x,y,z
-x,-y,1/2+z
x,1/2-y,-z
-x,1/2+y,1/2-z
-x,-y,-z
x,y,1/2-z
-x,1/2+y,z
x,1/2-y,1/2+z
loop_
_atom_site_type_symbol
_atom_site_label
_atom_site_fract_x
_atom_site_fract_y
_atom_site_fract_z
Si Si1 0.498096 0.340744 0.060962
Si Si2 0.078655 0.517332 0.940320
Si Si3 0.621039 0.878047 0.063699
Si Si4 0.399061 0.579338 0.065622
Si Si5 0.200783 0.513676 0.056919
Si Si6 0.711520 0.343486 0.942530
Si Si7 0.989018 0.850132 0.559625
Si Si8 0.740126 0.839634 0.442351
O O1 0.493352 0.340854 0.250000
O O2 0.437102 0.351254 0.991689
O O3 0.520609 0.250000 0.000000
O O4 0.542711 0.411034 0.015364
O O5 0.072120 0.520375 0.750000
O O6 0.056332 0.422116 0.994217
O O7 0.141181 0.527093 0.987961
O O8 0.043606 0.596887 0.011157
O O9 0.620658 0.850947 0.250000
O O10 0.677970 0.846604 0.993405
O O11 0.621244 0.981371 0.061329
O O12 0.407586 0.603538 0.250000
O O13 0.349467 0.635218 0.996997
O O14 0.197581 0.515302 0.250000
O O15 0.244577 0.585590 0.007187
O O16 0.225073 0.421545 0.006833
O O17 0.708685 0.346872 0.750000
O O18 0.728306 0.250000 0.000000
O O19 0.985665 0.750000 0.500000
O O20 0.986225 0.844694 0.750000
O O21 0.764213 0.750000 0.500000
O O22 0.737511 0.841856 0.250000
#
# Coordination Sequence:
#
# PCOD9436296 Si02
#       8
#     8   8   8   8   8   8   8   8
#     4  11  22  34  50  76 106 137 178 228 285 348
#     4  10  22  39  61  91 126 161 200 247 293 340
#     4   9  18  35  57  77 103 141 183 229 285 350
#     4  10  19  36  58  77 103 139 181 230 287 348
#     4  10  21  39  60  82 115 158 199 237 287 348
#     4  10  21  37  58  81 107 146 191 235 287 344
#     4  10  21  39  64  93 126 164 203 242 289 341
#     4  10  20  37  59  82 110 149 194 238 290 347
#
# _framework density 20.024017000000001
#
# number of rings (size 3 to 8) (size 9 to 14) (size 15 to 20)
#    0.000    2.000    1.250    2.250    0.000    5.000 
#    0.000    5.625    0.000    0.000    0.000    0.000 
#    0.000    0.000    0.000    0.000    0.000    0.000 
#
# Total GULP energy -357053.282341 kJ/mol
# GULP energy per Si atom -5578.957537 kJ/mol
# Density = 1.997844 g / cm^3
# Si number density = 20.024017 Si / 1000 Ang^3
#
#
#
# Elastic Constant Matrix: (Units=GPa)
#
#
# Indices 1 2 3 4 5 6 
#
# 1 81.4741 22.8634 9.3961 0.0000 0.0000 0.0000
# 2 22.8634 101.4472 11.0390 0.0000 0.0000 0.0000
# 3 9.3961 11.0390 18.9407 0.0000 0.0000 0.0000
# 4 0.0000 0.0000 0.0000 25.4691 0.0000 0.0000
# 5 0.0000 0.0000 0.0000 0.0000 16.4036 0.0000
# 6 0.0000 0.0000 0.0000 0.0000 0.0000 -14.1205
#
#
#
# Elastic Compliance Matrix: (Units=1/GPa)
#
#
# Indices 1 2 3 4 5 6 
#
# 1 0.013581 -0.002485 -0.005289 0.000000 0.000000 0.000000
# 2 -0.002485 0.010980 -0.005166 0.000000 0.000000 0.000000
# 3 -0.005289 -0.005166 0.058431 0.000000 0.000000 0.000000
# 4 0.000000 0.000000 0.000000 0.039263 0.000000 0.000000
# 5 0.000000 0.000000 0.000000 0.000000 0.060962 0.000000
# 6 0.000000 0.000000 0.000000 0.000000 0.000000 -0.070819
#
#
# Mechanical properties :
#
#
# Convention : Reuss Voigt Hill
#
# Bulk Modulus (GPa) = 17.50975 32.05099 24.78037
# Shear Modulus (GPa) = 31.78321 16.12136 23.95229
#
# Velocity S-wave (km/s) = 3.98836 2.84051 3.46233
# Velocity P-wave (km/s) = 5.47473 5.17678 5.32784
#
# Compressibility (1/GPa) = 0.05711104
#
# Stress axis : x y z
#
# Youngs Moduli (GPa) = 73.63109 91.07780 17.11420
#
# Poissons Ratio (x) = 0.22636 0.09051
# Poissons Ratio (y) = 0.18300 0.08842
# Poissons Ratio (z) = 0.38943 0.47053
#
# Static dielectric constant tensor:
#      x y z
#    x 1.712740 0.000000 0.000000 
#    y 0.000000 1.715330 0.000000 
#    z 0.000000 0.000000 1.708940 
# 
# From -- ./inp_files/9367.got.cif
#   From: 2010.05.17/outbox.cif.g08.bks.cpg/sg57_5_cif.got.tgz:9367.got - 2010.06.03 13:58:18.
