data_PCOD9436626
_publ_section_title
;
Structure prediction by ZEFSAII (Michael W. Deem and Ramdas Pophale) SiO2 
 PCOD9436626
Probable space group: P B C M
;
_chemical_formula_sum "Si O2"
_cell_formula_units_Z 64
_cell_length_a 21.943890
_cell_length_b 19.396453
_cell_length_c 8.809241
_cell_angle_alpha 90.000000
_cell_angle_beta 90.000000
_cell_angle_gamma 90.000000
_cell_volume 3749.509233
_symmetry_space_group_name_H-M "P B C M"
_symmetry_group_IT_number 57
_symmetry_cell_setting 'orthorhombic'
loop_
_space_group_symop_operation_xyz
x,y,z
-x,-y,1/2+z
x,1/2-y,-z
-x,1/2+y,1/2-z
-x,-y,-z
x,y,1/2-z
-x,1/2+y,z
x,1/2-y,1/2+z
loop_
_atom_site_type_symbol
_atom_site_label
_atom_site_fract_x
_atom_site_fract_y
_atom_site_fract_z
Si Si1 0.769815 0.361372 0.423834
Si Si2 0.894246 0.319748 0.568856
Si Si3 0.061689 0.970722 0.569124
Si Si4 0.351645 0.593347 0.068679
Si Si5 0.688081 0.552544 0.066765
Si Si6 0.463731 0.673954 0.567875
Si Si7 0.595201 0.824702 0.567995
Si Si8 0.817766 0.519360 0.422786
O O1 0.764561 0.337005 0.250000
O O2 0.824647 0.325178 0.511291
O O3 0.705366 0.361295 0.508117
O O4 0.790843 0.441513 0.419494
O O5 0.921491 0.250000 0.500000
O O6 0.895148 0.316349 0.750000
O O7 0.926277 0.391220 0.520004
O O8 0.057948 0.971233 0.750000
O O9 0.120705 0.014649 0.518008
O O10 0.000000 0.000000 0.500000
O O11 0.354780 0.596424 0.250000
O O12 0.338462 0.515293 0.013964
O O13 0.412854 0.622199 0.993763
O O14 0.688091 0.540298 0.250000
O O15 0.646343 0.618368 0.035886
O O16 0.759099 0.562073 0.021585
O O17 0.450988 0.750000 0.500000
O O18 0.463399 0.676520 0.750000
O O19 0.530772 0.654663 0.506713
O O20 0.611158 0.750000 0.500000
O O21 0.587415 0.819053 0.750000
O O22 0.832831 0.539448 0.250000
#
# Coordination Sequence:
#
# PCOD9436626 Si02
#       8
#     8   8   8   8   8   8   8   8
#     4   9  17  31  49  70  99 133 165 200 245 296
#     4  10  20  33  50  75 104 136 175 215 253 297
#     4  10  20  33  52  78 106 138 175 210 249 300
#     4  11  21  33  51  76 104 134 171 213 257 305
#     4   9  19  35  55  78 104 135 168 208 257 307
#     4  11  22  37  53  70  97 132 171 213 260 313
#     4  10  20  36  56  77 101 130 169 213 262 317
#     4   8  15  30  51  74 100 128 160 199 243 289
#
# _framework density 17.068899999999999
#
# number of rings (size 3 to 8) (size 9 to 14) (size 15 to 20)
#    0.000    2.250    0.000    5.250    0.000    6.500 
#    0.000    2.500    0.000    0.750    0.000    1.750 
#    0.000    0.000    0.000    0.000    0.000    0.000 
#
# Total GULP energy -356997.306773 kJ/mol
# GULP energy per Si atom -5578.082918 kJ/mol
# Density = 1.703005 g / cm^3
# Si number density = 17.068900 Si / 1000 Ang^3
#
#
#
# Elastic Constant Matrix: (Units=GPa)
#
#
# Indices 1 2 3 4 5 6 
#
# 1 141.4544 75.1342 62.9671 0.0000 0.0000 0.0000
# 2 75.1342 73.5009 43.9409 0.0000 0.0000 0.0000
# 3 62.9671 43.9409 97.0691 0.0000 0.0000 0.0000
# 4 0.0000 0.0000 0.0000 24.6960 0.0000 0.0000
# 5 0.0000 0.0000 0.0000 0.0000 28.1117 0.0000
# 6 0.0000 0.0000 0.0000 0.0000 0.0000 14.8913
#
#
#
# Elastic Compliance Matrix: (Units=1/GPa)
#
#
# Indices 1 2 3 4 5 6 
#
# 1 0.016653 -0.014485 -0.004246 0.000000 0.000000 0.000000
# 2 -0.014485 0.031253 -0.004751 0.000000 0.000000 0.000000
# 3 -0.004246 -0.004751 0.015207 0.000000 0.000000 0.000000
# 4 0.000000 0.000000 0.000000 0.040492 0.000000 0.000000
# 5 0.000000 0.000000 0.000000 0.000000 0.035572 0.000000
# 6 0.000000 0.000000 0.000000 0.000000 0.000000 0.067153
#
#
# Mechanical properties :
#
#
# Convention : Reuss Voigt Hill
#
# Bulk Modulus (GPa) = 61.92356 75.12320 68.52338
# Shear Modulus (GPa) = 19.32915 22.20528 20.76722
#
# Velocity S-wave (km/s) = 3.36879 3.61074 3.49186
# Velocity P-wave (km/s) = 7.17559 7.84159 7.51597
#
# Compressibility (1/GPa) = 0.01614894
#
# Stress axis : x y z
#
# Youngs Moduli (GPa) = 60.04898 31.99744 65.76068
#
# Poissons Ratio (x) = 0.46348 0.27919
# Poissons Ratio (y) = 0.86981 0.31243
# Poissons Ratio (z) = 0.25494 0.15202
#
# Static dielectric constant tensor:
#      x y z
#    x 1.572570 0.000000 0.000000 
#    y 0.000000 1.586910 0.000000 
#    z 0.000000 0.000000 1.576530 
# 
# From -- ./inp_files/8593.got.cif
#   From: 2010.05.17/outbox.cif.g08.bks.cpg/sg57_5_cif.got.tgz:8593.got - 2010.06.03 13:58:18.
