data_PCOD9436522
_publ_section_title
;
Structure prediction by ZEFSAII (Michael W. Deem and Ramdas Pophale) SiO2 
 PCOD9436522
Probable space group: P B C M
;
_chemical_formula_sum "Si O2"
_cell_formula_units_Z 64
_cell_length_a 21.858282
_cell_length_b 15.032205
_cell_length_c 8.994769
_cell_angle_alpha 90.000000
_cell_angle_beta 90.000000
_cell_angle_gamma 90.000000
_cell_volume 2955.484791
_symmetry_space_group_name_H-M "P B C M"
_symmetry_group_IT_number 57
_symmetry_cell_setting 'orthorhombic'
loop_
_space_group_symop_operation_xyz
x,y,z
-x,-y,1/2+z
x,1/2-y,-z
-x,1/2+y,1/2-z
-x,-y,-z
x,y,1/2-z
-x,1/2+y,z
x,1/2-y,1/2+z
loop_
_atom_site_type_symbol
_atom_site_label
_atom_site_fract_x
_atom_site_fract_y
_atom_site_fract_z
Si Si1 0.126852 0.347816 0.072333
Si Si2 0.626732 0.610054 0.922216
Si Si3 0.872318 0.153078 0.073084
Si Si4 0.630971 0.391454 0.578842
Si Si5 0.502757 0.598574 0.070659
Si Si6 0.249466 0.897666 0.413348
Si Si7 0.251333 0.107392 0.416085
Si Si8 0.006062 0.150549 0.428936
O O1 0.122793 0.346144 0.250000
O O2 0.126727 0.250000 0.000000
O O3 0.191381 0.384635 0.016984
O O4 0.065882 0.392420 0.003307
O O5 0.626284 0.636427 0.750000
O O6 0.628637 0.500679 0.925040
O O7 0.564560 0.638978 0.003957
O O8 0.687647 0.642493 0.005251
O O9 0.868966 0.159579 0.250000
O O10 0.938901 0.110718 0.038305
O O11 0.872626 0.250000 0.000000
O O12 0.811104 0.109686 0.011452
O O13 0.640791 0.366637 0.750000
O O14 0.563343 0.360299 0.531226
O O15 0.688598 0.360093 0.484027
O O16 0.506322 0.592962 0.250000
O O17 0.500000 0.500000 0.000000
O O18 0.237678 0.858874 0.250000
O O19 0.261379 0.002377 0.398907
O O20 0.241419 0.145848 0.250000
O O21 0.003055 0.250000 0.500000
O O22 0.013837 0.156194 0.250000
#
# Coordination Sequence:
#
# PCOD9436522 Si02
#       8
#     8   8   8   8   8   8   8   8
#     4  11  21  34  54  77 100 128 162 202 244 290
#     4   9  16  26  41  63  91 124 160 199 243 291
#     4  10  20  34  54  76 100 128 162 202 243 290
#     4   8  15  26  40  60  90 125 160 197 240 287
#     4   9  15  23  37  59  87 121 159 200 242 286
#     4  10  20  32  49  72 100 132 165 202 247 293
#     4  10  20  34  50  71 101 134 166 203 245 293
#     4   9  17  31  51  74  97 124 158 199 243 286
#
# _framework density 21.654655000000002
#
# number of rings (size 3 to 8) (size 9 to 14) (size 15 to 20)
#    0.000    2.500    0.000    4.875    0.000    6.500 
#    0.000    0.625    0.000    0.000    0.000    0.875 
#    0.000    6.000    0.000    0.000    0.000    0.000 
#
# Total GULP energy -356981.399150 kJ/mol
# GULP energy per Si atom -5577.834362 kJ/mol
# Density = 2.160537 g / cm^3
# Si number density = 21.654655 Si / 1000 Ang^3
#
#
#
# Elastic Constant Matrix: (Units=GPa)
#
#
# Indices 1 2 3 4 5 6 
#
# 1 239.2287 11.5240 114.6691 0.0000 0.0000 0.0000
# 2 11.5240 35.2475 8.6438 0.0000 0.0000 0.0000
# 3 114.6691 8.6438 155.3065 0.0000 0.0000 0.0000
# 4 0.0000 0.0000 0.0000 11.2064 0.0000 0.0000
# 5 0.0000 0.0000 0.0000 0.0000 26.0571 0.0000
# 6 0.0000 0.0000 0.0000 0.0000 0.0000 -14.0987
#
#
#
# Elastic Compliance Matrix: (Units=1/GPa)
#
#
# Indices 1 2 3 4 5 6 
#
# 1 0.006502 -0.000962 -0.004747 0.000000 0.000000 0.000000
# 2 -0.000962 0.028906 -0.000899 0.000000 0.000000 0.000000
# 3 -0.004747 -0.000899 0.009994 0.000000 0.000000 0.000000
# 4 0.000000 0.000000 0.000000 0.089234 0.000000 0.000000
# 5 0.000000 0.000000 0.000000 0.000000 0.038377 0.000000
# 6 0.000000 0.000000 0.000000 0.000000 0.000000 -0.070928
#
#
# Mechanical properties :
#
#
# Convention : Reuss Voigt Hill
#
# Bulk Modulus (GPa) = 31.06903 77.71741 54.39322
# Shear Modulus (GPa) = 39.67370 24.29601 31.98486
#
# Velocity S-wave (km/s) = 4.28496 3.35323 3.84740
# Velocity P-wave (km/s) = 6.23376 7.13860 6.70147
#
# Compressibility (1/GPa) = 0.03218639
#
# Stress axis : x y z
#
# Youngs Moduli (GPa) = 153.80331 34.59536 100.06175
#
# Poissons Ratio (x) = 0.03327 0.47500
# Poissons Ratio (y) = 0.14790 0.08993
# Poissons Ratio (z) = 0.73011 0.03109
#
# Static dielectric constant tensor:
#      x y z
#    x 1.837670 0.000000 0.000000 
#    y 0.000000 1.809830 0.000000 
#    z 0.000000 0.000000 1.752830 
# 
# From -- ./inp_files/8669.got.cif
#   From: 2010.05.17/outbox.cif.g08.bks.cpg/sg57_5_cif.got.tgz:8669.got - 2010.06.03 13:58:18.
