data_PCOD9436896
_publ_section_title
;
Structure prediction by ZEFSAII (Michael W. Deem and Ramdas Pophale) SiO2 
 PCOD9436896
Probable space group: P B C M
;
_chemical_formula_sum "Si O2"
_cell_formula_units_Z 48
_cell_length_a 32.110324
_cell_length_b 9.440503
_cell_length_c 8.806396
_cell_angle_alpha 90.000000
_cell_angle_beta 90.000000
_cell_angle_gamma 90.000000
_cell_volume 2669.549837
_symmetry_space_group_name_H-M "P B C M"
_symmetry_group_IT_number 57
_symmetry_cell_setting 'orthorhombic'
loop_
_space_group_symop_operation_xyz
x,y,z
-x,-y,1/2+z
x,1/2-y,-z
-x,1/2+y,1/2-z
-x,-y,-z
x,y,1/2-z
-x,1/2+y,z
x,1/2-y,1/2+z
loop_
_atom_site_type_symbol
_atom_site_label
_atom_site_fract_x
_atom_site_fract_y
_atom_site_fract_z
Si Si1 0.795731 0.591408 0.931775
Si Si2 0.296178 0.407693 0.068083
Si Si3 0.880843 0.908181 0.931496
Si Si4 0.536652 0.406864 0.431598
Si Si5 0.369806 0.592877 0.931735
Si Si6 0.962404 0.092209 0.932230
O O1 0.799975 0.597735 0.750000
O O2 0.750010 0.530301 0.968069
O O3 0.794613 0.750000 0.000000
O O4 0.837640 0.529025 0.003132
O O5 0.299486 0.399833 0.250000
O O6 0.298186 0.250000 0.000000
O O7 0.333513 0.498224 0.000596
O O8 0.877471 0.894264 0.750000
O O9 0.919658 0.008740 0.968010
O O10 0.886944 0.750000 0.000000
O O11 0.533737 0.250000 0.500000
O O12 0.500000 0.500000 0.500000
O O13 0.532858 0.400544 0.250000
O O14 0.583399 0.461329 0.467952
O O15 0.365916 0.599121 0.750000
O O16 0.366691 0.750000 0.000000
O O17 0.966528 0.100084 0.750000
O O18 0.962501 0.250000 0.000000
O O19 0.000000 0.000000 0.000000
#
# Coordination Sequence:
#
# PCOD9436896 Si02
#       6
#     8   8   8   8   8   8
#     4   9  17  30  51  78 107 140 177 218 264 313
#     4  10  20  34  54  81 110 142 182 225 267 313
#     4  10  20  34  55  82 109 141 179 219 266 318
#     4  10  21  37  57  80 106 138 176 218 266 319
#     4  10  21  37  56  78 106 141 178 218 267 321
#     4  11  24  40  59  83 111 144 182 224 270 320
#
# _framework density 17.980557999999998
#
# number of rings (size 3 to 8) (size 9 to 14) (size 15 to 20)
#    0.000    2.000    0.000    4.500    0.000    8.667 
#    0.000    0.833    0.000    2.000    0.000    0.000 
#    0.000    0.000    0.000    0.000    0.000    0.000 
#
# Total GULP energy -267855.368619 kJ/mol
# GULP energy per Si atom -5580.320180 kJ/mol
# Density = 1.793963 g / cm^3
# Si number density = 17.980558 Si / 1000 Ang^3
#
#
#
# Elastic Constant Matrix: (Units=GPa)
#
#
# Indices 1 2 3 4 5 6 
#
# 1 226.4387 90.7656 92.9502 0.0000 0.0000 0.0000
# 2 90.7656 79.8093 44.1477 0.0000 0.0000 0.0000
# 3 92.9502 44.1477 86.1375 0.0000 0.0000 0.0000
# 4 0.0000 0.0000 0.0000 32.1894 0.0000 0.0000
# 5 0.0000 0.0000 0.0000 0.0000 34.0653 0.0000
# 6 0.0000 0.0000 0.0000 0.0000 0.0000 31.9619
#
#
#
# Elastic Compliance Matrix: (Units=1/GPa)
#
#
# Indices 1 2 3 4 5 6 
#
# 1 0.010682 -0.008057 -0.007398 0.000000 0.000000 0.000000
# 2 -0.008057 0.023564 -0.003383 0.000000 0.000000 0.000000
# 3 -0.007398 -0.003383 0.021327 0.000000 0.000000 0.000000
# 4 0.000000 0.000000 0.000000 0.031066 0.000000 0.000000
# 5 0.000000 0.000000 0.000000 0.000000 0.029355 0.000000
# 6 0.000000 0.000000 0.000000 0.000000 0.000000 0.031287
#
#
# Mechanical properties :
#
#
# Convention : Reuss Voigt Hill
#
# Bulk Modulus (GPa) = 55.87550 94.23473 75.05511
# Shear Modulus (GPa) = 26.18848 30.61146 28.39997
#
# Velocity S-wave (km/s) = 3.82054 4.13058 3.97858
# Velocity P-wave (km/s) = 7.11372 8.67594 7.93338
#
# Compressibility (1/GPa) = 0.01789693
#
# Stress axis : x y z
#
# Youngs Moduli (GPa) = 93.61182 42.43758 46.88962
#
# Poissons Ratio (x) = 0.34190 0.34689
# Poissons Ratio (y) = 0.75419 0.15865
# Poissons Ratio (z) = 0.69255 0.14359
#
# Static dielectric constant tensor:
#      x y z
#    x 1.649390 0.000000 0.000000 
#    y 0.000000 1.576070 0.000000 
#    z 0.000000 0.000000 1.598760 
# 
# From -- ./inp_files/9939.got.cif
#   From: 2010.05.17/outbox.cif.g08.bks.cpg/sg57_5_cif.got.tgz:9939.got - 2010.06.03 13:58:18.
