data_PCOD9436318
_publ_section_title
;
Structure prediction by ZEFSAII (Michael W. Deem and Ramdas Pophale) SiO2 
 PCOD9436318
Probable space group: P B C M
;
_chemical_formula_sum "Si O2"
_cell_formula_units_Z 48
_cell_length_a 12.846054
_cell_length_b 13.052143
_cell_length_c 15.362074
_cell_angle_alpha 90.000000
_cell_angle_beta 90.000000
_cell_angle_gamma 90.000000
_cell_volume 2575.736424
_symmetry_space_group_name_H-M "P B C M"
_symmetry_group_IT_number 57
_symmetry_cell_setting 'orthorhombic'
loop_
_space_group_symop_operation_xyz
x,y,z
-x,-y,1/2+z
x,1/2-y,-z
-x,1/2+y,1/2-z
-x,-y,-z
x,y,1/2-z
-x,1/2+y,z
x,1/2-y,1/2+z
loop_
_atom_site_type_symbol
_atom_site_label
_atom_site_fract_x
_atom_site_fract_y
_atom_site_fract_z
Si Si1 0.382166 0.794256 0.750000
Si Si2 0.136481 0.826168 0.750000
Si Si3 0.901945 0.405303 0.250000
Si Si4 0.864116 0.627610 0.493788
Si Si5 0.957563 0.478240 0.614235
Si Si6 0.352665 0.036189 0.061023
Si Si7 0.434506 0.646382 0.053078
Si Si8 0.653571 0.060739 0.750000
O O1 0.258407 0.808097 0.750000
O O2 0.419606 0.839481 0.842857
O O3 0.401083 0.671803 0.750000
O O4 0.081384 0.716128 0.750000
O O5 0.102376 0.893800 0.830958
O O6 0.778786 0.424412 0.250000
O O7 0.957294 0.458333 0.168633
O O8 0.862146 0.750000 0.500000
O O9 0.873994 0.561822 0.582028
O O10 0.760529 0.587714 0.445891
O O11 0.971978 0.588614 0.451172
O O12 0.445409 0.114359 0.038833
O O13 0.371326 0.995778 0.159403
O O14 0.365590 0.942792 0.992221
O O15 0.411089 0.750000 0.000000
#
# Coordination Sequence:
#
# PCOD9436318 Si02
#       8
#     4   4   4   8   8   8   8   4
#     4  11  22  40  63  88 122 158 206 255 313 370
#     4  10  21  36  57  87 117 154 200 253 308 362
#     4  10  19  36  59  85 119 158 200 257 303 364
#     4  11  22  38  59  86 122 163 205 255 312 371
#     4  10  21  37  57  86 122 157 207 249 306 373
#     4  11  23  40  63  90 126 161 209 261 312 374
#     4  11  23  41  64  91 122 162 208 261 315 371
#     4  11  20  38  61  88 120 162 202 253 310 368
#
# _framework density 18.635446999999999
#
# number of rings (size 3 to 8) (size 9 to 14) (size 15 to 20)
#    0.000    1.333    3.333    3.000    0.000    0.000 
#    0.000    1.667    0.000    0.000    0.000    0.000 
#    0.000    0.000    0.000    0.000    0.000    0.000 
#
# Total GULP energy -267612.878368 kJ/mol
# GULP energy per Si atom -5575.268299 kJ/mol
# Density = 1.859303 g / cm^3
# Si number density = 18.635447 Si / 1000 Ang^3
#
#
#
# Elastic Constant Matrix: (Units=GPa)
#
#
# Indices 1 2 3 4 5 6 
#
# 1 48.2325 26.2057 0.4741 0.0000 0.0000 0.0000
# 2 26.2057 137.7807 41.5965 0.0000 0.0000 0.0000
# 3 0.4741 41.5965 85.4398 0.0000 0.0000 0.0000
# 4 0.0000 0.0000 0.0000 17.3788 0.0000 0.0000
# 5 0.0000 0.0000 0.0000 0.0000 49.9384 0.0000
# 6 0.0000 0.0000 0.0000 0.0000 0.0000 21.7410
#
#
#
# Elastic Compliance Matrix: (Units=1/GPa)
#
#
# Indices 1 2 3 4 5 6 
#
# 1 0.023535 -0.005202 0.002402 0.000000 0.000000 0.000000
# 2 -0.005202 0.009658 -0.004673 0.000000 0.000000 0.000000
# 3 0.002402 -0.004673 0.013966 0.000000 0.000000 0.000000
# 4 0.000000 0.000000 0.000000 0.057541 0.000000 0.000000
# 5 0.000000 0.000000 0.000000 0.000000 0.020025 0.000000
# 6 0.000000 0.000000 0.000000 0.000000 0.000000 0.045996
#
#
# Mechanical properties :
#
#
# Convention : Reuss Voigt Hill
#
# Bulk Modulus (GPa) = 31.04280 45.33396 38.18838
# Shear Modulus (GPa) = 25.45756 31.35674 28.40715
#
# Velocity S-wave (km/s) = 3.70007 4.10645 3.90854
# Velocity P-wave (km/s) = 5.91169 6.84569 6.39576
#
# Compressibility (1/GPa) = 0.03221359
#
# Stress axis : x y z
#
# Youngs Moduli (GPa) = 42.48923 103.54017 71.60257
#
# Poissons Ratio (x) = 0.53856 -0.17197
# Poissons Ratio (y) = 0.22101 0.33461
# Poissons Ratio (z) = -0.10205 0.48386
#
# Static dielectric constant tensor:
#      x y z
#    x 1.602430 0.000000 0.000000 
#    y 0.000000 1.628490 0.000000 
#    z 0.000000 0.000000 1.731570 
# 
# From -- ./inp_files/21873.got.cif
#   From: 2010.05.17/outbox.cif.g08.bks.cpg/sg57_11_cif.got.tgz:21873.got - 2010.06.03 13:58:18.
