data_PCOD9436391
_publ_section_title
;
Structure prediction by ZEFSAII (Michael W. Deem and Ramdas Pophale) SiO2 
 PCOD9436391
Probable space group: P B C M
;
_chemical_formula_sum "Si O2"
_cell_formula_units_Z 64
_cell_length_a 8.028057
_cell_length_b 11.678748
_cell_length_c 29.100088
_cell_angle_alpha 90.000000
_cell_angle_beta 90.000000
_cell_angle_gamma 90.000000
_cell_volume 2728.356000
_symmetry_space_group_name_H-M "P B C M"
_symmetry_group_IT_number 57
_symmetry_cell_setting 'orthorhombic'
loop_
_space_group_symop_operation_xyz
x,y,z
-x,-y,1/2+z
x,1/2-y,-z
-x,1/2+y,1/2-z
-x,-y,-z
x,y,1/2-z
-x,1/2+y,z
x,1/2-y,1/2+z
loop_
_atom_site_type_symbol
_atom_site_label
_atom_site_fract_x
_atom_site_fract_y
_atom_site_fract_z
Si Si1 0.596124 0.121224 0.987570
Si Si2 0.846649 0.290564 0.696682
Si Si3 0.509598 0.153318 0.696754
Si Si4 0.107590 0.586989 0.055644
Si Si5 0.807746 0.029451 0.588065
Si Si6 0.045726 0.217471 0.617575
Si Si7 0.640584 0.819747 0.867231
Si Si8 0.340850 0.538178 0.133315
O O1 0.656129 0.098843 0.934948
O O2 0.522405 0.250000 0.000000
O O3 0.770262 0.120293 0.015182
O O4 0.500000 0.000000 0.000000
O O5 0.873894 0.308430 0.750000
O O6 0.702023 0.193056 0.691330
O O7 0.013203 0.259403 0.669420
O O8 0.772762 0.402628 0.672080
O O9 0.482485 0.121489 0.750000
O O10 0.405445 0.266847 0.681998
O O11 0.447860 0.056826 0.660760
O O12 0.053440 0.699785 0.083306
O O13 0.224416 0.512948 0.090006
O O14 0.926794 0.528913 0.048982
O O15 0.940581 0.104380 0.614295
O O16 0.746775 0.933181 0.623225
O O17 0.241533 0.227255 0.608160
O O18 0.462947 0.861324 0.885856
#
# Coordination Sequence:
#
# PCOD9436391 Si02
#       8
#     8   8   8   8   8   8   8   8
#     4  12  26  49  71 106 143 181 231 292 345 419
#     4   9  19  33  53  82 120 166 213 265 332 397
#     4  10  20  36  59  89 126 170 221 282 341 402
#     4  10  22  42  66  95 128 178 219 277 346 413
#     4  11  22  43  68  93 134 177 226 277 354 413
#     4  10  20  38  62  87 129 173 218 276 336 411
#     4  10  22  37  60  97 124 169 225 277 339 414
#     4  10  19  37  61  89 128 165 222 274 342 404
#
# _framework density 23.457350000000002
#
# number of rings (size 3 to 8) (size 9 to 14) (size 15 to 20)
#    0.000    1.750    1.250    3.000    0.000    1.000 
#   13.500    0.625    0.000    2.250    0.000    0.000 
#    0.000    0.000    0.000    0.000    0.000    0.000 
#
# Total GULP energy -356511.103026 kJ/mol
# GULP energy per Si atom -5570.485985 kJ/mol
# Density = 2.340396 g / cm^3
# Si number density = 23.457350 Si / 1000 Ang^3
#
#
#
# Elastic Constant Matrix: (Units=GPa)
#
#
# Indices 1 2 3 4 5 6 
#
# 1 78.4232 22.4867 6.3930 0.0000 0.0000 0.0000
# 2 22.4867 88.2355 21.8076 0.0000 0.0000 0.0000
# 3 6.3930 21.8076 53.3778 0.0000 0.0000 0.0000
# 4 0.0000 0.0000 0.0000 21.2485 0.0000 0.0000
# 5 0.0000 0.0000 0.0000 0.0000 26.2199 0.0000
# 6 0.0000 0.0000 0.0000 0.0000 0.0000 33.4363
#
#
#
# Elastic Compliance Matrix: (Units=1/GPa)
#
#
# Indices 1 2 3 4 5 6 
#
# 1 0.013759 -0.003447 -0.000240 0.000000 0.000000 0.000000
# 2 -0.003447 0.013470 -0.005090 0.000000 0.000000 0.000000
# 3 -0.000240 -0.005090 0.020843 0.000000 0.000000 0.000000
# 4 0.000000 0.000000 0.000000 0.047062 0.000000 0.000000
# 5 0.000000 0.000000 0.000000 0.000000 0.038139 0.000000
# 6 0.000000 0.000000 0.000000 0.000000 0.000000 0.029908
#
#
# Mechanical properties :
#
#
# Convention : Reuss Voigt Hill
#
# Bulk Modulus (GPa) = 32.76789 35.71234 34.24011
# Shear Modulus (GPa) = 26.19070 27.47090 26.83080
#
# Velocity S-wave (km/s) = 3.34507 3.42585 3.38570
# Velocity P-wave (km/s) = 5.37762 5.55932 5.46922
#
# Compressibility (1/GPa) = 0.03051769
#
# Stress axis : x y z
#
# Youngs Moduli (GPa) = 72.67798 74.23947 47.97839
#
# Poissons Ratio (x) = 0.25593 0.01149
# Poissons Ratio (y) = 0.25055 0.24422
# Poissons Ratio (z) = 0.01741 0.37790
#
# Static dielectric constant tensor:
#      x y z
#    x 1.895810 0.000000 0.000000 
#    y 0.000000 2.085730 0.000000 
#    z 0.000000 0.000000 1.884090 
# 
# From -- ./inp_files/29606.got.cif
#   From: 2010.05.17/outbox.cif.g08.bks.cpg/sg57_15_cif.got.tgz:29606.got - 2010.06.03 13:58:18.
