data_PCOD9436592
_publ_section_title
;
Structure prediction by ZEFSAII (Michael W. Deem and Ramdas Pophale) SiO2 
 PCOD9436592
Probable space group: P B C M
;
_chemical_formula_sum "Si O2"
_cell_formula_units_Z 64
_cell_length_a 12.196712
_cell_length_b 11.697561
_cell_length_c 24.882274
_cell_angle_alpha 90.000000
_cell_angle_beta 90.000000
_cell_angle_gamma 90.000000
_cell_volume 3549.998387
_symmetry_space_group_name_H-M "P B C M"
_symmetry_group_IT_number 57
_symmetry_cell_setting 'orthorhombic'
loop_
_space_group_symop_operation_xyz
x,y,z
-x,-y,1/2+z
x,1/2-y,-z
-x,1/2+y,1/2-z
-x,-y,-z
x,y,1/2-z
-x,1/2+y,z
x,1/2-y,1/2+z
loop_
_atom_site_type_symbol
_atom_site_label
_atom_site_fract_x
_atom_site_fract_y
_atom_site_fract_z
Si Si1 0.662829 0.797119 0.685145
Si Si2 0.796397 0.393034 0.852321
Si Si3 0.847906 0.644003 0.863298
Si Si4 0.266950 0.552394 0.815146
Si Si5 0.869339 0.127823 0.024000
Si Si6 0.932107 0.311812 0.311400
Si Si7 0.876321 0.623300 0.510216
Si Si8 0.593898 0.227100 0.185434
O O1 0.680587 0.780762 0.750000
O O2 0.740396 0.715354 0.650742
O O3 0.534613 0.778353 0.674125
O O4 0.695387 0.926627 0.670724
O O5 0.831129 0.519989 0.837137
O O6 0.832856 0.372295 0.913874
O O7 0.858929 0.300889 0.816191
O O8 0.667883 0.368489 0.843392
O O9 0.875637 0.622588 0.925287
O O10 0.954216 0.705536 0.840350
O O11 0.260986 0.556472 0.750000
O O12 0.146348 0.589029 0.835308
O O13 0.353204 0.650916 0.830417
O O14 0.831348 0.005701 0.997541
O O15 0.831823 0.250000 0.000000
O O16 0.002177 0.126861 0.016328
O O17 0.955865 0.339398 0.250000
O O18 0.824612 0.750000 0.500000
O O19 0.606699 0.213185 0.250000
#
# Coordination Sequence:
#
# PCOD9436592 Si02
#       8
#     8   8   8   8   8   8   8   8
#     4  10  21  35  54  80 111 150 194 230 268 323
#     4  10  21  36  55  81 110 141 188 236 280 332
#     4  11  23  34  53  84 112 145 186 229 279 340
#     4   8  17  34  49  70 104 145 186 223 267 316
#     4   9  17  33  55  79 105 135 178 224 278 340
#     4  10  20  33  49  74 115 152 179 218 274 336
#     4   9  18  35  53  76 110 139 171 226 281 337
#     4   9  19  36  57  78 107 149 192 236 276 315
#
# _framework density 18.028176999999999
#
# number of rings (size 3 to 8) (size 9 to 14) (size 15 to 20)
#    0.000    2.500    0.000    3.000    3.500    2.000 
#    4.500    0.000    0.000    0.750    0.000    3.500 
#    0.000    0.000    0.000    0.000    0.000    0.000 
#
# Total GULP energy -356328.648415 kJ/mol
# GULP energy per Si atom -5567.635131 kJ/mol
# Density = 1.798714 g / cm^3
# Si number density = 18.028177 Si / 1000 Ang^3
#
#
#
# Elastic Constant Matrix: (Units=GPa)
#
#
# Indices 1 2 3 4 5 6 
#
# 1 95.6213 5.0711 24.9035 0.0000 0.0000 0.0000
# 2 5.0711 77.8423 -0.0222 0.0000 0.0000 0.0000
# 3 24.9035 -0.0222 31.6344 0.0000 0.0000 0.0000
# 4 0.0000 0.0000 0.0000 24.0724 0.0000 0.0000
# 5 0.0000 0.0000 0.0000 0.0000 14.4758 0.0000
# 6 0.0000 0.0000 0.0000 0.0000 0.0000 11.1227
#
#
#
# Elastic Compliance Matrix: (Units=1/GPa)
#
#
# Indices 1 2 3 4 5 6 
#
# 1 0.013213 -0.000864 -0.010402 0.000000 0.000000 0.000000
# 2 -0.000864 0.012903 0.000689 0.000000 0.000000 0.000000
# 3 -0.010402 0.000689 0.039800 0.000000 0.000000 0.000000
# 4 0.000000 0.000000 0.000000 0.041541 0.000000 0.000000
# 5 0.000000 0.000000 0.000000 0.000000 0.069081 0.000000
# 6 0.000000 0.000000 0.000000 0.000000 0.000000 0.089906
#
#
# Mechanical properties :
#
#
# Convention : Reuss Voigt Hill
#
# Bulk Modulus (GPa) = 22.34008 29.44475 25.89241
# Shear Modulus (GPa) = 16.52791 21.61058 19.06924
#
# Velocity S-wave (km/s) = 3.03113 3.46600 3.25583
# Velocity P-wave (km/s) = 4.96678 5.69083 5.34109
#
# Compressibility (1/GPa) = 0.04476260
#
# Stress axis : x y z
#
# Youngs Moduli (GPa) = 75.68398 77.50169 25.12533
#
# Poissons Ratio (x) = 0.06694 0.26136
# Poissons Ratio (y) = 0.06537 -0.01731
# Poissons Ratio (z) = 0.78727 -0.05340
#
# Static dielectric constant tensor:
#      x y z
#    x 1.596870 0.000000 0.000000 
#    y 0.000000 1.678950 0.000000 
#    z 0.000000 0.000000 1.664110 
# 
# From -- ./inp_files/27277.got.cif
#   From: 2010.05.17/outbox.cif.g08.bks.cpg/sg57_14_cif.got.tgz:27277.got - 2010.06.03 13:58:18.
