data_PCOD9436708
_publ_section_title
;
Structure prediction by ZEFSAII (Michael W. Deem and Ramdas Pophale) SiO2 
 PCOD9436708
Probable space group: P B C M
;
_chemical_formula_sum "Si O2"
_cell_formula_units_Z 60
_cell_length_a 22.218189
_cell_length_b 13.059009
_cell_length_c 9.606389
_cell_angle_alpha 90.000000
_cell_angle_beta 90.000000
_cell_angle_gamma 90.000000
_cell_volume 2787.270042
_symmetry_space_group_name_H-M "P B C M"
_symmetry_group_IT_number 57
_symmetry_cell_setting 'orthorhombic'
loop_
_space_group_symop_operation_xyz
x,y,z
-x,-y,1/2+z
x,1/2-y,-z
-x,1/2+y,1/2-z
-x,-y,-z
x,y,1/2-z
-x,1/2+y,z
x,1/2-y,1/2+z
loop_
_atom_site_type_symbol
_atom_site_label
_atom_site_fract_x
_atom_site_fract_y
_atom_site_fract_z
Si Si1 0.738731 0.846794 0.413637
Si Si2 0.497839 0.867723 0.519145
Si Si3 0.474598 0.498642 0.250000
Si Si4 0.217288 0.924326 0.912454
Si Si5 0.632515 0.924403 0.595622
Si Si6 0.327160 0.844041 0.411939
Si Si7 0.955243 0.852654 0.914619
Si Si8 0.916073 0.046991 0.412289
O O1 0.762652 0.750000 0.500000
O O2 0.735576 0.824475 0.250000
O O3 0.775031 0.952574 0.432097
O O4 0.672678 0.872766 0.476573
O O5 0.488076 0.750000 0.500000
O O6 0.454181 0.921046 0.627876
O O7 0.564197 0.886644 0.587891
O O8 0.501917 0.921019 0.371411
O O9 0.232628 0.903522 0.750000
O O10 0.147714 0.899285 0.937165
O O11 0.263085 0.869906 0.015892
O O12 0.656563 0.897435 0.750000
O O13 0.638519 0.046907 0.583662
O O14 0.353082 0.750000 0.500000
O O15 0.321189 0.816416 0.250000
O O16 0.941342 0.843320 0.750000
O O17 0.026449 0.879581 0.928443
O O18 0.941315 0.750000 0.000000
O O19 0.923549 0.950454 0.985684
O O20 0.915905 0.011495 0.250000
#
# Coordination Sequence:
#
# PCOD9436708 Si02
#       8
#     8   8   4   8   8   8   8   8
#     4  10  20  33  53  83 115 146 183 229 280 338
#     4  11  22  42  67  91 126 167 201 254 307 356
#     4  10  24  40  62  96 128 158 212 252 298 366
#     4   9  19  36  56  79 109 147 185 231 282 343
#     4  10  21  38  62  88 117 148 199 244 285 353
#     4  10  21  38  58  83 117 154 190 241 292 343
#     4  10  20  34  53  76 105 140 181 232 284 341
#     4   9  19  36  55  77 106 140 184 232 282 337
#
# _framework density 21.526437999999999
#
# number of rings (size 3 to 8) (size 9 to 14) (size 15 to 20)
#    0.000    2.133    0.667    2.000    0.933    3.200 
#    0.000    6.667    0.000    0.000    0.000    0.000 
#    0.000    0.000    0.000    0.000    0.000    0.000 
#
# Total GULP energy -334292.121933 kJ/mol
# GULP energy per Si atom -5571.535366 kJ/mol
# Density = 2.147744 g / cm^3
# Si number density = 21.526438 Si / 1000 Ang^3
#
#
#
# Elastic Constant Matrix: (Units=GPa)
#
#
# Indices 1 2 3 4 5 6 
#
# 1 68.0392 -13.3042 13.6396 0.0000 0.0000 0.0000
# 2 -13.3042 113.6475 57.5837 0.0000 0.0000 0.0000
# 3 13.6396 57.5837 176.1413 0.0000 0.0000 0.0000
# 4 0.0000 0.0000 0.0000 14.8428 0.0000 0.0000
# 5 0.0000 0.0000 0.0000 0.0000 -100.5661 0.0000
# 6 0.0000 0.0000 0.0000 0.0000 0.0000 2.9921
#
#
#
# Elastic Compliance Matrix: (Units=1/GPa)
#
#
# Indices 1 2 3 4 5 6 
#
# 1 0.015710 0.002943 -0.002179 0.000000 0.000000 0.000000
# 2 0.002943 0.011097 -0.003856 0.000000 0.000000 0.000000
# 3 -0.002179 -0.003856 0.007106 0.000000 0.000000 0.000000
# 4 0.000000 0.000000 0.000000 0.067373 0.000000 0.000000
# 5 0.000000 0.000000 0.000000 0.000000 -0.009944 0.000000
# 6 0.000000 0.000000 0.000000 0.000000 0.000000 0.334209
#
#
# Mechanical properties :
#
#
# Convention : Reuss Voigt Hill
#
# Bulk Modulus (GPa) = 36.06141 52.62957 44.34549
# Shear Modulus (GPa) = 11.33844 3.44771 7.39308
#
# Velocity S-wave (km/s) = 2.29753 1.26692 1.85523
# Velocity P-wave (km/s) = 4.88126 5.16159 5.02338
#
# Compressibility (1/GPa) = 0.02773047
#
# Stress axis : x y z
#
# Youngs Moduli (GPa) = 63.65544 90.11174 140.71650
#
# Poissons Ratio (x) = -0.26519 0.30656
# Poissons Ratio (y) = -0.18733 0.54257
# Poissons Ratio (z) = 0.13868 0.34745
#
# Static dielectric constant tensor:
#      x y z
#    x 1.835530 0.000000 0.000000 
#    y 0.000000 1.809490 0.000000 
#    z 0.000000 0.000000 1.744600 
# 
# From -- ./inp_files/10254.got.cif
#   From: 2010.05.17/outbox.cif.g08.bks.cpg/sg57_6_cif.got.tgz:10254.got - 2010.06.03 13:58:18.
