data_PCOD9436766
_publ_section_title
;
Structure prediction by ZEFSAII (Michael W. Deem and Ramdas Pophale) SiO2 
 PCOD9436766
Probable space group: P B C M
;
_chemical_formula_sum "Si O2"
_cell_formula_units_Z 64
_cell_length_a 22.303823
_cell_length_b 19.605827
_cell_length_c 8.896240
_cell_angle_alpha 90.000000
_cell_angle_beta 90.000000
_cell_angle_gamma 90.000000
_cell_volume 3890.191376
_symmetry_space_group_name_H-M "P B C M"
_symmetry_group_IT_number 57
_symmetry_cell_setting 'orthorhombic'
loop_
_space_group_symop_operation_xyz
x,y,z
-x,-y,1/2+z
x,1/2-y,-z
-x,1/2+y,1/2-z
-x,-y,-z
x,y,1/2-z
-x,1/2+y,z
x,1/2-y,1/2+z
loop_
_atom_site_type_symbol
_atom_site_label
_atom_site_fract_x
_atom_site_fract_y
_atom_site_fract_z
Si Si1 0.413001 0.539452 0.577158
Si Si2 0.297302 0.464045 0.567297
Si Si3 0.519117 0.892714 0.922786
Si Si4 0.875215 0.822479 0.926413
Si Si5 0.019650 0.677362 0.426556
Si Si6 0.942885 0.461008 0.070175
Si Si7 0.362431 0.177773 0.068073
Si Si8 0.831224 0.539874 0.929393
O O1 0.406026 0.559307 0.750000
O O2 0.347769 0.518610 0.516824
O O3 0.448051 0.466733 0.574269
O O4 0.455501 0.594698 0.499889
O O5 0.293446 0.466723 0.750000
O O6 0.321003 0.387511 0.529244
O O7 0.234059 0.478202 0.492158
O O8 0.508769 0.874455 0.750000
O O9 0.569680 0.841412 0.984679
O O10 0.858951 0.824543 0.750000
O O11 0.947354 0.831587 0.937059
O O12 0.860315 0.750000 0.000000
O O13 0.844653 0.883244 0.016222
O O14 0.033957 0.750000 0.500000
O O15 0.035076 0.675272 0.250000
O O16 0.050499 0.616688 0.516941
O O17 0.944279 0.467373 0.250000
O O18 0.882827 0.494132 0.004438
O O19 0.000000 0.500000 0.000000
O O20 0.363226 0.181686 0.250000
O O21 0.343465 0.250000 0.000000
O O22 0.834203 0.534911 0.750000
#
# Coordination Sequence:
#
# PCOD9436766 Si02
#       8
#     8   8   8   8   8   8   8   8
#     4   8  14  26  45  66  88 118 154 195 242 289
#     4   9  19  35  49  65  96 133 170 210 254 301
#     4   8  14  25  42  66  93 119 151 195 242 282
#     4  10  20  34  52  72 100 134 170 212 258 309
#     4  10  20  35  56  81 107 135 167 207 258 317
#     4  12  23  37  57  80 107 138 172 219 274 323
#     4   9  18  31  47  68  98 136 172 207 245 289
#     4  12  24  36  52  75 103 137 180 221 265 321
#
# _framework density 16.451632
#
# number of rings (size 3 to 8) (size 9 to 14) (size 15 to 20)
#    0.000    2.250    1.250    4.500    0.000    3.000 
#    0.000    3.750    0.000    0.000    0.000    0.875 
#    0.000    4.000    0.000    0.000    0.000    0.000 
#
# Total GULP energy -356870.191697 kJ/mol
# GULP energy per Si atom -5576.096745 kJ/mol
# Density = 1.641419 g / cm^3
# Si number density = 16.451632 Si / 1000 Ang^3
#
#
#
# Elastic Constant Matrix: (Units=GPa)
#
#
# Indices 1 2 3 4 5 6 
#
# 1 118.7402 41.8414 56.7177 0.0000 0.0000 0.0000
# 2 41.8414 43.7756 26.2848 0.0000 0.0000 0.0000
# 3 56.7177 26.2848 92.4972 0.0000 0.0000 0.0000
# 4 0.0000 0.0000 0.0000 26.0112 0.0000 0.0000
# 5 0.0000 0.0000 0.0000 0.0000 25.2983 0.0000
# 6 0.0000 0.0000 0.0000 0.0000 0.0000 13.0403
#
#
#
# Elastic Compliance Matrix: (Units=1/GPa)
#
#
# Indices 1 2 3 4 5 6 
#
# 1 0.015212 -0.010778 -0.006265 0.000000 0.000000 0.000000
# 2 -0.010778 0.035180 -0.003388 0.000000 0.000000 0.000000
# 3 -0.006265 -0.003388 0.015616 0.000000 0.000000 0.000000
# 4 0.000000 0.000000 0.000000 0.038445 0.000000 0.000000
# 5 0.000000 0.000000 0.000000 0.000000 0.039528 0.000000
# 6 0.000000 0.000000 0.000000 0.000000 0.000000 0.076685
#
#
# Mechanical properties :
#
#
# Convention : Reuss Voigt Hill
#
# Bulk Modulus (GPa) = 39.76902 56.07786 47.92344
# Shear Modulus (GPa) = 18.52459 21.54790 20.03624
#
# Velocity S-wave (km/s) = 3.35924 3.62300 3.49361
# Velocity P-wave (km/s) = 6.26672 7.18763 6.74291
#
# Compressibility (1/GPa) = 0.02514520
#
# Stress axis : x y z
#
# Youngs Moduli (GPa) = 65.73572 28.42505 64.03868
#
# Poissons Ratio (x) = 0.30638 0.40121
# Poissons Ratio (y) = 0.70853 0.21696
# Poissons Ratio (z) = 0.41184 0.09630
#
# Static dielectric constant tensor:
#      x y z
#    x 1.568560 0.000000 0.000000 
#    y 0.000000 1.546400 0.000000 
#    z 0.000000 0.000000 1.550790 
# 
# From -- ./inp_files/8589.got.cif
#   From: 2010.05.17/outbox.cif.g08.bks.cpg/sg57_5_cif.got.tgz:8589.got - 2010.06.03 13:58:18.
