data_PCOD9436158
_publ_section_title
;
Structure prediction by ZEFSAII (Michael W. Deem and Ramdas Pophale) SiO2 
 PCOD9436158
Probable space group: P B C M
;
_chemical_formula_sum "Si O2"
_cell_formula_units_Z 64
_cell_length_a 9.627962
_cell_length_b 21.637411
_cell_length_c 17.484749
_cell_angle_alpha 90.000000
_cell_angle_beta 90.000000
_cell_angle_gamma 90.000000
_cell_volume 3642.495839
_symmetry_space_group_name_H-M "P B C M"
_symmetry_group_IT_number 57
_symmetry_cell_setting 'orthorhombic'
loop_
_space_group_symop_operation_xyz
x,y,z
-x,-y,1/2+z
x,1/2-y,-z
-x,1/2+y,1/2-z
-x,-y,-z
x,y,1/2-z
-x,1/2+y,z
x,1/2-y,1/2+z
loop_
_atom_site_type_symbol
_atom_site_label
_atom_site_fract_x
_atom_site_fract_y
_atom_site_fract_z
Si Si1 0.905362 0.449454 0.958025
Si Si2 0.224906 0.868225 0.075414
Si Si3 0.429518 0.808541 0.546708
Si Si4 0.192296 0.758330 0.840668
Si Si5 0.960520 0.637601 0.340853
Si Si6 0.372702 0.026287 0.551828
Si Si7 0.679781 0.607336 0.083208
Si Si8 0.388333 0.975988 0.340165
O O1 0.966875 0.421650 0.880476
O O2 0.752377 0.477698 0.943391
O O3 0.891568 0.393907 0.018639
O O4 0.000000 0.500000 0.000000
O O5 0.175854 0.810860 0.126471
O O6 0.285898 0.924919 0.124032
O O7 0.347017 0.846134 0.018395
O O8 0.488962 0.750000 0.500000
O O9 0.318194 0.786496 0.609541
O O10 0.545566 0.849716 0.586015
O O11 0.222403 0.756958 0.750000
O O12 0.059604 0.802914 0.852321
O O13 0.941592 0.629179 0.250000
O O14 0.813796 0.641376 0.384027
O O15 0.312082 0.084339 0.505054
O O16 0.455141 0.037871 0.629817
O O17 0.500000 0.000000 0.500000
O O18 0.657340 0.543862 0.130508
O O19 0.382265 0.973837 0.250000
#
# Coordination Sequence:
#
# PCOD9436158 Si02
#       8
#     8   8   8   8   8   8   8   8
#     4  12  21  37  61  89 117 158 198 244 294 370
#     4  11  19  39  61  87 119 155 201 246 295 365
#     4  10  21  38  63  88 114 156 205 248 291 354
#     4  10  23  39  60  88 118 157 205 255 300 351
#     4  11  24  39  57  88 124 157 202 254 303 352
#     4  10  19  35  56  86 118 150 197 241 288 357
#     4  11  20  39  59  87 123 158 200 242 306 367
#     4  11  21  33  61  94 121 155 193 251 311 355
#
# _framework density 17.57037
#
# number of rings (size 3 to 8) (size 9 to 14) (size 15 to 20)
#    0.000    1.250    6.250    1.500    0.000    1.500 
#    2.250    0.625    0.000    0.000    0.000    0.000 
#    0.000    0.000    0.000    0.000    0.000    0.000 
#
# Total GULP energy -357046.959795 kJ/mol
# GULP energy per Si atom -5578.858747 kJ/mol
# Density = 1.753038 g / cm^3
# Si number density = 17.570370 Si / 1000 Ang^3
#
#
#
# Elastic Constant Matrix: (Units=GPa)
#
#
# Indices 1 2 3 4 5 6 
#
# 1 75.1735 35.8879 25.4538 0.0000 0.0000 0.0000
# 2 35.8879 97.7027 31.4508 0.0000 0.0000 0.0000
# 3 25.4538 31.4508 72.0652 0.0000 0.0000 0.0000
# 4 0.0000 0.0000 0.0000 22.6666 0.0000 0.0000
# 5 0.0000 0.0000 0.0000 0.0000 23.9990 0.0000
# 6 0.0000 0.0000 0.0000 0.0000 0.0000 23.3682
#
#
#
# Elastic Compliance Matrix: (Units=1/GPa)
#
#
# Indices 1 2 3 4 5 6 
#
# 1 0.016986 -0.005012 -0.003812 0.000000 0.000000 0.000000
# 2 -0.005012 0.013387 -0.004072 0.000000 0.000000 0.000000
# 3 -0.003812 -0.004072 0.017000 0.000000 0.000000 0.000000
# 4 0.000000 0.000000 0.000000 0.044118 0.000000 0.000000
# 5 0.000000 0.000000 0.000000 0.000000 0.041668 0.000000
# 6 0.000000 0.000000 0.000000 0.000000 0.000000 0.042793
#
#
# Mechanical properties :
#
#
# Convention : Reuss Voigt Hill
#
# Bulk Modulus (GPa) = 46.33856 47.83628 47.08742
# Shear Modulus (GPa) = 23.93047 24.15003 24.04025
#
# Velocity S-wave (km/s) = 3.69450 3.71141 3.70297
# Velocity P-wave (km/s) = 6.68053 6.75653 6.71864
#
# Compressibility (1/GPa) = 0.02158030
#
# Stress axis : x y z
#
# Youngs Moduli (GPa) = 58.87133 74.69940 58.82373
#
# Poissons Ratio (x) = 0.37441 0.22425
# Poissons Ratio (y) = 0.29507 0.23953
# Poissons Ratio (z) = 0.22443 0.30418
#
# Static dielectric constant tensor:
#      x y z
#    x 1.605720 0.000000 0.000000 
#    y 0.000000 1.623630 0.000000 
#    z 0.000000 0.000000 1.602450 
# 
# From -- ./inp_files/21511.got.cif
#   From: 2010.05.17/outbox.cif.g08.bks.cpg/sg57_11_cif.got.tgz:21511.got - 2010.06.03 13:58:18.
