data_PCOD9436658
_publ_section_title
;
Structure prediction by ZEFSAII (Michael W. Deem and Ramdas Pophale) SiO2 
 PCOD9436658
Probable space group: P B C M
;
_chemical_formula_sum "Si O2"
_cell_formula_units_Z 64
_cell_length_a 19.535572
_cell_length_b 19.473531
_cell_length_c 8.769790
_cell_angle_alpha 90.000000
_cell_angle_beta 90.000000
_cell_angle_gamma 90.000000
_cell_volume 3336.261103
_symmetry_space_group_name_H-M "P B C M"
_symmetry_group_IT_number 57
_symmetry_cell_setting 'orthorhombic'
loop_
_space_group_symop_operation_xyz
x,y,z
-x,-y,1/2+z
x,1/2-y,-z
-x,1/2+y,1/2-z
-x,-y,-z
x,y,1/2-z
-x,1/2+y,z
x,1/2-y,1/2+z
loop_
_atom_site_type_symbol
_atom_site_label
_atom_site_fract_x
_atom_site_fract_y
_atom_site_fract_z
Si Si1 0.435453 0.926445 0.930493
Si Si2 0.771372 0.316339 0.920893
Si Si3 0.576130 0.588482 0.567836
Si Si4 0.932724 0.181826 0.079821
Si Si5 0.931292 0.467913 0.432988
Si Si6 0.703964 0.673239 0.066365
Si Si7 0.794282 0.549769 0.064671
Si Si8 0.299411 0.929323 0.427395
O O1 0.446380 0.923831 0.750000
O O2 0.424638 0.007172 0.975659
O O3 0.499518 0.892127 0.014170
O O4 0.362754 0.897804 0.981914
O O5 0.745167 0.331115 0.750000
O O6 0.851871 0.304397 0.903351
O O7 0.739234 0.250000 0.000000
O O8 0.761973 0.377572 0.039637
O O9 0.583005 0.593241 0.750000
O O10 0.635724 0.632998 0.490689
O O11 0.962007 0.172052 0.250000
O O12 0.962615 0.250000 0.000000
O O13 0.934059 0.111007 0.987453
O O14 0.931026 0.469951 0.250000
O O15 0.864885 0.513243 0.486289
O O16 0.000000 0.500000 0.500000
O O17 0.701743 0.676240 0.250000
O O18 0.770120 0.626320 0.020926
O O19 0.706342 0.750000 0.000000
O O20 0.795728 0.547736 0.250000
O O21 0.730766 0.501360 0.015565
O O22 0.316643 0.935044 0.250000
#
# Coordination Sequence:
#
# PCOD9436658 Si02
#       8
#     8   8   8   8   8   8   8   8
#     4  10  20  33  53  83 116 149 189 242 294 349
#     4  10  20  33  51  79 113 148 186 229 278 338
#     4  10  20  35  55  82 113 150 193 240 291 351
#     4  10  20  35  57  86 117 153 193 239 291 355
#     4  11  22  40  62  90 123 161 203 251 308 369
#     4  11  22  40  62  88 118 158 204 255 309 362
#     4   9  20  37  60  85 116 153 197 247 300 358
#     4  11  19  33  56  83 113 152 193 239 294 351
#
# _framework density 19.183150999999999
#
# number of rings (size 3 to 8) (size 9 to 14) (size 15 to 20)
#    0.000    1.750    2.500    2.625    0.000    2.000 
#    0.000    3.750    0.000    1.500    0.000    0.000 
#    0.000    0.000    0.000    0.000    0.000    0.000 
#
# Total GULP energy -356493.339288 kJ/mol
# GULP energy per Si atom -5570.208426 kJ/mol
# Density = 1.913949 g / cm^3
# Si number density = 19.183151 Si / 1000 Ang^3
#
#
#
# Elastic Constant Matrix: (Units=GPa)
#
#
# Indices 1 2 3 4 5 6 
#
# 1 90.0138 41.1025 26.9443 0.0000 0.0000 0.0000
# 2 41.1025 122.5431 39.1259 0.0000 0.0000 0.0000
# 3 26.9443 39.1259 61.2466 0.0000 0.0000 0.0000
# 4 0.0000 0.0000 0.0000 28.0949 0.0000 0.0000
# 5 0.0000 0.0000 0.0000 0.0000 24.3831 0.0000
# 6 0.0000 0.0000 0.0000 0.0000 0.0000 11.0037
#
#
#
# Elastic Compliance Matrix: (Units=1/GPa)
#
#
# Indices 1 2 3 4 5 6 
#
# 1 0.013829 -0.003387 -0.003920 0.000000 0.000000 0.000000
# 2 -0.003387 0.011081 -0.005589 0.000000 0.000000 0.000000
# 3 -0.003920 -0.005589 0.021622 0.000000 0.000000 0.000000
# 4 0.000000 0.000000 0.000000 0.035594 0.000000 0.000000
# 5 0.000000 0.000000 0.000000 0.000000 0.041012 0.000000
# 6 0.000000 0.000000 0.000000 0.000000 0.000000 0.090878
#
#
# Mechanical properties :
#
#
# Convention : Reuss Voigt Hill
#
# Bulk Modulus (GPa) = 48.21448 54.23877 51.22663
# Shear Modulus (GPa) = 20.26573 23.80508 22.03540
#
# Velocity S-wave (km/s) = 3.25381 3.52652 3.39290
# Velocity P-wave (km/s) = 6.26935 6.70204 6.48930
#
# Compressibility (1/GPa) = 0.02074066
#
# Stress axis : x y z
#
# Youngs Moduli (GPa) = 72.30950 90.24653 46.24851
#
# Poissons Ratio (x) = 0.30565 0.18131
# Poissons Ratio (y) = 0.24490 0.25847
# Poissons Ratio (z) = 0.28348 0.50436
#
# Static dielectric constant tensor:
#      x y z
#    x 1.731060 0.000000 0.000000 
#    y 0.000000 1.745310 0.000000 
#    z 0.000000 0.000000 1.683110 
# 
# From -- ./inp_files/8425.got.cif
#   From: 2010.05.17/outbox.cif.g08.bks.cpg/sg57_5_cif.got.tgz:8425.got - 2010.06.03 13:58:18.
