data_PCOD9436446
_publ_section_title
;
Structure prediction by ZEFSAII (Michael W. Deem and Ramdas Pophale) SiO2 
 PCOD9436446
Probable space group: P B C M
;
_chemical_formula_sum "Si O2"
_cell_formula_units_Z 64
_cell_length_a 21.990139
_cell_length_b 9.248268
_cell_length_c 14.436435
_cell_angle_alpha 90.000000
_cell_angle_beta 90.000000
_cell_angle_gamma 90.000000
_cell_volume 2935.947875
_symmetry_space_group_name_H-M "P B C M"
_symmetry_group_IT_number 57
_symmetry_cell_setting 'orthorhombic'
loop_
_space_group_symop_operation_xyz
x,y,z
-x,-y,1/2+z
x,1/2-y,-z
-x,1/2+y,1/2-z
-x,-y,-z
x,y,1/2-z
-x,1/2+y,z
x,1/2-y,1/2+z
loop_
_atom_site_type_symbol
_atom_site_label
_atom_site_fract_x
_atom_site_fract_y
_atom_site_fract_z
Si Si1 0.804288 0.831533 0.854924
Si Si2 0.921446 0.128109 0.354718
Si Si3 0.983629 0.865580 0.432506
Si Si4 0.332390 0.352216 0.909804
Si Si5 0.182526 0.029293 0.551645
Si Si6 0.571318 0.400879 0.637744
Si Si7 0.542230 0.781296 0.357896
Si Si8 0.693561 0.396624 0.534660
O O1 0.825233 0.865309 0.750000
O O2 0.730240 0.828924 0.855056
O O3 0.828102 0.675693 0.889626
O O4 0.820357 0.937285 0.941280
O O5 0.903489 0.162446 0.250000
O O6 0.963922 0.259910 0.391847
O O7 0.953055 0.967319 0.355553
O O8 0.863779 0.095345 0.419410
O O9 0.948811 0.750000 0.500000
O O10 0.000000 0.000000 0.500000
O O11 0.396193 0.311522 0.864542
O O12 0.327384 0.250000 0.000000
O O13 0.332424 0.514260 0.947895
O O14 0.251797 0.988597 0.576011
O O15 0.572526 0.402128 0.750000
O O16 0.556422 0.562020 0.601583
O O17 0.517201 0.297640 0.605109
O O18 0.637758 0.363495 0.601353
O O19 0.529218 0.805459 0.250000
O O20 0.722534 0.250000 0.500000
#
# Coordination Sequence:
#
# PCOD9436446 Si02
#       8
#     8   8   8   8   8   8   8   8
#     4  10  19  38  67  95 129 176 224 279 339 403
#     4  11  22  40  72 107 142 187 235 282 339 406
#     4   9  21  41  67  98 140 187 226 281 339 386
#     4  11  19  38  59  85 116 156 218 272 328 397
#     4  10  22  40  64 102 137 170 225 280 332 404
#     4  10  22  39  57  83 116 157 205 262 328 396
#     4  10  21  36  57  83 114 153 205 266 329 397
#     4  11  24  40  58  86 123 165 203 264 331 391
#
# _framework density 21.798752
#
# number of rings (size 3 to 8) (size 9 to 14) (size 15 to 20)
#    0.000    1.750    3.750    1.125    3.500    4.500 
#    0.000    2.500    0.000   16.500    0.000    0.000 
#    0.000    0.000    0.000    0.000    0.000    0.000 
#
# Total GULP energy -356837.927732 kJ/mol
# GULP energy per Si atom -5575.592621 kJ/mol
# Density = 2.174914 g / cm^3
# Si number density = 21.798752 Si / 1000 Ang^3
#
#
#
# Elastic Constant Matrix: (Units=GPa)
#
#
# Indices 1 2 3 4 5 6 
#
# 1 110.5017 29.0677 31.3495 0.0000 0.0000 0.0000
# 2 29.0677 85.2373 20.1677 0.0000 0.0000 0.0000
# 3 31.3495 20.1677 108.3185 0.0000 0.0000 0.0000
# 4 0.0000 0.0000 0.0000 20.7004 0.0000 0.0000
# 5 0.0000 0.0000 0.0000 0.0000 7.2797 0.0000
# 6 0.0000 0.0000 0.0000 0.0000 0.0000 32.8501
#
#
#
# Elastic Compliance Matrix: (Units=1/GPa)
#
#
# Indices 1 2 3 4 5 6 
#
# 1 0.010548 -0.003007 -0.002493 0.000000 0.000000 0.000000
# 2 -0.003007 0.013130 -0.001574 0.000000 0.000000 0.000000
# 3 -0.002493 -0.001574 0.010247 0.000000 0.000000 0.000000
# 4 0.000000 0.000000 0.000000 0.048308 0.000000 0.000000
# 5 0.000000 0.000000 0.000000 0.000000 0.137369 0.000000
# 6 0.000000 0.000000 0.000000 0.000000 0.000000 0.030441
#
#
# Mechanical properties :
#
#
# Convention : Reuss Voigt Hill
#
# Bulk Modulus (GPa) = 50.56703 51.69192 51.12947
# Shear Modulus (GPa) = 18.46491 27.06420 22.76455
#
# Velocity S-wave (km/s) = 2.91359 3.52738 3.23508
# Velocity P-wave (km/s) = 5.87931 6.35253 6.12049
#
# Compressibility (1/GPa) = 0.01977573
#
# Stress axis : x y z
#
# Youngs Moduli (GPa) = 94.80539 76.16160 97.59306
#
# Poissons Ratio (x) = 0.22904 0.24329
# Poissons Ratio (y) = 0.28510 0.15364
# Poissons Ratio (z) = 0.23634 0.11990
#
# Static dielectric constant tensor:
#      x y z
#    x 1.844610 0.000000 0.000000 
#    y 0.000000 1.818060 0.000000 
#    z 0.000000 0.000000 1.843420 
# 
# From -- ./inp_files/19478.got.cif
#   From: 2010.05.17/outbox.cif.g08.bks.cpg/sg57_10_cif.got.tgz:19478.got - 2010.06.03 13:58:18.
