data_PCOD9436064
_publ_section_title
;
Structure prediction by ZEFSAII (Michael W. Deem and Ramdas Pophale) SiO2 
 PCOD9436064
Probable space group: P B C M
;
_chemical_formula_sum "Si O2"
_cell_formula_units_Z 64
_cell_length_a 21.023066
_cell_length_b 19.089901
_cell_length_c 8.858789
_cell_angle_alpha 90.000000
_cell_angle_beta 90.000000
_cell_angle_gamma 90.000000
_cell_volume 3555.282275
_symmetry_space_group_name_H-M "P B C M"
_symmetry_group_IT_number 57
_symmetry_cell_setting 'orthorhombic'
loop_
_space_group_symop_operation_xyz
x,y,z
-x,-y,1/2+z
x,1/2-y,-z
-x,1/2+y,1/2-z
-x,-y,-z
x,y,1/2-z
-x,1/2+y,z
x,1/2-y,1/2+z
loop_
_atom_site_type_symbol
_atom_site_label
_atom_site_fract_x
_atom_site_fract_y
_atom_site_fract_z
Si Si1 0.805934 0.034633 0.928708
Si Si2 0.501258 0.577128 0.068193
Si Si3 0.387538 0.676998 0.430606
Si Si4 0.240225 0.675885 0.069162
Si Si5 0.120179 0.326130 0.069242
Si Si6 0.059291 0.459614 0.570494
Si Si7 0.613215 0.827844 0.432008
Si Si8 0.747164 0.900668 0.430894
O O1 0.796935 0.042225 0.750000
O O2 0.876339 0.004068 0.956908
O O3 0.796672 0.108787 0.008402
O O4 0.757672 0.975851 0.992125
O O5 0.506799 0.574808 0.250000
O O6 0.435052 0.615332 0.027839
O O7 0.500000 0.500000 0.000000
O O8 0.558160 0.623289 0.999718
O O9 0.410400 0.750000 0.500000
O O10 0.388091 0.683552 0.250000
O O11 0.314441 0.665991 0.477258
O O12 0.236957 0.679131 0.250000
O O13 0.218889 0.750000 0.000000
O O14 0.115611 0.323684 0.250000
O O15 0.191548 0.353107 0.029035
O O16 0.109469 0.250000 0.000000
O O17 0.072257 0.384211 0.004199
O O18 0.051305 0.451816 0.750000
O O19 0.000000 0.500000 0.500000
O O20 0.608983 0.750000 0.500000
O O21 0.607869 0.824769 0.250000
O O22 0.681636 0.862307 0.470579
O O23 0.748062 0.910922 0.250000
#
# Coordination Sequence:
#
# PCOD9436064 Si02
#       8
#     8   8   8   8   8   8   8   8
#     4  10  21  36  57  86 116 146 183 230 278 328
#     4  11  24  40  56  79 109 145 187 234 285 336
#     4   9  20  37  57  78 103 137 180 227 277 333
#     4  10  20  36  58  83 111 144 183 231 283 336
#     4  10  19  34  57  85 116 151 190 232 280 331
#     4  10  21  38  59  84 116 152 191 231 274 328
#     4  11  23  39  58  82 113 148 187 232 282 337
#     4   9  20  36  56  82 114 151 187 228 279 334
#
# _framework density 18.001383000000001
#
# number of rings (size 3 to 8) (size 9 to 14) (size 15 to 20)
#    0.000    2.000    0.000    3.000    1.750    5.500 
#    0.000    0.625    0.000    3.000    0.000    0.000 
#    0.000    0.000    0.000    0.000    0.000    0.000 
#
# Total GULP energy -357471.270635 kJ/mol
# GULP energy per Si atom -5585.488604 kJ/mol
# Density = 1.796041 g / cm^3
# Si number density = 18.001383 Si / 1000 Ang^3
#
#
#
# Elastic Constant Matrix: (Units=GPa)
#
#
# Indices 1 2 3 4 5 6 
#
# 1 55.1366 58.5494 43.5421 0.0000 0.0000 0.0000
# 2 58.5494 184.7383 75.7568 0.0000 0.0000 0.0000
# 3 43.5421 75.7568 60.7003 0.0000 0.0000 0.0000
# 4 0.0000 0.0000 0.0000 40.7112 0.0000 0.0000
# 5 0.0000 0.0000 0.0000 0.0000 25.7584 0.0000
# 6 0.0000 0.0000 0.0000 0.0000 0.0000 27.6909
#
#
#
# Elastic Compliance Matrix: (Units=1/GPa)
#
#
# Indices 1 2 3 4 5 6 
#
# 1 0.042183 -0.001968 -0.027803 0.000000 0.000000 0.000000
# 2 -0.001968 0.011179 -0.012541 0.000000 0.000000 0.000000
# 3 -0.027803 -0.012541 0.052070 0.000000 0.000000 0.000000
# 4 0.000000 0.000000 0.000000 0.024563 0.000000 0.000000
# 5 0.000000 0.000000 0.000000 0.000000 0.038822 0.000000
# 6 0.000000 0.000000 0.000000 0.000000 0.000000 0.036113
#
#
# Mechanical properties :
#
#
# Convention : Reuss Voigt Hill
#
# Bulk Modulus (GPa) = 48.05694 72.91910 60.48802
# Shear Modulus (GPa) = 16.86388 27.01390 21.93889
#
# Velocity S-wave (km/s) = 3.06406 3.87803 3.49482
# Velocity P-wave (km/s) = 6.26675 7.78766 7.06823
#
# Compressibility (1/GPa) = 0.02080865
#
# Stress axis : x y z
#
# Youngs Moduli (GPa) = 23.70626 89.44993 19.20475
#
# Poissons Ratio (x) = 0.17600 0.53396
# Poissons Ratio (y) = 0.04664 0.24085
# Poissons Ratio (z) = 0.65912 1.12180
#
# Static dielectric constant tensor:
#      x y z
#    x 1.608880 0.000000 0.000000 
#    y 0.000000 1.574450 0.000000 
#    z 0.000000 0.000000 1.590520 
# 
# From -- ./inp_files/8380.got.cif
#   From: 2010.05.17/outbox.cif.g08.bks.cpg/sg57_5_cif.got.tgz:8380.got - 2010.06.03 13:58:18.
