data_PCOD9436714
_publ_section_title
;
Structure prediction by ZEFSAII (Michael W. Deem and Ramdas Pophale) SiO2 
 PCOD9436714
Probable space group: P B C M
;
_chemical_formula_sum "Si O2"
_cell_formula_units_Z 64
_cell_length_a 11.862165
_cell_length_b 31.547916
_cell_length_c 8.924759
_cell_angle_alpha 90.000000
_cell_angle_beta 90.000000
_cell_angle_gamma 90.000000
_cell_volume 3339.882083
_symmetry_space_group_name_H-M "P B C M"
_symmetry_group_IT_number 57
_symmetry_cell_setting 'orthorhombic'
loop_
_space_group_symop_operation_xyz
x,y,z
-x,-y,1/2+z
x,1/2-y,-z
-x,1/2+y,1/2-z
-x,-y,-z
x,y,1/2-z
-x,1/2+y,z
x,1/2-y,1/2+z
loop_
_atom_site_type_symbol
_atom_site_label
_atom_site_fract_x
_atom_site_fract_y
_atom_site_fract_z
Si Si1 0.918067 0.033081 0.075189
Si Si2 0.410646 0.297372 0.567837
Si Si3 0.952775 0.606473 0.576203
Si Si4 0.290656 0.935536 0.418994
Si Si5 0.483712 0.047505 0.429736
Si Si6 0.665893 0.293645 0.576655
Si Si7 0.313841 0.383606 0.429278
Si Si8 0.162386 0.653917 0.913062
O O1 0.902541 0.026182 0.250000
O O2 0.797149 0.032336 0.994244
O O3 0.984848 0.076403 0.041287
O O4 0.000000 0.000000 0.000000
O O5 0.385223 0.250000 0.500000
O O6 0.399032 0.295990 0.750000
O O7 0.541324 0.307263 0.524062
O O8 0.344380 0.337829 0.501397
O O9 0.969015 0.590911 0.750000
O O10 0.820449 0.609867 0.550368
O O11 0.028600 0.648914 0.568275
O O12 0.323274 0.948244 0.250000
O O13 0.399542 0.930001 0.521325
O O14 0.218716 0.892601 0.407609
O O15 0.472793 0.044908 0.250000
O O16 0.384538 0.077347 0.497523
O O17 0.500000 0.000000 0.500000
O O18 0.693178 0.250000 0.500000
O O19 0.653371 0.286814 0.750000
O O20 0.768524 0.323910 0.541117
O O21 0.337110 0.382830 0.250000
O O22 0.185258 0.674094 0.750000
#
# Coordination Sequence:
#
# PCOD9436714 Si02
#       8
#     8   8   8   8   8   8   8   8
#     4  11  22  36  58  84 113 148 191 243 296 349
#     4  10  21  38  61  91 124 158 202 251 305 368
#     4   9  21  40  59  82 114 154 200 244 294 357
#     4  10  21  39  60  83 111 146 189 236 291 348
#     4  12  26  42  60  86 121 160 203 251 305 366
#     4  10  20  33  54  84 116 148 184 233 287 348
#     4  11  23  41  64  88 121 163 206 255 311 368
#     4   9  18  35  58  82 111 144 182 233 287 345
#
# _framework density 19.162353
#
# number of rings (size 3 to 8) (size 9 to 14) (size 15 to 20)
#    0.000    1.750    0.000    5.250    1.750    7.000 
#    0.000    0.625    0.000    0.000    0.000    0.000 
#    0.000    0.000    0.000    0.000    0.000    0.000 
#
# Total GULP energy -356740.726801 kJ/mol
# GULP energy per Si atom -5574.073856 kJ/mol
# Density = 1.911874 g / cm^3
# Si number density = 19.162353 Si / 1000 Ang^3
#
#
#
# Elastic Constant Matrix: (Units=GPa)
#
#
# Indices 1 2 3 4 5 6 
#
# 1 93.1283 27.1875 22.1291 0.0000 0.0000 0.0000
# 2 27.1875 47.2227 30.5522 0.0000 0.0000 0.0000
# 3 22.1291 30.5522 97.7786 0.0000 0.0000 0.0000
# 4 0.0000 0.0000 0.0000 31.7796 0.0000 0.0000
# 5 0.0000 0.0000 0.0000 0.0000 37.3532 0.0000
# 6 0.0000 0.0000 0.0000 0.0000 0.0000 26.9895
#
#
#
# Elastic Compliance Matrix: (Units=1/GPa)
#
#
# Indices 1 2 3 4 5 6 
#
# 1 0.012951 -0.006969 -0.000754 0.000000 0.000000 0.000000
# 2 -0.006969 0.030292 -0.007888 0.000000 0.000000 0.000000
# 3 -0.000754 -0.007888 0.012862 0.000000 0.000000 0.000000
# 4 0.000000 0.000000 0.000000 0.031467 0.000000 0.000000
# 5 0.000000 0.000000 0.000000 0.000000 0.026771 0.000000
# 6 0.000000 0.000000 0.000000 0.000000 0.000000 0.037051
#
#
# Mechanical properties :
#
#
# Convention : Reuss Voigt Hill
#
# Bulk Modulus (GPa) = 40.18518 44.20745 42.19632
# Shear Modulus (GPa) = 26.19020 29.77517 27.98268
#
# Velocity S-wave (km/s) = 3.70097 3.94615 3.82553
# Velocity P-wave (km/s) = 6.26732 6.62441 6.44834
#
# Compressibility (1/GPa) = 0.02488480
#
# Stress axis : x y z
#
# Youngs Moduli (GPa) = 77.21154 33.01223 77.74587
#
# Poissons Ratio (x) = 0.23006 0.05859
# Poissons Ratio (y) = 0.53808 0.61325
# Poissons Ratio (z) = 0.05819 0.26040
#
# Static dielectric constant tensor:
#      x y z
#    x 1.691850 0.000000 0.000000 
#    y 0.000000 1.699490 0.000000 
#    z 0.000000 0.000000 1.710500 
# 
# From -- ./inp_files/3725.got.cif
#   From: 2010.05.17/outbox.cif.g08.bks.cpg/sg57_2_cif.got.tgz:3725.got - 2010.06.03 13:58:18.
