data_PCOD9436928
_publ_section_title
;
Structure prediction by ZEFSAII (Michael W. Deem and Ramdas Pophale) SiO2 
 PCOD9436928
Probable space group: P B C M
;
_chemical_formula_sum "Si O2"
_cell_formula_units_Z 40
_cell_length_a 11.602105
_cell_length_b 21.335461
_cell_length_c 8.935242
_cell_angle_alpha 90.000000
_cell_angle_beta 90.000000
_cell_angle_gamma 90.000000
_cell_volume 2211.796376
_symmetry_space_group_name_H-M "P B C M"
_symmetry_group_IT_number 57
_symmetry_cell_setting 'orthorhombic'
loop_
_space_group_symop_operation_xyz
x,y,z
-x,-y,1/2+z
x,1/2-y,-z
-x,1/2+y,1/2-z
-x,-y,-z
x,y,1/2-z
-x,1/2+y,z
x,1/2-y,1/2+z
loop_
_atom_site_type_symbol
_atom_site_label
_atom_site_fract_x
_atom_site_fract_y
_atom_site_fract_z
Si Si1 0.003761 0.318444 0.070413
Si Si2 0.546626 0.908186 0.920763
Si Si3 0.914669 0.447413 0.929839
Si Si4 0.668951 0.043667 0.578745
Si Si5 0.275709 0.316206 0.073245
O O1 0.983651 0.317494 0.250000
O O2 0.140662 0.328946 0.044191
O O3 0.974684 0.250000 0.000000
O O4 0.943482 0.378064 0.993692
O O5 0.529872 0.887653 0.750000
O O6 0.603016 0.977267 0.917869
O O7 0.424744 0.910317 0.005296
O O8 0.639784 0.866315 0.003312
O O9 0.924952 0.448530 0.750000
O O10 0.784532 0.461784 0.982389
O O11 0.000000 0.500000 0.000000
O O12 0.697407 0.061141 0.750000
O O13 0.291171 0.313537 0.250000
O O14 0.302783 0.250000 0.000000
#
# Coordination Sequence:
#
# PCOD9436928 Si02
#       5
#     8   8   8   8   8
#     4  10  21  38  59  84 115 151 190 232 282 337
#     4  10  20  35  56  81 110 142 178 222 272 325
#     4  12  24  38  58  85 116 150 191 236 282 333
#     4  10  21  37  57  81 110 144 181 223 274 329
#     4  10  20  34  55  81 109 142 181 224 269 321
#
# _framework density 18.084847
#
# number of rings (size 3 to 8) (size 9 to 14) (size 15 to 20)
#    0.000    1.600    0.000    5.400    0.000    8.000 
#    0.000    1.000    0.000    0.000    0.000    0.000 
#    0.000    0.000    0.000    0.000    0.000    0.000 
#
# Total GULP energy -223343.634936 kJ/mol
# GULP energy per Si atom -5583.590873 kJ/mol
# Density = 1.804369 g / cm^3
# Si number density = 18.084847 Si / 1000 Ang^3
#
#
#
# Elastic Constant Matrix: (Units=GPa)
#
#
# Indices 1 2 3 4 5 6 
#
# 1 68.6737 31.4556 53.6191 0.0000 0.0000 0.0000
# 2 31.4556 46.3718 35.6057 0.0000 0.0000 0.0000
# 3 53.6191 35.6057 112.3904 0.0000 0.0000 0.0000
# 4 0.0000 0.0000 0.0000 33.3066 0.0000 0.0000
# 5 0.0000 0.0000 0.0000 0.0000 13.8673 0.0000
# 6 0.0000 0.0000 0.0000 0.0000 0.0000 35.4196
#
#
#
# Elastic Compliance Matrix: (Units=1/GPa)
#
#
# Indices 1 2 3 4 5 6 
#
# 1 0.026934 -0.011105 -0.009332 0.000000 0.000000 0.000000
# 2 -0.011105 0.033076 -0.005180 0.000000 0.000000 0.000000
# 3 -0.009332 -0.005180 0.014991 0.000000 0.000000 0.000000
# 4 0.000000 0.000000 0.000000 0.030024 0.000000 0.000000
# 5 0.000000 0.000000 0.000000 0.000000 0.072112 0.000000
# 6 0.000000 0.000000 0.000000 0.000000 0.000000 0.028233
#
#
# Mechanical properties :
#
#
# Convention : Reuss Voigt Hill
#
# Bulk Modulus (GPa) = 42.07704 52.08852 47.08278
# Shear Modulus (GPa) = 18.90172 23.63572 21.26872
#
# Velocity S-wave (km/s) = 3.23641 3.61908 3.43308
# Velocity P-wave (km/s) = 6.10597 6.80650 6.46573
#
# Compressibility (1/GPa) = 0.02376593
#
# Stress axis : x y z
#
# Youngs Moduli (GPa) = 37.12749 30.23377 66.70850
#
# Poissons Ratio (x) = 0.33576 0.62249
# Poissons Ratio (y) = 0.41231 0.34557
# Poissons Ratio (z) = 0.34646 0.15662
#
# Static dielectric constant tensor:
#      x y z
#    x 1.602960 0.000000 0.000000 
#    y 0.000000 1.624760 0.000000 
#    z 0.000000 0.000000 1.617880 
# 
# From -- ./inp_files/2664.got.cif
#   From: 2010.05.17/outbox.cif.g08.bks.cpg/sg57_2_cif.got.tgz:2664.got - 2010.06.03 13:58:18.
