data_PCOD9436274
_publ_section_title
;
Structure prediction by ZEFSAII (Michael W. Deem and Ramdas Pophale) SiO2 
 PCOD9436274
Probable space group: P B C M
;
_chemical_formula_sum "Si O2"
_cell_formula_units_Z 64
_cell_length_a 13.923860
_cell_length_b 14.206053
_cell_length_c 14.670427
_cell_angle_alpha 90.000000
_cell_angle_beta 90.000000
_cell_angle_gamma 90.000000
_cell_volume 2901.855838
_symmetry_space_group_name_H-M "P B C M"
_symmetry_group_IT_number 57
_symmetry_cell_setting 'orthorhombic'
loop_
_space_group_symop_operation_xyz
x,y,z
-x,-y,1/2+z
x,1/2-y,-z
-x,1/2+y,1/2-z
-x,-y,-z
x,y,1/2-z
-x,1/2+y,z
x,1/2-y,1/2+z
loop_
_atom_site_type_symbol
_atom_site_label
_atom_site_fract_x
_atom_site_fract_y
_atom_site_fract_z
Si Si1 0.331768 0.000610 0.360830
Si Si2 0.858283 0.400946 0.148184
Si Si3 0.356028 0.843756 0.860617
Si Si4 0.522888 0.164118 0.860352
Si Si5 0.665274 0.558242 0.640892
Si Si6 0.032738 0.435889 0.582572
Si Si7 0.862683 0.197453 0.360056
Si Si8 0.234670 0.140501 0.018496
O O1 0.332056 0.014696 0.250000
O O2 0.316175 0.098512 0.413020
O O3 0.236977 0.944151 0.394187
O O4 0.416554 0.929387 0.385471
O O5 0.825533 0.376386 0.250000
O O6 0.934527 0.483526 0.152475
O O7 0.890595 0.302638 0.107855
O O8 0.357766 0.838740 0.750000
O O9 0.428849 0.761795 0.892884
O O10 0.246757 0.821433 0.889899
O O11 0.374410 0.953512 0.881926
O O12 0.527902 0.167698 0.750000
O O13 0.413788 0.137835 0.882090
O O14 0.685226 0.559863 0.750000
O O15 0.754163 0.582721 0.576115
O O16 0.128904 0.377105 0.560430
O O17 0.000000 0.500000 0.500000
O O18 0.943252 0.373494 0.608517
O O19 0.863320 0.190391 0.250000
O O20 0.247134 0.250000 0.000000
#
# Coordination Sequence:
#
# PCOD9436274 Si02
#       8
#     8   8   8   8   8   8   8   8
#     4   9  18  38  65  91 121 161 204 259 322 382
#     4   9  18  35  59  87 115 149 200 254 308 374
#     4   9  17  34  61  94 128 162 207 261 317 382
#     4   9  17  34  65  98 126 162 211 263 318 385
#     4  10  22  40  62  91 129 169 210 261 323 380
#     4  11  24  38  58  81 120 162 202 255 313 370
#     4  10  19  35  63  90 117 157 209 264 315 370
#     4  11  26  43  58  86 128 166 213 262 312 386
#
# _framework density 22.054852
#
# number of rings (size 3 to 8) (size 9 to 14) (size 15 to 20)
#    0.000    2.250    1.250    1.125    1.750    2.500 
#    0.000    3.750    0.000    0.000    0.000    0.000 
#    0.000    0.000    0.000    0.250    0.000    0.000 
#
# Total GULP energy -357074.235757 kJ/mol
# GULP energy per Si atom -5579.284934 kJ/mol
# Density = 2.200465 g / cm^3
# Si number density = 22.054852 Si / 1000 Ang^3
#
#
#
# Elastic Constant Matrix: (Units=GPa)
#
#
# Indices 1 2 3 4 5 6 
#
# 1 56.7230 36.7430 7.1794 0.0000 0.0000 0.0000
# 2 36.7430 152.0063 22.9720 0.0000 0.0000 0.0000
# 3 7.1794 22.9720 65.3985 0.0000 0.0000 0.0000
# 4 0.0000 0.0000 0.0000 29.2113 0.0000 0.0000
# 5 0.0000 0.0000 0.0000 0.0000 15.8724 0.0000
# 6 0.0000 0.0000 0.0000 0.0000 0.0000 25.1492
#
#
#
# Elastic Compliance Matrix: (Units=1/GPa)
#
#
# Indices 1 2 3 4 5 6 
#
# 1 0.020921 -0.004974 -0.000550 0.000000 0.000000 0.000000
# 2 -0.004974 0.008130 -0.002310 0.000000 0.000000 0.000000
# 3 -0.000550 -0.002310 0.016163 0.000000 0.000000 0.000000
# 4 0.000000 0.000000 0.000000 0.034233 0.000000 0.000000
# 5 0.000000 0.000000 0.000000 0.000000 0.063002 0.000000
# 6 0.000000 0.000000 0.000000 0.000000 0.000000 0.039763
#
#
# Mechanical properties :
#
#
# Convention : Reuss Voigt Hill
#
# Bulk Modulus (GPa) = 33.84425 45.32407 39.58416
# Shear Modulus (GPa) = 24.06999 27.86214 25.96607
#
# Velocity S-wave (km/s) = 3.30717 3.55817 3.43496
# Velocity P-wave (km/s) = 5.47375 6.12176 5.80680
#
# Compressibility (1/GPa) = 0.02954712
#
# Stress axis : x y z
#
# Youngs Moduli (GPa) = 47.79877 123.00051 61.87159
#
# Poissons Ratio (x) = 0.61180 0.03400
# Poissons Ratio (y) = 0.23775 0.14291
# Poissons Ratio (z) = 0.02627 0.28410
#
# Static dielectric constant tensor:
#      x y z
#    x 1.849250 0.000000 0.000000 
#    y 0.000000 1.871550 0.000000 
#    z 0.000000 0.000000 1.851420 
# 
# From -- ./inp_files/22669.got.cif
#   From: 2010.05.17/outbox.cif.g08.bks.cpg/sg57_12_cif.got.tgz:22669.got - 2010.06.03 13:58:18.
