data_PCOD9436335
_publ_section_title
;
Structure prediction by ZEFSAII (Michael W. Deem and Ramdas Pophale) SiO2 
 PCOD9436335
Probable space group: P B C M
;
_chemical_formula_sum "Si O2"
_cell_formula_units_Z 64
_cell_length_a 16.045286
_cell_length_b 11.352330
_cell_length_c 17.629292
_cell_angle_alpha 90.000000
_cell_angle_beta 90.000000
_cell_angle_gamma 90.000000
_cell_volume 3211.199895
_symmetry_space_group_name_H-M "P B C M"
_symmetry_group_IT_number 57
_symmetry_cell_setting 'orthorhombic'
loop_
_space_group_symop_operation_xyz
x,y,z
-x,-y,1/2+z
x,1/2-y,-z
-x,1/2+y,1/2-z
-x,-y,-z
x,y,1/2-z
-x,1/2+y,z
x,1/2-y,1/2+z
loop_
_atom_site_type_symbol
_atom_site_label
_atom_site_fract_x
_atom_site_fract_y
_atom_site_fract_z
Si Si1 0.354577 0.727604 0.588395
Si Si2 0.642657 0.909920 0.106448
Si Si3 0.042219 0.246125 0.840135
Si Si4 0.787696 0.718058 0.082897
Si Si5 0.239036 0.896562 0.662934
Si Si6 0.525061 0.715662 0.338572
Si Si7 0.943740 0.479830 0.657551
Si Si8 0.355741 0.042018 0.431188
O O1 0.370283 0.750000 0.500000
O O2 0.267994 0.787085 0.612636
O O3 0.429726 0.782836 0.636272
O O4 0.355733 0.588691 0.599836
O O5 0.714776 0.811662 0.098636
O O6 0.564337 0.843934 0.142310
O O7 0.685678 0.010980 0.154866
O O8 0.624413 0.954045 0.021185
O O9 0.027454 0.242358 0.750000
O O10 0.138870 0.273057 0.857383
O O11 0.991762 0.361346 0.869035
O O12 0.026830 0.110828 0.868539
O O13 0.736560 0.596859 0.079063
O O14 0.823126 0.750000 0.000000
O O15 0.228491 0.859959 0.750000
O O16 0.153543 0.959272 0.637952
O O17 0.534674 0.690970 0.250000
O O18 0.577547 0.622915 0.388058
O O19 0.949142 0.482437 0.750000
#
# Coordination Sequence:
#
# PCOD9436335 Si02
#       8
#     8   8   8   8   8   8   8   8
#     4  12  25  41  61  86 123 165 205 247 313 377
#     4  10  19  40  66  87 115 159 207 251 304 368
#     4  10  19  36  60  87 119 162 204 250 308 376
#     4   9  19  36  62  88 117 149 199 254 301 356
#     4  11  22  38  62  91 119 156 206 260 307 364
#     4  11  25  40  60  92 125 159 203 260 310 358
#     4   9  20  36  59  89 123 158 206 256 310 373
#     4  10  23  42  61  88 122 160 207 255 307 374
#
# _framework density 19.930244999999999
#
# number of rings (size 3 to 8) (size 9 to 14) (size 15 to 20)
#    0.000    1.750    2.500    2.625    1.750    5.000 
#    0.000    2.500    0.000    0.000    0.000    0.000 
#    0.000    0.000    0.000    0.000    0.000    0.000 
#
# Total GULP energy -357184.594499 kJ/mol
# GULP energy per Si atom -5581.009289 kJ/mol
# Density = 1.988488 g / cm^3
# Si number density = 19.930245 Si / 1000 Ang^3
#
#
#
# Elastic Constant Matrix: (Units=GPa)
#
#
# Indices 1 2 3 4 5 6 
#
# 1 44.8542 40.2340 11.2348 0.0000 0.0000 0.0000
# 2 40.2340 126.1372 1.3161 0.0000 0.0000 0.0000
# 3 11.2348 1.3161 35.5751 0.0000 0.0000 0.0000
# 4 0.0000 0.0000 0.0000 -3.3241 0.0000 0.0000
# 5 0.0000 0.0000 0.0000 0.0000 12.8616 0.0000
# 6 0.0000 0.0000 0.0000 0.0000 0.0000 18.5767
#
#
#
# Elastic Compliance Matrix: (Units=1/GPa)
#
#
# Indices 1 2 3 4 5 6 
#
# 1 0.034805 -0.010991 -0.010585 0.000000 0.000000 0.000000
# 2 -0.010991 0.011402 0.003049 0.000000 0.000000 0.000000
# 3 -0.010585 0.003049 0.031340 0.000000 0.000000 0.000000
# 4 0.000000 0.000000 0.000000 -0.300837 0.000000 0.000000
# 5 0.000000 0.000000 0.000000 0.000000 0.077751 0.000000
# 6 0.000000 0.000000 0.000000 0.000000 0.000000 0.053831
#
#
# Mechanical properties :
#
#
# Convention : Reuss Voigt Hill
#
# Bulk Modulus (GPa) = 24.69593 34.68180 29.68887
# Shear Modulus (GPa) = -121.48503 15.87495 -52.80504
#
# Velocity S-wave (km/s) = -7.81585 2.82534 -5.15291
# Velocity P-wave (km/s) = 8.30854 5.29932 4.52488
#
# Compressibility (1/GPa) = 0.04049251
#
# Stress axis : x y z
#
# Youngs Moduli (GPa) = 28.73170 87.70446 31.90857
#
# Poissons Ratio (x) = 0.96398 0.33775
# Poissons Ratio (y) = 0.31580 -0.09730
# Poissons Ratio (z) = 0.30412 -0.26744
#
# Static dielectric constant tensor:
#      x y z
#    x 1.678100 0.000000 0.000000 
#    y 0.000000 1.754980 0.000000 
#    z 0.000000 0.000000 1.689310 
# 
# From -- ./inp_files/22683.got.cif
#   From: 2010.05.17/outbox.cif.g08.bks.cpg/sg57_12_cif.got.tgz:22683.got - 2010.06.03 13:58:18.
