data_PCOD9436326
_publ_section_title
;
Structure prediction by ZEFSAII (Michael W. Deem and Ramdas Pophale) SiO2 
 PCOD9436326
Probable space group: P B C M
;
_chemical_formula_sum "Si O2"
_cell_formula_units_Z 56
_cell_length_a 11.604446
_cell_length_b 14.588634
_cell_length_c 16.064968
_cell_angle_alpha 90.000000
_cell_angle_beta 90.000000
_cell_angle_gamma 90.000000
_cell_volume 2719.686876
_symmetry_space_group_name_H-M "P B C M"
_symmetry_group_IT_number 57
_symmetry_cell_setting 'orthorhombic'
loop_
_space_group_symop_operation_xyz
x,y,z
-x,-y,1/2+z
x,1/2-y,-z
-x,1/2+y,1/2-z
-x,-y,-z
x,y,1/2-z
-x,1/2+y,z
x,1/2-y,1/2+z
loop_
_atom_site_type_symbol
_atom_site_label
_atom_site_fract_x
_atom_site_fract_y
_atom_site_fract_z
Si Si1 0.829241 0.958437 0.515981
Si Si2 0.141167 0.412379 0.160408
Si Si3 0.396125 0.347424 0.987277
Si Si4 0.424690 0.631854 0.344653
Si Si5 0.580512 0.585943 0.660316
Si Si6 0.189518 0.662896 0.442207
Si Si7 0.000263 0.598891 0.341830
O O1 0.883518 0.898916 0.438424
O O2 0.698405 0.925141 0.527173
O O3 0.900829 0.937255 0.598119
O O4 0.827045 0.066412 0.492372
O O5 0.103214 0.368375 0.250000
O O6 0.279957 0.404785 0.160536
O O7 0.092183 0.515654 0.167182
O O8 0.481042 0.335271 0.910392
O O9 0.334514 0.250000 0.000000
O O10 0.461102 0.371790 0.073549
O O11 0.436486 0.665521 0.250000
O O12 0.440737 0.522116 0.342511
O O13 0.298882 0.651594 0.381685
O O14 0.537847 0.621730 0.750000
O O15 0.208422 0.750000 0.500000
O O16 0.074008 0.676267 0.387728
O O17 0.958922 0.623896 0.250000
#
# Coordination Sequence:
#
# PCOD9436326 Si02
#       7
#     8   8   8   8   8   8   8
#     4  10  21  37  59  86 122 162 206 241 298 370
#     4   8  13  27  54  84 108 142 189 240 288 341
#     4  11  23  38  58  83 124 163 205 254 301 363
#     4  11  21  38  62  86 119 159 202 254 312 365
#     4   9  17  33  60  85 107 148 200 247 301 362
#     4  11  21  37  64  92 121 156 204 261 311 353
#     4  10  19  36  60  84 118 156 196 243 300 364
#
# _framework density 20.590606000000001
#
# number of rings (size 3 to 8) (size 9 to 14) (size 15 to 20)
#    0.000    2.000    4.286    3.000    0.000    1.714 
#    0.000    1.429    0.000    8.571    0.000    0.000 
#    0.000    0.000    0.000    0.000    0.000    0.000 
#
# Total GULP energy -311766.012599 kJ/mol
# GULP energy per Si atom -5567.250225 kJ/mol
# Density = 2.054374 g / cm^3
# Si number density = 20.590606 Si / 1000 Ang^3
#
#
#
# Elastic Constant Matrix: (Units=GPa)
#
#
# Indices 1 2 3 4 5 6 
#
# 1 48.1771 17.6333 58.4271 0.0000 0.0000 0.0000
# 2 17.6333 62.8662 51.5318 0.0000 0.0000 0.0000
# 3 58.4271 51.5318 192.2912 0.0000 0.0000 0.0000
# 4 0.0000 0.0000 0.0000 -306.5817 0.0000 0.0000
# 5 0.0000 0.0000 0.0000 0.0000 35.6678 0.0000
# 6 0.0000 0.0000 0.0000 0.0000 0.0000 1.3627
#
#
#
# Elastic Compliance Matrix: (Units=1/GPa)
#
#
# Indices 1 2 3 4 5 6 
#
# 1 0.032955 -0.001327 -0.009658 0.000000 0.000000 0.000000
# 2 -0.001327 0.020438 -0.005074 0.000000 0.000000 0.000000
# 3 -0.009658 -0.005074 0.009495 0.000000 0.000000 0.000000
# 4 0.000000 0.000000 0.000000 -0.003262 0.000000 0.000000
# 5 0.000000 0.000000 0.000000 0.000000 0.028036 0.000000
# 6 0.000000 0.000000 0.000000 0.000000 0.000000 0.733826
#
#
# Mechanical properties :
#
#
# Convention : Reuss Voigt Hill
#
# Bulk Modulus (GPa) = 32.49879 62.05764 47.27822
# Shear Modulus (GPa) = 5.78796 -42.19410 -18.20307
#
# Velocity S-wave (km/s) = 1.67841 -4.53171 -2.97652
# Velocity P-wave (km/s) = 4.42421 1.67999 3.34634
#
# Compressibility (1/GPa) = 0.03077038
#
# Stress axis : x y z
#
# Youngs Moduli (GPa) = 30.34460 48.92799 105.32257
#
# Poissons Ratio (x) = 0.06493 1.01716
# Poissons Ratio (y) = 0.04027 0.53440
# Poissons Ratio (z) = 0.29306 0.24826
#
# Static dielectric constant tensor:
#      x y z
#    x 1.721710 0.000000 0.000000 
#    y 0.000000 1.751460 0.000000 
#    z 0.000000 0.000000 1.832760 
# 
# From -- ./inp_files/17688.got.cif
#   From: 2010.05.17/outbox.cif.g08.bks.cpg/sg57_9_cif.got.tgz:17688.got - 2010.06.03 13:58:18.
