data_PCOD9436827
_publ_section_title
;
Structure prediction by ZEFSAII (Michael W. Deem and Ramdas Pophale) SiO2 
 PCOD9436827
Probable space group: P B C M
;
_chemical_formula_sum "Si O2"
_cell_formula_units_Z 48
_cell_length_a 21.746854
_cell_length_b 14.481810
_cell_length_c 8.753080
_cell_angle_alpha 90.000000
_cell_angle_beta 90.000000
_cell_angle_gamma 90.000000
_cell_volume 2756.640814
_symmetry_space_group_name_H-M "P B C M"
_symmetry_group_IT_number 57
_symmetry_cell_setting 'orthorhombic'
loop_
_space_group_symop_operation_xyz
x,y,z
-x,-y,1/2+z
x,1/2-y,-z
-x,1/2+y,1/2-z
-x,-y,-z
x,y,1/2-z
-x,1/2+y,z
x,1/2-y,1/2+z
loop_
_atom_site_type_symbol
_atom_site_label
_atom_site_fract_x
_atom_site_fract_y
_atom_site_fract_z
Si Si1 0.503153 0.648137 0.067363
Si Si2 0.167133 0.148293 0.567109
Si Si3 0.836044 0.352476 0.432720
Si Si4 0.738329 0.009201 0.065137
Si Si5 0.931833 0.003441 0.433983
Si Si6 0.596072 0.504923 0.934055
O O1 0.505276 0.652967 0.250000
O O2 0.444596 0.584548 0.022957
O O3 0.499235 0.750000 0.000000
O O4 0.562526 0.592944 0.006764
O O5 0.168131 0.250000 0.500000
O O6 0.167455 0.155489 0.750000
O O7 0.107060 0.088398 0.523672
O O8 0.225482 0.084781 0.523042
O O9 0.836424 0.250000 0.500000
O O10 0.838563 0.350344 0.250000
O O11 0.775526 0.407459 0.488704
O O12 0.893272 0.411156 0.498546
O O13 0.742683 0.019280 0.250000
O O14 0.667052 0.005125 0.021689
O O15 0.932775 0.010120 0.250000
O O16 0.000000 0.000000 0.500000
O O17 0.593462 0.514003 0.750000
#
# Coordination Sequence:
#
# PCOD9436827 Si02
#       6
#     8   8   8   8   8   8
#     4  10  20  34  53  77 106 140 178 220 267 320
#     4   9  19  34  53  76 105 137 170 211 258 310
#     4  11  22  37  57  81 109 143 181 223 270 321
#     4   9  19  37  56  78 108 139 175 222 271 318
#     4  10  21  38  57  80 109 142 180 224 271 318
#     4   9  19  36  56  77 105 140 177 221 270 318
#
# _framework density 17.412496000000001
#
# number of rings (size 3 to 8) (size 9 to 14) (size 15 to 20)
#    0.000    2.333    0.000    3.500    0.000    6.667 
#    0.000    5.000    0.000    0.000    0.000    0.000 
#    0.000    0.000    0.000    0.000    0.000    0.000 
#
# Total GULP energy -267904.691534 kJ/mol
# GULP energy per Si atom -5581.347740 kJ/mol
# Density = 1.737286 g / cm^3
# Si number density = 17.412496 Si / 1000 Ang^3
#
#
#
# Elastic Constant Matrix: (Units=GPa)
#
#
# Indices 1 2 3 4 5 6 
#
# 1 181.4981 93.9397 56.4986 0.0000 0.0000 0.0000
# 2 93.9397 187.0471 57.8756 0.0000 0.0000 0.0000
# 3 56.4986 57.8756 58.5851 0.0000 0.0000 0.0000
# 4 0.0000 0.0000 0.0000 34.7452 0.0000 0.0000
# 5 0.0000 0.0000 0.0000 0.0000 26.7876 0.0000
# 6 0.0000 0.0000 0.0000 0.0000 0.0000 5.6236
#
#
#
# Elastic Compliance Matrix: (Units=1/GPa)
#
#
# Indices 1 2 3 4 5 6 
#
# 1 0.008634 -0.002535 -0.005823 0.000000 0.000000 0.000000
# 2 -0.002535 0.008444 -0.005897 0.000000 0.000000 0.000000
# 3 -0.005823 -0.005897 0.028510 0.000000 0.000000 0.000000
# 4 0.000000 0.000000 0.000000 0.028781 0.000000 0.000000
# 5 0.000000 0.000000 0.000000 0.000000 0.037331 0.000000
# 6 0.000000 0.000000 0.000000 0.000000 0.000000 0.177821
#
#
# Mechanical properties :
#
#
# Convention : Reuss Voigt Hill
#
# Bulk Modulus (GPa) = 58.55075 93.75091 76.15083
# Shear Modulus (GPa) = 15.44530 28.01904 21.73217
#
# Velocity S-wave (km/s) = 2.98153 4.01575 3.53665
# Velocity P-wave (km/s) = 6.74918 8.68676 7.77853
#
# Compressibility (1/GPa) = 0.01707920
#
# Stress axis : x y z
#
# Youngs Moduli (GPa) = 115.81964 118.42821 35.07487
#
# Poissons Ratio (x) = 0.30017 0.20423
# Poissons Ratio (y) = 0.29356 0.20685
# Poissons Ratio (z) = 0.67438 0.69841
#
# Static dielectric constant tensor:
#      x y z
#    x 1.578720 0.000000 0.000000 
#    y 0.000000 1.563000 0.000000 
#    z 0.000000 0.000000 1.580330 
# 
# From -- ./inp_files/9111.got.cif
#   From: 2010.05.17/outbox.cif.g08.bks.cpg/sg57_5_cif.got.tgz:9111.got - 2010.06.03 13:58:18.
