data_PCOD9436492
_publ_section_title
;
Structure prediction by ZEFSAII (Michael W. Deem and Ramdas Pophale) SiO2 
 PCOD9436492
Probable space group: P B C M
;
_chemical_formula_sum "Si O2"
_cell_formula_units_Z 48
_cell_length_a 7.138876
_cell_length_b 9.598457
_cell_length_c 30.126911
_cell_angle_alpha 90.000000
_cell_angle_beta 90.000000
_cell_angle_gamma 90.000000
_cell_volume 2064.362050
_symmetry_space_group_name_H-M "P B C M"
_symmetry_group_IT_number 57
_symmetry_cell_setting 'orthorhombic'
loop_
_space_group_symop_operation_xyz
x,y,z
-x,-y,1/2+z
x,1/2-y,-z
-x,1/2+y,1/2-z
-x,-y,-z
x,y,1/2-z
-x,1/2+y,z
x,1/2-y,1/2+z
loop_
_atom_site_type_symbol
_atom_site_label
_atom_site_fract_x
_atom_site_fract_y
_atom_site_fract_z
Si Si1 0.757499 0.686951 0.199877
Si Si2 0.776504 0.102888 0.482680
Si Si3 0.330141 0.141470 0.037050
Si Si4 0.966482 0.962344 0.301811
Si Si5 0.537771 0.705550 0.619315
Si Si6 0.743271 0.070452 0.112788
O O1 0.689472 0.695600 0.250000
O O2 0.603874 0.744827 0.167130
O O3 0.829872 0.530826 0.191725
O O4 0.931251 0.796736 0.195248
O O5 0.846518 0.250000 0.500000
O O6 0.552638 0.117906 0.472035
O O7 0.849333 0.056102 0.434245
O O8 0.779503 0.996180 0.523387
O O9 0.324803 0.215257 0.084457
O O10 0.269697 0.250000 0.000000
O O11 0.914570 0.999413 0.250000
O O12 0.848655 0.029365 0.342158
O O13 0.334202 0.771929 0.613107
O O14 0.571307 0.542364 0.611966
#
# Coordination Sequence:
#
# PCOD9436492 Si02
#       6
#     8   8   8   8   8   8
#     4   9  19  37  56  74  98 132 170 206 249 303
#     4   9  17  27  44  69 100 134 165 203 240 294
#     4   9  15  27  44  67  98 134 164 196 242 289
#     4   9  19  37  57  74  98 132 169 207 250 301
#     4  10  20  31  50  78 105 132 165 208 251 294
#     4  10  20  32  49  78 107 131 164 209 252 291
#
# _framework density 23.251736000000001
#
# number of rings (size 3 to 8) (size 9 to 14) (size 15 to 20)
#    0.000    2.667    1.667    0.000    7.000    2.000 
#    0.000    0.000    0.000    2.000    0.000    0.000 
#    0.000    0.000    0.000    0.000    0.000    0.000 
#
# Total GULP energy -267649.336364 kJ/mol
# GULP energy per Si atom -5576.027841 kJ/mol
# Density = 2.319881 g / cm^3
# Si number density = 23.251736 Si / 1000 Ang^3
#
#
#
# Elastic Constant Matrix: (Units=GPa)
#
#
# Indices 1 2 3 4 5 6 
#
# 1 37.7194 -0.1241 14.7345 0.0000 0.0000 0.0000
# 2 -0.1241 54.8983 8.0656 0.0000 0.0000 0.0000
# 3 14.7345 8.0656 66.3262 0.0000 0.0000 0.0000
# 4 0.0000 0.0000 0.0000 31.3273 0.0000 0.0000
# 5 0.0000 0.0000 0.0000 0.0000 96.2281 0.0000
# 6 0.0000 0.0000 0.0000 0.0000 0.0000 6.7261
#
#
#
# Elastic Compliance Matrix: (Units=1/GPa)
#
#
# Indices 1 2 3 4 5 6 
#
# 1 0.029088 0.001034 -0.006588 0.000000 0.000000 0.000000
# 2 0.001034 0.018584 -0.002489 0.000000 0.000000 0.000000
# 3 -0.006588 -0.002489 0.016843 0.000000 0.000000 0.000000
# 4 0.000000 0.000000 0.000000 0.031921 0.000000 0.000000
# 5 0.000000 0.000000 0.000000 0.000000 0.010392 0.000000
# 6 0.000000 0.000000 0.000000 0.000000 0.000000 0.148673
#
#
# Mechanical properties :
#
#
# Convention : Reuss Voigt Hill
#
# Bulk Modulus (GPa) = 20.64923 22.69955 21.67439
# Shear Modulus (GPa) = 17.37732 35.94085 26.65908
#
# Velocity S-wave (km/s) = 2.73675 3.93584 3.38974
# Velocity P-wave (km/s) = 4.34585 5.51708 4.96611
#
# Compressibility (1/GPa) = 0.04842796
#
# Stress axis : x y z
#
# Youngs Moduli (GPa) = 34.37807 53.81093 59.37110
#
# Poissons Ratio (x) = -0.05562 0.39112
# Poissons Ratio (y) = -0.03553 0.14780
# Poissons Ratio (z) = 0.22647 0.13396
#
# Static dielectric constant tensor:
#      x y z
#    x 1.922470 0.000000 0.000000 
#    y 0.000000 2.320460 0.000000 
#    z 0.000000 0.000000 1.745520 
# 
# From -- ./inp_files/28520.got.cif
#   From: 2010.05.17/outbox.cif.g08.bks.cpg/sg57_15_cif.got.tgz:28520.got - 2010.06.03 13:58:18.
