data_PCOD9436967
_publ_section_title
;
Structure prediction by ZEFSAII (Michael W. Deem and Ramdas Pophale) SiO2 
 PCOD9436967
Probable space group: P B C M
;
_chemical_formula_sum "Si O2"
_cell_formula_units_Z 36
_cell_length_a 15.679207
_cell_length_b 8.886185
_cell_length_c 13.676456
_cell_angle_alpha 90.000000
_cell_angle_beta 90.000000
_cell_angle_gamma 90.000000
_cell_volume 1905.517830
_symmetry_space_group_name_H-M "P B C M"
_symmetry_group_IT_number 57
_symmetry_cell_setting 'orthorhombic'
loop_
_space_group_symop_operation_xyz
x,y,z
-x,-y,1/2+z
x,1/2-y,-z
-x,1/2+y,1/2-z
-x,-y,-z
x,y,1/2-z
-x,1/2+y,z
x,1/2-y,1/2+z
loop_
_atom_site_type_symbol
_atom_site_label
_atom_site_fract_x
_atom_site_fract_y
_atom_site_fract_z
Si Si1 0.520719 0.024919 0.250000
Si Si2 0.986735 0.250000 0.000000
Si Si3 0.266710 0.131441 0.577917
Si Si4 0.911731 0.509958 0.865749
Si Si5 0.378036 0.267222 0.750000
Si Si6 0.416183 0.916320 0.540775
O O1 0.421710 0.070381 0.250000
O O2 0.566591 0.090235 0.155618
O O3 0.541850 0.848176 0.250000
O O4 0.933782 0.360255 0.927980
O O5 0.040773 0.143624 0.925952
O O6 0.232019 0.250000 0.500000
O O7 0.321999 0.224925 0.656520
O O8 0.188898 0.044983 0.627353
O O9 0.332494 0.017145 0.526440
O O10 0.936043 0.502004 0.750000
O O11 0.408678 0.750000 0.500000
O O12 0.500000 0.000000 0.500000
#
# Coordination Sequence:
#
# PCOD9436967 Si02
#       6
#     4   4   8   8   4   8
#     4  10  20  34  56  78 108 152 206 240 304 346
#     4  10  24  42  72  96 124 166 202 252 324 394
#     4  11  22  37  59  88 122 161 203 254 314 364
#     4  11  22  43  68  97 129 161 205 258 318 387
#     4  10  20  36  56  80 116 160 200 262 298 358
#     4  11  22  37  57  82 116 161 209 255 301 356
#
# _framework density 18.892500999999999
#
# number of rings (size 3 to 8) (size 9 to 14) (size 15 to 20)
#    0.000    1.333    2.222    5.333    1.556    0.000 
#    0.000    0.000    2.444    0.000    0.000    0.000 
#    0.000    0.000    0.000    0.000    0.000    0.000 
#
# Total GULP energy -200926.523512 kJ/mol
# GULP energy per Si atom -5581.292320 kJ/mol
# Density = 1.884950 g / cm^3
# Si number density = 18.892501 Si / 1000 Ang^3
#
#
#
# Elastic Constant Matrix: (Units=GPa)
#
#
# Indices 1 2 3 4 5 6 
#
# 1 90.5271 36.1314 29.8902 0.0000 0.0000 0.0000
# 2 36.1314 81.6060 60.7876 0.0000 0.0000 0.0000
# 3 29.8902 60.7876 129.0650 0.0000 0.0000 0.0000
# 4 0.0000 0.0000 0.0000 19.3665 0.0000 0.0000
# 5 0.0000 0.0000 0.0000 0.0000 95.3086 0.0000
# 6 0.0000 0.0000 0.0000 0.0000 0.0000 28.4873
#
#
#
# Elastic Compliance Matrix: (Units=1/GPa)
#
#
# Indices 1 2 3 4 5 6 
#
# 1 0.013437 -0.005594 -0.000477 0.000000 0.000000 0.000000
# 2 -0.005594 0.021205 -0.008692 0.000000 0.000000 0.000000
# 3 -0.000477 -0.008692 0.011952 0.000000 0.000000 0.000000
# 4 0.000000 0.000000 0.000000 0.051635 0.000000 0.000000
# 5 0.000000 0.000000 0.000000 0.000000 0.010492 0.000000
# 6 0.000000 0.000000 0.000000 0.000000 0.000000 0.035103
#
#
# Mechanical properties :
#
#
# Convention : Reuss Voigt Hill
#
# Bulk Modulus (GPa) = 58.58746 61.64628 60.11687
# Shear Modulus (GPa) = 27.92676 40.25843 34.09260
#
# Velocity S-wave (km/s) = 3.84890 4.62120 4.25262
# Velocity P-wave (km/s) = 7.12954 7.82143 7.48349
#
# Compressibility (1/GPa) = 0.01706850
#
# Stress axis : x y z
#
# Youngs Moduli (GPa) = 74.42406 47.15863 83.66603
#
# Poissons Ratio (x) = 0.26378 0.03993
# Poissons Ratio (y) = 0.41629 0.72721
# Poissons Ratio (z) = 0.03552 0.40989
#
# Static dielectric constant tensor:
#      x y z
#    x 1.649050 0.000000 0.000000 
#    y 0.000000 1.612950 0.000000 
#    z 0.000000 0.000000 1.673580 
# 
# From -- ./inp_files/18162.got.cif
#   From: 2010.05.17/outbox.cif.g08.bks.cpg/sg57_10_cif.got.tgz:18162.got - 2010.06.03 13:58:18.
