data_PCOD9436146
_publ_section_title
;
Structure prediction by ZEFSAII (Michael W. Deem and Ramdas Pophale) SiO2 
 PCOD9436146
Probable space group: P B C M
;
_chemical_formula_sum "Si O2"
_cell_formula_units_Z 64
_cell_length_a 13.435986
_cell_length_b 12.215076
_cell_length_c 20.119499
_cell_angle_alpha 90.000000
_cell_angle_beta 90.000000
_cell_angle_gamma 90.000000
_cell_volume 3302.044168
_symmetry_space_group_name_H-M "P B C M"
_symmetry_group_IT_number 57
_symmetry_cell_setting 'orthorhombic'
loop_
_space_group_symop_operation_xyz
x,y,z
-x,-y,1/2+z
x,1/2-y,-z
-x,1/2+y,1/2-z
-x,-y,-z
x,y,1/2-z
-x,1/2+y,z
x,1/2-y,1/2+z
loop_
_atom_site_type_symbol
_atom_site_label
_atom_site_fract_x
_atom_site_fract_y
_atom_site_fract_z
Si Si1 0.713077 0.505803 0.329146
Si Si2 0.198491 0.564562 0.383854
Si Si3 0.957814 0.598662 0.669905
Si Si4 0.524357 0.510149 0.097654
Si Si5 0.364165 0.622322 0.482616
Si Si6 0.353768 0.399265 0.172717
Si Si7 0.803334 0.780179 0.669654
Si Si8 0.827511 0.305415 0.329336
O O1 0.724755 0.501201 0.250000
O O2 0.603100 0.544046 0.346961
O O3 0.788998 0.597560 0.355655
O O4 0.737975 0.383698 0.352558
O O5 0.097849 0.493907 0.373253
O O6 0.261135 0.573840 0.452557
O O7 0.277360 0.501265 0.336103
O O8 0.175909 0.688198 0.362963
O O9 0.944406 0.575450 0.750000
O O10 0.901122 0.712134 0.653241
O O11 0.073025 0.623612 0.658405
O O12 0.452527 0.606192 0.071928
O O13 0.449135 0.421389 0.128171
O O14 0.592021 0.455207 0.040586
O O15 0.353363 0.750000 0.500000
O O16 0.380068 0.387955 0.250000
O O17 0.290278 0.294688 0.149893
O O18 0.801877 0.784463 0.750000
O O19 0.822713 0.286616 0.250000
#
# Coordination Sequence:
#
# PCOD9436146 Si02
#       8
#     8   8   8   8   8   8   8   8
#     4  10  20  33  50  82 116 140 168 219 285 337
#     4  10  19  35  56  78 111 149 187 223 270 324
#     4   9  18  32  55  83 111 142 179 219 268 335
#     4  10  21  35  55  79 104 139 186 229 273 324
#     4  10  22  38  56  76 101 145 193 234 267 309
#     4   9  17  32  55  81 110 143 178 218 272 343
#     4   8  16  30  48  75 110 142 168 207 268 330
#     4  10  20  31  52  85 116 144 175 219 274 333
#
# _framework density 19.381934000000001
#
# number of rings (size 3 to 8) (size 9 to 14) (size 15 to 20)
#    0.000    2.500    0.000    3.000    3.500    0.000 
#    0.000    0.000    0.000    3.000    0.000    0.000 
#    0.000    0.000    0.000    0.000    0.000    0.000 
#
# Total GULP energy -356475.182134 kJ/mol
# GULP energy per Si atom -5569.924721 kJ/mol
# Density = 1.933782 g / cm^3
# Si number density = 19.381934 Si / 1000 Ang^3
#
#
#
# Elastic Constant Matrix: (Units=GPa)
#
#
# Indices 1 2 3 4 5 6 
#
# 1 60.2646 11.5947 15.5896 0.0000 0.0000 0.0000
# 2 11.5947 85.8749 8.7811 0.0000 0.0000 0.0000
# 3 15.5896 8.7811 23.2527 0.0000 0.0000 0.0000
# 4 0.0000 0.0000 0.0000 15.9635 0.0000 0.0000
# 5 0.0000 0.0000 0.0000 0.0000 25.2357 0.0000
# 6 0.0000 0.0000 0.0000 0.0000 0.0000 13.1623
#
#
#
# Elastic Compliance Matrix: (Units=1/GPa)
#
#
# Indices 1 2 3 4 5 6 
#
# 1 0.020236 -0.001399 -0.013039 0.000000 0.000000 0.000000
# 2 -0.001399 0.012209 -0.003673 0.000000 0.000000 0.000000
# 3 -0.013039 -0.003673 0.053134 0.000000 0.000000 0.000000
# 4 0.000000 0.000000 0.000000 0.062643 0.000000 0.000000
# 5 0.000000 0.000000 0.000000 0.000000 0.039626 0.000000
# 6 0.000000 0.000000 0.000000 0.000000 0.000000 0.075975
#
#
# Mechanical properties :
#
#
# Convention : Reuss Voigt Hill
#
# Bulk Modulus (GPa) = 20.25985 26.81366 23.53675
# Shear Modulus (GPa) = 15.79796 19.76741 17.78269
#
# Velocity S-wave (km/s) = 2.85807 3.19703 3.03229
# Velocity P-wave (km/s) = 4.62245 5.24332 4.94265
#
# Compressibility (1/GPa) = 0.04935872
#
# Stress axis : x y z
#
# Youngs Moduli (GPa) = 49.41800 81.90488 18.82022
#
# Poissons Ratio (x) = 0.11458 0.24539
# Poissons Ratio (y) = 0.06913 0.06912
# Poissons Ratio (z) = 0.64434 0.30082
#
# Static dielectric constant tensor:
#      x y z
#    x 1.686900 0.000000 0.000000 
#    y 0.000000 1.692260 0.000000 
#    z 0.000000 0.000000 1.734750 
# 
# From -- ./inp_files/27289.got.cif
#   From: 2010.05.17/outbox.cif.g08.bks.cpg/sg57_14_cif.got.tgz:27289.got - 2010.06.03 13:58:18.
