data_PCOD9436725
_publ_section_title
;
Structure prediction by ZEFSAII (Michael W. Deem and Ramdas Pophale) SiO2 
 PCOD9436725
Probable space group: P B C M
;
_chemical_formula_sum "Si O2"
_cell_formula_units_Z 64
_cell_length_a 20.512376
_cell_length_b 20.233179
_cell_length_c 8.812147
_cell_angle_alpha 90.000000
_cell_angle_beta 90.000000
_cell_angle_gamma 90.000000
_cell_volume 3657.310439
_symmetry_space_group_name_H-M "P B C M"
_symmetry_group_IT_number 57
_symmetry_cell_setting 'orthorhombic'
loop_
_space_group_symop_operation_xyz
x,y,z
-x,-y,1/2+z
x,1/2-y,-z
-x,1/2+y,1/2-z
-x,-y,-z
x,y,1/2-z
-x,1/2+y,z
x,1/2-y,1/2+z
loop_
_atom_site_type_symbol
_atom_site_label
_atom_site_fract_x
_atom_site_fract_y
_atom_site_fract_z
Si Si1 0.918760 0.177571 0.431194
Si Si2 0.416654 0.177765 0.433095
Si Si3 0.704595 0.909612 0.568032
Si Si4 0.338993 0.940416 0.431040
Si Si5 0.834931 0.549142 0.929750
Si Si6 0.194309 0.906442 0.431705
Si Si7 0.982455 0.928593 0.431115
Si Si8 0.476893 0.569649 0.431362
O O1 0.928478 0.250000 0.500000
O O2 0.920459 0.179726 0.250000
O O3 0.849963 0.147681 0.487686
O O4 0.973461 0.127178 0.492711
O O5 0.425232 0.250000 0.500000
O O6 0.417440 0.180881 0.250000
O O7 0.347420 0.145462 0.478054
O O8 0.473754 0.127394 0.480463
O O9 0.714351 0.906763 0.750000
O O10 0.774039 0.907935 0.486422
O O11 0.673535 0.981861 0.535573
O O12 0.349131 0.934969 0.250000
O O13 0.271216 0.904179 0.469795
O O14 0.403236 0.917179 0.516043
O O15 0.829304 0.536374 0.750000
O O16 0.905328 0.580989 0.957920
O O17 0.830073 0.478890 0.015691
O O18 0.187576 0.901552 0.250000
O O19 0.994156 0.929363 0.250000
O O20 0.000000 0.000000 0.500000
O O21 0.500000 0.500000 0.500000
O O22 0.480127 0.564721 0.250000
#
# Coordination Sequence:
#
# PCOD9436725 Si02
#       8
#     8   8   8   8   8   8   8   8
#     4  12  25  41  61  86 118 156 200 245 296 360
#     4  10  22  39  56  80 113 150 192 234 286 348
#     4   9  18  35  55  78 113 148 182 231 286 341
#     4   9  18  34  56  84 114 143 183 235 287 336
#     4  10  20  33  55  88 117 143 189 239 281 337
#     4  10  20  36  58  83 116 152 187 234 291 346
#     4  11  22  37  59  88 121 156 196 244 293 345
#     4  11  21  35  56  83 115 149 190 239 288 343
#
# _framework density 17.499196999999999
#
# number of rings (size 3 to 8) (size 9 to 14) (size 15 to 20)
#    0.000    1.750    2.500    3.375    0.000    5.500 
#    0.000    1.250    0.000    3.000    0.000    0.000 
#    0.000    0.000    0.000    0.000    0.000    0.000 
#
# Total GULP energy -357395.869206 kJ/mol
# GULP energy per Si atom -5584.310456 kJ/mol
# Density = 1.745937 g / cm^3
# Si number density = 17.499197 Si / 1000 Ang^3
#
#
#
# Elastic Constant Matrix: (Units=GPa)
#
#
# Indices 1 2 3 4 5 6 
#
# 1 151.4884 83.5970 70.8609 0.0000 0.0000 0.0000
# 2 83.5970 129.8707 54.1975 0.0000 0.0000 0.0000
# 3 70.8609 54.1975 80.4013 0.0000 0.0000 0.0000
# 4 0.0000 0.0000 0.0000 29.1337 0.0000 0.0000
# 5 0.0000 0.0000 0.0000 0.0000 35.6980 0.0000
# 6 0.0000 0.0000 0.0000 0.0000 0.0000 25.0719
#
#
#
# Elastic Compliance Matrix: (Units=1/GPa)
#
#
# Indices 1 2 3 4 5 6 
#
# 1 0.013284 -0.005099 -0.008270 0.000000 0.000000 0.000000
# 2 -0.005099 0.012671 -0.004047 0.000000 0.000000 0.000000
# 3 -0.008270 -0.004047 0.022455 0.000000 0.000000 0.000000
# 4 0.000000 0.000000 0.000000 0.034325 0.000000 0.000000
# 5 0.000000 0.000000 0.000000 0.000000 0.028013 0.000000
# 6 0.000000 0.000000 0.000000 0.000000 0.000000 0.039885
#
#
# Mechanical properties :
#
#
# Convention : Reuss Voigt Hill
#
# Bulk Modulus (GPa) = 73.65843 86.56347 80.11095
# Shear Modulus (GPa) = 26.31704 28.18770 27.25237
#
# Velocity S-wave (km/s) = 3.88222 4.01783 3.95061
# Velocity P-wave (km/s) = 7.89173 8.43199 8.16633
#
# Compressibility (1/GPa) = 0.01357618
#
# Stress axis : x y z
#
# Youngs Moduli (GPa) = 75.28101 78.91762 44.53441
#
# Poissons Ratio (x) = 0.40243 0.36830
# Poissons Ratio (y) = 0.38388 0.18025
# Poissons Ratio (z) = 0.62257 0.31941
#
# Static dielectric constant tensor:
#      x y z
#    x 1.609100 0.000000 0.000000 
#    y 0.000000 1.560430 0.000000 
#    z 0.000000 0.000000 1.586160 
# 
# From -- ./inp_files/8541.got.cif
#   From: 2010.05.17/outbox.cif.g08.bks.cpg/sg57_5_cif.got.tgz:8541.got - 2010.06.03 13:58:18.
