data_PCOD9436913
_publ_section_title
;
Structure prediction by ZEFSAII (Michael W. Deem and Ramdas Pophale) SiO2 
 PCOD9436913
Probable space group: P B C M
;
_chemical_formula_sum "Si O2"
_cell_formula_units_Z 56
_cell_length_a 12.276719
_cell_length_b 15.066080
_cell_length_c 13.726500
_cell_angle_alpha 90.000000
_cell_angle_beta 90.000000
_cell_angle_gamma 90.000000
_cell_volume 2538.881313
_symmetry_space_group_name_H-M "P B C M"
_symmetry_group_IT_number 57
_symmetry_cell_setting 'orthorhombic'
loop_
_space_group_symop_operation_xyz
x,y,z
-x,-y,1/2+z
x,1/2-y,-z
-x,1/2+y,1/2-z
-x,-y,-z
x,y,1/2-z
-x,1/2+y,z
x,1/2-y,1/2+z
loop_
_atom_site_type_symbol
_atom_site_label
_atom_site_fract_x
_atom_site_fract_y
_atom_site_fract_z
Si Si1 0.263433 0.168897 0.928397
Si Si2 0.522350 0.740753 0.638648
Si Si3 0.641595 0.094136 0.632673
Si Si4 0.482056 0.568002 0.133308
Si Si5 0.009838 0.528663 0.365717
Si Si6 0.249822 0.965693 0.543618
Si Si7 0.027751 0.154090 0.534330
O O1 0.367042 0.183659 0.860310
O O2 0.135809 0.178302 0.902533
O O3 0.267575 0.070483 0.969275
O O4 0.279234 0.250000 0.000000
O O5 0.493914 0.757254 0.750000
O O6 0.421218 0.683377 0.603028
O O7 0.532688 0.839164 0.595705
O O8 0.662163 0.091798 0.750000
O O9 0.743397 0.080230 0.561824
O O10 0.556425 0.015573 0.604894
O O11 0.485289 0.563168 0.250000
O O12 0.356550 0.565833 0.101729
O O13 0.995411 0.537435 0.250000
O O14 0.137186 0.544593 0.397189
O O15 0.980512 0.428900 0.402868
O O16 0.947982 0.601776 0.432009
O O17 0.978689 0.250000 0.500000
#
# Coordination Sequence:
#
# PCOD9436913 Si02
#       7
#     8   8   8   8   8   8   8
#     4  10  20  34  59  86 116 153 206 251 307 372
#     4  10  21  34  52  82 119 159 203 247 296 362
#     4  10  21  36  52  79 120 164 205 251 305 360
#     4  10  20  34  54  83 121 164 207 251 302 366
#     4  10  22  42  69  97 126 164 214 266 322 394
#     4  11  21  36  59  86 120 167 207 257 314 370
#     4   9  21  43  66  98 128 161 206 267 333 386
#
# _framework density 22.056958999999999
#
# number of rings (size 3 to 8) (size 9 to 14) (size 15 to 20)
#    0.000    2.000    1.429    1.714    2.000    2.857 
#    2.571    8.571    0.000    0.000    0.000    0.000 
#    0.000    0.000    0.000    0.000    0.000    0.000 
#
# Total GULP energy -311798.070070 kJ/mol
# GULP energy per Si atom -5567.822680 kJ/mol
# Density = 2.200676 g / cm^3
# Si number density = 22.056959 Si / 1000 Ang^3
#
#
#
# Elastic Constant Matrix: (Units=GPa)
#
#
# Indices 1 2 3 4 5 6 
#
# 1 86.9038 8.6291 -4.3408 0.0000 0.0000 0.0000
# 2 8.6291 111.6774 9.5271 0.0000 0.0000 0.0000
# 3 -4.3408 9.5271 79.7486 0.0000 0.0000 0.0000
# 4 0.0000 0.0000 0.0000 18.2090 0.0000 0.0000
# 5 0.0000 0.0000 0.0000 0.0000 26.0597 0.0000
# 6 0.0000 0.0000 0.0000 0.0000 0.0000 15.4971
#
#
#
# Elastic Compliance Matrix: (Units=1/GPa)
#
#
# Indices 1 2 3 4 5 6 
#
# 1 0.011640 -0.000963 0.000749 0.000000 0.000000 0.000000
# 2 -0.000963 0.009126 -0.001143 0.000000 0.000000 0.000000
# 3 0.000749 -0.001143 0.012717 0.000000 0.000000 0.000000
# 4 0.000000 0.000000 0.000000 0.054918 0.000000 0.000000
# 5 0.000000 0.000000 0.000000 0.000000 0.038373 0.000000
# 6 0.000000 0.000000 0.000000 0.000000 0.000000 0.064528
#
#
# Mechanical properties :
#
#
# Convention : Reuss Voigt Hill
#
# Bulk Modulus (GPa) = 32.50096 33.99564 33.24830
# Shear Modulus (GPa) = 24.47706 29.58747 27.03226
#
# Velocity S-wave (km/s) = 3.33486 3.66650 3.50461
# Velocity P-wave (km/s) = 5.44016 5.77672 5.61096
#
# Compressibility (1/GPa) = 0.03076833
#
# Stress axis : x y z
#
# Youngs Moduli (GPa) = 85.91054 109.57367 78.63697
#
# Poissons Ratio (x) = 0.10555 -0.05887
# Poissons Ratio (y) = 0.08276 0.08986
# Poissons Ratio (z) = -0.06432 0.12521
#
# Static dielectric constant tensor:
#      x y z
#    x 1.868290 0.000000 0.000000 
#    y 0.000000 1.853650 0.000000 
#    z 0.000000 0.000000 1.832180 
# 
# From -- ./inp_files/17773.got.cif
#   From: 2010.05.17/outbox.cif.g08.bks.cpg/sg57_9_cif.got.tgz:17773.got - 2010.06.03 13:58:18.
