data_PCOD9436059
_publ_section_title
;
Structure prediction by ZEFSAII (Michael W. Deem and Ramdas Pophale) SiO2 
 PCOD9436059
Probable space group: P B C M
;
_chemical_formula_sum "Si O2"
_cell_formula_units_Z 48
_cell_length_a 15.941629
_cell_length_b 8.144539
_cell_length_c 15.969226
_cell_angle_alpha 90.000000
_cell_angle_beta 90.000000
_cell_angle_gamma 90.000000
_cell_volume 2073.399895
_symmetry_space_group_name_H-M "P B C M"
_symmetry_group_IT_number 57
_symmetry_cell_setting 'orthorhombic'
loop_
_space_group_symop_operation_xyz
x,y,z
-x,-y,1/2+z
x,1/2-y,-z
-x,1/2+y,1/2-z
-x,-y,-z
x,y,1/2-z
-x,1/2+y,z
x,1/2-y,1/2+z
loop_
_atom_site_type_symbol
_atom_site_label
_atom_site_fract_x
_atom_site_fract_y
_atom_site_fract_z
Si Si1 0.378445 0.188199 0.906118
Si Si2 0.454470 0.823828 0.594434
Si Si3 0.885575 0.211825 0.401886
Si Si4 0.220816 0.151248 0.348840
Si Si5 0.044827 0.056991 0.346859
Si Si6 0.712950 0.302086 0.097265
O O1 0.452795 0.302444 0.868438
O O2 0.288578 0.206275 0.862426
O O3 0.419351 0.008026 0.908143
O O4 0.361636 0.250000 0.000000
O O5 0.465052 0.750000 0.500000
O O6 0.378332 0.724098 0.636221
O O7 0.877813 0.250000 0.500000
O O8 0.922920 0.372354 0.357218
O O9 0.790615 0.193099 0.369342
O O10 0.956217 0.076259 0.391698
O O11 0.215974 0.114711 0.250000
O O12 0.123888 0.167922 0.377495
O O13 0.258254 0.989545 0.393868
O O14 0.029651 0.095687 0.250000
O O15 0.702966 0.250000 0.000000
#
# Coordination Sequence:
#
# PCOD9436059 Si02
#       6
#     8   8   8   8   8   8
#     4  11  20  34  59  84 111 149 189 229 274 336
#     4  10  19  34  57  85 113 143 187 232 275 333
#     4  10  20  34  56  83 112 146 190 242 284 332
#     4  10  22  39  56  81 119 156 190 238 297 348
#     4  10  21  37  56  79 113 153 189 231 291 352
#     4   9  18  36  59  84 114 151 195 238 286 345
#
# _framework density 23.150380999999999
#
# number of rings (size 3 to 8) (size 9 to 14) (size 15 to 20)
#    0.000    2.000    0.000    6.000    0.000    2.667 
#    0.000    4.167    0.000    0.000    0.000    0.000 
#    0.000    0.000    0.000    0.000    0.000    0.000 
#
# Total GULP energy -267839.936682 kJ/mol
# GULP energy per Si atom -5579.998681 kJ/mol
# Density = 2.309769 g / cm^3
# Si number density = 23.150381 Si / 1000 Ang^3
#
#
#
# Elastic Constant Matrix: (Units=GPa)
#
#
# Indices 1 2 3 4 5 6 
#
# 1 96.2690 -0.9960 7.2708 0.0000 0.0000 0.0000
# 2 -0.9960 65.8451 -1.3531 0.0000 0.0000 0.0000
# 3 7.2708 -1.3531 31.4213 0.0000 0.0000 0.0000
# 4 0.0000 0.0000 0.0000 19.7340 0.0000 0.0000
# 5 0.0000 0.0000 0.0000 0.0000 -11.0266 0.0000
# 6 0.0000 0.0000 0.0000 0.0000 0.0000 39.4179
#
#
#
# Elastic Compliance Matrix: (Units=1/GPa)
#
#
# Indices 1 2 3 4 5 6 
#
# 1 0.010573 0.000110 -0.002442 0.000000 0.000000 0.000000
# 2 0.000110 0.015202 0.000629 0.000000 0.000000 0.000000
# 3 -0.002442 0.000629 0.032418 0.000000 0.000000 0.000000
# 4 0.000000 0.000000 0.000000 0.050674 0.000000 0.000000
# 5 0.000000 0.000000 0.000000 0.000000 -0.090690 0.000000
# 6 0.000000 0.000000 0.000000 0.000000 0.000000 0.025369
#
#
# Mechanical properties :
#
#
# Convention : Reuss Voigt Hill
#
# Bulk Modulus (GPa) = 18.25257 22.59764 20.42511
# Shear Modulus (GPa) = 76.67096 22.19932 49.43514
#
# Velocity S-wave (km/s) = 5.76112 3.10000 4.62604
# Velocity P-wave (km/s) = 7.22188 4.75350 6.11356
#
# Compressibility (1/GPa) = 0.05478680
#
# Stress axis : x y z
#
# Youngs Moduli (GPa) = 94.57948 65.78189 30.84739
#
# Poissons Ratio (x) = -0.00722 0.07533
# Poissons Ratio (y) = -0.01038 -0.01941
# Poissons Ratio (z) = 0.23095 -0.04139
#
# Static dielectric constant tensor:
#      x y z
#    x 1.980350 0.000000 0.000000 
#    y 0.000000 1.916910 0.000000 
#    z 0.000000 0.000000 1.817890 
# 
# From -- ./inp_files/25261.got.cif
#   From: 2010.05.17/outbox.cif.g08.bks.cpg/sg57_13_cif.got.tgz:25261.got - 2010.06.03 13:58:18.
