data_PCOD9436819
_publ_section_title
;
Structure prediction by ZEFSAII (Michael W. Deem and Ramdas Pophale) SiO2 
 PCOD9436819
Probable space group: P B C M
;
_chemical_formula_sum "Si O2"
_cell_formula_units_Z 64
_cell_length_a 15.857545
_cell_length_b 23.647913
_cell_length_c 8.969141
_cell_angle_alpha 90.000000
_cell_angle_beta 90.000000
_cell_angle_gamma 90.000000
_cell_volume 3363.408542
_symmetry_space_group_name_H-M "P B C M"
_symmetry_group_IT_number 57
_symmetry_cell_setting 'orthorhombic'
loop_
_space_group_symop_operation_xyz
x,y,z
-x,-y,1/2+z
x,1/2-y,-z
-x,1/2+y,1/2-z
-x,-y,-z
x,y,1/2-z
-x,1/2+y,z
x,1/2-y,1/2+z
loop_
_atom_site_type_symbol
_atom_site_label
_atom_site_fract_x
_atom_site_fract_y
_atom_site_fract_z
Si Si1 0.896800 0.032205 0.576917
Si Si2 0.670240 0.193983 0.076988
Si Si3 0.524686 0.809601 0.929700
Si Si4 0.408788 0.494214 0.924298
Si Si5 0.833243 0.813709 0.069783
Si Si6 0.952086 0.907401 0.571295
Si Si7 0.335202 0.386984 0.071280
Si Si8 0.279095 0.908793 0.083606
O O1 0.925935 0.034946 0.750000
O O2 0.800870 0.050999 0.571466
O O3 0.954260 0.075364 0.482981
O O4 0.904771 0.966604 0.530387
O O5 0.666677 0.204297 0.250000
O O6 0.573400 0.182828 0.027746
O O7 0.702552 0.250000 0.000000
O O8 0.723952 0.140109 0.035701
O O9 0.532318 0.809613 0.750000
O O10 0.551615 0.750000 0.000000
O O11 0.583806 0.855699 0.003197
O O12 0.418620 0.478662 0.750000
O O13 0.362544 0.554221 0.933214
O O14 0.500000 0.500000 0.000000
O O15 0.346372 0.449237 0.002461
O O16 0.838458 0.809051 0.250000
O O17 0.747874 0.849821 0.032756
O O18 0.831754 0.750000 0.000000
O O19 0.909071 0.853369 0.007087
O O20 0.948536 0.899856 0.750000
O O21 0.339493 0.390093 0.250000
O O22 0.279235 0.883232 0.250000
#
# Coordination Sequence:
#
# PCOD9436819 Si02
#       8
#     8   8   8   8   8   8   8   8
#     4   9  19  37  61  88 116 147 184 229 282 339
#     4  10  21  36  55  78 105 139 179 224 272 322
#     4  10  20  34  53  76 104 142 187 234 281 328
#     4  11  23  38  57  83 118 158 197 241 293 344
#     4  11  24  40  59  85 119 158 198 243 295 354
#     4  10  20  37  62  89 116 147 185 230 283 342
#     4  11  23  37  55  81 113 151 195 240 287 341
#     4  10  21  37  57  81 111 146 183 225 274 329
#
# _framework density 19.028317000000001
#
# number of rings (size 3 to 8) (size 9 to 14) (size 15 to 20)
#    0.000    1.750    0.000    4.125    0.000    9.500 
#    0.000    0.625    0.000    3.000    0.000    0.000 
#    0.000    0.000    0.000    0.000    0.000    0.000 
#
# Total GULP energy -357175.170266 kJ/mol
# GULP energy per Si atom -5580.862035 kJ/mol
# Density = 1.898501 g / cm^3
# Si number density = 19.028317 Si / 1000 Ang^3
#
#
#
# Elastic Constant Matrix: (Units=GPa)
#
#
# Indices 1 2 3 4 5 6 
#
# 1 52.7304 23.0304 27.3954 0.0000 0.0000 0.0000
# 2 23.0304 92.1218 42.4043 0.0000 0.0000 0.0000
# 3 27.3954 42.4043 65.9019 0.0000 0.0000 0.0000
# 4 0.0000 0.0000 0.0000 34.7589 0.0000 0.0000
# 5 0.0000 0.0000 0.0000 0.0000 23.5974 0.0000
# 6 0.0000 0.0000 0.0000 0.0000 0.0000 25.4253
#
#
#
# Elastic Compliance Matrix: (Units=1/GPa)
#
#
# Indices 1 2 3 4 5 6 
#
# 1 0.024455 -0.002038 -0.008855 0.000000 0.000000 0.000000
# 2 -0.002038 0.015593 -0.009186 0.000000 0.000000 0.000000
# 3 -0.008855 -0.009186 0.024766 0.000000 0.000000 0.000000
# 4 0.000000 0.000000 0.000000 0.028770 0.000000 0.000000
# 5 0.000000 0.000000 0.000000 0.000000 0.042378 0.000000
# 6 0.000000 0.000000 0.000000 0.000000 0.000000 0.039331
#
#
# Mechanical properties :
#
#
# Convention : Reuss Voigt Hill
#
# Bulk Modulus (GPa) = 40.55750 44.04603 42.30176
# Shear Modulus (GPa) = 22.35459 24.61791 23.48625
#
# Velocity S-wave (km/s) = 3.43126 3.60078 3.51704
# Velocity P-wave (km/s) = 6.08758 6.36281 6.22672
#
# Compressibility (1/GPa) = 0.02465635
#
# Stress axis : x y z
#
# Youngs Moduli (GPa) = 40.89190 64.13081 40.37833
#
# Poissons Ratio (x) = 0.13069 0.35753
# Poissons Ratio (y) = 0.08333 0.37092
# Poissons Ratio (z) = 0.36208 0.58912
#
# Static dielectric constant tensor:
#      x y z
#    x 1.655370 0.000000 0.000000 
#    y 0.000000 1.800920 0.000000 
#    z 0.000000 0.000000 1.653300 
# 
# From -- ./inp_files/5628.got.cif
#   From: 2010.05.17/outbox.cif.g08.bks.cpg/sg57_3_cif.got.tgz:5628.got - 2010.06.03 13:58:18.
