data_PCOD9436869
_publ_section_title
;
Structure prediction by ZEFSAII (Michael W. Deem and Ramdas Pophale) SiO2 
 PCOD9436869
Probable space group: P B C M
;
_chemical_formula_sum "Si O2"
_cell_formula_units_Z 56
_cell_length_a 11.616563
_cell_length_b 12.140786
_cell_length_c 19.567638
_cell_angle_alpha 90.000000
_cell_angle_beta 90.000000
_cell_angle_gamma 90.000000
_cell_volume 2759.706278
_symmetry_space_group_name_H-M "P B C M"
_symmetry_group_IT_number 57
_symmetry_cell_setting 'orthorhombic'
loop_
_space_group_symop_operation_xyz
x,y,z
-x,-y,1/2+z
x,1/2-y,-z
-x,1/2+y,1/2-z
-x,-y,-z
x,y,1/2-z
-x,1/2+y,z
x,1/2-y,1/2+z
loop_
_atom_site_type_symbol
_atom_site_label
_atom_site_fract_x
_atom_site_fract_y
_atom_site_fract_z
Si Si1 0.674917 0.327007 0.930703
Si Si2 0.410265 0.180521 0.430180
Si Si3 0.050425 0.454081 0.174290
Si Si4 0.773591 0.736829 0.829847
Si Si5 0.956216 0.638947 0.420882
Si Si6 0.865350 0.184638 0.888475
Si Si7 0.772176 0.511318 0.482854
O O1 0.542253 0.340599 0.911149
O O2 0.754823 0.262209 0.876891
O O3 0.677388 0.250000 0.000000
O O4 0.728741 0.444191 0.951908
O O5 0.408395 0.250000 0.500000
O O6 0.342725 0.248305 0.372368
O O7 0.336556 0.071737 0.448271
O O8 0.053700 0.505169 0.250000
O O9 0.026686 0.540951 0.114852
O O10 0.943012 0.368129 0.170564
O O11 0.164678 0.381512 0.163952
O O12 0.758589 0.760765 0.750000
O O13 0.862522 0.821301 0.865227
O O14 0.878067 0.598712 0.484674
O O15 0.045743 0.737192 0.428942
O O16 0.821788 0.082180 0.932800
#
# Coordination Sequence:
#
# PCOD9436869 Si02
#       7
#     8   8   8   8   8   8   8
#     4   9  18  33  51  73 104 141 179 222 268 321
#     4  10  20  34  54  79 106 143 190 231 272 323
#     4   9  17  31  51  74 102 137 175 217 269 327
#     4   9  18  33  52  75 104 137 177 223 270 322
#     4   9  17  30  51  78 104 134 175 221 272 331
#     4   9  18  32  49  75 105 135 173 219 271 324
#     4   9  18  33  52  74 105 142 176 219 274 326
#
# _framework density 20.292014999999999
#
# number of rings (size 3 to 8) (size 9 to 14) (size 15 to 20)
#    0.000    2.857    0.000    0.857    0.000    2.286 
#    0.000   22.857    0.000    0.000    0.000   16.000 
#    0.000    0.000    0.000    0.000    0.000    0.000 
#
# Total GULP energy -312387.605597 kJ/mol
# GULP energy per Si atom -5578.350100 kJ/mol
# Density = 2.024583 g / cm^3
# Si number density = 20.292015 Si / 1000 Ang^3
#
#
#
# Elastic Constant Matrix: (Units=GPa)
#
#
# Indices 1 2 3 4 5 6 
#
# 1 138.5606 38.9096 28.0804 0.0000 0.0000 0.0000
# 2 38.9096 57.7401 7.7413 0.0000 0.0000 0.0000
# 3 28.0804 7.7413 64.5383 0.0000 0.0000 0.0000
# 4 0.0000 0.0000 0.0000 8.4273 0.0000 0.0000
# 5 0.0000 0.0000 0.0000 0.0000 3.8590 0.0000
# 6 0.0000 0.0000 0.0000 0.0000 0.0000 18.0331
#
#
#
# Elastic Compliance Matrix: (Units=1/GPa)
#
#
# Indices 1 2 3 4 5 6 
#
# 1 0.009605 -0.006009 -0.003458 0.000000 0.000000 0.000000
# 2 -0.006009 0.021361 0.000052 0.000000 0.000000 0.000000
# 3 -0.003458 0.000052 0.016993 0.000000 0.000000 0.000000
# 4 0.000000 0.000000 0.000000 0.118661 0.000000 0.000000
# 5 0.000000 0.000000 0.000000 0.000000 0.259134 0.000000
# 6 0.000000 0.000000 0.000000 0.000000 0.000000 0.055453
#
#
# Mechanical properties :
#
#
# Convention : Reuss Voigt Hill
#
# Bulk Modulus (GPa) = 34.32972 45.58908 39.95940
# Shear Modulus (GPa) = 9.80874 18.47107 14.13991
#
# Velocity S-wave (km/s) = 2.20097 3.02033 2.64260
# Velocity P-wave (km/s) = 4.83876 5.88884 5.38944
#
# Compressibility (1/GPa) = 0.02912928
#
# Stress axis : x y z
#
# Youngs Moduli (GPa) = 104.10806 46.81341 58.84713
#
# Poissons Ratio (x) = 0.28131 0.20352
# Poissons Ratio (y) = 0.62560 -0.00308
# Poissons Ratio (z) = 0.36006 -0.00245
#
# Static dielectric constant tensor:
#      x y z
#    x 1.730600 0.000000 0.000000 
#    y 0.000000 1.775140 0.000000 
#    z 0.000000 0.000000 1.702620 
# 
# From -- ./inp_files/27210.got.cif
#   From: 2010.05.17/outbox.cif.g08.bks.cpg/sg57_14_cif.got.tgz:27210.got - 2010.06.03 13:58:18.
