data_PCOD9436432
_publ_section_title
;
Structure prediction by ZEFSAII (Michael W. Deem and Ramdas Pophale) SiO2 
 PCOD9436432
Probable space group: P B C M
;
_chemical_formula_sum "Si O2"
_cell_formula_units_Z 56
_cell_length_a 5.338974
_cell_length_b 31.368157
_cell_length_c 15.461378
_cell_angle_alpha 90.000000
_cell_angle_beta 90.000000
_cell_angle_gamma 90.000000
_cell_volume 2589.375335
_symmetry_space_group_name_H-M "P B C M"
_symmetry_group_IT_number 57
_symmetry_cell_setting 'orthorhombic'
loop_
_space_group_symop_operation_xyz
x,y,z
-x,-y,1/2+z
x,1/2-y,-z
-x,1/2+y,1/2-z
-x,-y,-z
x,y,1/2-z
-x,1/2+y,z
x,1/2-y,1/2+z
loop_
_atom_site_type_symbol
_atom_site_label
_atom_site_fract_x
_atom_site_fract_y
_atom_site_fract_z
Si Si1 0.946895 0.630210 0.852442
Si Si2 0.745296 0.134985 0.250000
Si Si3 0.721117 0.961878 0.410161
Si Si4 0.332136 0.910114 0.466860
Si Si5 0.952090 0.800843 0.002324
Si Si6 0.468465 0.664096 0.429511
Si Si7 0.023653 0.040666 0.090866
Si Si8 0.257937 0.415088 0.750000
O O1 0.934729 0.637976 0.750000
O O2 0.812296 0.584309 0.873812
O O3 0.219515 0.618295 0.890365
O O4 0.877556 0.671905 0.910565
O O5 0.650871 0.158885 0.164595
O O6 0.551545 0.095287 0.250000
O O7 0.039158 0.122235 0.250000
O O8 0.428641 0.952542 0.419534
O O9 0.803566 0.970054 0.509100
O O10 0.848918 0.003120 0.369839
O O11 0.519861 0.880866 0.521459
O O12 0.145405 0.923504 0.543593
O O13 0.737538 0.814006 0.933507
O O14 0.237741 0.813996 0.980455
O O15 0.944253 0.750000 0.000000
O O16 0.192298 0.058850 0.165422
#
# Coordination Sequence:
#
# PCOD9436432 Si02
#       8
#     8   4   8   8   8   8   8   4
#     4  10  23  40  60  93 121 165 217 267 323 392
#     4  12  24  40  68  96 134 165 225 266 316 386
#     4  10  20  39  61  83 123 172 223 266 324 381
#     4  10  19  38  63  83 122 172 216 265 320 387
#     4  11  24  46  72  95 133 166 209 266 338 400
#     4  11  22  42  69  99 126 172 211 259 328 395
#     4  10  22  35  56  89 126 172 222 271 320 372
#     4  12  24  38  58  96 132 173 215 276 318 370
#
# _framework density 21.626836000000001
#
# number of rings (size 3 to 8) (size 9 to 14) (size 15 to 20)
#    0.000    1.429    2.857    2.571    3.000    0.571 
#    2.571    0.000    0.000    0.000    0.000    0.000 
#    0.000    0.000    0.000    0.000    0.000    0.000 
#
# Total GULP energy -311773.322729 kJ/mol
# GULP energy per Si atom -5567.380763 kJ/mol
# Density = 2.157761 g / cm^3
# Si number density = 21.626836 Si / 1000 Ang^3
#
#
#
# Elastic Constant Matrix: (Units=GPa)
#
#
# Indices 1 2 3 4 5 6 
#
# 1 37.5294 8.0025 -14.7692 0.0000 0.0000 0.0000
# 2 8.0025 95.6795 32.0843 0.0000 0.0000 0.0000
# 3 -14.7692 32.0843 92.6003 0.0000 0.0000 0.0000
# 4 0.0000 0.0000 0.0000 15.0751 0.0000 0.0000
# 5 0.0000 0.0000 0.0000 0.0000 30.4347 0.0000
# 6 0.0000 0.0000 0.0000 0.0000 0.0000 34.3503
#
#
#
# Elastic Compliance Matrix: (Units=1/GPa)
#
#
# Indices 1 2 3 4 5 6 
#
# 1 0.030177 -0.004682 0.006435 0.000000 0.000000 0.000000
# 2 -0.004682 0.012552 -0.005096 0.000000 0.000000 0.000000
# 3 0.006435 -0.005096 0.013591 0.000000 0.000000 0.000000
# 4 0.000000 0.000000 0.000000 0.066335 0.000000 0.000000
# 5 0.000000 0.000000 0.000000 0.000000 0.032857 0.000000
# 6 0.000000 0.000000 0.000000 0.000000 0.000000 0.029112
#
#
# Mechanical properties :
#
#
# Convention : Reuss Voigt Hill
#
# Bulk Modulus (GPa) = 20.14720 30.71605 25.43162
# Shear Modulus (GPa) = 24.05547 29.33811 26.69679
#
# Velocity S-wave (km/s) = 3.33873 3.68715 3.51726
# Velocity P-wave (km/s) = 4.91924 5.68861 5.31786
#
# Compressibility (1/GPa) = 0.04963470
#
# Stress axis : x y z
#
# Youngs Moduli (GPa) = 33.13831 79.66926 73.57784
#
# Poissons Ratio (x) = 0.37300 -0.47348
# Poissons Ratio (y) = 0.15515 0.37493
# Poissons Ratio (z) = -0.21325 0.40597
#
# Static dielectric constant tensor:
#      x y z
#    x 1.955430 0.000000 0.000000 
#    y 0.000000 1.916510 0.000000 
#    z 0.000000 0.000000 1.791620 
# 
# From -- ./inp_files/15317.got.cif
#   From: 2010.05.17/outbox.cif.g08.bks.cpg/sg57_8_cif.got.tgz:15317.got - 2010.06.03 13:58:18.
