data_PCOD9436890
_publ_section_title
;
Structure prediction by ZEFSAII (Michael W. Deem and Ramdas Pophale) SiO2 
 PCOD9436890
Probable space group: P B C M
;
_chemical_formula_sum "Si O2"
_cell_formula_units_Z 60
_cell_length_a 23.848742
_cell_length_b 4.942654
_cell_length_c 23.944970
_cell_angle_alpha 90.000000
_cell_angle_beta 90.000000
_cell_angle_gamma 90.000000
_cell_volume 2822.539200
_symmetry_space_group_name_H-M "P B C M"
_symmetry_group_IT_number 57
_symmetry_cell_setting 'orthorhombic'
loop_
_space_group_symop_operation_xyz
x,y,z
-x,-y,1/2+z
x,1/2-y,-z
-x,1/2+y,1/2-z
-x,-y,-z
x,y,1/2-z
-x,1/2+y,z
x,1/2-y,1/2+z
loop_
_atom_site_type_symbol
_atom_site_label
_atom_site_fract_x
_atom_site_fract_y
_atom_site_fract_z
Si Si1 0.535565 0.898562 0.182970
Si Si2 0.325379 0.691313 0.436762
Si Si3 0.111923 0.999928 0.536870
Si Si4 0.963027 0.737107 0.867320
Si Si5 0.960316 0.901602 0.250000
Si Si6 0.206146 0.759338 0.114054
Si Si7 0.350316 0.319435 0.868535
Si Si8 0.231003 0.253850 0.685052
O O1 0.541001 0.890260 0.250000
O O2 0.485582 0.694204 0.166828
O O3 0.593840 0.798236 0.158269
O O4 0.341010 0.750000 0.500000
O O5 0.260859 0.772967 0.425247
O O6 0.332983 0.382092 0.418806
O O7 0.358323 0.883583 0.393730
O O8 0.135688 0.250000 0.500000
O O9 0.068283 0.145910 0.577592
O O10 0.088263 0.750000 0.500000
O O11 0.157029 0.854829 0.576237
O O12 0.931667 0.662691 0.809097
O O13 0.018852 0.548326 0.866282
O O14 0.014756 0.702014 0.250000
O O15 0.220124 0.547681 0.163271
O O16 0.197145 0.045029 0.144129
O O17 0.296956 0.318135 0.826813
O O18 0.218119 0.287910 0.750000
#
# Coordination Sequence:
#
# PCOD9436890 Si02
#       8
#     8   8   8   8   4   8   8   8
#     4  10  20  34  54  80 110 143 179 220 276 342
#     4  10  20  35  57  80 104 145 191 235 272 328
#     4  12  25  40  61  86 122 157 194 241 289 345
#     4  10  21  39  62  87 116 150 197 239 289 340
#     4   8  16  34  58  80 108 144 184 236 274 328
#     4  10  22  38  57  84 117 150 192 228 290 342
#     4  10  20  34  56  82 110 143 184 234 280 330
#     4  10  20  37  59  85 118 148 185 236 288 348
#
# _framework density 21.257453999999999
#
# number of rings (size 3 to 8) (size 9 to 14) (size 15 to 20)
#    0.000    1.867    0.000    4.000    0.000    3.733 
#    2.400    4.000    2.933    8.000    0.000    0.000 
#    0.000    0.000    0.000    0.000    0.000    0.000 
#
# Total GULP energy -335305.613903 kJ/mol
# GULP energy per Si atom -5588.426898 kJ/mol
# Density = 2.120907 g / cm^3
# Si number density = 21.257454 Si / 1000 Ang^3
#
#
#
# Elastic Constant Matrix: (Units=GPa)
#
#
# Indices 1 2 3 4 5 6 
#
# 1 23.8612 -4.7204 19.4095 0.0000 0.0000 0.0000
# 2 -4.7204 70.6614 1.6904 0.0000 0.0000 0.0000
# 3 19.4095 1.6904 77.4590 0.0000 0.0000 0.0000
# 4 0.0000 0.0000 0.0000 9.9902 0.0000 0.0000
# 5 0.0000 0.0000 0.0000 0.0000 14.6272 0.0000
# 6 0.0000 0.0000 0.0000 0.0000 0.0000 22.3419
#
#
#
# Elastic Compliance Matrix: (Units=1/GPa)
#
#
# Indices 1 2 3 4 5 6 
#
# 1 0.053697 0.003911 -0.013541 0.000000 0.000000 0.000000
# 2 0.003911 0.014444 -0.001295 0.000000 0.000000 0.000000
# 3 -0.013541 -0.001295 0.016331 0.000000 0.000000 0.000000
# 4 0.000000 0.000000 0.000000 0.100098 0.000000 0.000000
# 5 0.000000 0.000000 0.000000 0.000000 0.068366 0.000000
# 6 0.000000 0.000000 0.000000 0.000000 0.000000 0.044759
#
#
# Mechanical properties :
#
#
# Convention : Reuss Voigt Hill
#
# Bulk Modulus (GPa) = 15.96855 22.74895 19.35875
# Shear Modulus (GPa) = 14.68774 19.76533 17.22654
#
# Velocity S-wave (km/s) = 2.63144 3.05258 2.84980
# Velocity P-wave (km/s) = 4.09401 4.81136 4.46711
#
# Compressibility (1/GPa) = 0.06262307
#
# Stress axis : x y z
#
# Youngs Moduli (GPa) = 18.62293 69.23166 61.23201
#
# Poissons Ratio (x) = -0.27077 0.82912
# Poissons Ratio (y) = -0.07284 0.07931
# Poissons Ratio (z) = 0.25217 0.08967
#
# Static dielectric constant tensor:
#      x y z
#    x 1.763650 0.000000 0.000000 
#    y 0.000000 1.746110 0.000000 
#    z 0.000000 0.000000 1.770800 
# 
# From -- ./inp_files/25878.got.cif
#   From: 2010.05.17/outbox.cif.g08.bks.cpg/sg57_13_cif.got.tgz:25878.got - 2010.06.03 13:58:18.
