data_PCOD9436882
_publ_section_title
;
Structure prediction by ZEFSAII (Michael W. Deem and Ramdas Pophale) SiO2 
 PCOD9436882
Probable space group: P B C M
;
_chemical_formula_sum "Si O2"
_cell_formula_units_Z 40
_cell_length_a 5.063443
_cell_length_b 18.836502
_cell_length_c 19.239639
_cell_angle_alpha 90.000000
_cell_angle_beta 90.000000
_cell_angle_gamma 90.000000
_cell_volume 1835.029711
_symmetry_space_group_name_H-M "P B C M"
_symmetry_group_IT_number 57
_symmetry_cell_setting 'orthorhombic'
loop_
_space_group_symop_operation_xyz
x,y,z
-x,-y,1/2+z
x,1/2-y,-z
-x,1/2+y,1/2-z
-x,-y,-z
x,y,1/2-z
-x,1/2+y,z
x,1/2-y,1/2+z
loop_
_atom_site_type_symbol
_atom_site_label
_atom_site_fract_x
_atom_site_fract_y
_atom_site_fract_z
Si Si1 0.892605 0.054840 0.100705
Si Si2 0.809166 0.804359 0.602714
Si Si3 0.120137 0.940792 0.750000
Si Si4 0.283319 0.552681 0.952899
Si Si5 0.608910 0.850459 0.750000
Si Si6 0.240828 0.350964 0.049359
O O1 0.945251 0.139687 0.106210
O O2 0.811938 0.025277 0.175928
O O3 0.173426 0.017519 0.084417
O O4 0.700880 0.037786 0.036381
O O5 0.668934 0.813242 0.676757
O O6 0.837060 0.720739 0.589423
O O7 0.678247 0.829631 0.529858
O O8 0.306012 0.872002 0.750000
O O9 0.812993 0.917726 0.750000
O O10 0.518184 0.600909 0.924126
O O11 0.021224 0.602217 0.951749
#
# Coordination Sequence:
#
# PCOD9436882 Si02
#       6
#     8   8   4   8   4   8
#     4   9  20  37  58  81 108 143 183 223 265 319
#     4   9  20  36  57  80 108 142 182 223 266 319
#     4  10  20  34  54  80 106 136 179 222 261 308
#     4  10  21  36  56  81 110 141 178 223 272 319
#     4  10  20  34  54  80 106 138 179 222 261 310
#     4  10  21  36  55  81 110 141 177 223 273 319
#
# _framework density 21.798013000000001
#
# number of rings (size 3 to 8) (size 9 to 14) (size 15 to 20)
#    0.000    2.400    0.000    1.200    0.000   20.000 
#    0.000    2.000    0.000    0.000    0.000    0.000 
#    0.000    0.000    0.000    0.000    0.000    0.000 
#
# Total GULP energy -222898.217660 kJ/mol
# GULP energy per Si atom -5572.455441 kJ/mol
# Density = 2.174840 g / cm^3
# Si number density = 21.798013 Si / 1000 Ang^3
#
#
#
# Elastic Constant Matrix: (Units=GPa)
#
#
# Indices 1 2 3 4 5 6 
#
# 1 42.5069 6.2049 4.6416 0.0000 0.0000 0.0000
# 2 6.2049 97.0729 14.1453 0.0000 0.0000 0.0000
# 3 4.6416 14.1453 139.1430 0.0000 0.0000 0.0000
# 4 0.0000 0.0000 0.0000 25.6334 0.0000 0.0000
# 5 0.0000 0.0000 0.0000 0.0000 24.6345 0.0000
# 6 0.0000 0.0000 0.0000 0.0000 0.0000 14.9658
#
#
#
# Elastic Compliance Matrix: (Units=1/GPa)
#
#
# Indices 1 2 3 4 5 6 
#
# 1 0.023805 -0.001427 -0.000649 0.000000 0.000000 0.000000
# 2 -0.001427 0.010542 -0.001024 0.000000 0.000000 0.000000
# 3 -0.000649 -0.001024 0.007313 0.000000 0.000000 0.000000
# 4 0.000000 0.000000 0.000000 0.039012 0.000000 0.000000
# 5 0.000000 0.000000 0.000000 0.000000 0.040593 0.000000
# 6 0.000000 0.000000 0.000000 0.000000 0.000000 0.066819
#
#
# Mechanical properties :
#
#
# Convention : Reuss Voigt Hill
#
# Bulk Modulus (GPa) = 28.20154 36.52294 32.36224
# Shear Modulus (GPa) = 24.25966 29.96214 27.11090
#
# Velocity S-wave (km/s) = 3.33968 3.71150 3.53049
# Velocity P-wave (km/s) = 5.27608 5.92946 5.61229
#
# Compressibility (1/GPa) = 0.03545906
#
# Stress axis : x y z
#
# Youngs Moduli (GPa) = 42.00842 94.85886 136.75001
#
# Poissons Ratio (x) = 0.13537 0.08875
# Poissons Ratio (y) = 0.05995 0.14005
# Poissons Ratio (z) = 0.02726 0.09714
#
# Static dielectric constant tensor:
#      x y z
#    x 1.824830 0.000000 0.000000 
#    y 0.000000 1.798030 0.000000 
#    z 0.000000 0.000000 1.858890 
# 
# From -- ./inp_files/20020.got.cif
#   From: 2010.05.17/outbox.cif.g08.bks.cpg/sg57_11_cif.got.tgz:20020.got - 2010.06.03 13:58:18.
