data_PCOD9436826
_publ_section_title
;
Structure prediction by ZEFSAII (Michael W. Deem and Ramdas Pophale) SiO2 
 PCOD9436826
Probable space group: P B C M
;
_chemical_formula_sum "Si O2"
_cell_formula_units_Z 40
_cell_length_a 18.344073
_cell_length_b 11.364623
_cell_length_c 8.620233
_cell_angle_alpha 90.000000
_cell_angle_beta 90.000000
_cell_angle_gamma 90.000000
_cell_volume 1797.089920
_symmetry_space_group_name_H-M "P B C M"
_symmetry_group_IT_number 57
_symmetry_cell_setting 'orthorhombic'
loop_
_space_group_symop_operation_xyz
x,y,z
-x,-y,1/2+z
x,1/2-y,-z
-x,1/2+y,1/2-z
-x,-y,-z
x,y,1/2-z
-x,1/2+y,z
x,1/2-y,1/2+z
loop_
_atom_site_type_symbol
_atom_site_label
_atom_site_fract_x
_atom_site_fract_y
_atom_site_fract_z
Si Si1 0.570783 0.364967 0.574618
Si Si2 0.965246 0.122470 0.937256
Si Si3 0.599048 0.603057 0.418912
Si Si4 0.200147 0.875014 0.937717
Si Si5 0.742422 0.629445 0.572480
O O1 0.603317 0.250000 0.500000
O O2 0.596626 0.390038 0.750000
O O3 0.585989 0.467022 0.454419
O O4 0.483092 0.350106 0.584043
O O5 0.968543 0.123917 0.750000
O O6 0.995142 0.250000 0.000000
O O7 0.882086 0.118878 0.997816
O O8 0.000000 0.000000 0.000000
O O9 0.633278 0.622628 0.250000
O O10 0.654917 0.639372 0.551730
O O11 0.200682 0.870499 0.750000
O O12 0.237278 0.998859 0.988995
O O13 0.230217 0.750000 0.000000
O O14 0.773326 0.750000 0.500000
O O15 0.764051 0.629308 0.750000
#
# Coordination Sequence:
#
# PCOD9436826 Si02
#       5
#     8   8   8   8   8
#     4  10  20  34  53  77 105 139 182 233 290 352
#     4  11  22  39  64  94 128 165 204 248 297 350
#     4  10  21  36  55  78 107 143 184 234 291 350
#     4  10  22  41  63  89 121 159 202 247 296 350
#     4  11  24  40  60  86 118 155 198 246 296 354
#
# _framework density 22.258206000000001
#
# number of rings (size 3 to 8) (size 9 to 14) (size 15 to 20)
#    0.000    1.600    0.000    6.000    0.000    8.800 
#    0.000    4.000    0.000    0.000    0.000    0.000 
#    0.000    0.000    0.000    0.000    0.000    0.000 
#
# Total GULP energy -223095.890363 kJ/mol
# GULP energy per Si atom -5577.397259 kJ/mol
# Density = 2.220755 g / cm^3
# Si number density = 22.258206 Si / 1000 Ang^3
#
#
#
# Elastic Constant Matrix: (Units=GPa)
#
#
# Indices 1 2 3 4 5 6 
#
# 1 61.4763 39.1657 8.6325 0.0000 0.0000 0.0000
# 2 39.1657 195.0942 69.3257 0.0000 0.0000 0.0000
# 3 8.6325 69.3257 121.0438 0.0000 0.0000 0.0000
# 4 0.0000 0.0000 0.0000 38.8661 0.0000 0.0000
# 5 0.0000 0.0000 0.0000 0.0000 17.0734 0.0000
# 6 0.0000 0.0000 0.0000 0.0000 0.0000 2673.1911
#
#
#
# Elastic Compliance Matrix: (Units=1/GPa)
#
#
# Indices 1 2 3 4 5 6 
#
# 1 0.018753 -0.004130 0.001028 0.000000 0.000000 0.000000
# 2 -0.004130 0.007345 -0.003912 0.000000 0.000000 0.000000
# 3 0.001028 -0.003912 0.010429 0.000000 0.000000 0.000000
# 4 0.000000 0.000000 0.000000 0.025729 0.000000 0.000000
# 5 0.000000 0.000000 0.000000 0.000000 0.058571 0.000000
# 6 0.000000 0.000000 0.000000 0.000000 0.000000 0.000374
#
#
# Mechanical properties :
#
#
# Convention : Reuss Voigt Hill
#
# Bulk Modulus (GPa) = 44.44725 67.98468 56.21597
# Shear Modulus (GPa) = 35.03136 563.19216 299.11176
#
# Velocity S-wave (km/s) = 3.97150 15.92407 11.60493
# Velocity P-wave (km/s) = 6.40646 19.20186 14.31353
#
# Compressibility (1/GPa) = 0.02249858
#
# Stress axis : x y z
#
# Youngs Moduli (GPa) = 53.32402 136.14657 95.88834
#
# Poissons Ratio (x) = 0.56229 -0.09857
# Poissons Ratio (y) = 0.22023 0.37513
# Poissons Ratio (z) = -0.05482 0.53263
#
# Static dielectric constant tensor:
#      x y z
#    x 1.824790 0.000000 0.000000 
#    y 0.000000 1.962920 0.000000 
#    z 0.000000 0.000000 1.810000 
# 
# From -- ./inp_files/6246.got.cif
#   From: 2010.05.17/outbox.cif.g08.bks.cpg/sg57_4_cif.got.tgz:6246.got - 2010.06.03 13:58:18.
