data_PCOD9436260
_publ_section_title
;
Structure prediction by ZEFSAII (Michael W. Deem and Ramdas Pophale) SiO2 
 PCOD9436260
Probable space group: P B C M
;
_chemical_formula_sum "Si O2"
_cell_formula_units_Z 48
_cell_length_a 17.546061
_cell_length_b 5.156449
_cell_length_c 28.045313
_cell_angle_alpha 90.000000
_cell_angle_beta 90.000000
_cell_angle_gamma 90.000000
_cell_volume 2537.410034
_symmetry_space_group_name_H-M "P B C M"
_symmetry_group_IT_number 57
_symmetry_cell_setting 'orthorhombic'
loop_
_space_group_symop_operation_xyz
x,y,z
-x,-y,1/2+z
x,1/2-y,-z
-x,1/2+y,1/2-z
-x,-y,-z
x,y,1/2-z
-x,1/2+y,z
x,1/2-y,1/2+z
loop_
_atom_site_type_symbol
_atom_site_label
_atom_site_fract_x
_atom_site_fract_y
_atom_site_fract_z
Si Si1 0.213077 0.228386 0.806776
Si Si2 0.207157 0.786030 0.947037
Si Si3 0.290864 0.768476 0.350101
Si Si4 0.898386 0.785865 0.552914
Si Si5 0.956216 0.766926 0.344371
Si Si6 0.449421 0.896473 0.305718
O O1 0.214352 0.233057 0.750000
O O2 0.240130 0.503374 0.827201
O O3 0.127974 0.175728 0.825578
O O4 0.268032 0.002847 0.825907
O O5 0.267574 0.750079 0.905272
O O6 0.141291 0.566507 0.942280
O O7 0.167586 0.066847 0.943902
O O8 0.239724 0.750000 0.000000
O O9 0.377673 0.838533 0.338810
O O10 0.933138 0.750000 0.500000
O O11 0.951800 0.738306 0.597957
O O12 0.985703 0.487806 0.328417
O O13 0.424512 0.878266 0.250000
O O14 0.513883 0.678092 0.312913
#
# Coordination Sequence:
#
# PCOD9436260 Si02
#       6
#     8   8   8   8   8   8
#     4  12  25  40  60  86 111 152 206 243 280 339
#     4  10  19  35  61  87 112 144 189 239 287 337
#     4  12  21  40  65  87 117 153 192 240 283 334
#     4  10  20  37  57  82 112 144 189 243 295 345
#     4  12  24  38  57  79 116 151 190 243 301 344
#     4  10  21  36  56  87 122 152 184 226 284 341
#
# _framework density 18.916927999999999
#
# number of rings (size 3 to 8) (size 9 to 14) (size 15 to 20)
#    0.000    1.000    3.333    4.500    0.000    2.667 
#    0.000    0.000    0.000    1.000    0.000    0.000 
#    0.000    0.000    0.000    0.000    0.000    0.000 
#
# Total GULP energy -268506.844502 kJ/mol
# GULP energy per Si atom -5593.892594 kJ/mol
# Density = 1.887387 g / cm^3
# Si number density = 18.916928 Si / 1000 Ang^3
#
#
#
# Elastic Constant Matrix: (Units=GPa)
#
#
# Indices 1 2 3 4 5 6 
#
# 1 36.7492 -19.3301 11.0856 0.0000 0.0000 0.0000
# 2 -19.3301 45.8076 13.9541 0.0000 0.0000 0.0000
# 3 11.0856 13.9541 91.7076 0.0000 0.0000 0.0000
# 4 0.0000 0.0000 0.0000 21.1746 0.0000 0.0000
# 5 0.0000 0.0000 0.0000 0.0000 -57.4555 0.0000
# 6 0.0000 0.0000 0.0000 0.0000 0.0000 21.7154
#
#
#
# Elastic Compliance Matrix: (Units=1/GPa)
#
#
# Indices 1 2 3 4 5 6 
#
# 1 0.039529 0.019018 -0.007672 0.000000 0.000000 0.000000
# 2 0.019018 0.032041 -0.007174 0.000000 0.000000 0.000000
# 3 -0.007672 -0.007174 0.012923 0.000000 0.000000 0.000000
# 4 0.000000 0.000000 0.000000 0.047226 0.000000 0.000000
# 5 0.000000 0.000000 0.000000 0.000000 -0.017405 0.000000
# 6 0.000000 0.000000 0.000000 0.000000 0.000000 0.046050
#
#
# Mechanical properties :
#
#
# Convention : Reuss Voigt Hill
#
# Bulk Modulus (GPa) = 10.77165 20.63153 15.70159
# Shear Modulus (GPa) = 27.32724 8.32387 17.82556
#
# Velocity S-wave (km/s) = 3.80490 2.09995 3.07303
# Velocity P-wave (km/s) = 5.00096 4.09997 4.57271
#
# Compressibility (1/GPa) = 0.09283627
#
# Stress axis : x y z
#
# Youngs Moduli (GPa) = 25.29788 31.21004 77.38017
#
# Poissons Ratio (x) = -0.59354 0.59366
# Poissons Ratio (y) = -0.48111 0.55514
# Poissons Ratio (z) = 0.19408 0.22391
#
# Static dielectric constant tensor:
#      x y z
#    x 1.614420 0.000000 0.000000 
#    y 0.000000 1.657680 0.000000 
#    z 0.000000 0.000000 1.668010 
# 
# From -- ./inp_files/28747.got.cif
#   From: 2010.05.17/outbox.cif.g08.bks.cpg/sg57_15_cif.got.tgz:28747.got - 2010.06.03 13:58:18.
