data_PCOD9436651
_publ_section_title
;
Structure prediction by ZEFSAII (Michael W. Deem and Ramdas Pophale) SiO2 
 PCOD9436651
Probable space group: P B C M
;
_chemical_formula_sum "Si O2"
_cell_formula_units_Z 64
_cell_length_a 13.588163
_cell_length_b 25.497725
_cell_length_c 7.621519
_cell_angle_alpha 90.000000
_cell_angle_beta 90.000000
_cell_angle_gamma 90.000000
_cell_volume 2640.606679
_symmetry_space_group_name_H-M "P B C M"
_symmetry_group_IT_number 57
_symmetry_cell_setting 'orthorhombic'
loop_
_space_group_symop_operation_xyz
x,y,z
-x,-y,1/2+z
x,1/2-y,-z
-x,1/2+y,1/2-z
-x,-y,-z
x,y,1/2-z
-x,1/2+y,z
x,1/2-y,1/2+z
loop_
_atom_site_type_symbol
_atom_site_label
_atom_site_fract_x
_atom_site_fract_y
_atom_site_fract_z
Si Si1 0.745736 0.307701 0.459816
Si Si2 0.743470 0.533574 0.958894
Si Si3 0.164612 0.310719 0.541967
Si Si4 0.948899 0.155044 0.953333
Si Si5 0.957278 0.944000 0.038981
Si Si6 0.378801 0.311615 0.959608
Si Si7 0.672859 0.077924 0.962580
Si Si8 0.542026 0.581757 0.954727
O O1 0.703640 0.250000 0.500000
O O2 0.739940 0.309781 0.250000
O O3 0.859941 0.310646 0.526023
O O4 0.701266 0.363320 0.523381
O O5 0.743862 0.542834 0.750000
O O6 0.844950 0.558837 0.028629
O O7 0.641651 0.557244 0.033205
O O8 0.741894 0.470816 0.987741
O O9 0.176734 0.250000 0.500000
O O10 0.157078 0.319678 0.750000
O O11 0.270244 0.331015 0.475734
O O12 0.060096 0.324304 0.460324
O O13 0.921591 0.148197 0.750000
O O14 0.966350 0.098274 0.035351
O O15 0.952828 0.936772 0.250000
O O16 0.000000 0.000000 0.000000
O O17 0.378302 0.315514 0.750000
O O18 0.395989 0.250000 0.000000
O O19 0.452883 0.354863 0.031892
O O20 0.671764 0.079532 0.750000
O O21 0.562871 0.064613 0.029252
O O22 0.541364 0.567389 0.750000
#
# Coordination Sequence:
#
# PCOD9436651 Si02
#       8
#     8   8   8   8   8   8   8   8
#     4  10  22  39  58  82 112 149 192 236 285 340
#     4  10  21  37  59  88 119 151 189 237 294 349
#     4  10  20  33  51  77 107 139 176 217 265 323
#     4  10  20  35  55  78 108 145 182 223 272 325
#     4  10  21  36  55  81 113 148 184 224 274 332
#     4  10  21  36  55  81 114 151 189 233 287 346
#     4  10  22  40  61  84 112 148 191 239 291 347
#     4  10  21  38  60  85 113 147 191 243 295 348
#
# _framework density 24.236854000000001
#
# number of rings (size 3 to 8) (size 9 to 14) (size 15 to 20)
#    0.000    2.000    0.000    3.000    0.000    8.000 
#    0.000    1.250    0.000    0.000    0.000    0.000 
#    0.000    0.000    0.000    0.000    0.000    0.000 
#
# Total GULP energy -357279.436479 kJ/mol
# GULP energy per Si atom -5582.491195 kJ/mol
# Density = 2.418169 g / cm^3
# Si number density = 24.236854 Si / 1000 Ang^3
#
#
#
# Elastic Constant Matrix: (Units=GPa)
#
#
# Indices 1 2 3 4 5 6 
#
# 1 59.0723 4.9482 6.0711 0.0000 0.0000 0.0000
# 2 4.9482 90.1902 -5.4671 0.0000 0.0000 0.0000
# 3 6.0711 -5.4671 63.4938 0.0000 0.0000 0.0000
# 4 0.0000 0.0000 0.0000 27.5921 0.0000 0.0000
# 5 0.0000 0.0000 0.0000 0.0000 17.6889 0.0000
# 6 0.0000 0.0000 0.0000 0.0000 0.0000 33.5739
#
#
#
# Elastic Compliance Matrix: (Units=1/GPa)
#
#
# Indices 1 2 3 4 5 6 
#
# 1 0.017194 -0.001048 -0.001734 0.000000 0.000000 0.000000
# 2 -0.001048 0.011210 0.001065 0.000000 0.000000 0.000000
# 3 -0.001734 0.001065 0.016007 0.000000 0.000000 0.000000
# 4 0.000000 0.000000 0.000000 0.036242 0.000000 0.000000
# 5 0.000000 0.000000 0.000000 0.000000 0.056533 0.000000
# 6 0.000000 0.000000 0.000000 0.000000 0.000000 0.029785
#
#
# Mechanical properties :
#
#
# Convention : Reuss Voigt Hill
#
# Bulk Modulus (GPa) = 24.40415 24.87341 24.63878
# Shear Modulus (GPa) = 27.16430 29.58458 28.37444
#
# Velocity S-wave (km/s) = 3.35144 3.49756 3.42528
# Velocity P-wave (km/s) = 5.00671 5.15708 5.08245
#
# Compressibility (1/GPa) = 0.04097663
#
# Stress axis : x y z
#
# Youngs Moduli (GPa) = 58.15814 89.20776 62.47206
#
# Poissons Ratio (x) = 0.09353 0.10835
# Poissons Ratio (y) = 0.06098 -0.06656
# Poissons Ratio (z) = 0.10087 -0.09505
#
# Static dielectric constant tensor:
#      x y z
#    x 2.005650 0.000000 0.000000 
#    y 0.000000 1.981310 0.000000 
#    z 0.000000 0.000000 1.952840 
# 
# From -- ./inp_files/5651.got.cif
#   From: 2010.05.17/outbox.cif.g08.bks.cpg/sg57_3_cif.got.tgz:5651.got - 2010.06.03 13:58:18.
