data_PCOD9436139
_publ_section_title
;
Structure prediction by ZEFSAII (Michael W. Deem and Ramdas Pophale) SiO2 
 PCOD9436139
Probable space group: P B C M
;
_chemical_formula_sum "Si O2"
_cell_formula_units_Z 48
_cell_length_a 15.655820
_cell_length_b 10.414699
_cell_length_c 18.014864
_cell_angle_alpha 90.000000
_cell_angle_beta 90.000000
_cell_angle_gamma 90.000000
_cell_volume 2937.335337
_symmetry_space_group_name_H-M "P B C M"
_symmetry_group_IT_number 57
_symmetry_cell_setting 'orthorhombic'
loop_
_space_group_symop_operation_xyz
x,y,z
-x,-y,1/2+z
x,1/2-y,-z
-x,1/2+y,1/2-z
-x,-y,-z
x,y,1/2-z
-x,1/2+y,z
x,1/2-y,1/2+z
loop_
_atom_site_type_symbol
_atom_site_label
_atom_site_fract_x
_atom_site_fract_y
_atom_site_fract_z
Si Si1 0.232416 0.281377 0.337463
Si Si2 0.565053 0.493181 0.340347
Si Si3 0.895831 0.377506 0.451554
Si Si4 0.239230 0.974371 0.162405
Si Si5 0.091120 0.372838 0.053713
Si Si6 0.573223 0.713876 0.659330
O O1 0.226613 0.308866 0.250000
O O2 0.160067 0.354571 0.382243
O O3 0.328952 0.313354 0.362994
O O4 0.222238 0.127295 0.346541
O O5 0.562799 0.494178 0.250000
O O6 0.661853 0.454177 0.359998
O O7 0.550510 0.640682 0.364066
O O8 0.494088 0.392503 0.366125
O O9 0.882702 0.250000 0.500000
O O10 0.826288 0.396608 0.387776
O O11 0.892159 0.499586 0.506357
O O12 0.992644 0.375107 0.419953
O O13 0.230729 0.944880 0.250000
O O14 0.099271 0.250000 0.000000
O O15 0.573011 0.714109 0.750000
#
# Coordination Sequence:
#
# PCOD9436139 Si02
#       6
#     8   8   8   8   8   8
#     4   9  17  31  54  79  99 128 173 212 242 290
#     4   8  14  26  46  70  96 127 161 197 242 294
#     4  10  21  35  52  75 101 132 169 206 249 305
#     4   9  17  32  54  76 100 133 168 205 251 297
#     4  10  19  35  56  72  94 134 171 200 248 305
#     4   8  14  26  45  70  98 127 160 198 242 293
#
# _framework density 16.341342000000001
#
# number of rings (size 3 to 8) (size 9 to 14) (size 15 to 20)
#    0.000    3.000    1.667    2.000    0.000    0.667 
#    3.000    0.833    0.000    2.000    0.000    0.000 
#    0.000    0.000    0.000    0.000    0.000    0.000 
#
# Total GULP energy -267357.545617 kJ/mol
# GULP energy per Si atom -5569.948867 kJ/mol
# Density = 1.630415 g / cm^3
# Si number density = 16.341342 Si / 1000 Ang^3
#
#
#
# Elastic Constant Matrix: (Units=GPa)
#
#
# Indices 1 2 3 4 5 6 
#
# 1 157.4582 85.3563 62.9916 0.0000 0.0000 0.0000
# 2 85.3563 100.6571 35.4756 0.0000 0.0000 0.0000
# 3 62.9916 35.4756 33.2605 0.0000 0.0000 0.0000
# 4 0.0000 0.0000 0.0000 14.7138 0.0000 0.0000
# 5 0.0000 0.0000 0.0000 0.0000 -42.8923 0.0000
# 6 0.0000 0.0000 0.0000 0.0000 0.0000 14.7686
#
#
#
# Elastic Compliance Matrix: (Units=1/GPa)
#
#
# Indices 1 2 3 4 5 6 
#
# 1 0.030392 -0.008790 -0.048183 0.000000 0.000000 0.000000
# 2 -0.008790 0.018461 -0.003043 0.000000 0.000000 0.000000
# 3 -0.048183 -0.003043 0.124564 0.000000 0.000000 0.000000
# 4 0.000000 0.000000 0.000000 0.067964 0.000000 0.000000
# 5 0.000000 0.000000 0.000000 0.000000 -0.023314 0.000000
# 6 0.000000 0.000000 0.000000 0.000000 0.000000 0.067711
#
#
# Mechanical properties :
#
#
# Convention : Reuss Voigt Hill
#
# Bulk Modulus (GPa) = 18.73183 73.22475 45.97829
# Shear Modulus (GPa) = 11.80349 4.48817 8.14583
#
# Velocity S-wave (km/s) = 2.69050 1.65906 2.23509
# Velocity P-wave (km/s) = 4.59776 6.96970 5.90407
#
# Compressibility (1/GPa) = 0.05338508
#
# Stress axis : x y z
#
# Youngs Moduli (GPa) = 32.90372 54.16747 8.02802
#
# Poissons Ratio (x) = 0.47615 0.38681
# Poissons Ratio (y) = 0.28924 0.02443
# Poissons Ratio (z) = 1.58539 0.16482
#
# Static dielectric constant tensor:
#      x y z
#    x 1.553220 0.000000 0.000000 
#    y 0.000000 1.540560 0.000000 
#    z 0.000000 0.000000 1.530610 
# 
# From -- ./inp_files/18422.got.cif
#   From: 2010.05.17/outbox.cif.g08.bks.cpg/sg57_10_cif.got.tgz:18422.got - 2010.06.03 13:58:18.
