data_PCOD9436664
_publ_section_title
;
Structure prediction by ZEFSAII (Michael W. Deem and Ramdas Pophale) SiO2 
 PCOD9436664
Probable space group: P B C M
;
_chemical_formula_sum "Si O2"
_cell_formula_units_Z 48
_cell_length_a 9.363863
_cell_length_b 33.019082
_cell_length_c 8.887653
_cell_angle_alpha 90.000000
_cell_angle_beta 90.000000
_cell_angle_gamma 90.000000
_cell_volume 2747.939305
_symmetry_space_group_name_H-M "P B C M"
_symmetry_group_IT_number 57
_symmetry_cell_setting 'orthorhombic'
loop_
_space_group_symop_operation_xyz
x,y,z
-x,-y,1/2+z
x,1/2-y,-z
-x,1/2+y,1/2-z
-x,-y,-z
x,y,1/2-z
-x,1/2+y,z
x,1/2-y,1/2+z
loop_
_atom_site_type_symbol
_atom_site_label
_atom_site_fract_x
_atom_site_fract_y
_atom_site_fract_z
Si Si1 0.822944 0.081435 0.423996
Si Si2 0.560142 0.041199 0.930473
Si Si3 0.921448 0.626100 0.569039
Si Si4 0.652572 0.167191 0.078004
Si Si5 0.609415 0.617044 0.068261
Si Si6 0.091022 0.707843 0.572105
O O1 0.844778 0.069713 0.250000
O O2 0.720140 0.050312 0.509761
O O3 0.734881 0.123884 0.423652
O O4 0.970318 0.091998 0.506507
O O5 0.557982 0.040336 0.750000
O O6 0.462178 0.077823 0.992280
O O7 0.500000 0.000000 0.000000
O O8 0.911846 0.623387 0.750000
O O9 0.768024 0.622316 0.492778
O O10 0.992009 0.669616 0.528958
O O11 0.651476 0.181934 0.250000
O O12 0.492814 0.155359 0.030049
O O13 0.748309 0.196669 0.979276
O O14 0.606012 0.612640 0.250000
O O15 0.045625 0.750000 0.500000
O O16 0.086781 0.711456 0.750000
#
# Coordination Sequence:
#
# PCOD9436664 Si02
#       6
#     8   8   8   8   8   8
#     4   9  17  32  53  76 102 136 174 211 253 307
#     4  11  21  35  55  79 107 138 174 218 262 309
#     4  10  20  34  53  79 107 140 177 215 260 313
#     4   8  16  31  51  73  98 129 168 207 248 299
#     4  10  20  35  55  79 105 137 173 212 259 312
#     4  10  20  33  52  76 103 134 172 213 257 306
#
# _framework density 17.467634
#
# number of rings (size 3 to 8) (size 9 to 14) (size 15 to 20)
#    0.000    2.333    0.000    4.500    0.000    6.667 
#    0.000    1.667    0.000    2.000    0.000    0.000 
#    0.000    0.000    0.000    0.000    0.000    0.000 
#
# Total GULP energy -267699.120856 kJ/mol
# GULP energy per Si atom -5577.065018 kJ/mol
# Density = 1.742788 g / cm^3
# Si number density = 17.467634 Si / 1000 Ang^3
#
#
#
# Elastic Constant Matrix: (Units=GPa)
#
#
# Indices 1 2 3 4 5 6 
#
# 1 123.2574 20.0581 42.8405 0.0000 0.0000 0.0000
# 2 20.0581 53.0445 34.1182 0.0000 0.0000 0.0000
# 3 42.8405 34.1182 92.8016 0.0000 0.0000 0.0000
# 4 0.0000 0.0000 0.0000 27.9973 0.0000 0.0000
# 5 0.0000 0.0000 0.0000 0.0000 32.0487 0.0000
# 6 0.0000 0.0000 0.0000 0.0000 0.0000 13.4540
#
#
#
# Elastic Compliance Matrix: (Units=1/GPa)
#
#
# Indices 1 2 3 4 5 6 
#
# 1 0.009707 -0.001032 -0.004101 0.000000 0.000000 0.000000
# 2 -0.001032 0.024801 -0.008641 0.000000 0.000000 0.000000
# 3 -0.004101 -0.008641 0.015846 0.000000 0.000000 0.000000
# 4 0.000000 0.000000 0.000000 0.035718 0.000000 0.000000
# 5 0.000000 0.000000 0.000000 0.000000 0.031203 0.000000
# 6 0.000000 0.000000 0.000000 0.000000 0.000000 0.074328
#
#
# Mechanical properties :
#
#
# Convention : Reuss Voigt Hill
#
# Bulk Modulus (GPa) = 43.85378 51.45967 47.65673
# Shear Modulus (GPa) = 22.05054 26.17244 24.11149
#
# Velocity S-wave (km/s) = 3.55683 3.87504 3.71934
# Velocity P-wave (km/s) = 6.48293 7.03883 6.76659
#
# Compressibility (1/GPa) = 0.02280305
#
# Stress axis : x y z
#
# Youngs Moduli (GPa) = 103.02240 40.32173 63.10777
#
# Poissons Ratio (x) = 0.04163 0.25883
# Poissons Ratio (y) = 0.10637 0.54533
# Poissons Ratio (z) = 0.42253 0.34843
#
# Static dielectric constant tensor:
#      x y z
#    x 1.594880 0.000000 0.000000 
#    y 0.000000 1.593050 0.000000 
#    z 0.000000 0.000000 1.583040 
# 
# From -- ./inp_files/2057.got.cif
#   From: 2010.05.17/outbox.cif.g08.bks.cpg/sg57_2_cif.got.tgz:2057.got - 2010.06.03 13:58:18.
