data_PCOD9436285
_publ_section_title
;
Structure prediction by ZEFSAII (Michael W. Deem and Ramdas Pophale) SiO2 
 PCOD9436285
Probable space group: P B C M
;
_chemical_formula_sum "Si O2"
_cell_formula_units_Z 64
_cell_length_a 11.449230
_cell_length_b 11.729439
_cell_length_c 21.831496
_cell_angle_alpha 90.000000
_cell_angle_beta 90.000000
_cell_angle_gamma 90.000000
_cell_volume 2931.818072
_symmetry_space_group_name_H-M "P B C M"
_symmetry_group_IT_number 57
_symmetry_cell_setting 'orthorhombic'
loop_
_space_group_symop_operation_xyz
x,y,z
-x,-y,1/2+z
x,1/2-y,-z
-x,1/2+y,1/2-z
-x,-y,-z
x,y,1/2-z
-x,1/2+y,z
x,1/2-y,1/2+z
loop_
_atom_site_type_symbol
_atom_site_label
_atom_site_fract_x
_atom_site_fract_y
_atom_site_fract_z
Si Si1 0.362640 0.074475 0.320599
Si Si2 0.733418 0.671055 0.677708
Si Si3 0.899999 0.516215 0.609974
Si Si4 0.657196 0.291785 0.082046
Si Si5 0.265777 0.939436 0.514751
Si Si6 0.881523 0.057746 0.818562
Si Si7 0.210709 0.803945 0.818579
Si Si8 0.546334 0.554675 0.596146
O O1 0.409684 0.071001 0.250000
O O2 0.312043 0.200719 0.332168
O O3 0.248497 0.993341 0.320915
O O4 0.455522 0.033130 0.371767
O O5 0.754077 0.655465 0.750000
O O6 0.845837 0.631897 0.638600
O O7 0.633149 0.589784 0.650530
O O8 0.851601 0.495492 0.541405
O O9 0.840165 0.411006 0.645971
O O10 0.034477 0.513613 0.628172
O O11 0.702853 0.180110 0.047871
O O12 0.674578 0.251278 0.151229
O O13 0.527366 0.336232 0.074027
O O14 0.732539 0.398029 0.055188
O O15 0.374395 0.014069 0.539282
O O16 0.928250 0.026617 0.750000
O O17 0.875111 0.195077 0.821383
O O18 0.233120 0.838208 0.750000
#
# Coordination Sequence:
#
# PCOD9436285 Si02
#       8
#     8   8   8   8   8   8   8   8
#     4  10  21  35  52  82 118 150 185 231 288 336
#     4  10  21  34  52  80 117 152 182 230 285 336
#     4  10  21  37  56  81 113 149 191 228 274 339
#     4  10  19  36  56  79 109 143 186 234 277 328
#     4   9  21  36  55  80 105 148 189 232 277 330
#     4  10  20  34  54  81 112 145 181 231 281 330
#     4  10  20  34  57  85 108 141 183 227 277 335
#     4  11  19  34  55  79 108 146 193 232 280 334
#
# _framework density 21.829457000000001
#
# number of rings (size 3 to 8) (size 9 to 14) (size 15 to 20)
#    0.000    2.000    1.250    2.625    1.750    0.500 
#    0.000    3.750    0.000    0.000    0.000    0.000 
#    0.000    0.000    0.000    0.000    0.000    0.000 
#
# Total GULP energy -356807.132687 kJ/mol
# GULP energy per Si atom -5575.111448 kJ/mol
# Density = 2.177977 g / cm^3
# Si number density = 21.829457 Si / 1000 Ang^3
#
#
#
# Elastic Constant Matrix: (Units=GPa)
#
#
# Indices 1 2 3 4 5 6 
#
# 1 45.4964 2.6408 -7.1112 0.0000 0.0000 0.0000
# 2 2.6408 64.7827 -2.1920 0.0000 0.0000 0.0000
# 3 -7.1112 -2.1920 33.2227 0.0000 0.0000 0.0000
# 4 0.0000 0.0000 0.0000 23.5043 0.0000 0.0000
# 5 0.0000 0.0000 0.0000 0.0000 19.2408 0.0000
# 6 0.0000 0.0000 0.0000 0.0000 0.0000 19.0619
#
#
#
# Elastic Compliance Matrix: (Units=1/GPa)
#
#
# Indices 1 2 3 4 5 6 
#
# 1 0.022778 -0.000765 0.004825 0.000000 0.000000 0.000000
# 2 -0.000765 0.015496 0.000859 0.000000 0.000000 0.000000
# 3 0.004825 0.000859 0.031189 0.000000 0.000000 0.000000
# 4 0.000000 0.000000 0.000000 0.042545 0.000000 0.000000
# 5 0.000000 0.000000 0.000000 0.000000 0.051973 0.000000
# 6 0.000000 0.000000 0.000000 0.000000 0.000000 0.052461
#
#
# Mechanical properties :
#
#
# Convention : Reuss Voigt Hill
#
# Bulk Modulus (GPa) = 12.61015 14.46410 13.53713
# Shear Modulus (GPa) = 21.45556 22.37235 21.91396
#
# Velocity S-wave (km/s) = 3.13848 3.20483 3.17183
# Velocity P-wave (km/s) = 4.35001 4.50943 4.43044
#
# Compressibility (1/GPa) = 0.07930119
#
# Stress axis : x y z
#
# Youngs Moduli (GPa) = 43.90135 64.53081 32.06224
#
# Poissons Ratio (x) = 0.04938 -0.15470
# Poissons Ratio (y) = 0.03360 -0.02753
# Poissons Ratio (z) = -0.21183 -0.05541
#
# Static dielectric constant tensor:
#      x y z
#    x 1.840030 0.000000 0.000000 
#    y 0.000000 1.802440 0.000000 
#    z 0.000000 0.000000 1.892620 
# 
# From -- ./inp_files/27266.got.cif
#   From: 2010.05.17/outbox.cif.g08.bks.cpg/sg57_14_cif.got.tgz:27266.got - 2010.06.03 13:58:18.
