data_PCOD9436210
_publ_section_title
;
Structure prediction by ZEFSAII (Michael W. Deem and Ramdas Pophale) SiO2 
 PCOD9436210
Probable space group: P B C M
;
_chemical_formula_sum "Si O2"
_cell_formula_units_Z 64
_cell_length_a 8.828381
_cell_length_b 21.403125
_cell_length_c 15.708832
_cell_angle_alpha 90.000000
_cell_angle_beta 90.000000
_cell_angle_gamma 90.000000
_cell_volume 2968.261441
_symmetry_space_group_name_H-M "P B C M"
_symmetry_group_IT_number 57
_symmetry_cell_setting 'orthorhombic'
loop_
_space_group_symop_operation_xyz
x,y,z
-x,-y,1/2+z
x,1/2-y,-z
-x,1/2+y,1/2-z
-x,-y,-z
x,y,1/2-z
-x,1/2+y,z
x,1/2-y,1/2+z
loop_
_atom_site_type_symbol
_atom_site_label
_atom_site_fract_x
_atom_site_fract_y
_atom_site_fract_z
Si Si1 0.271714 0.417764 0.085096
Si Si2 0.290936 0.303161 0.653962
Si Si3 0.932627 0.813078 0.155668
Si Si4 0.915992 0.585765 0.413447
Si Si5 0.485343 0.849896 0.525957
Si Si6 0.160238 0.645088 0.976481
Si Si7 0.204059 0.531949 0.653922
Si Si8 0.464344 0.531875 0.348487
O O1 0.164162 0.376612 0.144932
O O2 0.343025 0.479378 0.125192
O O3 0.171119 0.431301 0.001356
O O4 0.409954 0.374463 0.051120
O O5 0.351339 0.306882 0.750000
O O6 0.183343 0.243757 0.646955
O O7 0.189401 0.364382 0.634957
O O8 0.419989 0.302271 0.583211
O O9 0.001378 0.810124 0.250000
O O10 0.051107 0.811143 0.078882
O O11 0.920808 0.521825 0.361647
O O12 0.070030 0.619128 0.441653
O O13 0.322157 0.827307 0.497790
O O14 0.458925 0.910425 0.586978
O O15 0.188378 0.585720 0.914911
O O16 0.193063 0.556190 0.750000
O O17 0.368281 0.499026 0.644341
O O18 0.443660 0.550534 0.250000
#
# Coordination Sequence:
#
# PCOD9436210 Si02
#       8
#     8   8   8   8   8   8   8   8
#     4  10  19  35  58  86 123 168 211 250 293 359
#     4  10  21  43  69  88 116 162 215 258 301 367
#     4  10  23  43  64  89 123 167 211 250 305 375
#     4  10  21  36  60  88 124 169 210 249 307 371
#     4  11  21  37  63  95 123 158 203 261 313 361
#     4  11  23  38  58  92 131 163 197 257 317 372
#     4  11  20  34  58  89 131 172 207 248 307 371
#     4  11  20  33  58  91 130 167 208 257 307 362
#
# _framework density 21.561443000000001
#
# number of rings (size 3 to 8) (size 9 to 14) (size 15 to 20)
#    0.000    1.500    3.750    3.000    0.000    5.500 
#    0.000    7.500    0.000    3.000    0.000    0.000 
#    0.000    0.000    0.000    0.000    0.000    0.000 
#
# Total GULP energy -358185.284511 kJ/mol
# GULP energy per Si atom -5596.645070 kJ/mol
# Density = 2.151237 g / cm^3
# Si number density = 21.561443 Si / 1000 Ang^3
#
#
#
# Elastic Constant Matrix: (Units=GPa)
#
#
# Indices 1 2 3 4 5 6 
#
# 1 90.6681 -1.4028 23.5970 0.0000 0.0000 0.0000
# 2 -1.4028 53.2414 13.8014 0.0000 0.0000 0.0000
# 3 23.5970 13.8014 58.4418 0.0000 0.0000 0.0000
# 4 0.0000 0.0000 0.0000 28.3424 0.0000 0.0000
# 5 0.0000 0.0000 0.0000 0.0000 18.2082 0.0000
# 6 0.0000 0.0000 0.0000 0.0000 0.0000 20.2608
#
#
#
# Elastic Compliance Matrix: (Units=1/GPa)
#
#
# Indices 1 2 3 4 5 6 
#
# 1 0.012474 0.001741 -0.005448 0.000000 0.000000 0.000000
# 2 0.001741 0.020250 -0.005485 0.000000 0.000000 0.000000
# 3 -0.005448 -0.005485 0.020606 0.000000 0.000000 0.000000
# 4 0.000000 0.000000 0.000000 0.035283 0.000000 0.000000
# 5 0.000000 0.000000 0.000000 0.000000 0.054920 0.000000
# 6 0.000000 0.000000 0.000000 0.000000 0.000000 0.049356
#
#
# Mechanical properties :
#
#
# Convention : Reuss Voigt Hill
#
# Bulk Modulus (GPa) = 28.61544 30.48250 29.54897
# Shear Modulus (GPa) = 22.42932 24.45264 23.44098
#
# Velocity S-wave (km/s) = 3.22879 3.37128 3.30080
# Velocity P-wave (km/s) = 5.21541 5.41500 5.31614
#
# Compressibility (1/GPa) = 0.03494616
#
# Stress axis : x y z
#
# Youngs Moduli (GPa) = 80.16683 49.38244 48.52955
#
# Poissons Ratio (x) = -0.08597 0.26438
# Poissons Ratio (y) = -0.13956 0.26619
# Poissons Ratio (z) = 0.43673 0.27087
#
# Static dielectric constant tensor:
#      x y z
#    x 1.793050 0.000000 0.000000 
#    y 0.000000 1.777780 0.000000 
#    z 0.000000 0.000000 1.772330 
# 
# From -- ./inp_files/16930.got.cif
#   From: 2010.05.17/outbox.cif.g08.bks.cpg/sg57_9_cif.got.tgz:16930.got - 2010.06.03 13:58:18.
