data_PCOD9436109
_publ_section_title
;
Structure prediction by ZEFSAII (Michael W. Deem and Ramdas Pophale) SiO2 
 PCOD9436109
Probable space group: P B C M
;
_chemical_formula_sum "Si O2"
_cell_formula_units_Z 52
_cell_length_a 15.443064
_cell_length_b 9.314172
_cell_length_c 17.068782
_cell_angle_alpha 90.000000
_cell_angle_beta 90.000000
_cell_angle_gamma 90.000000
_cell_volume 2455.162582
_symmetry_space_group_name_H-M "P B C M"
_symmetry_group_IT_number 57
_symmetry_cell_setting 'orthorhombic'
loop_
_space_group_symop_operation_xyz
x,y,z
-x,-y,1/2+z
x,1/2-y,-z
-x,1/2+y,1/2-z
-x,-y,-z
x,y,1/2-z
-x,1/2+y,z
x,1/2-y,1/2+z
loop_
_atom_site_type_symbol
_atom_site_label
_atom_site_fract_x
_atom_site_fract_y
_atom_site_fract_z
Si Si1 0.073009 0.933634 0.941576
Si Si2 0.398155 0.220410 0.910589
Si Si3 0.225841 0.750000 0.500000
Si Si4 0.312908 0.661880 0.660353
Si Si5 0.764060 0.654930 0.337646
Si Si6 0.928212 0.765721 0.408041
Si Si7 0.490736 0.003891 0.339902
O O1 0.159382 0.883102 0.985295
O O2 0.025615 0.795720 0.904089
O O3 0.085827 0.068824 0.885324
O O4 0.000000 0.000000 0.000000
O O5 0.297818 0.252123 0.893346
O O6 0.430434 0.062186 0.888440
O O7 0.450773 0.343465 0.863522
O O8 0.417126 0.250000 0.000000
O O9 0.280786 0.739307 0.580764
O O10 0.301700 0.723110 0.750000
O O11 0.261880 0.510871 0.658721
O O12 0.412359 0.611122 0.652364
O O13 0.745354 0.706013 0.250000
O O14 0.863520 0.671187 0.358525
O O15 0.902022 0.750000 0.500000
O O16 0.517342 0.011054 0.250000
#
# Coordination Sequence:
#
# PCOD9436109 Si02
#       7
#     8   8   4   8   8   8   8
#     4  10  19  34  59  86 114 153 202 242 310 367
#     4  11  22  38  64  93 121 159 210 256 301 369
#     4  12  20  36  66  86 118 168 200 262 308 368
#     4   9  21  38  60  89 121 162 207 250 312 375
#     4  10  21  40  62  85 120 164 202 253 314 365
#     4  10  19  35  58  84 116 147 201 248 295 370
#     4  10  21  41  62  87 127 166 200 251 310 369
#
# _framework density 21.179859
#
# number of rings (size 3 to 8) (size 9 to 14) (size 15 to 20)
#    0.000    1.846    2.308    5.077    1.077    1.231 
#    2.769    2.308    0.000    0.923    0.000    0.000 
#    0.000    0.000    0.000    0.000    0.000    0.000 
#
# Total GULP energy -289983.862340 kJ/mol
# GULP energy per Si atom -5576.612737 kJ/mol
# Density = 2.113165 g / cm^3
# Si number density = 21.179859 Si / 1000 Ang^3
#
#
#
# Elastic Constant Matrix: (Units=GPa)
#
#
# Indices 1 2 3 4 5 6 
#
# 1 29.4660 9.2788 14.4558 0.0000 0.0000 0.0000
# 2 9.2788 38.1920 5.6251 0.0000 0.0000 0.0000
# 3 14.4558 5.6251 61.3224 0.0000 0.0000 0.0000
# 4 0.0000 0.0000 0.0000 20.6294 0.0000 0.0000
# 5 0.0000 0.0000 0.0000 0.0000 -7.1123 0.0000
# 6 0.0000 0.0000 0.0000 0.0000 0.0000 -17.6279
#
#
#
# Elastic Compliance Matrix: (Units=1/GPa)
#
#
# Indices 1 2 3 4 5 6 
#
# 1 0.041018 -0.008658 -0.008875 0.000000 0.000000 0.000000
# 2 -0.008658 0.028370 -0.000561 0.000000 0.000000 0.000000
# 3 -0.008875 -0.000561 0.018451 0.000000 0.000000 0.000000
# 4 0.000000 0.000000 0.000000 0.048474 0.000000 0.000000
# 5 0.000000 0.000000 0.000000 0.000000 -0.140601 0.000000
# 6 0.000000 0.000000 0.000000 0.000000 0.000000 -0.056728
#
#
# Mechanical properties :
#
#
# Convention : Reuss Voigt Hill
#
# Bulk Modulus (GPa) = 19.36133 20.85552 20.10842
# Shear Modulus (GPa) = -657.02361 5.81921 -325.60220
#
# Velocity S-wave (km/s) = -17.63193 1.65936 -12.41232
# Velocity P-wave (km/s) = 20.13336 3.67961 13.99665
#
# Compressibility (1/GPa) = 0.05164935
#
# Stress axis : x y z
#
# Youngs Moduli (GPa) = 24.37956 35.24887 54.19780
#
# Poissons Ratio (x) = 0.30519 0.48101
# Poissons Ratio (y) = 0.21108 0.03042
# Poissons Ratio (z) = 0.21637 0.01979
#
# Static dielectric constant tensor:
#      x y z
#    x 1.766650 0.000000 0.000000 
#    y 0.000000 1.799070 0.000000 
#    z 0.000000 0.000000 1.762490 
# 
# From -- ./inp_files/22855.got.cif
#   From: 2010.05.17/outbox.cif.g08.bks.cpg/sg57_12_cif.got.tgz:22855.got - 2010.06.03 13:58:18.
