data_PCOD9436784
_publ_section_title
;
Structure prediction by ZEFSAII (Michael W. Deem and Ramdas Pophale) SiO2 
 PCOD9436784
Probable space group: P B C M
;
_chemical_formula_sum "Si O2"
_cell_formula_units_Z 40
_cell_length_a 16.686456
_cell_length_b 14.011274
_cell_length_c 7.797289
_cell_angle_alpha 90.000000
_cell_angle_beta 90.000000
_cell_angle_gamma 90.000000
_cell_volume 1822.994528
_symmetry_space_group_name_H-M "P B C M"
_symmetry_group_IT_number 57
_symmetry_cell_setting 'orthorhombic'
loop_
_space_group_symop_operation_xyz
x,y,z
-x,-y,1/2+z
x,1/2-y,-z
-x,1/2+y,1/2-z
-x,-y,-z
x,y,1/2-z
-x,1/2+y,z
x,1/2-y,1/2+z
loop_
_atom_site_type_symbol
_atom_site_label
_atom_site_fract_x
_atom_site_fract_y
_atom_site_fract_z
Si Si1 0.955350 0.361143 0.043689
Si Si2 0.866309 0.860625 0.455222
Si Si3 0.379500 0.551410 0.956642
Si Si4 0.205807 0.953388 0.449982
Si Si5 0.457119 0.356273 0.953054
O O1 0.957785 0.372971 0.250000
O O2 0.876337 0.412261 0.972366
O O3 0.044068 0.389696 0.980264
O O4 0.947723 0.250000 0.000000
O O5 0.854101 0.750000 0.500000
O O6 0.863673 0.870128 0.250000
O O7 0.802803 0.567449 0.464611
O O8 0.373004 0.545188 0.750000
O O9 0.291333 0.577096 0.023917
O O10 0.407460 0.446971 0.023563
O O11 0.450714 0.624397 0.995488
O O12 0.204888 0.925348 0.250000
O O13 0.452982 0.363289 0.750000
O O14 0.430649 0.250000 0.000000
#
# Coordination Sequence:
#
# PCOD9436784 Si02
#       5
#     8   8   8   8   8
#     4   9  19  34  52  74 103 139 177 217 258 304
#     4  10  20  34  52  75 103 139 180 217 257 305
#     4   9  20  37  55  79 108 136 171 213 257 310
#     4  10  20  35  54  78 108 137 169 215 264 306
#     4  10  20  36  58  79 103 137 172 210 258 311
#
# _framework density 21.941918999999999
#
# number of rings (size 3 to 8) (size 9 to 14) (size 15 to 20)
#    0.000    2.400    0.000    1.800    0.000    4.800 
#    0.000    4.000    0.000    0.000    0.000    0.000 
#    0.000    0.000    0.000    0.000    0.000    0.000 
#
# Total GULP energy -223255.942297 kJ/mol
# GULP energy per Si atom -5581.398557 kJ/mol
# Density = 2.189198 g / cm^3
# Si number density = 21.941919 Si / 1000 Ang^3
#
#
#
# Elastic Constant Matrix: (Units=GPa)
#
#
# Indices 1 2 3 4 5 6 
#
# 1 31.7809 -15.1900 6.4657 0.0000 0.0000 0.0000
# 2 -15.1900 29.7088 -12.0164 0.0000 0.0000 0.0000
# 3 6.4657 -12.0164 31.4114 0.0000 0.0000 0.0000
# 4 0.0000 0.0000 0.0000 27.7764 0.0000 0.0000
# 5 0.0000 0.0000 0.0000 0.0000 11.2780 0.0000
# 6 0.0000 0.0000 0.0000 0.0000 0.0000 8.2595
#
#
#
# Elastic Compliance Matrix: (Units=1/GPa)
#
#
# Indices 1 2 3 4 5 6 
#
# 1 0.041649 0.021091 -0.000505 0.000000 0.000000 0.000000
# 2 0.021091 0.050502 0.014978 0.000000 0.000000 0.000000
# 3 -0.000505 0.014978 0.037669 0.000000 0.000000 0.000000
# 4 0.000000 0.000000 0.000000 0.036002 0.000000 0.000000
# 5 0.000000 0.000000 0.000000 0.000000 0.088668 0.000000
# 6 0.000000 0.000000 0.000000 0.000000 0.000000 0.121073
#
#
# Mechanical properties :
#
#
# Convention : Reuss Voigt Hill
#
# Bulk Modulus (GPa) = 4.97641 5.71329 5.34485
# Shear Modulus (GPa) = 13.46194 17.03888 15.25041
#
# Velocity S-wave (km/s) = 2.47963 2.78968 2.63921
# Velocity P-wave (km/s) = 3.23590 3.60359 3.42468
#
# Compressibility (1/GPa) = 0.20094809
#
# Stress axis : x y z
#
# Youngs Moduli (GPa) = 24.01040 19.80124 26.54679
#
# Poissons Ratio (x) = -0.41762 0.01340
# Poissons Ratio (y) = -0.50639 -0.39762
# Poissons Ratio (z) = 0.01212 -0.29659
#
# Static dielectric constant tensor:
#      x y z
#    x 1.843300 0.000000 0.000000 
#    y 0.000000 1.819890 0.000000 
#    z 0.000000 0.000000 1.780500 
# 
# From -- ./inp_files/13569.got.cif
#   From: 2010.05.17/outbox.cif.g08.bks.cpg/sg57_7_cif.got.tgz:13569.got - 2010.06.03 13:58:18.
