data_PCOD9436567
_publ_section_title
;
Structure prediction by ZEFSAII (Michael W. Deem and Ramdas Pophale) SiO2 
 PCOD9436567
Probable space group: P B C M
;
_chemical_formula_sum "Si O2"
_cell_formula_units_Z 64
_cell_length_a 22.287159
_cell_length_b 20.065460
_cell_length_c 8.865921
_cell_angle_alpha 90.000000
_cell_angle_beta 90.000000
_cell_angle_gamma 90.000000
_cell_volume 3964.858467
_symmetry_space_group_name_H-M "P B C M"
_symmetry_group_IT_number 57
_symmetry_cell_setting 'orthorhombic'
loop_
_space_group_symop_operation_xyz
x,y,z
-x,-y,1/2+z
x,1/2-y,-z
-x,1/2+y,1/2-z
-x,-y,-z
x,y,1/2-z
-x,1/2+y,z
x,1/2-y,1/2+z
loop_
_atom_site_type_symbol
_atom_site_label
_atom_site_fract_x
_atom_site_fract_y
_atom_site_fract_z
Si Si1 0.918923 0.022957 0.070506
Si Si2 0.975963 0.607357 0.427176
Si Si3 0.620219 0.818199 0.930669
Si Si4 0.797544 0.956945 0.429003
Si Si5 0.558425 0.036353 0.068582
Si Si6 0.480486 0.818667 0.569203
Si Si7 0.131786 0.178941 0.930108
Si Si8 0.329702 0.459719 0.569633
O O1 0.930234 0.008280 0.250000
O O2 0.954019 0.091646 0.037635
O O3 0.848198 0.013709 0.048854
O O4 0.946572 0.964047 0.969396
O O5 0.970012 0.621448 0.250000
O O6 0.935896 0.660083 0.517202
O O7 0.621230 0.813181 0.750000
O O8 0.550474 0.826367 0.977775
O O9 0.656117 0.883419 0.975970
O O10 0.643785 0.750000 0.000000
O O11 0.785102 0.952611 0.250000
O O12 0.826747 0.884991 0.474415
O O13 0.737396 0.973702 0.516779
O O14 0.555827 0.030917 0.250000
O O15 0.553645 0.114241 0.026422
O O16 0.500000 0.000000 0.000000
O O17 0.619039 0.004238 0.006241
O O18 0.457463 0.750000 0.500000
O O19 0.479835 0.813360 0.750000
O O20 0.133355 0.183242 0.750000
O O21 0.149676 0.250000 0.000000
O O22 0.335478 0.464788 0.750000
#
# Coordination Sequence:
#
# PCOD9436567 Si02
#       8
#     8   8   8   8   8   8   8   8
#     4   8  15  28  45  66  93 121 153 195 239 286
#     4   9  15  25  45  70  93 120 155 196 242 282
#     4   9  18  32  46  65  93 123 160 201 241 292
#     4   9  19  34  48  66  94 130 168 203 244 291
#     4  11  21  35  54  76 102 130 163 207 261 311
#     4   9  18  33  51  73  98 123 154 194 243 300
#     4  10  20  33  48  68  99 135 172 208 243 289
#     4  11  22  35  49  71 100 131 172 214 253 303
#
# _framework density 16.141811000000001
#
# number of rings (size 3 to 8) (size 9 to 14) (size 15 to 20)
#    0.000    2.500    1.250    2.250    0.000    5.500 
#    0.000    2.500    0.000    0.000    0.000    0.875 
#    0.000    4.000    0.000    0.000    0.000    0.000 
#
# Total GULP energy -356495.908045 kJ/mol
# GULP energy per Si atom -5570.248563 kJ/mol
# Density = 1.610507 g / cm^3
# Si number density = 16.141811 Si / 1000 Ang^3
#
#
#
# Elastic Constant Matrix: (Units=GPa)
#
#
# Indices 1 2 3 4 5 6 
#
# 1 95.0953 40.5503 34.7963 0.0000 0.0000 0.0000
# 2 40.5503 58.4724 24.2960 0.0000 0.0000 0.0000
# 3 34.7963 24.2960 33.3456 0.0000 0.0000 0.0000
# 4 0.0000 0.0000 0.0000 25.6786 0.0000 0.0000
# 5 0.0000 0.0000 0.0000 0.0000 24.3407 0.0000
# 6 0.0000 0.0000 0.0000 0.0000 0.0000 16.7288
#
#
#
# Elastic Compliance Matrix: (Units=1/GPa)
#
#
# Indices 1 2 3 4 5 6 
#
# 1 0.018825 -0.007017 -0.014531 0.000000 0.000000 0.000000
# 2 -0.007017 0.027144 -0.012455 0.000000 0.000000 0.000000
# 3 -0.014531 -0.012455 0.054227 0.000000 0.000000 0.000000
# 4 0.000000 0.000000 0.000000 0.038943 0.000000 0.000000
# 5 0.000000 0.000000 0.000000 0.000000 0.041083 0.000000
# 6 0.000000 0.000000 0.000000 0.000000 0.000000 0.059777
#
#
# Mechanical properties :
#
#
# Convention : Reuss Voigt Hill
#
# Bulk Modulus (GPa) = 31.06605 42.91093 36.98849
# Shear Modulus (GPa) = 15.68700 19.16769 17.42734
#
# Velocity S-wave (km/s) = 3.12079 3.44969 3.28935
# Velocity P-wave (km/s) = 5.68096 6.51986 6.11481
#
# Compressibility (1/GPa) = 0.03218948
#
# Stress axis : x y z
#
# Youngs Moduli (GPa) = 53.12030 36.84120 18.44095
#
# Poissons Ratio (x) = 0.25852 0.26797
# Poissons Ratio (y) = 0.37276 0.22967
# Poissons Ratio (z) = 0.77191 0.45884
#
# Static dielectric constant tensor:
#      x y z
#    x 1.563840 0.000000 0.000000 
#    y 0.000000 1.541160 0.000000 
#    z 0.000000 0.000000 1.546260 
# 
# From -- ./inp_files/8600.got.cif
#   From: 2010.05.17/outbox.cif.g08.bks.cpg/sg57_5_cif.got.tgz:8600.got - 2010.06.03 13:58:18.
