data_PCOD9436254
_publ_section_title
;
Structure prediction by ZEFSAII (Michael W. Deem and Ramdas Pophale) SiO2 
 PCOD9436254
Probable space group: P B C M
;
_chemical_formula_sum "Si O2"
_cell_formula_units_Z 60
_cell_length_a 5.422879
_cell_length_b 32.263026
_cell_length_c 15.774211
_cell_angle_alpha 90.000000
_cell_angle_beta 90.000000
_cell_angle_gamma 90.000000
_cell_volume 2759.832077
_symmetry_space_group_name_H-M "P B C M"
_symmetry_group_IT_number 57
_symmetry_cell_setting 'orthorhombic'
loop_
_space_group_symop_operation_xyz
x,y,z
-x,-y,1/2+z
x,1/2-y,-z
-x,1/2+y,1/2-z
-x,-y,-z
x,y,1/2-z
-x,1/2+y,z
x,1/2-y,1/2+z
loop_
_atom_site_type_symbol
_atom_site_label
_atom_site_fract_x
_atom_site_fract_y
_atom_site_fract_z
Si Si1 0.149109 0.744140 0.146817
Si Si2 0.296675 0.667197 0.892494
Si Si3 0.416596 0.119590 0.464605
Si Si4 0.020800 0.504956 0.602702
Si Si5 0.084214 0.401716 0.116487
Si Si6 0.520557 0.471940 0.586223
Si Si7 0.345037 0.304308 0.648880
Si Si8 0.403182 0.363572 0.250000
O O1 0.140772 0.750363 0.250000
O O2 0.170213 0.788597 0.102009
O O3 0.398366 0.718683 0.126613
O O4 0.899190 0.720632 0.121166
O O5 0.399746 0.646636 0.977112
O O6 0.516681 0.669425 0.824718
O O7 0.103551 0.633940 0.853818
O O8 0.180886 0.107503 0.522308
O O9 0.535874 0.076153 0.437973
O O10 0.341887 0.149863 0.389615
O O11 0.035385 0.553503 0.621975
O O12 0.762789 0.486845 0.634362
O O13 0.000000 0.500000 0.500000
O O14 0.262776 0.481093 0.631808
O O15 0.319821 0.396857 0.176251
O O16 0.500000 0.500000 0.500000
O O17 0.336927 0.306651 0.750000
#
# Coordination Sequence:
#
# PCOD9436254 Si02
#       8
#     8   8   8   8   8   8   8   4
#     4  10  23  44  68  88 128 173 218 258 330 393
#     4  11  23  39  64  95 130 172 215 273 330 397
#     4  11  24  39  66  97 128 164 224 278 325 382
#     4  10  19  35  60  89 122 163 208 250 315 384
#     4  11  23  38  63  96 131 173 215 272 328 398
#     4  10  19  36  60  91 123 165 209 255 320 384
#     4  10  25  46  67  92 126 178 217 270 325 393
#     4  10  24  38  60  96 130 174 214 262 336 402
#
# _framework density 21.740455000000001
#
# number of rings (size 3 to 8) (size 9 to 14) (size 15 to 20)
#    0.000    1.600    3.333    2.000    7.467    0.533 
#    0.000    0.000    2.933    0.000    0.000    0.000 
#    0.000    0.000    0.000    0.000    0.000    0.000 
#
# Total GULP energy -334248.072305 kJ/mol
# GULP energy per Si atom -5570.801205 kJ/mol
# Density = 2.169097 g / cm^3
# Si number density = 21.740455 Si / 1000 Ang^3
#
#
#
# Elastic Constant Matrix: (Units=GPa)
#
#
# Indices 1 2 3 4 5 6 
#
# 1 127.8955 43.6084 18.6071 0.0000 0.0000 0.0000
# 2 43.6084 161.2223 39.0430 0.0000 0.0000 0.0000
# 3 18.6071 39.0430 26.1389 0.0000 0.0000 0.0000
# 4 0.0000 0.0000 0.0000 7.6930 0.0000 0.0000
# 5 0.0000 0.0000 0.0000 0.0000 29.3950 0.0000
# 6 0.0000 0.0000 0.0000 0.0000 0.0000 31.0792
#
#
#
# Elastic Compliance Matrix: (Units=1/GPa)
#
#
# Indices 1 2 3 4 5 6 
#
# 1 0.008911 -0.001370 -0.004298 0.000000 0.000000 0.000000
# 2 -0.001370 0.009928 -0.013855 0.000000 0.000000 0.000000
# 3 -0.004298 -0.013855 0.062011 0.000000 0.000000 0.000000
# 4 0.000000 0.000000 0.000000 0.129987 0.000000 0.000000
# 5 0.000000 0.000000 0.000000 0.000000 0.034019 0.000000
# 6 0.000000 0.000000 0.000000 0.000000 0.000000 0.032176
#
#
# Mechanical properties :
#
#
# Convention : Reuss Voigt Hill
#
# Bulk Modulus (GPa) = 23.91984 57.53043 40.72513
# Shear Modulus (GPa) = 15.15096 27.89998 21.52547
#
# Velocity S-wave (km/s) = 2.64275 3.58623 3.15002
# Velocity P-wave (km/s) = 4.50983 6.60817 5.65714
#
# Compressibility (1/GPa) = 0.04180630
#
# Stress axis : x y z
#
# Youngs Moduli (GPa) = 112.21926 100.72307 16.12623
#
# Poissons Ratio (x) = 0.13795 0.06931
# Poissons Ratio (y) = 0.15369 0.22342
# Poissons Ratio (z) = 0.48229 1.39548
#
# Static dielectric constant tensor:
#      x y z
#    x 1.916970 0.000000 0.000000 
#    y 0.000000 1.917050 0.000000 
#    z 0.000000 0.000000 1.834960 
# 
# From -- ./inp_files/20283.got.cif
#   From: 2010.05.17/outbox.cif.g08.bks.cpg/sg57_11_cif.got.tgz:20283.got - 2010.06.03 13:58:18.
