data_PCOD9436974
_publ_section_title
;
Structure prediction by ZEFSAII (Michael W. Deem and Ramdas Pophale) SiO2 
 PCOD9436974
Probable space group: P B C M
;
_chemical_formula_sum "Si O2"
_cell_formula_units_Z 48
_cell_length_a 28.886828
_cell_length_b 5.141326
_cell_length_c 16.695782
_cell_angle_alpha 90.000000
_cell_angle_beta 90.000000
_cell_angle_gamma 90.000000
_cell_volume 2479.600775
_symmetry_space_group_name_H-M "P B C M"
_symmetry_group_IT_number 57
_symmetry_cell_setting 'orthorhombic'
loop_
_space_group_symop_operation_xyz
x,y,z
-x,-y,1/2+z
x,1/2-y,-z
-x,1/2+y,1/2-z
-x,-y,-z
x,y,1/2-z
-x,1/2+y,z
x,1/2-y,1/2+z
loop_
_atom_site_type_symbol
_atom_site_label
_atom_site_fract_x
_atom_site_fract_y
_atom_site_fract_z
Si Si1 0.370776 0.659805 0.656999
Si Si2 0.321198 0.154266 0.591978
Si Si3 0.971170 0.029429 0.153581
Si Si4 0.527587 0.237908 0.596751
Si Si5 0.878407 0.001610 0.443134
Si Si6 0.224150 0.000392 0.942989
O O1 0.366022 0.729299 0.750000
O O2 0.342889 0.394178 0.640345
O O3 0.424597 0.641418 0.634092
O O4 0.351003 0.896133 0.604419
O O5 0.321700 0.250000 0.500000
O O6 0.268452 0.066504 0.611169
O O7 0.968679 0.026444 0.250000
O O8 0.920328 0.993265 0.118443
O O9 0.994720 0.298215 0.127748
O O10 0.532381 0.250000 0.500000
O O11 0.511580 0.527355 0.619642
O O12 0.884169 0.250000 0.500000
O O13 0.880296 0.750000 0.500000
O O14 0.826829 0.028495 0.405358
O O15 0.219824 0.250000 0.000000
O O16 0.233651 0.750000 0.000000
#
# Coordination Sequence:
#
# PCOD9436974 Si02
#       6
#     8   8   8   8   8   8
#     4  12  25  39  58  90 125 150 184 239 294 334
#     4  11  21  39  64  84 111 156 199 230 275 345
#     4  10  21  36  52  74 109 149 185 222 272 336
#     4  10  21  38  60  84 111 148 194 234 272 334
#     4  10  20  34  56  83 109 137 181 237 283 325
#     4   9  18  34  57  85 110 139 184 236 281 326
#
# _framework density 19.357953999999999
#
# number of rings (size 3 to 8) (size 9 to 14) (size 15 to 20)
#    0.000    1.667    0.000    6.000    0.000    4.000 
#    0.000    1.667    0.000    2.000    0.000    0.000 
#    0.000    0.000    0.000    0.000    0.000    0.000 
#
# Total GULP energy -267931.751766 kJ/mol
# GULP energy per Si atom -5581.911495 kJ/mol
# Density = 1.931389 g / cm^3
# Si number density = 19.357954 Si / 1000 Ang^3
#
#
#
# Elastic Constant Matrix: (Units=GPa)
#
#
# Indices 1 2 3 4 5 6 
#
# 1 120.9747 6.5350 21.7933 0.0000 0.0000 0.0000
# 2 6.5350 101.9223 0.7474 0.0000 0.0000 0.0000
# 3 21.7933 0.7474 19.3023 0.0000 0.0000 0.0000
# 4 0.0000 0.0000 0.0000 14.2612 0.0000 0.0000
# 5 0.0000 0.0000 0.0000 0.0000 -25.0093 0.0000
# 6 0.0000 0.0000 0.0000 0.0000 0.0000 37.1238
#
#
#
# Elastic Compliance Matrix: (Units=1/GPa)
#
#
# Indices 1 2 3 4 5 6 
#
# 1 0.010411 -0.000582 -0.011732 0.000000 0.000000 0.000000
# 2 -0.000582 0.009847 0.000275 0.000000 0.000000 0.000000
# 3 -0.011732 0.000275 0.065043 0.000000 0.000000 0.000000
# 4 0.000000 0.000000 0.000000 0.070120 0.000000 0.000000
# 5 0.000000 0.000000 0.000000 0.000000 -0.039985 0.000000
# 6 0.000000 0.000000 0.000000 0.000000 0.000000 0.026937
#
#
# Mechanical properties :
#
#
# Convention : Reuss Voigt Hill
#
# Bulk Modulus (GPa) = 16.33352 33.37229 24.85291
# Shear Modulus (GPa) = 26.75838 19.48338 23.12088
#
# Velocity S-wave (km/s) = 3.72195 3.17595 3.45974
# Velocity P-wave (km/s) = 5.18908 5.54309 5.36900
#
# Compressibility (1/GPa) = 0.06122380
#
# Stress axis : x y z
#
# Youngs Moduli (GPa) = 96.05117 101.55731 15.37450
#
# Poissons Ratio (x) = 0.05906 0.18038
# Poissons Ratio (y) = 0.05585 -0.00423
# Poissons Ratio (z) = 1.12689 -0.02796
#
# Static dielectric constant tensor:
#      x y z
#    x 1.716330 0.000000 0.000000 
#    y 0.000000 1.656500 0.000000 
#    z 0.000000 0.000000 1.657090 
# 
# From -- ./inp_files/19569.got.cif
#   From: 2010.05.17/outbox.cif.g08.bks.cpg/sg57_10_cif.got.tgz:19569.got - 2010.06.03 13:58:18.
