data_PCOD9436229
_publ_section_title
;
Structure prediction by ZEFSAII (Michael W. Deem and Ramdas Pophale) SiO2 
 PCOD9436229
Probable space group: P B C M
;
_chemical_formula_sum "Si O2"
_cell_formula_units_Z 48
_cell_length_a 7.498628
_cell_length_b 15.783206
_cell_length_c 19.716766
_cell_angle_alpha 90.000000
_cell_angle_beta 90.000000
_cell_angle_gamma 90.000000
_cell_volume 2333.526388
_symmetry_space_group_name_H-M "P B C M"
_symmetry_group_IT_number 57
_symmetry_cell_setting 'orthorhombic'
loop_
_space_group_symop_operation_xyz
x,y,z
-x,-y,1/2+z
x,1/2-y,-z
-x,1/2+y,1/2-z
-x,-y,-z
x,y,1/2-z
-x,1/2+y,z
x,1/2-y,1/2+z
loop_
_atom_site_type_symbol
_atom_site_label
_atom_site_fract_x
_atom_site_fract_y
_atom_site_fract_z
Si Si1 0.509560 0.343765 0.823467
Si Si2 0.810848 0.438618 0.467227
Si Si3 0.304740 0.979003 0.175966
Si Si4 0.476176 0.839957 0.971061
Si Si5 0.359651 0.151611 0.674427
Si Si6 0.169289 0.116093 0.533446
O O1 0.604720 0.347885 0.750000
O O2 0.377783 0.424638 0.824257
O O3 0.601725 0.352517 0.896243
O O4 0.423031 0.249977 0.827504
O O5 0.819191 0.466951 0.389070
O O6 0.611498 0.407109 0.479542
O O7 0.829462 0.515410 0.519677
O O8 0.960323 0.366638 0.477906
O O9 0.220997 0.963433 0.250000
O O10 0.471717 0.913104 0.170718
O O11 0.426029 0.750000 0.000000
O O12 0.689962 0.847556 0.978886
O O13 0.279306 0.138000 0.750000
O O14 0.237378 0.137421 0.608595
#
# Coordination Sequence:
#
# PCOD9436229 Si02
#       6
#     8   8   8   8   8   8
#     4  10  20  34  60  88 116 160 201 239 301 362
#     4  11  23  37  58  89 118 153 206 248 297 366
#     4  10  19  35  59  85 118 158 197 246 303 357
#     4  12  21  38  62  85 117 156 194 249 301 347
#     4  10  20  37  60  87 119 160 204 244 303 365
#     4  11  22  37  59  86 117 158 196 250 301 353
#
# _framework density 20.569725999999999
#
# number of rings (size 3 to 8) (size 9 to 14) (size 15 to 20)
#    0.000    1.333    5.000    1.500    0.000    1.333 
#    0.000    0.000    0.000    2.000    0.000    0.000 
#    0.000    0.000    0.000    0.000    0.000    0.000 
#
# Total GULP energy -267256.558953 kJ/mol
# GULP energy per Si atom -5567.844978 kJ/mol
# Density = 2.052291 g / cm^3
# Si number density = 20.569726 Si / 1000 Ang^3
#
#
#
# Elastic Constant Matrix: (Units=GPa)
#
#
# Indices 1 2 3 4 5 6 
#
# 1 34.5888 16.8550 3.1879 0.0000 0.0000 0.0000
# 2 16.8550 84.9577 8.9079 0.0000 0.0000 0.0000
# 3 3.1879 8.9079 156.1328 0.0000 0.0000 0.0000
# 4 0.0000 0.0000 0.0000 33.5816 0.0000 0.0000
# 5 0.0000 0.0000 0.0000 0.0000 10.2157 0.0000
# 6 0.0000 0.0000 0.0000 0.0000 0.0000 2.1648
#
#
#
# Elastic Compliance Matrix: (Units=1/GPa)
#
#
# Indices 1 2 3 4 5 6 
#
# 1 0.032019 -0.006322 -0.000293 0.000000 0.000000 0.000000
# 2 -0.006322 0.013089 -0.000618 0.000000 0.000000 0.000000
# 3 -0.000293 -0.000618 0.006446 0.000000 0.000000 0.000000
# 4 0.000000 0.000000 0.000000 0.029778 0.000000 0.000000
# 5 0.000000 0.000000 0.000000 0.000000 0.097888 0.000000
# 6 0.000000 0.000000 0.000000 0.000000 0.000000 0.461927
#
#
# Mechanical properties :
#
#
# Convention : Reuss Voigt Hill
#
# Bulk Modulus (GPa) = 26.96187 37.06453 32.01320
# Shear Modulus (GPa) = 7.48531 25.64099 16.56315
#
# Velocity S-wave (km/s) = 1.90968 3.53447 2.84072
# Velocity P-wave (km/s) = 4.24247 5.89192 5.13387
#
# Compressibility (1/GPa) = 0.03708942
#
# Stress axis : x y z
#
# Youngs Moduli (GPa) = 31.23186 76.39723 155.13419
#
# Poissons Ratio (x) = 0.48295 0.04547
# Poissons Ratio (y) = 0.19743 0.09583
# Poissons Ratio (z) = 0.00915 0.04719
#
# Static dielectric constant tensor:
#      x y z
#    x 1.769000 0.000000 0.000000 
#    y 0.000000 1.747170 0.000000 
#    z 0.000000 0.000000 1.795650 
# 
# From -- ./inp_files/21088.got.cif
#   From: 2010.05.17/outbox.cif.g08.bks.cpg/sg57_11_cif.got.tgz:21088.got - 2010.06.03 13:58:18.
