data_PCOD9436620
_publ_section_title
;
Structure prediction by ZEFSAII (Michael W. Deem and Ramdas Pophale) SiO2 
 PCOD9436620
Probable space group: P B C M
;
_chemical_formula_sum "Si O2"
_cell_formula_units_Z 48
_cell_length_a 13.041398
_cell_length_b 8.488902
_cell_length_c 24.023260
_cell_angle_alpha 90.000000
_cell_angle_beta 90.000000
_cell_angle_gamma 90.000000
_cell_volume 2659.546638
_symmetry_space_group_name_H-M "P B C M"
_symmetry_group_IT_number 57
_symmetry_cell_setting 'orthorhombic'
loop_
_space_group_symop_operation_xyz
x,y,z
-x,-y,1/2+z
x,1/2-y,-z
-x,1/2+y,1/2-z
-x,-y,-z
x,y,1/2-z
-x,1/2+y,z
x,1/2-y,1/2+z
loop_
_atom_site_type_symbol
_atom_site_label
_atom_site_fract_x
_atom_site_fract_y
_atom_site_fract_z
Si Si1 0.850287 0.375232 0.750000
Si Si2 0.643968 0.512520 0.250000
Si Si3 0.902005 0.427289 0.433139
Si Si4 0.192579 0.400007 0.663901
Si Si5 0.571330 0.629152 0.750000
Si Si6 0.127391 0.559314 0.434909
Si Si7 0.046691 0.538353 0.750000
Si Si8 0.733191 0.957630 0.159835
O O1 0.910768 0.213695 0.750000
O O2 0.784539 0.402535 0.804754
O O3 0.926682 0.523400 0.750000
O O4 0.717863 0.506316 0.196458
O O5 0.549619 0.395873 0.250000
O O6 0.596075 0.686697 0.250000
O O7 0.827868 0.537968 0.397398
O O8 0.874457 0.452392 0.498010
O O9 0.886261 0.243430 0.420424
O O10 0.020931 0.469973 0.419819
O O11 0.090603 0.445105 0.697327
O O12 0.218494 0.216448 0.668617
O O13 0.624296 0.560012 0.806918
O O14 0.229148 0.496553 0.403228
#
# Coordination Sequence:
#
# PCOD9436620 Si02
#       8
#     4   4   8   8   4   8   4   8
#     4  11  20  30  45  67  97 131 163 199 244 292
#     4   9  20  36  55  77  99 125 159 205 258 308
#     4  10  20  33  50  74 104 139 175 207 242 288
#     4  10  20  34  50  72 100 129 164 204 249 298
#     4   9  20  36  55  77  99 125 159 205 258 308
#     4  10  20  33  50  74 104 139 175 207 242 288
#     4  11  20  30  45  67  97 131 163 199 244 292
#     4  10  20  34  50  72 100 129 164 204 249 298
#
# _framework density 18.048189000000001
#
# number of rings (size 3 to 8) (size 9 to 14) (size 15 to 20)
#    0.000    2.000    0.000    5.500    0.000    6.000 
#    0.000    0.000    0.000    1.000    0.000    0.000 
#    0.000    0.000    0.000    0.000    0.000    0.000 
#
# Total GULP energy -267398.275173 kJ/mol
# GULP energy per Si atom -5570.797399 kJ/mol
# Density = 1.800711 g / cm^3
# Si number density = 18.048189 Si / 1000 Ang^3
#
#
#
# Elastic Constant Matrix: (Units=GPa)
#
#
# Indices 1 2 3 4 5 6 
#
# 1 45.1999 -2.6461 16.6769 0.0000 0.0000 0.0000
# 2 -2.6461 52.3530 11.1602 0.0000 0.0000 0.0000
# 3 16.6769 11.1602 62.1961 0.0000 0.0000 0.0000
# 4 0.0000 0.0000 0.0000 27.3245 0.0000 0.0000
# 5 0.0000 0.0000 0.0000 0.0000 10.2089 0.0000
# 6 0.0000 0.0000 0.0000 0.0000 0.0000 28.2773
#
#
#
# Elastic Compliance Matrix: (Units=1/GPa)
#
#
# Indices 1 2 3 4 5 6 
#
# 1 0.024940 0.002793 -0.007188 0.000000 0.000000 0.000000
# 2 0.002793 0.020174 -0.004369 0.000000 0.000000 0.000000
# 3 -0.007188 -0.004369 0.018790 0.000000 0.000000 0.000000
# 4 0.000000 0.000000 0.000000 0.036597 0.000000 0.000000
# 5 0.000000 0.000000 0.000000 0.000000 0.097954 0.000000
# 6 0.000000 0.000000 0.000000 0.000000 0.000000 0.035364
#
#
# Mechanical properties :
#
#
# Convention : Reuss Voigt Hill
#
# Bulk Modulus (GPa) = 21.56361 23.34789 22.45575
# Shear Modulus (GPa) = 18.74030 22.13264 20.43647
#
# Velocity S-wave (km/s) = 3.22584 3.50567 3.36866
# Velocity P-wave (km/s) = 5.08414 5.41764 5.25353
#
# Compressibility (1/GPa) = 0.04637442
#
# Stress axis : x y z
#
# Youngs Moduli (GPa) = 40.09676 49.56980 53.22115
#
# Poissons Ratio (x) = -0.13844 0.38257
# Poissons Ratio (y) = -0.11199 0.23251
# Poissons Ratio (z) = 0.28823 0.21656
#
# Static dielectric constant tensor:
#      x y z
#    x 1.621650 0.000000 0.000000 
#    y 0.000000 1.633710 0.000000 
#    z 0.000000 0.000000 1.657950 
# 
# From -- ./inp_files/27169.got.cif
#   From: 2010.05.17/outbox.cif.g08.bks.cpg/sg57_14_cif.got.tgz:27169.got - 2010.06.03 13:58:18.
