data_PCOD9436184
_publ_section_title
;
Structure prediction by ZEFSAII (Michael W. Deem and Ramdas Pophale) SiO2 
 PCOD9436184
Probable space group: P B C M
;
_chemical_formula_sum "Si O2"
_cell_formula_units_Z 40
_cell_length_a 12.149244
_cell_length_b 9.387491
_cell_length_c 14.869071
_cell_angle_alpha 90.000000
_cell_angle_beta 90.000000
_cell_angle_gamma 90.000000
_cell_volume 1695.831208
_symmetry_space_group_name_H-M "P B C M"
_symmetry_group_IT_number 57
_symmetry_cell_setting 'orthorhombic'
loop_
_space_group_symop_operation_xyz
x,y,z
-x,-y,1/2+z
x,1/2-y,-z
-x,1/2+y,1/2-z
-x,-y,-z
x,y,1/2-z
-x,1/2+y,z
x,1/2-y,1/2+z
loop_
_atom_site_type_symbol
_atom_site_label
_atom_site_fract_x
_atom_site_fract_y
_atom_site_fract_z
Si Si1 0.525580 0.796936 0.859873
Si Si2 0.648985 0.992298 0.140767
Si Si3 0.069929 0.613713 0.559101
Si Si4 0.268344 0.459449 0.650967
Si Si5 0.848699 0.683284 0.899259
O O1 0.528703 0.798627 0.750000
O O2 0.569829 0.641576 0.885994
O O3 0.615501 0.914511 0.891168
O O4 0.407538 0.859355 0.887180
O O5 0.655878 0.991901 0.250000
O O6 0.769604 0.953530 0.104379
O O7 0.095408 0.750000 0.500000
O O8 0.180787 0.553860 0.599784
O O9 0.000000 0.500000 0.500000
O O10 0.973785 0.656725 0.629249
O O11 0.289474 0.520527 0.750000
O O12 0.209588 0.305427 0.657319
O O13 0.850017 0.750000 0.000000
#
# Coordination Sequence:
#
# PCOD9436184 Si02
#       5
#     8   8   8   8   8
#     4   8  16  32  53  76 107 139 177 227 279 317
#     4   9  17  33  54  76 104 143 182 225 272 325
#     4  11  21  40  59  78 112 151 181 228 289 333
#     4  10  20  37  60  84 109 148 191 231 274 333
#     4  10  19  35  58  77 114 147 184 218 285 331
#
# _framework density 23.587253
#
# number of rings (size 3 to 8) (size 9 to 14) (size 15 to 20)
#    0.000    2.400    4.000    1.800    0.000    1.600 
#    3.600    5.000    0.000    0.000    0.000    0.000 
#    0.000    0.000    0.000    0.000    0.000    0.000 
#
# Total GULP energy -223309.803272 kJ/mol
# GULP energy per Si atom -5582.745082 kJ/mol
# Density = 2.353357 g / cm^3
# Si number density = 23.587253 Si / 1000 Ang^3
#
#
#
# Elastic Constant Matrix: (Units=GPa)
#
#
# Indices 1 2 3 4 5 6 
#
# 1 47.8053 -1.9669 7.3555 0.0000 0.0000 0.0000
# 2 -1.9669 31.7069 8.9450 0.0000 0.0000 0.0000
# 3 7.3555 8.9450 54.5992 0.0000 0.0000 0.0000
# 4 0.0000 0.0000 0.0000 23.1280 0.0000 0.0000
# 5 0.0000 0.0000 0.0000 0.0000 20.3380 0.0000
# 6 0.0000 0.0000 0.0000 0.0000 0.0000 39.4965
#
#
#
# Elastic Compliance Matrix: (Units=1/GPa)
#
#
# Indices 1 2 3 4 5 6 
#
# 1 0.021514 0.002256 -0.003268 0.000000 0.000000 0.000000
# 2 0.002256 0.033304 -0.005760 0.000000 0.000000 0.000000
# 3 -0.003268 -0.005760 0.019699 0.000000 0.000000 0.000000
# 4 0.000000 0.000000 0.000000 0.043238 0.000000 0.000000
# 5 0.000000 0.000000 0.000000 0.000000 0.049169 0.000000
# 6 0.000000 0.000000 0.000000 0.000000 0.000000 0.025319
#
#
# Mechanical properties :
#
#
# Convention : Reuss Voigt Hill
#
# Bulk Modulus (GPa) = 16.40053 18.08651 17.24352
# Shear Modulus (GPa) = 22.11313 24.57769 23.34541
#
# Velocity S-wave (km/s) = 3.06519 3.23149 3.14944
# Velocity P-wave (km/s) = 4.41536 4.64843 4.53339
#
# Compressibility (1/GPa) = 0.06097365
#
# Stress axis : x y z
#
# Youngs Moduli (GPa) = 46.48168 30.02659 50.76339
#
# Poissons Ratio (x) = -0.06775 0.16589
# Poissons Ratio (y) = -0.10489 0.29240
# Poissons Ratio (z) = 0.15190 0.17296
#
# Static dielectric constant tensor:
#      x y z
#    x 1.933410 0.000000 0.000000 
#    y 0.000000 1.921780 0.000000 
#    z 0.000000 0.000000 1.977500 
# 
# From -- ./inp_files/18210.got.cif
#   From: 2010.05.17/outbox.cif.g08.bks.cpg/sg57_10_cif.got.tgz:18210.got - 2010.06.03 13:58:18.
