data_PCOD9436253
_publ_section_title
;
Structure prediction by ZEFSAII (Michael W. Deem and Ramdas Pophale) SiO2 
 PCOD9436253
Probable space group: P B C M
;
_chemical_formula_sum "Si O2"
_cell_formula_units_Z 48
_cell_length_a 10.491925
_cell_length_b 28.972341
_cell_length_c 8.571941
_cell_angle_alpha 90.000000
_cell_angle_beta 90.000000
_cell_angle_gamma 90.000000
_cell_volume 2605.661156
_symmetry_space_group_name_H-M "P B C M"
_symmetry_group_IT_number 57
_symmetry_cell_setting 'orthorhombic'
loop_
_space_group_symop_operation_xyz
x,y,z
-x,-y,1/2+z
x,1/2-y,-z
-x,1/2+y,1/2-z
-x,-y,-z
x,y,1/2-z
-x,1/2+y,z
x,1/2-y,1/2+z
loop_
_atom_site_type_symbol
_atom_site_label
_atom_site_fract_x
_atom_site_fract_y
_atom_site_fract_z
Si Si1 0.236974 0.605592 0.439803
Si Si2 0.737963 0.895150 0.435890
Si Si3 0.354582 0.799861 0.937892
Si Si4 0.015475 0.051962 0.062118
Si Si5 0.508110 0.448312 0.937651
Si Si6 0.347515 0.199605 0.062771
O O1 0.234319 0.606518 0.250000
O O2 0.268127 0.657579 0.492504
O O3 0.357616 0.574315 0.484805
O O4 0.105572 0.582611 0.491051
O O5 0.741418 0.896325 0.250000
O O6 0.856265 0.923951 0.502673
O O7 0.608507 0.918835 0.496287
O O8 0.733731 0.842430 0.495022
O O9 0.352210 0.798937 0.750000
O O10 0.503126 0.807593 0.983244
O O11 0.315031 0.750000 0.000000
O O12 0.016714 0.050608 0.250000
O O13 0.000000 0.000000 0.000000
O O14 0.501237 0.447844 0.750000
O O15 0.500000 0.500000 0.000000
O O16 0.340957 0.198953 0.250000
O O17 0.310166 0.250000 0.000000
#
# Coordination Sequence:
#
# PCOD9436253 Si02
#       6
#     8   8   8   8   8   8
#     4   9  19  37  59  82 113 151 190 236 297 359
#     4  12  24  39  58  86 121 161 206 246 292 355
#     4   9  17  33  56  85 116 147 183 231 290 352
#     4  11  23  41  63  85 116 159 201 248 307 364
#     4  11  21  37  59  87 117 149 193 250 306 357
#     4  10  19  35  60  89 121 154 193 245 302 357
#
# _framework density 18.421426
#
# number of rings (size 3 to 8) (size 9 to 14) (size 15 to 20)
#    0.000    1.667    1.667    4.000    0.000    2.000 
#    0.000    5.000    0.000    2.000    0.000    0.000 
#    0.000    0.000    0.000    0.000    0.000    0.000 
#
# Total GULP energy -268159.677955 kJ/mol
# GULP energy per Si atom -5586.659957 kJ/mol
# Density = 1.837950 g / cm^3
# Si number density = 18.421426 Si / 1000 Ang^3
#
#
#
# Elastic Constant Matrix: (Units=GPa)
#
#
# Indices 1 2 3 4 5 6 
#
# 1 66.9525 20.3188 19.3997 0.0000 0.0000 0.0000
# 2 20.3188 127.8712 27.7282 0.0000 0.0000 0.0000
# 3 19.3997 27.7282 65.4036 0.0000 0.0000 0.0000
# 4 0.0000 0.0000 0.0000 36.9346 0.0000 0.0000
# 5 0.0000 0.0000 0.0000 0.0000 13.6606 0.0000
# 6 0.0000 0.0000 0.0000 0.0000 0.0000 34.6834
#
#
#
# Elastic Compliance Matrix: (Units=1/GPa)
#
#
# Indices 1 2 3 4 5 6 
#
# 1 0.016684 -0.001738 -0.004212 0.000000 0.000000 0.000000
# 2 -0.001738 0.008793 -0.003212 0.000000 0.000000 0.000000
# 3 -0.004212 -0.003212 0.017901 0.000000 0.000000 0.000000
# 4 0.000000 0.000000 0.000000 0.027075 0.000000 0.000000
# 5 0.000000 0.000000 0.000000 0.000000 0.073203 0.000000
# 6 0.000000 0.000000 0.000000 0.000000 0.000000 0.028832
#
#
# Mechanical properties :
#
#
# Convention : Reuss Voigt Hill
#
# Bulk Modulus (GPa) = 39.91446 43.90231 41.90838
# Shear Modulus (GPa) = 25.10497 29.90773 27.50635
#
# Velocity S-wave (km/s) = 3.69564 4.03368 3.86835
# Velocity P-wave (km/s) = 6.31860 6.75115 6.53845
#
# Compressibility (1/GPa) = 0.02505358
#
# Stress axis : x y z
#
# Youngs Moduli (GPa) = 59.93852 113.72552 55.86295
#
# Poissons Ratio (x) = 0.19762 0.23529
# Poissons Ratio (y) = 0.10416 0.17946
# Poissons Ratio (z) = 0.25246 0.36534
#
# Static dielectric constant tensor:
#      x y z
#    x 1.614790 0.000000 0.000000 
#    y 0.000000 1.620760 0.000000 
#    z 0.000000 0.000000 1.613880 
# 
# From -- ./inp_files/2119.got.cif
#   From: 2010.05.17/outbox.cif.g08.bks.cpg/sg57_2_cif.got.tgz:2119.got - 2010.06.03 13:58:18.
