data_PCOD9436280
_publ_section_title
;
Structure prediction by ZEFSAII (Michael W. Deem and Ramdas Pophale) SiO2 
 PCOD9436280
Probable space group: P B C M
;
_chemical_formula_sum "Si O2"
_cell_formula_units_Z 48
_cell_length_a 5.745556
_cell_length_b 27.652160
_cell_length_c 13.767429
_cell_angle_alpha 90.000000
_cell_angle_beta 90.000000
_cell_angle_gamma 90.000000
_cell_volume 2187.328283
_symmetry_space_group_name_H-M "P B C M"
_symmetry_group_IT_number 57
_symmetry_cell_setting 'orthorhombic'
loop_
_space_group_symop_operation_xyz
x,y,z
-x,-y,1/2+z
x,1/2-y,-z
-x,1/2+y,1/2-z
-x,-y,-z
x,y,1/2-z
-x,1/2+y,z
x,1/2-y,1/2+z
loop_
_atom_site_type_symbol
_atom_site_label
_atom_site_fract_x
_atom_site_fract_y
_atom_site_fract_z
Si Si1 0.403949 0.230534 0.389986
Si Si2 0.151042 0.034216 0.364466
Si Si3 0.214020 0.948932 0.021085
Si Si4 0.100028 0.767404 0.111978
Si Si5 0.079355 0.372461 0.363228
Si Si6 0.602596 0.876135 0.954992
O O1 0.397404 0.250000 0.500000
O O2 0.148624 0.246032 0.351046
O O3 0.428734 0.172865 0.396190
O O4 0.648145 0.250677 0.349817
O O5 0.130790 0.027975 0.250000
O O6 0.238398 0.087397 0.393007
O O7 0.913802 0.029590 0.426170
O O8 0.312656 0.993179 0.414816
O O9 0.043667 0.920545 0.095726
O O10 0.379207 0.907485 0.980792
O O11 0.081395 0.825024 0.124906
O O12 0.103836 0.750000 0.000000
O O13 0.144972 0.377140 0.250000
O O14 0.284511 0.363576 0.440563
#
# Coordination Sequence:
#
# PCOD9436280 Si02
#       6
#     8   8   8   8   8   8
#     4  10  19  35  66  86 126 173 220 271 337 403
#     4  10  23  42  65  97 131 169 221 280 344 413
#     4  10  22  42  67  93 131 174 218 280 345 408
#     4  10  19  37  60  91 123 176 216 278 336 402
#     4  11  23  38  62  96 131 173 228 282 336 405
#     4  11  22  40  66  95 128 177 222 276 347 406
#
# _framework density 21.944579000000001
#
# number of rings (size 3 to 8) (size 9 to 14) (size 15 to 20)
#    0.000    1.667    3.333    3.000    2.333    2.000 
#    0.000    1.667    0.000    0.000    0.000    0.000 
#    0.000    0.000    0.000    0.000    0.000    0.000 
#
# Total GULP energy -267731.643577 kJ/mol
# GULP energy per Si atom -5577.742575 kJ/mol
# Density = 2.189463 g / cm^3
# Si number density = 21.944579 Si / 1000 Ang^3
#
#
#
# Elastic Constant Matrix: (Units=GPa)
#
#
# Indices 1 2 3 4 5 6 
#
# 1 111.4887 21.3753 25.0100 0.0000 0.0000 0.0000
# 2 21.3753 140.3058 22.8490 0.0000 0.0000 0.0000
# 3 25.0100 22.8490 156.7435 0.0000 0.0000 0.0000
# 4 0.0000 0.0000 0.0000 -4.2544 0.0000 0.0000
# 5 0.0000 0.0000 0.0000 0.0000 -23.0376 0.0000
# 6 0.0000 0.0000 0.0000 0.0000 0.0000 10.4764
#
#
#
# Elastic Compliance Matrix: (Units=1/GPa)
#
#
# Indices 1 2 3 4 5 6 
#
# 1 0.009505 -0.001230 -0.001337 0.000000 0.000000 0.000000
# 2 -0.001230 0.007460 -0.000891 0.000000 0.000000 0.000000
# 3 -0.001337 -0.000891 0.006723 0.000000 0.000000 0.000000
# 4 0.000000 0.000000 0.000000 -0.235049 0.000000 0.000000
# 5 0.000000 0.000000 0.000000 0.000000 -0.043407 0.000000
# 6 0.000000 0.000000 0.000000 0.000000 0.000000 0.095452
#
#
# Mechanical properties :
#
#
# Convention : Reuss Voigt Hill
#
# Bulk Modulus (GPa) = 59.62752 60.77851 60.20302
# Shear Modulus (GPa) = -34.05829 19.25712 -7.40059
#
# Velocity S-wave (km/s) = -3.94383 2.96553 -1.83840
# Velocity P-wave (km/s) = 2.54802 6.28350 4.79452
#
# Compressibility (1/GPa) = 0.01677078
#
# Stress axis : x y z
#
# Youngs Moduli (GPa) = 105.20325 134.05090 148.74002
#
# Poissons Ratio (x) = 0.16493 0.19891
# Poissons Ratio (y) = 0.12944 0.13255
# Poissons Ratio (z) = 0.14069 0.11946
#
# Static dielectric constant tensor:
#      x y z
#    x 1.876440 0.000000 0.000000 
#    y 0.000000 1.824910 0.000000 
#    z 0.000000 0.000000 1.752520 
# 
# From -- ./inp_files/15088.got.cif
#   From: 2010.05.17/outbox.cif.g08.bks.cpg/sg57_8_cif.got.tgz:15088.got - 2010.06.03 13:58:18.
