data_PCOD9436605
_publ_section_title
;
Structure prediction by ZEFSAII (Michael W. Deem and Ramdas Pophale) SiO2 
 PCOD9436605
Probable space group: P B C M
;
_chemical_formula_sum "Si O2"
_cell_formula_units_Z 48
_cell_length_a 32.453265
_cell_length_b 9.601496
_cell_length_c 8.662878
_cell_angle_alpha 90.000000
_cell_angle_beta 90.000000
_cell_angle_gamma 90.000000
_cell_volume 2699.351867
_symmetry_space_group_name_H-M "P B C M"
_symmetry_group_IT_number 57
_symmetry_cell_setting 'orthorhombic'
loop_
_space_group_symop_operation_xyz
x,y,z
-x,-y,1/2+z
x,1/2-y,-z
-x,1/2+y,1/2-z
-x,-y,-z
x,y,1/2-z
-x,1/2+y,z
x,1/2-y,1/2+z
loop_
_atom_site_type_symbol
_atom_site_label
_atom_site_fract_x
_atom_site_fract_y
_atom_site_fract_z
Si Si1 0.963467 0.093310 0.435064
Si Si2 0.536712 0.906446 0.564830
Si Si3 0.872538 0.407634 0.565577
Si Si4 0.210842 0.592579 0.934119
Si Si5 0.375300 0.405824 0.065251
Si Si6 0.697820 0.092721 0.564260
O O1 0.966641 0.250000 0.500000
O O2 0.965800 0.099082 0.250000
O O3 0.917734 0.034972 0.476383
O O4 0.000000 0.000000 0.500000
O O5 0.531915 0.750000 0.500000
O O6 0.536533 0.904484 0.750000
O O7 0.581156 0.957433 0.503752
O O8 0.500000 0.000000 0.500000
O O9 0.873237 0.250000 0.500000
O O10 0.869383 0.401900 0.750000
O O11 0.830768 0.475281 0.500396
O O12 0.207267 0.599184 0.750000
O O13 0.256164 0.534948 0.973087
O O14 0.211685 0.750000 0.000000
O O15 0.377884 0.401442 0.250000
O O16 0.369351 0.250000 0.000000
O O17 0.337865 0.501154 0.009925
O O18 0.695272 0.250000 0.500000
O O19 0.693766 0.095485 0.750000
#
# Coordination Sequence:
#
# PCOD9436605 Si02
#       6
#     8   8   8   8   8   8
#     4  10  20  33  50  73 100 132 168 209 254 305
#     4  11  22  39  60  84 111 141 177 218 261 308
#     4   9  16  26  43  67  95 126 163 203 248 299
#     4   9  16  26  44  69  99 130 163 205 253 298
#     4  11  22  38  58  80 107 143 179 214 258 310
#     4  10  20  34  52  79 109 138 173 215 259 304
#
# _framework density 17.782048
#
# number of rings (size 3 to 8) (size 9 to 14) (size 15 to 20)
#    0.000    2.000    0.000    7.000    0.000    4.667 
#    0.000    3.333    0.000    1.000    0.000    7.000 
#    0.000    0.000    0.000    0.000    0.000    0.000 
#
# Total GULP energy -267683.726962 kJ/mol
# GULP energy per Si atom -5576.744312 kJ/mol
# Density = 1.774157 g / cm^3
# Si number density = 17.782048 Si / 1000 Ang^3
#
#
#
# Elastic Constant Matrix: (Units=GPa)
#
#
# Indices 1 2 3 4 5 6 
#
# 1 226.6819 65.1542 86.6476 0.0000 0.0000 0.0000
# 2 65.1542 34.6949 27.9488 0.0000 0.0000 0.0000
# 3 86.6476 27.9488 131.3437 0.0000 0.0000 0.0000
# 4 0.0000 0.0000 0.0000 24.5265 0.0000 0.0000
# 5 0.0000 0.0000 0.0000 0.0000 34.3023 0.0000
# 6 0.0000 0.0000 0.0000 0.0000 0.0000 26.3630
#
#
#
# Elastic Compliance Matrix: (Units=1/GPa)
#
#
# Indices 1 2 3 4 5 6 
#
# 1 0.010683 -0.017361 -0.003354 0.000000 0.000000 0.000000
# 2 -0.017361 0.062998 -0.001952 0.000000 0.000000 0.000000
# 3 -0.003354 -0.001952 0.010241 0.000000 0.000000 0.000000
# 4 0.000000 0.000000 0.000000 0.040772 0.000000 0.000000
# 5 0.000000 0.000000 0.000000 0.000000 0.029153 0.000000
# 6 0.000000 0.000000 0.000000 0.000000 0.000000 0.037932
#
#
# Mechanical properties :
#
#
# Convention : Reuss Voigt Hill
#
# Bulk Modulus (GPa) = 25.91427 83.58020 54.74723
# Shear Modulus (GPa) = 20.00196 31.23635 25.61915
#
# Velocity S-wave (km/s) = 3.35750 4.19576 3.79981
# Velocity P-wave (km/s) = 5.44383 8.40102 7.07857
#
# Compressibility (1/GPa) = 0.03858878
#
# Stress axis : x y z
#
# Youngs Moduli (GPa) = 93.60413 15.87361 97.64287
#
# Poissons Ratio (x) = 0.27558 0.32745
# Poissons Ratio (y) = 1.62505 0.19064
# Poissons Ratio (z) = 0.31391 0.03099
#
# Static dielectric constant tensor:
#      x y z
#    x 1.664940 0.000000 0.000000 
#    y 0.000000 1.572970 0.000000 
#    z 0.000000 0.000000 1.592000 
# 
# From -- ./inp_files/9911.got.cif
#   From: 2010.05.17/outbox.cif.g08.bks.cpg/sg57_5_cif.got.tgz:9911.got - 2010.06.03 13:58:18.
