data_PCOD9436893
_publ_section_title
;
Structure prediction by ZEFSAII (Michael W. Deem and Ramdas Pophale) SiO2 
 PCOD9436893
Probable space group: P B C M
;
_chemical_formula_sum "Si O2"
_cell_formula_units_Z 64
_cell_length_a 12.264832
_cell_length_b 32.205713
_cell_length_c 8.604356
_cell_angle_alpha 90.000000
_cell_angle_beta 90.000000
_cell_angle_gamma 90.000000
_cell_volume 3398.700481
_symmetry_space_group_name_H-M "P B C M"
_symmetry_group_IT_number 57
_symmetry_cell_setting 'orthorhombic'
loop_
_space_group_symop_operation_xyz
x,y,z
-x,-y,1/2+z
x,1/2-y,-z
-x,1/2+y,1/2-z
-x,-y,-z
x,y,1/2-z
-x,1/2+y,z
x,1/2-y,1/2+z
loop_
_atom_site_type_symbol
_atom_site_label
_atom_site_fract_x
_atom_site_fract_y
_atom_site_fract_z
Si Si1 0.605020 0.872167 0.562049
Si Si2 0.386234 0.517012 0.436518
Si Si3 0.761600 0.942555 0.435616
Si Si4 0.126971 0.874951 0.434380
Si Si5 0.359319 0.612215 0.437477
Si Si6 0.004775 0.047250 0.065713
Si Si7 0.999125 0.704809 0.436950
Si Si8 0.746955 0.793844 0.936450
O O1 0.611657 0.877586 0.750000
O O2 0.667916 0.910354 0.483960
O O3 0.477606 0.869431 0.522293
O O4 0.670388 0.831309 0.514752
O O5 0.500000 0.500000 0.500000
O O6 0.393399 0.516165 0.250000
O O7 0.286490 0.487422 0.481213
O O8 0.366878 0.563968 0.484643
O O9 0.779324 0.941232 0.250000
O O10 0.875363 0.935413 0.521521
O O11 0.114630 0.875921 0.250000
O O12 0.252890 0.869753 0.482616
O O13 0.062689 0.835271 0.501696
O O14 0.080595 0.918782 0.500654
O O15 0.346009 0.614590 0.250000
O O16 0.990163 0.044862 0.250000
O O17 0.000000 0.000000 0.000000
O O18 0.036478 0.750000 0.500000
O O19 0.004262 0.705482 0.250000
O O20 0.872321 0.700103 0.486742
O O21 0.747092 0.792629 0.750000
O O22 0.708050 0.750000 0.000000
#
# Coordination Sequence:
#
# PCOD9436893 Si02
#       8
#     8   8   8   8   8   8   8   8
#     4  10  20  36  58  84 114 153 196 235 286 346
#     4  10  20  34  54  80 112 152 195 239 285 337
#     4  11  22  35  56  87 118 150 193 242 292 346
#     4  12  25  41  62  89 121 161 206 254 311 372
#     4  10  21  38  58  81 116 162 204 246 294 350
#     4  12  25  42  62  86 119 159 202 250 305 365
#     4  10  20  38  64  93 124 157 198 250 306 368
#     4   9  19  35  58  87 115 145 182 228 288 350
#
# _framework density 18.830725999999999
#
# number of rings (size 3 to 8) (size 9 to 14) (size 15 to 20)
#    0.000    1.500    1.250    4.500    0.000    4.500 
#    0.000    0.625    0.000    1.500    0.000    0.000 
#    0.000    0.000    0.000    0.000    0.000    0.000 
#
# Total GULP energy -357584.743746 kJ/mol
# GULP energy per Si atom -5587.261621 kJ/mol
# Density = 1.878787 g / cm^3
# Si number density = 18.830726 Si / 1000 Ang^3
#
#
#
# Elastic Constant Matrix: (Units=GPa)
#
#
# Indices 1 2 3 4 5 6 
#
# 1 94.6297 47.9268 30.6944 0.0000 0.0000 0.0000
# 2 47.9268 123.1087 38.9332 0.0000 0.0000 0.0000
# 3 30.6944 38.9332 66.4794 0.0000 0.0000 0.0000
# 4 0.0000 0.0000 0.0000 30.2563 0.0000 0.0000
# 5 0.0000 0.0000 0.0000 0.0000 26.7400 0.0000
# 6 0.0000 0.0000 0.0000 0.0000 0.0000 34.7642
#
#
#
# Elastic Compliance Matrix: (Units=1/GPa)
#
#
# Indices 1 2 3 4 5 6 
#
# 1 0.013983 -0.004175 -0.004011 0.000000 0.000000 0.000000
# 2 -0.004175 0.011216 -0.004641 0.000000 0.000000 0.000000
# 3 -0.004011 -0.004641 0.019612 0.000000 0.000000 0.000000
# 4 0.000000 0.000000 0.000000 0.033051 0.000000 0.000000
# 5 0.000000 0.000000 0.000000 0.000000 0.037397 0.000000
# 6 0.000000 0.000000 0.000000 0.000000 0.000000 0.028765
#
#
# Mechanical properties :
#
#
# Convention : Reuss Voigt Hill
#
# Bulk Modulus (GPa) = 52.19997 57.70295 54.95146
# Shear Modulus (GPa) = 28.39872 29.46301 28.93086
#
# Velocity S-wave (km/s) = 3.88765 3.95982 3.92390
# Velocity P-wave (km/s) = 6.92333 7.18446 7.05510
#
# Compressibility (1/GPa) = 0.01915710
#
# Stress axis : x y z
#
# Youngs Moduli (GPa) = 71.51477 89.15837 50.98904
#
# Poissons Ratio (x) = 0.37226 0.20452
# Poissons Ratio (y) = 0.29859 0.23663
# Poissons Ratio (z) = 0.28685 0.41377
#
# Static dielectric constant tensor:
#      x y z
#    x 1.657300 0.000000 0.000000 
#    y 0.000000 1.651430 0.000000 
#    z 0.000000 0.000000 1.634000 
# 
# From -- ./inp_files/3817.got.cif
#   From: 2010.05.17/outbox.cif.g08.bks.cpg/sg57_2_cif.got.tgz:3817.got - 2010.06.03 13:58:18.
