data_PCOD9436564
_publ_section_title
;
Structure prediction by ZEFSAII (Michael W. Deem and Ramdas Pophale) SiO2 
 PCOD9436564
Probable space group: P B C M
;
_chemical_formula_sum "Si O2"
_cell_formula_units_Z 64
_cell_length_a 18.427781
_cell_length_b 23.202685
_cell_length_c 7.526467
_cell_angle_alpha 90.000000
_cell_angle_beta 90.000000
_cell_angle_gamma 90.000000
_cell_volume 3218.121584
_symmetry_space_group_name_H-M "P B C M"
_symmetry_group_IT_number 57
_symmetry_cell_setting 'orthorhombic'
loop_
_space_group_symop_operation_xyz
x,y,z
-x,-y,1/2+z
x,1/2-y,-z
-x,1/2+y,1/2-z
-x,-y,-z
x,y,1/2-z
-x,1/2+y,z
x,1/2-y,1/2+z
loop_
_atom_site_type_symbol
_atom_site_label
_atom_site_fract_x
_atom_site_fract_y
_atom_site_fract_z
Si Si1 0.512195 0.932420 0.537648
Si Si2 0.066495 0.184403 0.037079
Si Si3 0.752478 0.314120 0.962746
Si Si4 0.355203 0.586819 0.463665
Si Si5 0.916714 0.484535 0.538826
Si Si6 0.820393 0.908443 0.954493
Si Si7 0.907664 0.352406 0.532964
Si Si8 0.668919 0.951756 0.535645
O O1 0.513810 0.923405 0.750000
O O2 0.437947 0.903814 0.469422
O O3 0.593887 0.922744 0.470055
O O4 0.500000 0.000000 0.500000
O O5 0.063174 0.175609 0.250000
O O6 0.125965 0.139479 0.965702
O O7 0.984798 0.172183 0.969986
O O8 0.086454 0.250000 0.000000
O O9 0.755795 0.320878 0.750000
O O10 0.701381 0.365651 0.030851
O O11 0.835227 0.320487 0.029418
O O12 0.724780 0.250000 0.000000
O O13 0.357530 0.592114 0.250000
O O14 0.332496 0.520525 0.498665
O O15 0.905239 0.486981 0.750000
O O16 0.864715 0.531896 0.455552
O O17 0.902295 0.419353 0.480637
O O18 0.000000 0.500000 0.500000
O O19 0.807734 0.890870 0.750000
O O20 0.741745 0.921909 0.034325
O O21 0.908876 0.350424 0.750000
O O22 0.669247 0.947449 0.750000
#
# Coordination Sequence:
#
# PCOD9436564 Si02
#       8
#     8   8   8   8   8   8   8   8
#     4   8  14  26  45  70  96 122 151 184 226 281
#     4  10  20  35  50  64  87 120 159 201 239 277
#     4  10  20  33  48  67  92 127 165 201 238 279
#     4   9  17  30  48  70  99 129 156 192 242 291
#     4  11  20  33  52  74 100 128 158 195 243 295
#     4  10  20  34  49  70 100 128 156 197 244 284
#     4   9  18  33  50  67  93 123 153 195 241 278
#     4   9  17  29  49  75  99 124 157 195 239 291
#
# _framework density 19.887377000000001
#
# number of rings (size 3 to 8) (size 9 to 14) (size 15 to 20)
#    0.000    2.500    1.250    1.500    0.000    2.500 
#    0.000    1.250    0.000    0.750    0.000    0.000 
#    0.000    0.000    0.000    0.000    0.000    0.000 
#
# Total GULP energy -356974.269711 kJ/mol
# GULP energy per Si atom -5577.722964 kJ/mol
# Density = 1.984211 g / cm^3
# Si number density = 19.887377 Si / 1000 Ang^3
#
#
#
# Elastic Constant Matrix: (Units=GPa)
#
#
# Indices 1 2 3 4 5 6 
#
# 1 189.7856 58.4750 8.9423 0.0000 0.0000 0.0000
# 2 58.4750 88.6226 -0.3228 0.0000 0.0000 0.0000
# 3 8.9423 -0.3228 53.5982 0.0000 0.0000 0.0000
# 4 0.0000 0.0000 0.0000 13.1660 0.0000 0.0000
# 5 0.0000 0.0000 0.0000 0.0000 -1.4618 0.0000
# 6 0.0000 0.0000 0.0000 0.0000 0.0000 15.8476
#
#
#
# Elastic Compliance Matrix: (Units=1/GPa)
#
#
# Indices 1 2 3 4 5 6 
#
# 1 0.006683 -0.004414 -0.001142 0.000000 0.000000 0.000000
# 2 -0.004414 0.014199 0.000822 0.000000 0.000000 0.000000
# 3 -0.001142 0.000822 0.018853 0.000000 0.000000 0.000000
# 4 0.000000 0.000000 0.000000 0.075953 0.000000 0.000000
# 5 0.000000 0.000000 0.000000 0.000000 -0.684091 0.000000
# 6 0.000000 0.000000 0.000000 0.000000 0.000000 0.063101
#
#
# Mechanical properties :
#
#
# Convention : Reuss Voigt Hill
#
# Bulk Modulus (GPa) = 33.03815 51.79946 42.41880
# Shear Modulus (GPa) = -10.29343 23.17116 6.43887
#
# Velocity S-wave (km/s) = -2.27752 3.41709 1.80130
# Velocity P-wave (km/s) = 3.11970 6.45535 5.06972
#
# Compressibility (1/GPa) = 0.03026804
#
# Stress axis : x y z
#
# Youngs Moduli (GPa) = 149.63870 70.42763 53.04264
#
# Poissons Ratio (x) = 0.31084 0.06055
# Poissons Ratio (y) = 0.66044 -0.04359
# Poissons Ratio (z) = 0.17082 -0.05788
#
# Static dielectric constant tensor:
#      x y z
#    x 1.748940 0.000000 0.000000 
#    y 0.000000 1.643080 0.000000 
#    z 0.000000 0.000000 1.741300 
# 
# From -- ./inp_files/7229.got.cif
#   From: 2010.05.17/outbox.cif.g08.bks.cpg/sg57_4_cif.got.tgz:7229.got - 2010.06.03 13:58:18.
