data_PCOD9436401
_publ_section_title
;
Structure prediction by ZEFSAII (Michael W. Deem and Ramdas Pophale) SiO2 
 PCOD9436401
Probable space group: P B C M
;
_chemical_formula_sum "Si O2"
_cell_formula_units_Z 64
_cell_length_a 12.609878
_cell_length_b 13.558714
_cell_length_c 18.238445
_cell_angle_alpha 90.000000
_cell_angle_beta 90.000000
_cell_angle_gamma 90.000000
_cell_volume 3118.294960
_symmetry_space_group_name_H-M "P B C M"
_symmetry_group_IT_number 57
_symmetry_cell_setting 'orthorhombic'
loop_
_space_group_symop_operation_xyz
x,y,z
-x,-y,1/2+z
x,1/2-y,-z
-x,1/2+y,1/2-z
-x,-y,-z
x,y,1/2-z
-x,1/2+y,z
x,1/2-y,1/2+z
loop_
_atom_site_type_symbol
_atom_site_label
_atom_site_fract_x
_atom_site_fract_y
_atom_site_fract_z
Si Si1 0.304430 0.875838 0.334430
Si Si2 0.031891 0.197279 0.171533
Si Si3 0.405109 0.822786 0.662810
Si Si4 0.097688 0.389646 0.100708
Si Si5 0.175228 0.889678 0.881867
Si Si6 0.860503 0.097309 0.955346
Si Si7 0.363777 0.394140 0.662991
Si Si8 0.185654 0.369926 0.951218
O O1 0.271006 0.860649 0.250000
O O2 0.392584 0.793886 0.352420
O O3 0.207165 0.858590 0.389217
O O4 0.345832 0.987728 0.339851
O O5 0.071224 0.157788 0.250000
O O6 0.068988 0.310293 0.162771
O O7 0.083737 0.148057 0.100238
O O8 0.907576 0.173022 0.166194
O O9 0.403136 0.835625 0.750000
O O10 0.298365 0.873392 0.634027
O O11 0.517347 0.866367 0.639192
O O12 0.144508 0.494203 0.125891
O O13 0.983894 0.408685 0.063239
O O14 0.169592 0.338543 0.036514
O O15 0.154514 0.856440 0.965394
O O16 0.813544 0.987770 0.962924
O O17 0.347662 0.365500 0.750000
O O18 0.283064 0.346974 0.603686
#
# Coordination Sequence:
#
# PCOD9436401 Si02
#       8
#     8   8   8   8   8   8   8   8
#     4   9  19  36  61  91 115 152 211 254 296 367
#     4  12  24  36  59  91 121 158 198 238 299 370
#     4  10  21  38  59  86 124 161 197 253 313 353
#     4  11  22  39  59  87 123 159 194 247 311 356
#     4  11  22  40  60  88 123 159 201 250 300 365
#     4  10  19  37  63  85 117 160 199 243 306 355
#     4   9  19  38  63  86 116 159 205 255 303 357
#     4  10  19  39  61  84 112 156 203 244 294 357
#
# _framework density 20.524037
#
# number of rings (size 3 to 8) (size 9 to 14) (size 15 to 20)
#    0.000    1.750    2.500    2.625    0.000    4.500 
#    2.250    5.625    2.750    0.000    0.000    0.000 
#    0.000    0.000    0.000    0.000    0.000    0.000 
#
# Total GULP energy -356928.797365 kJ/mol
# GULP energy per Si atom -5577.012459 kJ/mol
# Density = 2.047732 g / cm^3
# Si number density = 20.524037 Si / 1000 Ang^3
#
#
#
# Elastic Constant Matrix: (Units=GPa)
#
#
# Indices 1 2 3 4 5 6 
#
# 1 137.0660 13.4606 41.6160 0.0000 0.0000 0.0000
# 2 13.4606 46.7984 27.5758 0.0000 0.0000 0.0000
# 3 41.6160 27.5758 84.4354 0.0000 0.0000 0.0000
# 4 0.0000 0.0000 0.0000 11.6448 0.0000 0.0000
# 5 0.0000 0.0000 0.0000 0.0000 30.3292 0.0000
# 6 0.0000 0.0000 0.0000 0.0000 0.0000 27.6058
#
#
#
# Elastic Compliance Matrix: (Units=1/GPa)
#
#
# Indices 1 2 3 4 5 6 
#
# 1 0.008580 0.000030 -0.004238 0.000000 0.000000 0.000000
# 2 0.000030 0.026460 -0.008656 0.000000 0.000000 0.000000
# 3 -0.004238 -0.008656 0.016759 0.000000 0.000000 0.000000
# 4 0.000000 0.000000 0.000000 0.085876 0.000000 0.000000
# 5 0.000000 0.000000 0.000000 0.000000 0.032971 0.000000
# 6 0.000000 0.000000 0.000000 0.000000 0.000000 0.036224
#
#
# Mechanical properties :
#
#
# Convention : Reuss Voigt Hill
#
# Bulk Modulus (GPa) = 38.35907 48.17829 43.26868
# Shear Modulus (GPa) = 20.72188 26.29246 23.50717
#
# Velocity S-wave (km/s) = 3.18093 3.58307 3.38797
# Velocity P-wave (km/s) = 5.67640 6.37518 6.03591
#
# Compressibility (1/GPa) = 0.02606945
#
# Stress axis : x y z
#
# Youngs Moduli (GPa) = 116.55412 37.79226 59.66782
#
# Poissons Ratio (x) = -0.00112 0.25290
# Poissons Ratio (y) = -0.00346 0.51651
# Poissons Ratio (z) = 0.49400 0.32714
#
# Static dielectric constant tensor:
#      x y z
#    x 1.712890 0.000000 0.000000 
#    y 0.000000 1.809500 0.000000 
#    z 0.000000 0.000000 1.769920 
# 
# From -- ./inp_files/22071.got.cif
#   From: 2010.05.17/outbox.cif.g08.bks.cpg/sg57_12_cif.got.tgz:22071.got - 2010.06.03 13:58:18.
