data_PCOD9436951
_publ_section_title
;
Structure prediction by ZEFSAII (Michael W. Deem and Ramdas Pophale) SiO2 
 PCOD9436951
Probable space group: P B C M
;
_chemical_formula_sum "Si O2"
_cell_formula_units_Z 48
_cell_length_a 10.786798
_cell_length_b 23.555828
_cell_length_c 8.956359
_cell_angle_alpha 90.000000
_cell_angle_beta 90.000000
_cell_angle_gamma 90.000000
_cell_volume 2275.738798
_symmetry_space_group_name_H-M "P B C M"
_symmetry_group_IT_number 57
_symmetry_cell_setting 'orthorhombic'
loop_
_space_group_symop_operation_xyz
x,y,z
-x,-y,1/2+z
x,1/2-y,-z
-x,1/2+y,1/2-z
-x,-y,-z
x,y,1/2-z
-x,1/2+y,z
x,1/2-y,1/2+z
loop_
_atom_site_type_symbol
_atom_site_label
_atom_site_fract_x
_atom_site_fract_y
_atom_site_fract_z
Si Si1 0.563757 0.587882 0.423841
Si Si2 0.694593 0.810648 0.076975
Si Si3 0.823446 0.312163 0.927629
Si Si4 0.313586 0.588856 0.571749
Si Si5 0.823890 0.979222 0.575175
Si Si6 0.045633 0.121229 0.578283
O O1 0.530169 0.589974 0.250000
O O2 0.600725 0.649373 0.487465
O O3 0.446726 0.566924 0.517619
O O4 0.688817 0.551043 0.437468
O O5 0.657006 0.805543 0.250000
O O6 0.827447 0.842291 0.073862
O O7 0.705009 0.750000 0.000000
O O8 0.816510 0.307965 0.750000
O O9 0.822678 0.250000 0.000000
O O10 0.714858 0.351676 0.993263
O O11 0.947512 0.345406 0.978125
O O12 0.313409 0.594093 0.750000
O O13 0.206528 0.543563 0.529833
O O14 0.859561 0.977471 0.750000
O O15 0.917468 0.941324 0.479563
O O16 0.001681 0.118947 0.750000
#
# Coordination Sequence:
#
# PCOD9436951 Si02
#       6
#     8   8   8   8   8   8
#     4  10  20  36  58  86 119 155 195 239 291 346
#     4  10  20  34  55  84 115 150 193 242 294 346
#     4  12  26  44  64  86 116 155 198 242 291 348
#     4  11  23  40  61  87 120 157 197 239 288 346
#     4   9  20  38  62  91 122 155 192 239 291 345
#     4  10  21  38  62  90 119 152 193 242 294 348
#
# _framework density 21.092051000000001
#
# number of rings (size 3 to 8) (size 9 to 14) (size 15 to 20)
#    0.000    1.667    0.000    4.500    0.000    6.667 
#    0.000    3.333    0.000    0.000    0.000    0.000 
#    0.000    0.000    0.000    0.000    0.000    0.000 
#
# Total GULP energy -268523.120484 kJ/mol
# GULP energy per Si atom -5594.231677 kJ/mol
# Density = 2.104404 g / cm^3
# Si number density = 21.092051 Si / 1000 Ang^3
#
#
#
# Elastic Constant Matrix: (Units=GPa)
#
#
# Indices 1 2 3 4 5 6 
#
# 1 57.9142 8.9198 26.2158 0.0000 0.0000 0.0000
# 2 8.9198 125.2572 56.0930 0.0000 0.0000 0.0000
# 3 26.2158 56.0930 121.9898 0.0000 0.0000 0.0000
# 4 0.0000 0.0000 0.0000 29.7363 0.0000 0.0000
# 5 0.0000 0.0000 0.0000 0.0000 33.3228 0.0000
# 6 0.0000 0.0000 0.0000 0.0000 0.0000 19.6106
#
#
#
# Elastic Compliance Matrix: (Units=1/GPa)
#
#
# Indices 1 2 3 4 5 6 
#
# 1 0.019164 0.000604 -0.004396 0.000000 0.000000 0.000000
# 2 0.000604 0.010073 -0.004761 0.000000 0.000000 0.000000
# 3 -0.004396 -0.004761 0.011332 0.000000 0.000000 0.000000
# 4 0.000000 0.000000 0.000000 0.033629 0.000000 0.000000
# 5 0.000000 0.000000 0.000000 0.000000 0.030009 0.000000
# 6 0.000000 0.000000 0.000000 0.000000 0.000000 0.050993
#
#
# Mechanical properties :
#
#
# Convention : Reuss Voigt Hill
#
# Bulk Modulus (GPa) = 42.62368 54.17980 48.40174
# Shear Modulus (GPa) = 27.75820 30.79612 29.27716
#
# Velocity S-wave (km/s) = 3.63168 3.82525 3.72972
# Velocity P-wave (km/s) = 6.15124 6.72704 6.44557
#
# Compressibility (1/GPa) = 0.02346114
#
# Stress axis : x y z
#
# Youngs Moduli (GPa) = 52.18155 99.27674 88.24940
#
# Poissons Ratio (x) = -0.05996 0.38795
# Poissons Ratio (y) = -0.03152 0.42020
# Poissons Ratio (z) = 0.22939 0.47270
#
# Static dielectric constant tensor:
#      x y z
#    x 1.787240 0.000000 0.000000 
#    y 0.000000 1.746130 0.000000 
#    z 0.000000 0.000000 1.697180 
# 
# From -- ./inp_files/3131.got.cif
#   From: 2010.05.17/outbox.cif.g08.bks.cpg/sg57_2_cif.got.tgz:3131.got - 2010.06.03 13:58:18.
