data_PCOD9436971
_publ_section_title
;
Structure prediction by ZEFSAII (Michael W. Deem and Ramdas Pophale) SiO2 
 PCOD9436971
Probable space group: P B C M
;
_chemical_formula_sum "Si O2"
_cell_formula_units_Z 40
_cell_length_a 5.534906
_cell_length_b 26.984681
_cell_length_c 10.993672
_cell_angle_alpha 90.000000
_cell_angle_beta 90.000000
_cell_angle_gamma 90.000000
_cell_volume 1641.989265
_symmetry_space_group_name_H-M "P B C M"
_symmetry_group_IT_number 57
_symmetry_cell_setting 'orthorhombic'
loop_
_space_group_symop_operation_xyz
x,y,z
-x,-y,1/2+z
x,1/2-y,-z
-x,1/2+y,1/2-z
-x,-y,-z
x,y,1/2-z
-x,1/2+y,z
x,1/2-y,1/2+z
loop_
_atom_site_type_symbol
_atom_site_label
_atom_site_fract_x
_atom_site_fract_y
_atom_site_fract_z
Si Si1 0.910641 0.056575 0.498459
Si Si2 0.306180 0.809364 0.484955
Si Si3 0.794282 0.789793 0.750000
Si Si4 0.295672 0.707205 0.250000
Si Si5 0.195524 0.152102 0.506135
Si Si6 0.753923 0.033229 0.750000
Si Si7 0.738776 0.469401 0.750000
O O1 0.134397 0.094320 0.496293
O O2 0.765186 0.063333 0.623918
O O3 0.756657 0.061041 0.375301
O O4 0.000000 0.000000 0.500000
O O5 0.325826 0.750000 0.500000
O O6 0.294581 0.824986 0.628180
O O7 0.046792 0.824842 0.434008
O O8 0.550778 0.832923 0.434335
O O9 0.048420 0.762563 0.750000
O O10 0.792725 0.822698 0.871951
O O11 0.541542 0.761690 0.750000
O O12 0.509924 0.000509 0.750000
O O13 0.010028 0.002145 0.750000
#
# Coordination Sequence:
#
# PCOD9436971 Si02
#       7
#     8   8   4   4   8   4   4
#     4  10  22  40  61  89 122 158 199 245 295 354
#     4  10  20  36  55  79 108 142 185 234 285 341
#     4   8  15  30  50  77 102 128 177 236 282 323
#     4   8  16  30  51  75 102 130 172 234 283 323
#     4  10  20  34  56  81 108 144 185 232 286 342
#     4  10  22  38  57  85 123 158 193 240 289 345
#     4  10  21  38  62  85 113 158 202 240 292 345
#
# _framework density 24.360695
#
# number of rings (size 3 to 8) (size 9 to 14) (size 15 to 20)
#    0.000    2.400    0.000    1.800    0.000    6.400 
#    0.000    8.000    0.000    0.000    0.000    0.000 
#    0.000    0.000    0.000    0.000    0.000    0.000 
#
# Total GULP energy -222984.876788 kJ/mol
# GULP energy per Si atom -5574.621920 kJ/mol
# Density = 2.430525 g / cm^3
# Si number density = 24.360695 Si / 1000 Ang^3
#
#
#
# Elastic Constant Matrix: (Units=GPa)
#
#
# Indices 1 2 3 4 5 6 
#
# 1 228.9833 22.5319 3.8471 0.0000 0.0000 0.0000
# 2 22.5319 108.0008 10.2012 0.0000 0.0000 0.0000
# 3 3.8471 10.2012 126.4216 0.0000 0.0000 0.0000
# 4 0.0000 0.0000 0.0000 10.9606 0.0000 0.0000
# 5 0.0000 0.0000 0.0000 0.0000 -15.5866 0.0000
# 6 0.0000 0.0000 0.0000 0.0000 0.0000 151.4403
#
#
#
# Elastic Compliance Matrix: (Units=1/GPa)
#
#
# Indices 1 2 3 4 5 6 
#
# 1 0.004459 -0.000925 -0.000061 0.000000 0.000000 0.000000
# 2 -0.000925 0.009522 -0.000740 0.000000 0.000000 0.000000
# 3 -0.000061 -0.000740 0.007972 0.000000 0.000000 0.000000
# 4 0.000000 0.000000 0.000000 0.091236 0.000000 0.000000
# 5 0.000000 0.000000 0.000000 0.000000 -0.064158 0.000000
# 6 0.000000 0.000000 0.000000 0.000000 0.000000 0.006603
#
#
# Mechanical properties :
#
#
# Convention : Reuss Voigt Hill
#
# Bulk Modulus (GPa) = 54.05088 59.61846 56.83467
# Shear Modulus (GPa) = 76.62463 57.81788 67.22126
#
# Velocity S-wave (km/s) = 5.61449 4.87705 5.25871
# Velocity P-wave (km/s) = 8.01660 7.49937 7.76229
#
# Compressibility (1/GPa) = 0.01850109
#
# Stress axis : x y z
#
# Youngs Moduli (GPa) = 224.25899 105.02006 125.44486
#
# Poissons Ratio (x) = 0.09709 0.00766
# Poissons Ratio (y) = 0.20733 0.09286
# Poissons Ratio (z) = 0.01370 0.07774
#
# Static dielectric constant tensor:
#      x y z
#    x 2.196420 0.000000 0.000000 
#    y 0.000000 2.133640 0.000000 
#    z 0.000000 0.000000 2.297530 
# 
# From -- ./inp_files/10990.got.cif
#   From: 2010.05.17/outbox.cif.g08.bks.cpg/sg57_6_cif.got.tgz:10990.got - 2010.06.03 13:58:18.
