data_PCOD9436110
_publ_section_title
;
Structure prediction by ZEFSAII (Michael W. Deem and Ramdas Pophale) SiO2 
 PCOD9436110
Probable space group: P B C M
;
_chemical_formula_sum "Si O2"
_cell_formula_units_Z 48
_cell_length_a 6.186998
_cell_length_b 18.155129
_cell_length_c 22.001749
_cell_angle_alpha 90.000000
_cell_angle_beta 90.000000
_cell_angle_gamma 90.000000
_cell_volume 2471.362888
_symmetry_space_group_name_H-M "P B C M"
_symmetry_group_IT_number 57
_symmetry_cell_setting 'orthorhombic'
loop_
_space_group_symop_operation_xyz
x,y,z
-x,-y,1/2+z
x,1/2-y,-z
-x,1/2+y,1/2-z
-x,-y,-z
x,y,1/2-z
-x,1/2+y,z
x,1/2-y,1/2+z
loop_
_atom_site_type_symbol
_atom_site_label
_atom_site_fract_x
_atom_site_fract_y
_atom_site_fract_z
Si Si1 0.982284 0.561671 0.917147
Si Si2 0.689353 0.213451 0.437785
Si Si3 0.686537 0.051059 0.027501
Si Si4 0.669691 0.684532 0.621156
Si Si5 0.047001 0.742361 0.182243
Si Si6 0.703822 0.101142 0.817000
O O1 0.144560 0.554287 0.860792
O O2 0.812476 0.495607 0.921778
O O3 0.850056 0.637989 0.914242
O O4 0.135202 0.564010 0.975512
O O5 0.783229 0.250000 0.500000
O O6 0.609668 0.131059 0.451830
O O7 0.492672 0.267035 0.418739
O O8 0.849590 0.208051 0.379283
O O9 0.500000 0.000000 0.000000
O O10 0.525632 0.623115 0.654991
O O11 0.798919 0.737024 0.667546
O O12 0.068268 0.707608 0.250000
O O13 0.172888 0.820283 0.186444
O O14 0.682119 0.069734 0.750000
#
# Coordination Sequence:
#
# PCOD9436110 Si02
#       6
#     8   8   8   8   8   8
#     4  10  21  37  57  81 112 149 189 232 283 343
#     4  11  22  36  59  89 116 147 195 250 300 354
#     4  11  23  40  58  79 113 154 194 238 295 353
#     4  10  19  34  59  88 117 146 189 240 294 350
#     4   9  19  35  56  84 117 151 188 234 292 352
#     4   9  17  32  55  83 112 145 187 230 276 336
#
# _framework density 19.422481000000001
#
# number of rings (size 3 to 8) (size 9 to 14) (size 15 to 20)
#    0.000    2.000    0.000    5.500    0.000    6.000 
#    0.000    2.500    0.000    1.000    0.000    0.000 
#    0.000    0.000    0.000    0.000    0.000    0.000 
#
# Total GULP energy -267587.508771 kJ/mol
# GULP energy per Si atom -5574.739766 kJ/mol
# Density = 1.937827 g / cm^3
# Si number density = 19.422481 Si / 1000 Ang^3
#
#
#
# Elastic Constant Matrix: (Units=GPa)
#
#
# Indices 1 2 3 4 5 6 
#
# 1 98.7018 22.1918 50.7839 0.0000 0.0000 0.0000
# 2 22.1918 70.2146 46.5676 0.0000 0.0000 0.0000
# 3 50.7839 46.5676 127.9175 0.0000 0.0000 0.0000
# 4 0.0000 0.0000 0.0000 21.9208 0.0000 0.0000
# 5 0.0000 0.0000 0.0000 0.0000 13.3919 0.0000
# 6 0.0000 0.0000 0.0000 0.0000 0.0000 28.6473
#
#
#
# Elastic Compliance Matrix: (Units=1/GPa)
#
#
# Indices 1 2 3 4 5 6 
#
# 1 0.012774 -0.000888 -0.004748 0.000000 0.000000 0.000000
# 2 -0.000888 0.018837 -0.006505 0.000000 0.000000 0.000000
# 3 -0.004748 -0.006505 0.012071 0.000000 0.000000 0.000000
# 4 0.000000 0.000000 0.000000 0.045619 0.000000 0.000000
# 5 0.000000 0.000000 0.000000 0.000000 0.074672 0.000000
# 6 0.000000 0.000000 0.000000 0.000000 0.000000 0.034907
#
#
# Mechanical properties :
#
#
# Convention : Reuss Voigt Hill
#
# Bulk Modulus (GPa) = 51.54826 59.54674 55.54750
# Shear Modulus (GPa) = 21.77429 24.61139 23.19284
#
# Velocity S-wave (km/s) = 3.35190 3.56358 3.45936
# Velocity P-wave (km/s) = 6.44813 6.90343 6.67966
#
# Compressibility (1/GPa) = 0.01939930
#
# Stress axis : x y z
#
# Youngs Moduli (GPa) = 78.28272 53.08730 82.84639
#
# Poissons Ratio (x) = 0.04716 0.39335
# Poissons Ratio (y) = 0.06955 0.53890
# Poissons Ratio (z) = 0.37169 0.34532
#
# Static dielectric constant tensor:
#      x y z
#    x 1.703920 0.000000 0.000000 
#    y 0.000000 1.675920 0.000000 
#    z 0.000000 0.000000 1.745290 
# 
# From -- ./inp_files/26211.got.cif
#   From: 2010.05.17/outbox.cif.g08.bks.cpg/sg57_14_cif.got.tgz:26211.got - 2010.06.03 13:58:18.
