data_PCOD9436416
_publ_section_title
;
Structure prediction by ZEFSAII (Michael W. Deem and Ramdas Pophale) SiO2 
 PCOD9436416
Probable space group: P B C M
;
_chemical_formula_sum "Si O2"
_cell_formula_units_Z 48
_cell_length_a 9.320347
_cell_length_b 15.279321
_cell_length_c 16.131680
_cell_angle_alpha 90.000000
_cell_angle_beta 90.000000
_cell_angle_gamma 90.000000
_cell_volume 2297.289539
_symmetry_space_group_name_H-M "P B C M"
_symmetry_group_IT_number 57
_symmetry_cell_setting 'orthorhombic'
loop_
_space_group_symop_operation_xyz
x,y,z
-x,-y,1/2+z
x,1/2-y,-z
-x,1/2+y,1/2-z
-x,-y,-z
x,y,1/2-z
-x,1/2+y,z
x,1/2-y,1/2+z
loop_
_atom_site_type_symbol
_atom_site_label
_atom_site_fract_x
_atom_site_fract_y
_atom_site_fract_z
Si Si1 0.309091 0.329070 0.047477
Si Si2 0.629691 0.979440 0.936168
Si Si3 0.854805 0.085058 0.846317
Si Si4 0.087875 0.934006 0.849266
Si Si5 0.954191 0.748505 0.349021
Si Si6 0.382003 0.486633 0.154682
O O1 0.174557 0.285976 0.094748
O O2 0.388639 0.389748 0.114592
O O3 0.388087 0.250000 0.000000
O O4 0.281196 0.400098 0.974567
O O5 0.730914 0.058069 0.909226
O O6 0.529431 0.960564 0.856943
O O7 0.500000 0.000000 0.000000
O O8 0.808950 0.072989 0.750000
O O9 0.917740 0.181362 0.855094
O O10 0.984632 0.016831 0.861575
O O11 0.101880 0.920513 0.750000
O O12 0.013701 0.845054 0.879004
O O13 0.245203 0.960588 0.881833
O O14 0.913266 0.744036 0.250000
O O15 0.350604 0.472946 0.250000
#
# Coordination Sequence:
#
# PCOD9436416 Si02
#       6
#     8   8   8   8   8   8
#     4  11  22  39  60  91 131 164 206 258 328 389
#     4  10  23  40  57  85 128 168 204 250 316 390
#     4  10  19  37  65  89 115 156 210 263 305 368
#     4   9  18  35  64  94 116 149 207 269 311 359
#     4  10  20  37  63  94 120 156 216 269 316 379
#     4  10  20  42  67  87 122 172 215 263 320 375
#
# _framework density 20.894189999999998
#
# number of rings (size 3 to 8) (size 9 to 14) (size 15 to 20)
#    0.000    2.000    1.667    2.000    0.000    0.667 
#   12.000    2.500    0.000    0.000    0.000    0.000 
#    0.000    0.000    0.000    0.000    0.000    0.000 
#
# Total GULP energy -267393.752113 kJ/mol
# GULP energy per Si atom -5570.703169 kJ/mol
# Density = 2.084663 g / cm^3
# Si number density = 20.894190 Si / 1000 Ang^3
#
#
#
# Elastic Constant Matrix: (Units=GPa)
#
#
# Indices 1 2 3 4 5 6 
#
# 1 44.8875 7.2853 27.4121 0.0000 0.0000 0.0000
# 2 7.2853 96.0710 34.2455 0.0000 0.0000 0.0000
# 3 27.4121 34.2455 58.5515 0.0000 0.0000 0.0000
# 4 0.0000 0.0000 0.0000 35.4666 0.0000 0.0000
# 5 0.0000 0.0000 0.0000 0.0000 34.9713 0.0000
# 6 0.0000 0.0000 0.0000 0.0000 0.0000 9.5427
#
#
#
# Elastic Compliance Matrix: (Units=1/GPa)
#
#
# Indices 1 2 3 4 5 6 
#
# 1 0.032209 0.003705 -0.017246 0.000000 0.000000 0.000000
# 2 0.003705 0.013577 -0.009675 0.000000 0.000000 0.000000
# 3 -0.017246 -0.009675 0.030812 0.000000 0.000000 0.000000
# 4 0.000000 0.000000 0.000000 0.028196 0.000000 0.000000
# 5 0.000000 0.000000 0.000000 0.000000 0.028595 0.000000
# 6 0.000000 0.000000 0.000000 0.000000 0.000000 0.104793
#
#
# Mechanical properties :
#
#
# Convention : Reuss Voigt Hill
#
# Bulk Modulus (GPa) = 33.15149 37.48842 35.31995
# Shear Modulus (GPa) = 16.96822 24.70058 20.83440
#
# Velocity S-wave (km/s) = 2.85283 3.44201 3.16118
# Velocity P-wave (km/s) = 5.17227 5.81184 5.50136
#
# Compressibility (1/GPa) = 0.03016456
#
# Stress axis : x y z
#
# Youngs Moduli (GPa) = 31.04767 73.65438 32.45476
#
# Poissons Ratio (x) = -0.27290 0.55972
# Poissons Ratio (y) = -0.11504 0.31402
# Poissons Ratio (z) = 0.53545 0.71264
#
# Static dielectric constant tensor:
#      x y z
#    x 1.797580 0.000000 0.000000 
#    y 0.000000 1.735140 0.000000 
#    z 0.000000 0.000000 1.923650 
# 
# From -- ./inp_files/20957.got.cif
#   From: 2010.05.17/outbox.cif.g08.bks.cpg/sg57_11_cif.got.tgz:20957.got - 2010.06.03 13:58:18.
