data_PCOD9436278
_publ_section_title
;
Structure prediction by ZEFSAII (Michael W. Deem and Ramdas Pophale) SiO2 
 PCOD9436278
Probable space group: P B C M
;
_chemical_formula_sum "Si O2"
_cell_formula_units_Z 56
_cell_length_a 16.126977
_cell_length_b 8.591015
_cell_length_c 19.965417
_cell_angle_alpha 90.000000
_cell_angle_beta 90.000000
_cell_angle_gamma 90.000000
_cell_volume 2766.150652
_symmetry_space_group_name_H-M "P B C M"
_symmetry_group_IT_number 57
_symmetry_cell_setting 'orthorhombic'
loop_
_space_group_symop_operation_xyz
x,y,z
-x,-y,1/2+z
x,1/2-y,-z
-x,1/2+y,1/2-z
-x,-y,-z
x,y,1/2-z
-x,1/2+y,z
x,1/2-y,1/2+z
loop_
_atom_site_type_symbol
_atom_site_label
_atom_site_fract_x
_atom_site_fract_y
_atom_site_fract_z
Si Si1 0.755850 0.744120 0.636450
Si Si2 0.905661 0.212538 0.358514
Si Si3 0.568612 0.284369 0.580028
Si Si4 0.195389 0.503862 0.250000
Si Si5 0.695014 0.516713 0.971351
Si Si6 0.182512 0.750000 0.500000
Si Si7 0.082920 0.074905 0.171739
Si Si8 0.603192 0.562059 0.104910
O O1 0.767668 0.614162 0.692338
O O2 0.741088 0.651471 0.567710
O O3 0.838468 0.847742 0.636229
O O4 0.675744 0.854699 0.646166
O O5 0.869715 0.220068 0.433384
O O6 0.913154 0.389531 0.333301
O O7 0.996436 0.135592 0.357248
O O8 0.847790 0.113759 0.308961
O O9 0.556376 0.250000 0.500000
O O10 0.641783 0.411514 0.580492
O O11 0.484917 0.353885 0.610315
O O12 0.593210 0.122837 0.615002
O O13 0.757925 0.399451 0.007957
O O14 0.631631 0.575647 0.027280
O O15 0.085744 0.123123 0.250000
#
# Coordination Sequence:
#
# PCOD9436278 Si02
#       8
#     8   8   8   4   8   4   8   8
#     4  12  25  40  69  98 137 178 244 295 350 419
#     4  12  27  47  73 100 139 180 239 295 369 428
#     4  10  19  35  65  95 145 188 233 279 352 428
#     4  12  24  46  70  94 128 190 236 290 350 442
#     4  11  21  40  66 103 148 186 235 296 357 428
#     4  12  24  44  70 106 150 176 228 310 370 416
#     4  12  25  46  73  98 132 191 241 291 339 446
#     4  11  21  38  62 105 137 185 233 292 352 423
#
# _framework density 20.244741999999999
#
# number of rings (size 3 to 8) (size 9 to 14) (size 15 to 20)
#    0.000    0.571    5.714    5.571    0.000    0.571 
#    2.571    0.000    0.000    3.429    0.000    0.000 
#    0.000    0.000    0.000    0.000    0.000    0.000 
#
# Total GULP energy -312100.420007 kJ/mol
# GULP energy per Si atom -5573.221786 kJ/mol
# Density = 2.019866 g / cm^3
# Si number density = 20.244742 Si / 1000 Ang^3
#
#
#
# Elastic Constant Matrix: (Units=GPa)
#
#
# Indices 1 2 3 4 5 6 
#
# 1 121.6319 94.7694 53.7016 0.0000 0.0000 0.0000
# 2 94.7694 138.6550 42.7684 0.0000 0.0000 0.0000
# 3 53.7016 42.7684 80.1106 0.0000 0.0000 0.0000
# 4 0.0000 0.0000 0.0000 34.1553 0.0000 0.0000
# 5 0.0000 0.0000 0.0000 0.0000 -6.4108 0.0000
# 6 0.0000 0.0000 0.0000 0.0000 0.0000 54.6662
#
#
#
# Elastic Compliance Matrix: (Units=1/GPa)
#
#
# Indices 1 2 3 4 5 6 
#
# 1 0.020872 -0.011912 -0.007632 0.000000 0.000000 0.000000
# 2 -0.011912 0.015432 -0.000254 0.000000 0.000000 0.000000
# 3 -0.007632 -0.000254 0.017734 0.000000 0.000000 0.000000
# 4 0.000000 0.000000 0.000000 0.029278 0.000000 0.000000
# 5 0.000000 0.000000 0.000000 0.000000 -0.155987 0.000000
# 6 0.000000 0.000000 0.000000 0.000000 0.000000 0.018293
#
#
# Mechanical properties :
#
#
# Convention : Reuss Voigt Hill
#
# Bulk Modulus (GPa) = 69.23655 80.31959 74.77807
# Shear Modulus (GPa) = -501.62948 26.42602 -237.60173
#
# Velocity S-wave (km/s) = -15.75819 3.61685 -10.84525
# Velocity P-wave (km/s) = 17.22847 7.56324 10.94572
#
# Compressibility (1/GPa) = 0.01444324
#
# Stress axis : x y z
#
# Youngs Moduli (GPa) = 47.91016 64.80031 56.38759
#
# Poissons Ratio (x) = 0.77189 0.43037
# Poissons Ratio (y) = 0.57070 0.01430
# Poissons Ratio (z) = 0.36567 0.01643
#
# Static dielectric constant tensor:
#      x y z
#    x 1.718630 0.000000 0.000000 
#    y 0.000000 1.743900 0.000000 
#    z 0.000000 0.000000 1.702750 
# 
# From -- ./inp_files/25430.got.cif
#   From: 2010.05.17/outbox.cif.g08.bks.cpg/sg57_13_cif.got.tgz:25430.got - 2010.06.03 13:58:18.
