data_PCOD9436164
_publ_section_title
;
Structure prediction by ZEFSAII (Michael W. Deem and Ramdas Pophale) SiO2 
 PCOD9436164
Probable space group: P B C M
;
_chemical_formula_sum "Si O2"
_cell_formula_units_Z 64
_cell_length_a 20.846239
_cell_length_b 19.844824
_cell_length_c 8.721135
_cell_angle_alpha 90.000000
_cell_angle_beta 90.000000
_cell_angle_gamma 90.000000
_cell_volume 3607.845850
_symmetry_space_group_name_H-M "P B C M"
_symmetry_group_IT_number 57
_symmetry_cell_setting 'orthorhombic'
loop_
_space_group_symop_operation_xyz
x,y,z
-x,-y,1/2+z
x,1/2-y,-z
-x,1/2+y,1/2-z
-x,-y,-z
x,y,1/2-z
-x,1/2+y,z
x,1/2-y,1/2+z
loop_
_atom_site_type_symbol
_atom_site_label
_atom_site_fract_x
_atom_site_fract_y
_atom_site_fract_z
Si Si1 0.845493 0.822748 0.431760
Si Si2 0.386230 0.174177 0.435471
Si Si3 0.764859 0.066782 0.935142
Si Si4 0.526920 0.174499 0.065468
Si Si5 0.734479 0.915390 0.564577
Si Si6 0.332497 0.674344 0.434086
Si Si7 0.912303 0.447870 0.434048
Si Si8 0.959030 0.599637 0.432133
O O1 0.829539 0.750000 0.500000
O O2 0.840939 0.820931 0.250000
O O3 0.795713 0.876718 0.498761
O O4 0.916276 0.845183 0.483807
O O5 0.377967 0.250000 0.500000
O O6 0.384379 0.178743 0.250000
O O7 0.457097 0.146853 0.481276
O O8 0.329261 0.124727 0.484295
O O9 0.762629 0.070816 0.750000
O O10 0.839827 0.069051 0.980415
O O11 0.737217 0.993573 0.980878
O O12 0.722678 0.126083 0.004436
O O13 0.526864 0.176748 0.250000
O O14 0.596472 0.146179 0.019355
O O15 0.526846 0.250000 0.000000
O O16 0.738284 0.913118 0.750000
O O17 0.326528 0.750000 0.500000
O O18 0.329952 0.677837 0.250000
O O19 0.917653 0.440479 0.250000
O O20 0.928186 0.526199 0.469064
O O21 0.967606 0.404464 0.513782
O O22 0.954996 0.609340 0.250000
#
# Coordination Sequence:
#
# PCOD9436164 Si02
#       8
#     8   8   8   8   8   8   8   8
#     4  12  24  37  55  79 112 150 187 227 273 321
#     4   9  17  30  51  75 104 141 182 224 270 317
#     4  10  20  36  56  79 111 145 178 218 267 324
#     4   8  15  29  49  74 101 134 175 222 268 319
#     4  10  20  36  54  77 109 146 185 224 268 322
#     4  10  20  35  56  80 106 135 176 224 275 329
#     4   9  18  34  56  80 107 139 175 217 262 316
#     4  10  19  35  57  81 107 136 178 223 264 313
#
# _framework density 17.739118000000001
#
# number of rings (size 3 to 8) (size 9 to 14) (size 15 to 20)
#    0.000    2.250    1.250    2.250    0.000    3.500 
#    0.000    1.250    0.000    3.000    0.000    0.000 
#    0.000    0.000    0.000    0.000    0.000    0.000 
#
# Total GULP energy -356889.313802 kJ/mol
# GULP energy per Si atom -5576.395528 kJ/mol
# Density = 1.769874 g / cm^3
# Si number density = 17.739118 Si / 1000 Ang^3
#
#
#
# Elastic Constant Matrix: (Units=GPa)
#
#
# Indices 1 2 3 4 5 6 
#
# 1 160.2833 59.9718 30.7056 0.0000 0.0000 0.0000
# 2 59.9718 81.0689 24.3642 0.0000 0.0000 0.0000
# 3 30.7056 24.3642 19.0625 0.0000 0.0000 0.0000
# 4 0.0000 0.0000 0.0000 21.9968 0.0000 0.0000
# 5 0.0000 0.0000 0.0000 0.0000 17.9778 0.0000
# 6 0.0000 0.0000 0.0000 0.0000 0.0000 23.0681
#
#
#
# Elastic Compliance Matrix: (Units=1/GPa)
#
#
# Indices 1 2 3 4 5 6 
#
# 1 0.009783 -0.004061 -0.010568 0.000000 0.000000 0.000000
# 2 -0.004061 0.021714 -0.021212 0.000000 0.000000 0.000000
# 3 -0.010568 -0.021212 0.096593 0.000000 0.000000 0.000000
# 4 0.000000 0.000000 0.000000 0.045461 0.000000 0.000000
# 5 0.000000 0.000000 0.000000 0.000000 0.055624 0.000000
# 6 0.000000 0.000000 0.000000 0.000000 0.000000 0.043350
#
#
# Mechanical properties :
#
#
# Convention : Reuss Voigt Hill
#
# Bulk Modulus (GPa) = 17.72780 54.49975 36.11378
# Shear Modulus (GPa) = 13.77372 22.30009 18.03691
#
# Velocity S-wave (km/s) = 2.78953 3.54943 3.19217
# Velocity P-wave (km/s) = 4.51559 6.89837 5.83001
#
# Compressibility (1/GPa) = 0.05640856
#
# Stress axis : x y z
#
# Youngs Moduli (GPa) = 102.21938 46.05223 10.35271
#
# Poissons Ratio (x) = 0.18702 0.10940
# Poissons Ratio (y) = 0.41512 0.21960
# Poissons Ratio (z) = 1.08021 0.97687
#
# Static dielectric constant tensor:
#      x y z
#    x 1.636240 0.000000 0.000000 
#    y 0.000000 1.569090 0.000000 
#    z 0.000000 0.000000 1.598070 
# 
# From -- ./inp_files/7141.got.cif
#   From: 2010.05.17/outbox.cif.g08.bks.cpg/sg57_4_cif.got.tgz:7141.got - 2010.06.03 13:58:18.
