data_PCOD9436569
_publ_section_title
;
Structure prediction by ZEFSAII (Michael W. Deem and Ramdas Pophale) SiO2 
 PCOD9436569
Probable space group: P B C M
;
_chemical_formula_sum "Si O2"
_cell_formula_units_Z 48
_cell_length_a 17.553288
_cell_length_b 13.230659
_cell_length_c 9.131060
_cell_angle_alpha 90.000000
_cell_angle_beta 90.000000
_cell_angle_gamma 90.000000
_cell_volume 2120.611691
_symmetry_space_group_name_H-M "P B C M"
_symmetry_group_IT_number 57
_symmetry_cell_setting 'orthorhombic'
loop_
_space_group_symop_operation_xyz
x,y,z
-x,-y,1/2+z
x,1/2-y,-z
-x,1/2+y,1/2-z
-x,-y,-z
x,y,1/2-z
-x,1/2+y,z
x,1/2-y,1/2+z
loop_
_atom_site_type_symbol
_atom_site_label
_atom_site_fract_x
_atom_site_fract_y
_atom_site_fract_z
Si Si1 0.763544 0.064921 0.924876
Si Si2 0.455249 0.351575 0.423814
Si Si3 0.088405 0.610638 0.413051
Si Si4 0.225726 0.152569 0.917758
Si Si5 0.051045 0.371423 0.093596
Si Si6 0.391006 0.572797 0.424240
O O1 0.759348 0.063966 0.750000
O O2 0.839801 0.121468 0.980026
O O3 0.686738 0.106613 0.998702
O O4 0.767593 0.950023 0.989013
O O5 0.426487 0.250000 0.500000
O O6 0.464497 0.337050 0.250000
O O7 0.403650 0.451507 0.445581
O O8 0.536201 0.376663 0.499477
O O9 0.109229 0.643069 0.250000
O O10 0.070447 0.490790 0.410954
O O11 0.007341 0.652301 0.465295
O O12 0.254320 0.138986 0.750000
O O13 0.135046 0.173235 0.904987
O O14 0.258477 0.250000 0.000000
O O15 0.012371 0.351619 0.250000
O O16 0.389960 0.592110 0.250000
#
# Coordination Sequence:
#
# PCOD9436569 Si02
#       6
#     8   8   8   8   8   8
#     4  11  21  33  51  75 106 141 178 221 272 327
#     4  10  21  38  62  89 116 149 187 228 277 333
#     4   9  16  27  45  68  93 123 163 209 258 309
#     4  10  20  33  48  69 100 138 180 225 276 331
#     4   8  15  27  43  64  90 122 163 209 255 308
#     4  10  21  38  59  85 118 151 189 234 278 332
#
# _framework density 22.634979000000001
#
# number of rings (size 3 to 8) (size 9 to 14) (size 15 to 20)
#    0.000    2.333    0.000    4.500    0.000    7.333 
#    0.000    1.667    0.000    1.000    0.000    4.667 
#    0.000    0.000    0.000    0.000    0.000    0.000 
#
# Total GULP energy -268145.144529 kJ/mol
# GULP energy per Si atom -5586.357178 kJ/mol
# Density = 2.258346 g / cm^3
# Si number density = 22.634979 Si / 1000 Ang^3
#
#
#
# Elastic Constant Matrix: (Units=GPa)
#
#
# Indices 1 2 3 4 5 6 
#
# 1 146.8179 -6.0696 65.9588 0.0000 0.0000 0.0000
# 2 -6.0696 62.3445 17.0386 0.0000 0.0000 0.0000
# 3 65.9588 17.0386 168.1780 0.0000 0.0000 0.0000
# 4 0.0000 0.0000 0.0000 20.5189 0.0000 0.0000
# 5 0.0000 0.0000 0.0000 0.0000 33.6838 0.0000
# 6 0.0000 0.0000 0.0000 0.0000 0.0000 -9.4154
#
#
#
# Elastic Compliance Matrix: (Units=1/GPa)
#
#
# Indices 1 2 3 4 5 6 
#
# 1 0.008455 0.001779 -0.003496 0.000000 0.000000 0.000000
# 2 0.001779 0.016871 -0.002407 0.000000 0.000000 0.000000
# 3 -0.003496 -0.002407 0.007561 0.000000 0.000000 0.000000
# 4 0.000000 0.000000 0.000000 0.048735 0.000000 0.000000
# 5 0.000000 0.000000 0.000000 0.000000 0.029688 0.000000
# 6 0.000000 0.000000 0.000000 0.000000 0.000000 -0.106209
#
#
# Mechanical properties :
#
#
# Convention : Reuss Voigt Hill
#
# Bulk Modulus (GPa) = 40.58684 59.02176 49.80430
# Shear Modulus (GPa) = 231.86712 28.98497 130.42605
#
# Velocity S-wave (km/s) = 10.13212 3.58234 7.59911
# Velocity P-wave (km/s) = 12.44387 6.57594 9.95221
#
# Compressibility (1/GPa) = 0.02463853
#
# Stress axis : x y z
#
# Youngs Moduli (GPa) = 118.26646 59.27374 132.25396
#
# Poissons Ratio (x) = -0.10543 0.46242
# Poissons Ratio (y) = -0.21037 0.31832
# Poissons Ratio (z) = 0.41351 0.14266
#
# Static dielectric constant tensor:
#      x y z
#    x 1.830060 0.000000 0.000000 
#    y 0.000000 1.875090 0.000000 
#    z 0.000000 0.000000 1.805660 
# 
# From -- ./inp_files/6545.got.cif
#   From: 2010.05.17/outbox.cif.g08.bks.cpg/sg57_4_cif.got.tgz:6545.got - 2010.06.03 13:58:18.
