data_PCOD9436387
_publ_section_title
;
Structure prediction by ZEFSAII (Michael W. Deem and Ramdas Pophale) SiO2 
 PCOD9436387
Probable space group: P B C M
;
_chemical_formula_sum "Si O2"
_cell_formula_units_Z 24
_cell_length_a 12.991400
_cell_length_b 13.038049
_cell_length_c 5.517768
_cell_angle_alpha 90.000000
_cell_angle_beta 90.000000
_cell_angle_gamma 90.000000
_cell_volume 934.613392
_symmetry_space_group_name_H-M "P B C M"
_symmetry_group_IT_number 57
_symmetry_cell_setting 'orthorhombic'
loop_
_space_group_symop_operation_xyz
x,y,z
-x,-y,1/2+z
x,1/2-y,-z
-x,1/2+y,1/2-z
-x,-y,-z
x,y,1/2-z
-x,1/2+y,z
x,1/2-y,1/2+z
loop_
_atom_site_type_symbol
_atom_site_label
_atom_site_fract_x
_atom_site_fract_y
_atom_site_fract_z
Si Si1 0.637698 0.021850 0.250000
Si Si2 0.141192 0.460977 0.250000
Si Si3 0.659956 0.801940 0.750000
Si Si4 0.896420 0.851036 0.750000
Si Si5 0.406428 0.542523 0.750000
Si Si6 0.881938 0.204773 0.250000
O O1 0.735049 0.947211 0.250000
O O2 0.529685 0.960938 0.250000
O O3 0.636057 0.085032 0.498710
O O4 0.099753 0.417156 0.502860
O O5 0.128616 0.582850 0.250000
O O6 0.622829 0.750000 0.500000
O O7 0.784980 0.797882 0.750000
O O8 0.628863 0.922204 0.750000
O O9 0.994250 0.777379 0.750000
O O10 0.840438 0.250000 0.500000
#
# Coordination Sequence:
#
# PCOD9436387 Si02
#       6
#     4   4   4   4   4   4
#     4  10  19  37  61  86 113 155 206 251 285 349
#     4  12  22  41  68  92 116 163 216 256 289 373
#     4  12  22  35  56  88 126 160 194 253 314 359
#     4  12  23  41  63  92 120 163 210 254 304 369
#     4  10  20  36  57  85 122 155 198 245 302 357
#     4  12  26  44  61  91 129 162 198 255 322 365
#
# _framework density 25.679068000000001
#
# number of rings (size 3 to 8) (size 9 to 14) (size 15 to 20)
#    0.000    0.667    3.333    6.000    0.000    0.000 
#    0.000    1.667    0.000    0.000    0.000    0.000 
#    0.000    0.000    0.000    0.000    0.000    0.000 
#
# Total GULP energy -134474.744648 kJ/mol
# GULP energy per Si atom -5603.114360 kJ/mol
# Density = 2.562062 g / cm^3
# Si number density = 25.679068 Si / 1000 Ang^3
#
#
#
# Elastic Constant Matrix: (Units=GPa)
#
#
# Indices 1 2 3 4 5 6 
#
# 1 76.9241 10.2011 4.8021 0.0000 0.0000 0.0000
# 2 10.2011 85.6869 71.5253 0.0000 0.0000 0.0000
# 3 4.8021 71.5253 333.5923 0.0000 0.0000 0.0000
# 4 0.0000 0.0000 0.0000 38.6244 0.0000 0.0000
# 5 0.0000 0.0000 0.0000 0.0000 -25.5914 0.0000
# 6 0.0000 0.0000 0.0000 0.0000 0.0000 20.5201
#
#
#
# Elastic Compliance Matrix: (Units=1/GPa)
#
#
# Indices 1 2 3 4 5 6 
#
# 1 0.013217 -0.001723 0.000179 0.000000 0.000000 0.000000
# 2 -0.001723 0.014439 -0.003071 0.000000 0.000000 0.000000
# 3 0.000179 -0.003071 0.003654 0.000000 0.000000 0.000000
# 4 0.000000 0.000000 0.000000 0.025890 0.000000 0.000000
# 5 0.000000 0.000000 0.000000 0.000000 -0.039076 0.000000
# 6 0.000000 0.000000 0.000000 0.000000 0.000000 0.048733
#
#
# Mechanical properties :
#
#
# Convention : Reuss Voigt Hill
#
# Bulk Modulus (GPa) = 45.29023 74.36226 59.82625
# Shear Modulus (GPa) = 59.91828 34.02227 46.97028
#
# Velocity S-wave (km/s) = 4.83572 3.64387 4.28147
# Velocity P-wave (km/s) = 6.98958 6.83556 6.91300
#
# Compressibility (1/GPa) = 0.02207982
#
# Stress axis : x y z
#
# Youngs Moduli (GPa) = 75.65930 69.25669 273.70591
#
# Poissons Ratio (x) = 0.11934 -0.04904
# Poissons Ratio (y) = 0.13037 0.84057
# Poissons Ratio (z) = -0.01356 0.21269
#
# Static dielectric constant tensor:
#      x y z
#    x 2.055330 0.000000 0.000000 
#    y 0.000000 1.993520 0.000000 
#    z 0.000000 0.000000 2.093720 
# 
# From -- ./inp_files/418.got.cif
#   From: 2010.05.17/outbox.cif.g08.bks.cpg/sg57_1_cif.got.tgz:418.got - 2010.06.03 13:58:18.
