data_PCOD9436117
_publ_section_title
;
Structure prediction by ZEFSAII (Michael W. Deem and Ramdas Pophale) SiO2 
 PCOD9436117
Probable space group: P B C M
;
_chemical_formula_sum "Si O2"
_cell_formula_units_Z 56
_cell_length_a 12.471465
_cell_length_b 13.925326
_cell_length_c 14.660807
_cell_angle_alpha 90.000000
_cell_angle_beta 90.000000
_cell_angle_gamma 90.000000
_cell_volume 2546.130855
_symmetry_space_group_name_H-M "P B C M"
_symmetry_group_IT_number 57
_symmetry_cell_setting 'orthorhombic'
loop_
_space_group_symop_operation_xyz
x,y,z
-x,-y,1/2+z
x,1/2-y,-z
-x,1/2+y,1/2-z
-x,-y,-z
x,y,1/2-z
-x,1/2+y,z
x,1/2-y,1/2+z
loop_
_atom_site_type_symbol
_atom_site_label
_atom_site_fract_x
_atom_site_fract_y
_atom_site_fract_z
Si Si1 0.135395 0.715572 0.597439
Si Si2 0.649763 0.118094 0.852116
Si Si3 0.323095 0.163099 0.639980
Si Si4 0.836167 0.421382 0.850789
Si Si5 0.500242 0.306706 0.642747
Si Si6 0.076427 0.121271 0.642455
Si Si7 0.373363 0.969074 0.541819
O O1 0.177361 0.750000 0.500000
O O2 0.225851 0.650262 0.642808
O O3 0.118119 0.815426 0.649307
O O4 0.022075 0.663874 0.587721
O O5 0.624049 0.083165 0.750000
O O6 0.582043 0.216227 0.867801
O O7 0.627743 0.043965 0.933214
O O8 0.336114 0.148024 0.750000
O O9 0.384688 0.261722 0.618533
O O10 0.195753 0.160156 0.620296
O O11 0.377120 0.075317 0.584829
O O12 0.789728 0.442127 0.750000
O O13 0.918484 0.506474 0.869663
O O14 0.740694 0.430669 0.921676
O O15 0.501784 0.332760 0.750000
O O16 0.541222 0.394896 0.583540
O O17 0.057169 0.140912 0.750000
#
# Coordination Sequence:
#
# PCOD9436117 Si02
#       7
#     8   8   8   8   8   8   8
#     4  12  21  36  59  89 123 158 202 256 312 354
#     4  11  22  36  57  88 120 154 201 258 310 348
#     4   9  20  38  61  89 121 163 205 241 302 375
#     4  10  19  35  60  89 117 156 203 242 297 367
#     4  10  19  34  60  89 120 153 196 254 304 358
#     4   9  20  37  59  86 121 162 201 246 298 367
#     4  11  19  36  60  91 117 155 207 255 297 360
#
# _framework density 21.994157000000001
#
# number of rings (size 3 to 8) (size 9 to 14) (size 15 to 20)
#    0.000    1.714    2.857    3.857    0.000    1.143 
#    0.000    1.429    3.143    0.857    0.000    0.000 
#    0.000    0.000    0.000    0.000    0.000    0.000 
#
# Total GULP energy -313093.277892 kJ/mol
# GULP energy per Si atom -5590.951391 kJ/mol
# Density = 2.194410 g / cm^3
# Si number density = 21.994157 Si / 1000 Ang^3
#
#
#
# Elastic Constant Matrix: (Units=GPa)
#
#
# Indices 1 2 3 4 5 6 
#
# 1 61.9571 16.9441 -0.5226 0.0000 0.0000 0.0000
# 2 16.9441 52.2147 14.6541 0.0000 0.0000 0.0000
# 3 -0.5226 14.6541 95.2388 0.0000 0.0000 0.0000
# 4 0.0000 0.0000 0.0000 -4.1417 0.0000 0.0000
# 5 0.0000 0.0000 0.0000 0.0000 30.9116 0.0000
# 6 0.0000 0.0000 0.0000 0.0000 0.0000 31.9163
#
#
#
# Elastic Compliance Matrix: (Units=1/GPa)
#
#
# Indices 1 2 3 4 5 6 
#
# 1 0.017809 -0.006069 0.001031 0.000000 0.000000 0.000000
# 2 -0.006069 0.022084 -0.003431 0.000000 0.000000 0.000000
# 3 0.001031 -0.003431 0.011034 0.000000 0.000000 0.000000
# 4 0.000000 0.000000 0.000000 -0.241448 0.000000 0.000000
# 5 0.000000 0.000000 0.000000 0.000000 0.032350 0.000000
# 6 0.000000 0.000000 0.000000 0.000000 0.000000 0.031332
#
#
# Mechanical properties :
#
#
# Convention : Reuss Voigt Hill
#
# Bulk Modulus (GPa) = 29.42096 30.17354 29.79725
# Shear Modulus (GPa) = -50.72363 23.62624 -13.54870
#
# Velocity S-wave (km/s) = -4.80753 3.28106 -2.48465
# Velocity P-wave (km/s) = 4.17262 5.30118 2.31211
#
# Compressibility (1/GPa) = 0.03398938
#
# Stress axis : x y z
#
# Youngs Moduli (GPa) = 56.15284 45.28171 90.63268
#
# Poissons Ratio (x) = 0.27479 -0.09348
# Poissons Ratio (y) = 0.34076 0.31099
# Poissons Ratio (z) = -0.05792 0.15537
#
# Static dielectric constant tensor:
#      x y z
#    x 1.787860 0.000000 0.000000 
#    y 0.000000 1.801710 0.000000 
#    z 0.000000 0.000000 1.859090 
# 
# From -- ./inp_files/17751.got.cif
#   From: 2010.05.17/outbox.cif.g08.bks.cpg/sg57_9_cif.got.tgz:17751.got - 2010.06.03 13:58:18.
