data_PCOD9436892
_publ_section_title
;
Structure prediction by ZEFSAII (Michael W. Deem and Ramdas Pophale) SiO2 
 PCOD9436892
Probable space group: P B C M
;
_chemical_formula_sum "Si O2"
_cell_formula_units_Z 32
_cell_length_a 7.067132
_cell_length_b 13.917613
_cell_length_c 11.898960
_cell_angle_alpha 90.000000
_cell_angle_beta 90.000000
_cell_angle_gamma 90.000000
_cell_volume 1170.353246
_symmetry_space_group_name_H-M "P B C M"
_symmetry_group_IT_number 57
_symmetry_cell_setting 'orthorhombic'
loop_
_space_group_symop_operation_xyz
x,y,z
-x,-y,1/2+z
x,1/2-y,-z
-x,1/2+y,1/2-z
-x,-y,-z
x,y,1/2-z
-x,1/2+y,z
x,1/2-y,1/2+z
loop_
_atom_site_type_symbol
_atom_site_label
_atom_site_fract_x
_atom_site_fract_y
_atom_site_fract_z
Si Si1 0.369288 0.092294 0.375080
Si Si2 0.492281 0.372659 0.375349
Si Si3 0.891599 0.155660 0.559470
Si Si4 0.068803 0.527169 0.366647
O O1 0.410192 0.136572 0.250000
O O2 0.408743 0.141679 0.497064
O O3 0.143282 0.070240 0.371705
O O4 0.466694 0.987393 0.373263
O O5 0.407259 0.351442 0.250000
O O6 0.699772 0.322053 0.375730
O O7 0.968554 0.250000 0.500000
O O8 0.824511 0.081016 0.463551
O O9 0.040099 0.087137 0.622353
O O10 0.157062 0.552518 0.250000
#
# Coordination Sequence:
#
# PCOD9436892 Si02
#       4
#     8   8   8   8
#     4   8  15  31  53  76 105 141 180 222 271 329
#     4   9  17  31  52  79 109 139 177 227 277 329
#     4  10  20  34  54  80 112 147 187 234 287 339
#     4   9  19  36  56  79 110 148 190 236 284 337
#
# _framework density 27.342172999999999
#
# number of rings (size 3 to 8) (size 9 to 14) (size 15 to 20)
#    0.000    3.000    0.000    2.250    0.000    3.000 
#    0.000   15.000    0.000    3.000    0.000    0.000 
#    0.000    0.000    0.000    0.000    0.000    0.000 
#
# Total GULP energy -178484.902611 kJ/mol
# GULP energy per Si atom -5577.653207 kJ/mol
# Density = 2.727994 g / cm^3
# Si number density = 27.342173 Si / 1000 Ang^3
#
#
#
# Elastic Constant Matrix: (Units=GPa)
#
#
# Indices 1 2 3 4 5 6 
#
# 1 74.8879 21.7684 39.4272 0.0000 0.0000 0.0000
# 2 21.7684 114.5939 25.8855 0.0000 0.0000 0.0000
# 3 39.4272 25.8855 296.5284 0.0000 0.0000 0.0000
# 4 0.0000 0.0000 0.0000 -7.5448 0.0000 0.0000
# 5 0.0000 0.0000 0.0000 0.0000 31.5417 0.0000
# 6 0.0000 0.0000 0.0000 0.0000 0.0000 11.6410
#
#
#
# Elastic Compliance Matrix: (Units=1/GPa)
#
#
# Indices 1 2 3 4 5 6 
#
# 1 0.015002 -0.002448 -0.001781 0.000000 0.000000 0.000000
# 2 -0.002448 0.009301 -0.000487 0.000000 0.000000 0.000000
# 3 -0.001781 -0.000487 0.003652 0.000000 0.000000 0.000000
# 4 0.000000 0.000000 0.000000 -0.132542 0.000000 0.000000
# 5 0.000000 0.000000 0.000000 0.000000 0.031704 0.000000
# 6 0.000000 0.000000 0.000000 0.000000 0.000000 0.085903
#
#
# Mechanical properties :
#
#
# Convention : Reuss Voigt Hill
#
# Bulk Modulus (GPa) = 53.98096 73.35248 63.66672
# Shear Modulus (GPa) = 174.66577 33.72286 104.19432
#
# Velocity S-wave (km/s) = 8.00126 3.51574 6.17983
# Velocity P-wave (km/s) = 10.25406 6.58532 8.61720
#
# Compressibility (1/GPa) = 0.01852505
#
# Stress axis : x y z
#
# Youngs Moduli (GPa) = 66.65574 107.51182 273.84875
#
# Poissons Ratio (x) = 0.26314 0.48775
# Poissons Ratio (y) = 0.16314 0.13323
# Poissons Ratio (z) = 0.11872 0.05231
#
# Static dielectric constant tensor:
#      x y z
#    x 2.149630 0.000000 0.000000 
#    y 0.000000 2.065940 0.000000 
#    z 0.000000 0.000000 2.291390 
# 
# From -- ./inp_files/11306.got.cif
#   From: 2010.05.17/outbox.cif.g08.bks.cpg/sg57_6_cif.got.tgz:11306.got - 2010.06.03 13:58:18.
