data_PCOD9436339
_publ_section_title
;
Structure prediction by ZEFSAII (Michael W. Deem and Ramdas Pophale) SiO2 
 PCOD9436339
Probable space group: P B C M
;
_chemical_formula_sum "Si O2"
_cell_formula_units_Z 40
_cell_length_a 6.245907
_cell_length_b 19.749072
_cell_length_c 15.879392
_cell_angle_alpha 90.000000
_cell_angle_beta 90.000000
_cell_angle_gamma 90.000000
_cell_volume 1958.736771
_symmetry_space_group_name_H-M "P B C M"
_symmetry_group_IT_number 57
_symmetry_cell_setting 'orthorhombic'
loop_
_space_group_symop_operation_xyz
x,y,z
-x,-y,1/2+z
x,1/2-y,-z
-x,1/2+y,1/2-z
-x,-y,-z
x,y,1/2-z
-x,1/2+y,z
x,1/2-y,1/2+z
loop_
_atom_site_type_symbol
_atom_site_label
_atom_site_fract_x
_atom_site_fract_y
_atom_site_fract_z
Si Si1 0.745738 0.081083 0.158396
Si Si2 0.562050 0.857826 0.516996
Si Si3 0.833795 0.173512 0.918324
Si Si4 0.043280 0.193895 0.398195
Si Si5 0.906713 0.952874 0.074457
O O1 0.643654 0.089665 0.250000
O O2 0.590997 0.102271 0.081843
O O3 0.952680 0.130602 0.153336
O O4 0.818828 0.004544 0.143110
O O5 0.414966 0.824101 0.444199
O O6 0.707198 0.809976 0.577514
O O7 0.718312 0.909061 0.468188
O O8 0.938730 0.235650 0.867249
O O9 0.915370 0.099648 0.891030
O O10 0.940242 0.181984 0.010091
O O11 0.000000 0.000000 0.000000
#
# Coordination Sequence:
#
# PCOD9436339 Si02
#       5
#     8   8   8   8   8
#     4  11  23  36  54  85 122 156 194 243 301 353
#     4  10  19  36  61  83 115 151 203 241 290 352
#     4   9  19  32  58  86 109 145 195 241 283 338
#     4   9  19  35  54  85 113 145 189 245 288 341
#     4  11  19  36  57  88 115 151 202 246 283 346
#
# _framework density 20.421325
#
# number of rings (size 3 to 8) (size 9 to 14) (size 15 to 20)
#    0.000    2.000    6.000    0.600    0.000   13.600 
#    0.000    1.000    0.000    3.600    0.000    0.000 
#    0.000    0.000    0.000    0.000    0.000    0.000 
#
# Total GULP energy -222672.630452 kJ/mol
# GULP energy per Si atom -5566.815761 kJ/mol
# Density = 2.037484 g / cm^3
# Si number density = 20.421325 Si / 1000 Ang^3
#
#
#
# Elastic Constant Matrix: (Units=GPa)
#
#
# Indices 1 2 3 4 5 6 
#
# 1 119.0095 64.0658 5.7423 0.0000 0.0000 0.0000
# 2 64.0658 137.2590 14.0497 0.0000 0.0000 0.0000
# 3 5.7423 14.0497 39.4515 0.0000 0.0000 0.0000
# 4 0.0000 0.0000 0.0000 0.9546 0.0000 0.0000
# 5 0.0000 0.0000 0.0000 0.0000 6.2931 0.0000
# 6 0.0000 0.0000 0.0000 0.0000 0.0000 32.8448
#
#
#
# Elastic Compliance Matrix: (Units=1/GPa)
#
#
# Indices 1 2 3 4 5 6 
#
# 1 0.011225 -0.005264 0.000241 0.000000 0.000000 0.000000
# 2 -0.005264 0.010030 -0.002806 0.000000 0.000000 0.000000
# 3 0.000241 -0.002806 0.026312 0.000000 0.000000 0.000000
# 4 0.000000 0.000000 0.000000 1.047518 0.000000 0.000000
# 5 0.000000 0.000000 0.000000 0.000000 0.158904 0.000000
# 6 0.000000 0.000000 0.000000 0.000000 0.000000 0.030446
#
#
# Mechanical properties :
#
#
# Convention : Reuss Voigt Hill
#
# Bulk Modulus (GPa) = 31.33943 51.49284 41.41613
# Shear Modulus (GPa) = 3.81468 22.14265 12.97867
#
# Velocity S-wave (km/s) = 1.36823 3.29643 2.52374
# Velocity P-wave (km/s) = 4.22798 6.30544 5.36816
#
# Compressibility (1/GPa) = 0.03190869
#
# Stress axis : x y z
#
# Youngs Moduli (GPa) = 89.08918 99.70535 38.00591
#
# Poissons Ratio (x) = 0.52483 -0.00915
# Poissons Ratio (y) = 0.46895 0.10663
# Poissons Ratio (z) = -0.02145 0.27973
#
# Static dielectric constant tensor:
#      x y z
#    x 1.820070 0.000000 0.000000 
#    y 0.000000 1.857420 0.000000 
#    z 0.000000 0.000000 1.558530 
# 
# From -- ./inp_files/20108.got.cif
#   From: 2010.05.17/outbox.cif.g08.bks.cpg/sg57_11_cif.got.tgz:20108.got - 2010.06.03 13:58:18.
