data_PCOD9436082
_publ_section_title
;
Structure prediction by ZEFSAII (Michael W. Deem and Ramdas Pophale) SiO2 
 PCOD9436082
Probable space group: P B C M
;
_chemical_formula_sum "Si O2"
_cell_formula_units_Z 64
_cell_length_a 22.227619
_cell_length_b 18.240425
_cell_length_c 8.636163
_cell_angle_alpha 90.000000
_cell_angle_beta 90.000000
_cell_angle_gamma 90.000000
_cell_volume 3501.456440
_symmetry_space_group_name_H-M "P B C M"
_symmetry_group_IT_number 57
_symmetry_cell_setting 'orthorhombic'
loop_
_space_group_symop_operation_xyz
x,y,z
-x,-y,1/2+z
x,1/2-y,-z
-x,1/2+y,1/2-z
-x,-y,-z
x,y,1/2-z
-x,1/2+y,z
x,1/2-y,1/2+z
loop_
_atom_site_type_symbol
_atom_site_label
_atom_site_fract_x
_atom_site_fract_y
_atom_site_fract_z
Si Si1 0.609591 0.426113 0.061777
Si Si2 0.064380 0.478084 0.063873
Si Si3 0.726258 0.167885 0.563856
Si Si4 0.243016 0.101485 0.064054
Si Si5 0.811379 0.451696 0.563756
Si Si6 0.125737 0.172533 0.935342
Si Si7 0.496567 0.330274 0.064524
Si Si8 0.378643 0.404677 0.937127
O O1 0.610324 0.426920 0.250000
O O2 0.666935 0.377771 0.013192
O O3 0.548010 0.387280 0.011665
O O4 0.614061 0.510449 0.012065
O O5 0.061783 0.478298 0.250000
O O6 0.119393 0.531878 0.018721
O O7 0.085025 0.396514 0.014553
O O8 0.000000 0.500000 0.000000
O O9 0.724407 0.250000 0.500000
O O10 0.727265 0.169446 0.750000
O O11 0.783239 0.122314 0.502195
O O12 0.239086 0.100619 0.250000
O O13 0.311341 0.120051 0.019716
O O14 0.192721 0.155048 0.996182
O O15 0.226580 0.020382 0.002266
O O16 0.807573 0.452488 0.750000
O O17 0.126969 0.174117 0.750000
O O18 0.104674 0.250000 0.000000
O O19 0.497304 0.327926 0.250000
O O20 0.510372 0.250000 0.000000
O O21 0.431722 0.356848 0.007202
O O22 0.383035 0.402446 0.750000
#
# Coordination Sequence:
#
# PCOD9436082 Si02
#       8
#     8   8   8   8   8   8   8   8
#     4   9  19  37  58  80 108 140 184 233 279 338
#     4   9  20  37  59  86 116 150 191 233 274 327
#     4  11  21  36  57  84 114 148 186 232 286 337
#     4  10  19  34  58  83 110 147 182 226 283 334
#     4  10  20  36  56  83 116 147 184 229 271 328
#     4  10  21  37  57  86 120 151 190 237 280 332
#     4  11  23  38  55  76 106 144 184 231 284 337
#     4  10  20  37  58  81 109 141 182 231 280 338
#
# _framework density 18.278109000000001
#
# number of rings (size 3 to 8) (size 9 to 14) (size 15 to 20)
#    0.000    2.000    1.250    3.375    0.000    4.500 
#    0.000    3.125    0.000    1.500    0.000    0.000 
#    0.000    0.000    0.000    0.000    0.000    0.000 
#
# Total GULP energy -357385.035640 kJ/mol
# GULP energy per Si atom -5584.141182 kJ/mol
# Density = 1.823651 g / cm^3
# Si number density = 18.278109 Si / 1000 Ang^3
#
#
#
# Elastic Constant Matrix: (Units=GPa)
#
#
# Indices 1 2 3 4 5 6 
#
# 1 113.8510 10.5995 22.6048 0.0000 0.0000 0.0000
# 2 10.5995 40.0984 8.5986 0.0000 0.0000 0.0000
# 3 22.6048 8.5986 38.7437 0.0000 0.0000 0.0000
# 4 0.0000 0.0000 0.0000 31.1685 0.0000 0.0000
# 5 0.0000 0.0000 0.0000 0.0000 24.2415 0.0000
# 6 0.0000 0.0000 0.0000 0.0000 0.0000 14.4708
#
#
#
# Elastic Compliance Matrix: (Units=1/GPa)
#
#
# Indices 1 2 3 4 5 6 
#
# 1 0.010015 -0.001464 -0.005519 0.000000 0.000000 0.000000
# 2 -0.001464 0.026399 -0.005005 0.000000 0.000000 0.000000
# 3 -0.005519 -0.005005 0.030141 0.000000 0.000000 0.000000
# 4 0.000000 0.000000 0.000000 0.032084 0.000000 0.000000
# 5 0.000000 0.000000 0.000000 0.000000 0.041252 0.000000
# 6 0.000000 0.000000 0.000000 0.000000 0.000000 0.069104
#
#
# Mechanical properties :
#
#
# Convention : Reuss Voigt Hill
#
# Bulk Modulus (GPa) = 23.48470 30.69989 27.09230
# Shear Modulus (GPa) = 20.22955 24.03550 22.13252
#
# Velocity S-wave (km/s) = 3.33042 3.63021 3.48354
# Velocity P-wave (km/s) = 5.25978 5.86547 5.57086
#
# Compressibility (1/GPa) = 0.04258091
#
# Stress axis : x y z
#
# Youngs Moduli (GPa) = 99.84621 37.88040 33.17731
#
# Poissons Ratio (x) = 0.05546 0.18309
# Poissons Ratio (y) = 0.14618 0.16604
# Poissons Ratio (z) = 0.55100 0.18958
#
# Static dielectric constant tensor:
#      x y z
#    x 1.618060 0.000000 0.000000 
#    y 0.000000 1.621680 0.000000 
#    z 0.000000 0.000000 1.620050 
# 
# From -- ./inp_files/8512.got.cif
#   From: 2010.05.17/outbox.cif.g08.bks.cpg/sg57_5_cif.got.tgz:8512.got - 2010.06.03 13:58:18.
