data_PCOD9436068
_publ_section_title
;
Structure prediction by ZEFSAII (Michael W. Deem and Ramdas Pophale) SiO2 
 PCOD9436068
Probable space group: P B C M
;
_chemical_formula_sum "Si O2"
_cell_formula_units_Z 64
_cell_length_a 12.231563
_cell_length_b 31.895518
_cell_length_c 8.502548
_cell_angle_alpha 90.000000
_cell_angle_beta 90.000000
_cell_angle_gamma 90.000000
_cell_volume 3317.116378
_symmetry_space_group_name_H-M "P B C M"
_symmetry_group_IT_number 57
_symmetry_cell_setting 'orthorhombic'
loop_
_space_group_symop_operation_xyz
x,y,z
-x,-y,1/2+z
x,1/2-y,-z
-x,1/2+y,1/2-z
-x,-y,-z
x,y,1/2-z
-x,1/2+y,z
x,1/2-y,1/2+z
loop_
_atom_site_type_symbol
_atom_site_label
_atom_site_fract_x
_atom_site_fract_y
_atom_site_fract_z
Si Si1 0.236429 0.453294 0.059815
Si Si2 0.997484 0.077715 0.939443
Si Si3 0.002920 0.176035 0.939634
Si Si4 0.374144 0.375134 0.559974
Si Si5 0.233122 0.953220 0.560597
Si Si6 0.765265 0.705048 0.437694
Si Si7 0.626058 0.126272 0.059523
Si Si8 0.236648 0.795130 0.438406
O O1 0.239503 0.451874 0.250000
O O2 0.111453 0.443288 0.011568
O O3 0.266056 0.500240 0.006860
O O4 0.314103 0.417002 0.996498
O O5 0.989714 0.075417 0.750000
O O6 0.000555 0.126857 0.983326
O O7 0.890813 0.056415 0.010819
O O8 0.009866 0.178610 0.750000
O O9 0.888752 0.196539 0.990855
O O10 0.110065 0.197193 0.009975
O O11 0.372615 0.374835 0.750000
O O12 0.307420 0.334133 0.504657
O O13 0.500037 0.373871 0.508420
O O14 0.237493 0.953293 0.750000
O O15 0.310363 0.915474 0.504234
O O16 0.727324 0.750000 0.500000
O O17 0.760869 0.705649 0.250000
O O18 0.628224 0.126579 0.250000
O O19 0.689251 0.167107 0.000058
O O20 0.273201 0.750000 0.500000
O O21 0.238013 0.795503 0.250000
#
# Coordination Sequence:
#
# PCOD9436068 Si02
#       8
#     8   8   8   8   8   8   8   8
#     4  10  21  37  58  86 118 152 190 235 288 341
#     4  10  19  34  57  85 119 151 184 232 285 341
#     4  10  20  36  59  87 118 150 185 230 283 339
#     4  10  23  41  59  82 112 151 195 239 285 334
#     4  10  21  36  58  87 117 152 192 235 286 342
#     4  11  23  38  59  85 113 146 187 230 282 341
#     4  10  22  41  60  81 115 152 193 242 285 332
#     4  11  23  39  60  87 116 148 188 230 283 342
#
# _framework density 19.293866000000001
#
# number of rings (size 3 to 8) (size 9 to 14) (size 15 to 20)
#    0.000    1.750    2.500    1.500    0.000    5.500 
#    0.000    1.250    0.000    0.000    0.000    0.000 
#    0.000    0.000    0.000    0.000    0.000    0.000 
#
# Total GULP energy -357619.054605 kJ/mol
# GULP energy per Si atom -5587.797728 kJ/mol
# Density = 1.924995 g / cm^3
# Si number density = 19.293866 Si / 1000 Ang^3
#
#
#
# Elastic Constant Matrix: (Units=GPa)
#
#
# Indices 1 2 3 4 5 6 
#
# 1 158.6999 94.4219 22.2962 0.0000 0.0000 0.0000
# 2 94.4219 204.3325 26.8899 0.0000 0.0000 0.0000
# 3 22.2962 26.8899 8.7592 0.0000 0.0000 0.0000
# 4 0.0000 0.0000 0.0000 25.2532 0.0000 0.0000
# 5 0.0000 0.0000 0.0000 0.0000 5.2979 0.0000
# 6 0.0000 0.0000 0.0000 0.0000 0.0000 -2.1139
#
#
#
# Elastic Compliance Matrix: (Units=1/GPa)
#
#
# Indices 1 2 3 4 5 6 
#
# 1 0.010373 -0.002212 -0.019612 0.000000 0.000000 0.000000
# 2 -0.002212 0.008683 -0.021025 0.000000 0.000000 0.000000
# 3 -0.019612 -0.021025 0.228631 0.000000 0.000000 0.000000
# 4 0.000000 0.000000 0.000000 0.039599 0.000000 0.000000
# 5 0.000000 0.000000 0.000000 0.000000 0.188753 0.000000
# 6 0.000000 0.000000 0.000000 0.000000 0.000000 -0.473053
#
#
# Mechanical properties :
#
#
# Convention : Reuss Voigt Hill
#
# Bulk Modulus (GPa) = 6.17327 73.22309 39.69818
# Shear Modulus (GPa) = 35.04322 20.89968 27.97145
#
# Velocity S-wave (km/s) = 4.26642 3.29482 3.81170
# Velocity P-wave (km/s) = 5.24178 7.24626 6.32395
#
# Compressibility (1/GPa) = 0.16198877
#
# Stress axis : x y z
#
# Youngs Moduli (GPa) = 96.40584 115.16487 4.37386
#
# Poissons Ratio (x) = 0.25479 0.08578
# Poissons Ratio (y) = 0.21329 0.09196
# Poissons Ratio (z) = 1.89069 2.42135
#
# Static dielectric constant tensor:
#      x y z
#    x 1.644120 0.000000 0.000000 
#    y 0.000000 1.668590 0.000000 
#    z 0.000000 0.000000 1.657840 
# 
# From -- ./inp_files/3846.got.cif
#   From: 2010.05.17/outbox.cif.g08.bks.cpg/sg57_2_cif.got.tgz:3846.got - 2010.06.03 13:58:18.
