data_PCOD9436699
_publ_section_title
;
Structure prediction by ZEFSAII (Michael W. Deem and Ramdas Pophale) SiO2 
 PCOD9436699
Probable space group: P B C M
;
_chemical_formula_sum "Si O2"
_cell_formula_units_Z 56
_cell_length_a 15.873005
_cell_length_b 23.731888
_cell_length_c 8.763994
_cell_angle_alpha 90.000000
_cell_angle_beta 90.000000
_cell_angle_gamma 90.000000
_cell_volume 3301.364787
_symmetry_space_group_name_H-M "P B C M"
_symmetry_group_IT_number 57
_symmetry_cell_setting 'orthorhombic'
loop_
_space_group_symop_operation_xyz
x,y,z
-x,-y,1/2+z
x,1/2-y,-z
-x,1/2+y,1/2-z
-x,-y,-z
x,y,1/2-z
-x,1/2+y,z
x,1/2-y,1/2+z
loop_
_atom_site_type_symbol
_atom_site_label
_atom_site_fract_x
_atom_site_fract_y
_atom_site_fract_z
Si Si1 0.674741 0.186842 0.567478
Si Si2 0.000469 0.187707 0.067787
Si Si3 0.314091 0.186531 0.433138
Si Si4 0.843678 0.119758 0.933085
Si Si5 0.502371 0.313005 0.567754
Si Si6 0.905522 0.004074 0.067653
Si Si7 0.157906 0.379698 0.432247
O O1 0.686328 0.250000 0.500000
O O2 0.669362 0.191905 0.750000
O O3 0.754054 0.147766 0.528115
O O4 0.586908 0.161809 0.504195
O O5 0.999205 0.189520 0.250000
O O6 0.005004 0.250000 0.000000
O O7 0.917211 0.157430 0.005471
O O8 0.080848 0.153129 0.009730
O O9 0.305217 0.250000 0.500000
O O10 0.305129 0.189903 0.250000
O O11 0.408942 0.164503 0.467599
O O12 0.243721 0.146258 0.503114
O O13 0.852682 0.119840 0.750000
O O14 0.857805 0.057054 0.995359
O O15 0.500765 0.250000 0.500000
O O16 0.511564 0.310848 0.750000
O O17 0.912288 0.011462 0.250000
O O18 0.856861 0.945749 0.036923
O O19 0.000000 0.000000 0.000000
O O20 0.154348 0.371233 0.250000
#
# Coordination Sequence:
#
# PCOD9436699 Si02
#       7
#     8   8   8   8   8   8   8
#     4  10  20  33  53  81 112 145 178 220 269 323
#     4  12  24  37  55  78 109 145 178 219 272 324
#     4  10  20  34  54  82 113 145 180 220 271 324
#     4  11  23  38  56  80 110 142 183 227 270 324
#     4   9  17  30  51  78 109 143 178 218 263 322
#     4  11  23  39  60  80 104 141 186 231 274 320
#     4  11  23  38  56  79 108 141 181 226 270 323
#
# _framework density 16.962681
#
# number of rings (size 3 to 8) (size 9 to 14) (size 15 to 20)
#    0.000    1.429    1.429    5.571    0.000    6.857 
#    0.000    0.000    0.000    0.857    0.000    0.000 
#    0.000    0.000    0.000    0.000    0.000    0.000 
#
# Total GULP energy -312744.040397 kJ/mol
# GULP energy per Si atom -5584.715007 kJ/mol
# Density = 1.692407 g / cm^3
# Si number density = 16.962681 Si / 1000 Ang^3
#
#
#
# Elastic Constant Matrix: (Units=GPa)
#
#
# Indices 1 2 3 4 5 6 
#
# 1 197.6595 91.2006 86.2163 0.0000 0.0000 0.0000
# 2 91.2006 127.0340 71.4741 0.0000 0.0000 0.0000
# 3 86.2163 71.4741 101.1860 0.0000 0.0000 0.0000
# 4 0.0000 0.0000 0.0000 43.1800 0.0000 0.0000
# 5 0.0000 0.0000 0.0000 0.0000 30.1683 0.0000
# 6 0.0000 0.0000 0.0000 0.0000 0.0000 -12.1670
#
#
#
# Elastic Compliance Matrix: (Units=1/GPa)
#
#
# Indices 1 2 3 4 5 6 
#
# 1 0.008912 -0.003528 -0.005102 0.000000 0.000000 0.000000
# 2 -0.003528 0.014460 -0.007208 0.000000 0.000000 0.000000
# 3 -0.005102 -0.007208 0.019322 0.000000 0.000000 0.000000
# 4 0.000000 0.000000 0.000000 0.023159 0.000000 0.000000
# 5 0.000000 0.000000 0.000000 0.000000 0.033147 0.000000
# 6 0.000000 0.000000 0.000000 0.000000 0.000000 -0.082190
#
#
# Mechanical properties :
#
#
# Convention : Reuss Voigt Hill
#
# Bulk Modulus (GPa) = 90.75937 102.62905 96.69421
# Shear Modulus (GPa) = 95.86002 24.03550 59.94776
#
# Velocity S-wave (km/s) = 7.52562 3.76834 5.95128
# Velocity P-wave (km/s) = 11.36375 8.92009 10.21525
#
# Compressibility (1/GPa) = 0.01101815
#
# Stress axis : x y z
#
# Youngs Moduli (GPa) = 112.20406 69.15489 51.75575
#
# Poissons Ratio (x) = 0.24397 0.26405
# Poissons Ratio (y) = 0.39584 0.37307
# Poissons Ratio (z) = 0.57245 0.49849
#
# Static dielectric constant tensor:
#      x y z
#    x 1.586790 0.000000 0.000000 
#    y 0.000000 1.542700 0.000000 
#    z 0.000000 0.000000 1.567740 
# 
# From -- ./inp_files/5233.got.cif
#   From: 2010.05.17/outbox.cif.g08.bks.cpg/sg57_3_cif.got.tgz:5233.got - 2010.06.03 13:58:18.
