data_PCOD9436013
_publ_section_title
;
Structure prediction by ZEFSAII (Michael W. Deem and Ramdas Pophale) SiO2 
 PCOD9436013
Probable space group: P B C M
;
_chemical_formula_sum "Si O2"
_cell_formula_units_Z 40
_cell_length_a 19.491793
_cell_length_b 11.100424
_cell_length_c 10.305965
_cell_angle_alpha 90.000000
_cell_angle_beta 90.000000
_cell_angle_gamma 90.000000
_cell_volume 2229.872448
_symmetry_space_group_name_H-M "P B C M"
_symmetry_group_IT_number 57
_symmetry_cell_setting 'orthorhombic'
loop_
_space_group_symop_operation_xyz
x,y,z
-x,-y,1/2+z
x,1/2-y,-z
-x,1/2+y,1/2-z
-x,-y,-z
x,y,1/2-z
-x,1/2+y,z
x,1/2-y,1/2+z
loop_
_atom_site_type_symbol
_atom_site_label
_atom_site_fract_x
_atom_site_fract_y
_atom_site_fract_z
Si Si1 0.613687 0.441570 0.997603
Si Si2 0.058863 0.896944 0.997848
Si Si3 0.474128 0.157771 0.895121
Si Si4 0.846213 0.122146 0.250000
Si Si5 0.301716 0.950565 0.250000
Si Si6 0.692621 0.159885 0.250000
Si Si7 0.148681 0.909518 0.250000
O O1 0.553192 0.369316 0.070758
O O2 0.661219 0.488904 0.115872
O O3 0.571024 0.539963 0.916435
O O4 0.655775 0.373108 0.886010
O O5 0.108848 0.912375 0.874463
O O6 0.039571 0.750000 0.000000
O O7 0.103885 0.928116 0.123063
O O8 0.000000 0.000000 0.000000
O O9 0.469452 0.204689 0.750000
O O10 0.447481 0.250000 0.000000
O O11 0.765838 0.089254 0.250000
O O12 0.839062 0.266358 0.250000
O O13 0.304271 0.804602 0.250000
O O14 0.220774 0.978674 0.250000
#
# Coordination Sequence:
#
# PCOD9436013 Si02
#       7
#     8   8   8   4   4   4   4
#     4  11  23  36  55  82 109 137 186 232 283 336
#     4  10  19  34  56  83 114 147 184 226 275 330
#     4  11  24  39  57  78 108 144 186 234 281 334
#     4   9  19  33  55  81 111 144 177 226 276 326
#     4  11  20  34  57  83 109 148 178 230 286 332
#     4  11  20  36  55  81 113 144 182 230 284 332
#     4   9  19  33  53  83 113 140 181 220 276 330
#
# _framework density 17.938244999999998
#
# number of rings (size 3 to 8) (size 9 to 14) (size 15 to 20)
#    0.000    1.600    2.000    3.600    2.800    3.200 
#    0.000    0.000    0.000    7.200    0.000    0.000 
#    0.000    0.000    0.000    0.000    0.000    0.000 
#
# Total GULP energy -222799.676695 kJ/mol
# GULP energy per Si atom -5569.991917 kJ/mol
# Density = 1.789742 g / cm^3
# Si number density = 17.938245 Si / 1000 Ang^3
#
#
#
# Elastic Constant Matrix: (Units=GPa)
#
#
# Indices 1 2 3 4 5 6 
#
# 1 118.8096 29.5513 53.7072 0.0000 0.0000 0.0000
# 2 29.5513 31.7812 17.0387 0.0000 0.0000 0.0000
# 3 53.7072 17.0387 167.1149 0.0000 0.0000 0.0000
# 4 0.0000 0.0000 0.0000 115.8857 0.0000 0.0000
# 5 0.0000 0.0000 0.0000 0.0000 16.7130 0.0000
# 6 0.0000 0.0000 0.0000 0.0000 0.0000 19.1694
#
#
#
# Elastic Compliance Matrix: (Units=1/GPa)
#
#
# Indices 1 2 3 4 5 6 
#
# 1 0.012157 -0.009742 -0.002914 0.000000 0.000000 0.000000
# 2 -0.009742 0.041091 -0.001059 0.000000 0.000000 0.000000
# 3 -0.002914 -0.001059 0.007028 0.000000 0.000000 0.000000
# 4 0.000000 0.000000 0.000000 0.008629 0.000000 0.000000
# 5 0.000000 0.000000 0.000000 0.000000 0.059834 0.000000
# 6 0.000000 0.000000 0.000000 0.000000 0.000000 0.052166
#
#
# Mechanical properties :
#
#
# Convention : Reuss Voigt Hill
#
# Bulk Modulus (GPa) = 30.44358 57.58893 44.01625
# Shear Modulus (GPa) = 22.80149 44.84752 33.82450
#
# Velocity S-wave (km/s) = 3.56913 5.00553 4.34707
# Velocity P-wave (km/s) = 5.83036 8.09820 7.05599
#
# Compressibility (1/GPa) = 0.03284765
#
# Stress axis : x y z
#
# Youngs Moduli (GPa) = 82.25665 24.33613 142.28250
#
# Poissons Ratio (x) = 0.23708 0.41458
# Poissons Ratio (y) = 0.80134 0.15064
# Poissons Ratio (z) = 0.23968 0.02577
#
# Static dielectric constant tensor:
#      x y z
#    x 1.645220 0.000000 0.000000 
#    y 0.000000 1.683150 0.000000 
#    z 0.000000 0.000000 1.517790 
# 
# From -- ./inp_files/6303.got.cif
#   From: 2010.05.17/outbox.cif.g08.bks.cpg/sg57_4_cif.got.tgz:6303.got - 2010.06.03 13:58:18.
