data_PCOD9436199
_publ_section_title
;
Structure prediction by ZEFSAII (Michael W. Deem and Ramdas Pophale) SiO2 
 PCOD9436199
Probable space group: P B C M
;
_chemical_formula_sum "Si O2"
_cell_formula_units_Z 64
_cell_length_a 21.957678
_cell_length_b 17.873768
_cell_length_c 8.941078
_cell_angle_alpha 90.000000
_cell_angle_beta 90.000000
_cell_angle_gamma 90.000000
_cell_volume 3509.073074
_symmetry_space_group_name_H-M "P B C M"
_symmetry_group_IT_number 57
_symmetry_cell_setting 'orthorhombic'
loop_
_space_group_symop_operation_xyz
x,y,z
-x,-y,1/2+z
x,1/2-y,-z
-x,1/2+y,1/2-z
-x,-y,-z
x,y,1/2-z
-x,1/2+y,z
x,1/2-y,1/2+z
loop_
_atom_site_type_symbol
_atom_site_label
_atom_site_fract_x
_atom_site_fract_y
_atom_site_fract_z
Si Si1 0.389455 0.427471 0.428579
Si Si2 0.754421 0.389397 0.071491
Si Si3 0.935211 0.016636 0.072108
Si Si4 0.718734 0.668102 0.429352
Si Si5 0.182796 0.048287 0.428378
Si Si6 0.375422 0.897005 0.570822
Si Si7 0.505257 0.328271 0.071241
Si Si8 0.874058 0.174818 0.071664
O O1 0.379144 0.419953 0.250000
O O2 0.338264 0.380407 0.513573
O O3 0.385773 0.515094 0.465632
O O4 0.455184 0.391839 0.462248
O O5 0.751625 0.379115 0.250000
O O6 0.774890 0.475497 0.040898
O O7 0.689587 0.374599 0.996946
O O8 0.808040 0.340242 0.000777
O O9 0.938711 0.008650 0.250000
O O10 0.914116 0.101579 0.037766
O O11 0.881092 0.964575 0.009496
O O12 0.000000 0.000000 0.000000
O O13 0.717566 0.750000 0.500000
O O14 0.716482 0.673176 0.250000
O O15 0.779392 0.621580 0.471887
O O16 0.172366 0.049645 0.250000
O O17 0.375307 0.888509 0.750000
O O18 0.430362 0.850804 0.499328
O O19 0.510396 0.320907 0.250000
O O20 0.484519 0.250000 0.000000
O O21 0.868489 0.181853 0.250000
O O22 0.899962 0.250000 0.000000
#
# Coordination Sequence:
#
# PCOD9436199 Si02
#       8
#     8   8   8   8   8   8   8   8
#     4  10  22  39  60  84 111 146 189 237 288 346
#     4  10  19  35  58  84 113 148 186 230 283 338
#     4  10  21  37  61  89 118 154 196 237 281 333
#     4  11  22  36  57  86 117 151 190 236 289 342
#     4   9  19  36  57  82 114 149 188 230 277 333
#     4  11  22  37  59  86 113 145 187 236 288 347
#     4  11  24  41  57  78 109 147 190 237 291 346
#     4  10  21  37  58  88 120 154 193 237 285 336
#
# _framework density 18.238434000000002
#
# number of rings (size 3 to 8) (size 9 to 14) (size 15 to 20)
#    0.000    1.750    1.250    3.000    0.000    6.000 
#    0.000    3.125    0.000    0.000    0.000    0.000 
#    0.000    0.000    0.000    0.000    0.000    0.000 
#
# Total GULP energy -357637.369433 kJ/mol
# GULP energy per Si atom -5588.083897 kJ/mol
# Density = 1.819692 g / cm^3
# Si number density = 18.238434 Si / 1000 Ang^3
#
#
#
# Elastic Constant Matrix: (Units=GPa)
#
#
# Indices 1 2 3 4 5 6 
#
# 1 106.0712 3.7116 38.7791 0.0000 0.0000 0.0000
# 2 3.7116 44.4232 21.6538 0.0000 0.0000 0.0000
# 3 38.7791 21.6538 45.4843 0.0000 0.0000 0.0000
# 4 0.0000 0.0000 0.0000 27.4777 0.0000 0.0000
# 5 0.0000 0.0000 0.0000 0.0000 33.7121 0.0000
# 6 0.0000 0.0000 0.0000 0.0000 0.0000 13.0573
#
#
#
# Elastic Compliance Matrix: (Units=1/GPa)
#
#
# Indices 1 2 3 4 5 6 
#
# 1 0.015008 0.006489 -0.015885 0.000000 0.000000 0.000000
# 2 0.006489 0.032119 -0.020823 0.000000 0.000000 0.000000
# 3 -0.015885 -0.020823 0.045442 0.000000 0.000000 0.000000
# 4 0.000000 0.000000 0.000000 0.036393 0.000000 0.000000
# 5 0.000000 0.000000 0.000000 0.000000 0.029663 0.000000
# 6 0.000000 0.000000 0.000000 0.000000 0.000000 0.076585
#
#
# Mechanical properties :
#
#
# Convention : Reuss Voigt Hill
#
# Bulk Modulus (GPa) = 31.12283 36.02975 33.57629
# Shear Modulus (GPa) = 16.32078 23.63837 19.97958
#
# Velocity S-wave (km/s) = 2.99466 3.60401 3.31337
# Velocity P-wave (km/s) = 5.39062 6.09231 5.75217
#
# Compressibility (1/GPa) = 0.03213075
#
# Stress axis : x y z
#
# Youngs Moduli (GPa) = 66.63151 31.13450 22.00614
#
# Poissons Ratio (x) = -0.20203 0.34956
# Poissons Ratio (y) = -0.43237 0.45824
# Poissons Ratio (z) = 1.05842 0.64832
#
# Static dielectric constant tensor:
#      x y z
#    x 1.594360 0.000000 0.000000 
#    y 0.000000 1.626700 0.000000 
#    z 0.000000 0.000000 1.603660 
# 
# From -- ./inp_files/8413.got.cif
#   From: 2010.05.17/outbox.cif.g08.bks.cpg/sg57_5_cif.got.tgz:8413.got - 2010.06.03 13:58:18.
