data_PCOD9436701
_publ_section_title
;
Structure prediction by ZEFSAII (Michael W. Deem and Ramdas Pophale) SiO2 
 PCOD9436701
Probable space group: P B C M
;
_chemical_formula_sum "Si O2"
_cell_formula_units_Z 56
_cell_length_a 12.148372
_cell_length_b 11.802478
_cell_length_c 23.039094
_cell_angle_alpha 90.000000
_cell_angle_beta 90.000000
_cell_angle_gamma 90.000000
_cell_volume 3303.365878
_symmetry_space_group_name_H-M "P B C M"
_symmetry_group_IT_number 57
_symmetry_cell_setting 'orthorhombic'
loop_
_space_group_symop_operation_xyz
x,y,z
-x,-y,1/2+z
x,1/2-y,-z
-x,1/2+y,1/2-z
-x,-y,-z
x,y,1/2-z
-x,1/2+y,z
x,1/2-y,1/2+z
loop_
_atom_site_type_symbol
_atom_site_label
_atom_site_fract_x
_atom_site_fract_y
_atom_site_fract_z
Si Si1 0.065607 0.584654 0.681921
Si Si2 0.352064 0.977353 0.820004
Si Si3 0.609090 0.009795 0.681121
Si Si4 0.833177 0.864689 0.132793
Si Si5 0.922761 0.885038 0.003969
Si Si6 0.196139 0.394824 0.883679
Si Si7 0.740500 0.238837 0.818882
O O1 0.088752 0.569679 0.750000
O O2 0.109160 0.476800 0.647544
O O3 0.141644 0.690184 0.660321
O O4 0.937738 0.600449 0.671232
O O5 0.341102 0.982622 0.750000
O O6 0.481080 0.993299 0.831940
O O7 0.304882 0.856835 0.841995
O O8 0.276152 0.072285 0.847832
O O9 0.627533 0.980899 0.750000
O O10 0.685609 0.938336 0.637950
O O11 0.651739 0.138617 0.673759
O O12 0.818067 0.731507 0.138378
O O13 0.866064 0.891085 0.066595
O O14 0.834967 0.895468 0.951564
O O15 0.966821 0.750000 0.000000
O O16 0.000000 0.000000 0.000000
O O17 0.753758 0.256107 0.750000
#
# Coordination Sequence:
#
# PCOD9436701 Si02
#       7
#     8   8   8   8   8   8   8
#     4  10  20  33  53  81 114 147 179 225 288 345
#     4  10  21  34  54  83 115 148 186 231 282 342
#     4   9  19  36  57  80 110 151 189 228 284 341
#     4  11  23  35  56  85 111 146 187 236 285 339
#     4  10  21  40  61  83 112 152 196 239 285 339
#     4  10  21  38  58  79 109 149 191 234 281 334
#     4   8  17  33  50  74 110 147 182 222 270 334
#
# _framework density 16.952406
#
# number of rings (size 3 to 8) (size 9 to 14) (size 15 to 20)
#    0.000    2.286    1.429    1.714    4.000    2.286 
#    0.000    0.714    0.000    0.000    0.000    0.000 
#    0.000    0.000    0.000    0.000    0.000    0.000 
#
# Total GULP energy -311859.128457 kJ/mol
# GULP energy per Si atom -5568.913008 kJ/mol
# Density = 1.691382 g / cm^3
# Si number density = 16.952406 Si / 1000 Ang^3
#
#
#
# Elastic Constant Matrix: (Units=GPa)
#
#
# Indices 1 2 3 4 5 6 
#
# 1 80.2603 32.6679 7.0126 0.0000 0.0000 0.0000
# 2 32.6679 61.0639 1.0726 0.0000 0.0000 0.0000
# 3 7.0126 1.0726 17.5186 0.0000 0.0000 0.0000
# 4 0.0000 0.0000 0.0000 22.2841 0.0000 0.0000
# 5 0.0000 0.0000 0.0000 0.0000 16.1448 0.0000
# 6 0.0000 0.0000 0.0000 0.0000 0.0000 12.5690
#
#
#
# Elastic Compliance Matrix: (Units=1/GPa)
#
#
# Indices 1 2 3 4 5 6 
#
# 1 0.016552 -0.008748 -0.006090 0.000000 0.000000 0.000000
# 2 -0.008748 0.021017 0.002215 0.000000 0.000000 0.000000
# 3 -0.006090 0.002215 0.059384 0.000000 0.000000 0.000000
# 4 0.000000 0.000000 0.000000 0.044875 0.000000 0.000000
# 5 0.000000 0.000000 0.000000 0.000000 0.061939 0.000000
# 6 0.000000 0.000000 0.000000 0.000000 0.000000 0.079561
#
#
# Mechanical properties :
#
#
# Convention : Reuss Voigt Hill
#
# Bulk Modulus (GPa) = 13.94552 26.70543 20.32548
# Shear Modulus (GPa) = 15.03857 18.07224 16.55540
#
# Velocity S-wave (km/s) = 2.98166 3.26860 3.12842
# Velocity P-wave (km/s) = 4.48307 5.48018 5.00651
#
# Compressibility (1/GPa) = 0.07170760
#
# Stress axis : x y z
#
# Youngs Moduli (GPa) = 60.41457 47.57945 16.83944
#
# Poissons Ratio (x) = 0.41623 0.10255
# Poissons Ratio (y) = 0.52852 -0.03730
# Poissons Ratio (z) = 0.36793 -0.10539
#
# Static dielectric constant tensor:
#      x y z
#    x 1.568360 0.000000 0.000000 
#    y 0.000000 1.601420 0.000000 
#    z 0.000000 0.000000 1.564230 
# 
# From -- ./inp_files/25018.got.cif
#   From: 2010.05.17/outbox.cif.g08.bks.cpg/sg57_13_cif.got.tgz:25018.got - 2010.06.03 13:58:18.
