data_PCOD9436237
_publ_section_title
;
Structure prediction by ZEFSAII (Michael W. Deem and Ramdas Pophale) SiO2 
 PCOD9436237
Probable space group: P B C M
;
_chemical_formula_sum "Si O2"
_cell_formula_units_Z 64
_cell_length_a 24.154310
_cell_length_b 15.690764
_cell_length_c 8.783369
_cell_angle_alpha 90.000000
_cell_angle_beta 90.000000
_cell_angle_gamma 90.000000
_cell_volume 3328.893143
_symmetry_space_group_name_H-M "P B C M"
_symmetry_group_IT_number 57
_symmetry_cell_setting 'orthorhombic'
loop_
_space_group_symop_operation_xyz
x,y,z
-x,-y,1/2+z
x,1/2-y,-z
-x,1/2+y,1/2-z
-x,-y,-z
x,y,1/2-z
-x,1/2+y,z
x,1/2-y,1/2+z
loop_
_atom_site_type_symbol
_atom_site_label
_atom_site_fract_x
_atom_site_fract_y
_atom_site_fract_z
Si Si1 0.865077 0.494789 0.566774
Si Si2 0.320939 0.339706 0.566660
Si Si3 0.330506 0.660287 0.430014
Si Si4 0.945741 0.341430 0.932831
Si Si5 0.442257 0.894706 0.426852
Si Si6 0.743437 0.010270 0.566895
Si Si7 0.558029 0.899539 0.929424
Si Si8 0.074542 0.157804 0.067080
O O1 0.864200 0.497984 0.750000
O O2 0.905998 0.418046 0.518660
O O3 0.803961 0.479594 0.503156
O O4 0.888760 0.582842 0.501322
O O5 0.302318 0.250000 0.500000
O O6 0.321106 0.335968 0.750000
O O7 0.282666 0.419052 0.521771
O O8 0.384257 0.359148 0.517964
O O9 0.312170 0.750000 0.500000
O O10 0.322596 0.659300 0.250000
O O11 0.394938 0.646851 0.471560
O O12 0.296821 0.583827 0.506943
O O13 0.943687 0.335905 0.750000
O O14 0.009907 0.357660 0.975370
O O15 0.929295 0.250000 0.000000
O O16 0.432919 0.873315 0.250000
O O17 0.504044 0.871274 0.478691
O O18 0.437264 0.997599 0.443150
O O19 0.745779 0.013535 0.750000
O O20 0.550111 0.881158 0.750000
O O21 0.078905 0.159019 0.250000
O O22 0.089883 0.250000 0.000000
#
# Coordination Sequence:
#
# PCOD9436237 Si02
#       8
#     8   8   8   8   8   8   8   8
#     4  11  23  39  60  90 123 160 204 251 297 359
#     4  10  22  40  62  86 116 152 195 245 298 354
#     4  12  25  42  65  90 117 155 200 249 305 366
#     4   9  20  37  60  90 126 160 199 245 297 354
#     4  10  19  35  59  88 121 155 192 240 296 358
#     4  11  24  45  64  85 119 159 203 256 304 352
#     4   9  18  35  57  85 120 156 192 238 295 357
#     4  10  20  37  61  91 124 163 201 246 300 354
#
# _framework density 19.225608999999999
#
# number of rings (size 3 to 8) (size 9 to 14) (size 15 to 20)
#    0.000    1.750    1.250    3.000    0.000    5.000 
#    0.000    3.750    0.000    0.000    0.000    0.000 
#    0.000    0.000    0.000    0.000    0.000    0.000 
#
# Total GULP energy -357774.789438 kJ/mol
# GULP energy per Si atom -5590.231085 kJ/mol
# Density = 1.918185 g / cm^3
# Si number density = 19.225609 Si / 1000 Ang^3
#
#
#
# Elastic Constant Matrix: (Units=GPa)
#
#
# Indices 1 2 3 4 5 6 
#
# 1 46.3752 11.0098 13.4726 0.0000 0.0000 0.0000
# 2 11.0098 66.5638 21.1012 0.0000 0.0000 0.0000
# 3 13.4726 21.1012 53.2434 0.0000 0.0000 0.0000
# 4 0.0000 0.0000 0.0000 31.7179 0.0000 0.0000
# 5 0.0000 0.0000 0.0000 0.0000 25.6994 0.0000
# 6 0.0000 0.0000 0.0000 0.0000 0.0000 -8.8985
#
#
#
# Elastic Compliance Matrix: (Units=1/GPa)
#
#
# Indices 1 2 3 4 5 6 
#
# 1 0.023577 -0.002297 -0.005056 0.000000 0.000000 0.000000
# 2 -0.002297 0.017406 -0.006317 0.000000 0.000000 0.000000
# 3 -0.005056 -0.006317 0.022564 0.000000 0.000000 0.000000
# 4 0.000000 0.000000 0.000000 0.031528 0.000000 0.000000
# 5 0.000000 0.000000 0.000000 0.000000 0.038911 0.000000
# 6 0.000000 0.000000 0.000000 0.000000 0.000000 -0.112379
#
#
# Mechanical properties :
#
#
# Convention : Reuss Voigt Hill
#
# Bulk Modulus (GPa) = 27.61804 28.59442 28.10623
# Shear Modulus (GPa) = 81.94466 17.74367 49.84416
#
# Velocity S-wave (km/s) = 6.53569 3.04125 5.09727
# Velocity P-wave (km/s) = 8.44689 5.21897 7.02096
#
# Compressibility (1/GPa) = 0.03620822
#
# Stress axis : x y z
#
# Youngs Moduli (GPa) = 42.41367 57.45271 44.31756
#
# Poissons Ratio (x) = 0.13197 0.22405
# Poissons Ratio (y) = 0.09743 0.27995
# Poissons Ratio (z) = 0.21443 0.36292
#
# Static dielectric constant tensor:
#      x y z
#    x 1.651010 0.000000 0.000000 
#    y 0.000000 1.667340 0.000000 
#    z 0.000000 0.000000 1.645780 
# 
# From -- ./inp_files/9378.got.cif
#   From: 2010.05.17/outbox.cif.g08.bks.cpg/sg57_5_cif.got.tgz:9378.got - 2010.06.03 13:58:18.
