data_PCOD9436503
_publ_section_title
;
Structure prediction by ZEFSAII (Michael W. Deem and Ramdas Pophale) SiO2 
 PCOD9436503
Probable space group: P B C M
;
_chemical_formula_sum "Si O2"
_cell_formula_units_Z 48
_cell_length_a 15.525605
_cell_length_b 21.446902
_cell_length_c 8.250280
_cell_angle_alpha 90.000000
_cell_angle_beta 90.000000
_cell_angle_gamma 90.000000
_cell_volume 2747.146297
_symmetry_space_group_name_H-M "P B C M"
_symmetry_group_IT_number 57
_symmetry_cell_setting 'orthorhombic'
loop_
_space_group_symop_operation_xyz
x,y,z
-x,-y,1/2+z
x,1/2-y,-z
-x,1/2+y,1/2-z
-x,-y,-z
x,y,1/2-z
-x,1/2+y,z
x,1/2-y,1/2+z
loop_
_atom_site_type_symbol
_atom_site_label
_atom_site_fract_x
_atom_site_fract_y
_atom_site_fract_z
Si Si1 0.694642 0.345383 0.554179
Si Si2 0.922285 0.043668 0.445826
Si Si3 0.885527 0.183477 0.054265
Si Si4 0.493232 0.815208 0.945957
Si Si5 0.565931 0.553550 0.057721
Si Si6 0.731382 0.487827 0.944189
O O1 0.695821 0.338473 0.750000
O O2 0.785912 0.319576 0.494067
O O3 0.605704 0.317737 0.492068
O O4 0.694470 0.419005 0.520272
O O5 0.920013 0.044783 0.250000
O O6 0.926392 0.116850 0.497842
O O7 0.830425 0.014846 0.501146
O O8 0.000000 0.000000 0.500000
O O9 0.884908 0.182941 0.250000
O O10 0.923198 0.250000 0.000000
O O11 0.491338 0.816531 0.750000
O O12 0.538987 0.878205 0.004618
O O13 0.533103 0.750000 0.000000
O O14 0.557473 0.555192 0.250000
O O15 0.500000 0.500000 0.000000
O O16 0.663622 0.536279 0.013853
O O17 0.732463 0.495024 0.750000
#
# Coordination Sequence:
#
# PCOD9436503 Si02
#       6
#     8   8   8   8   8   8
#     4   8  14  28  46  66  98 131 158 194 242 294
#     4   9  19  34  54  77 104 134 165 207 258 305
#     4   9  17  29  47  71 100 133 162 196 247 301
#     4  10  20  32  46  67  98 134 169 209 251 293
#     4  11  21  33  51  74 101 134 173 212 248 294
#     4   9  17  33  53  73 100 133 166 207 255 297
#
# _framework density 17.472677999999998
#
# number of rings (size 3 to 8) (size 9 to 14) (size 15 to 20)
#    0.000    2.667    1.667    3.000    0.000    2.667 
#    0.000    2.500    0.000    1.000    0.000    0.000 
#    0.000    0.000    0.000    0.000    0.000    0.000 
#
# Total GULP energy -267397.059324 kJ/mol
# GULP energy per Si atom -5570.772069 kJ/mol
# Density = 1.743291 g / cm^3
# Si number density = 17.472678 Si / 1000 Ang^3
#
#
#
# Elastic Constant Matrix: (Units=GPa)
#
#
# Indices 1 2 3 4 5 6 
#
# 1 87.9254 76.3556 13.5904 0.0000 0.0000 0.0000
# 2 76.3556 161.1176 20.9432 0.0000 0.0000 0.0000
# 3 13.5904 20.9432 11.1432 0.0000 0.0000 0.0000
# 4 0.0000 0.0000 0.0000 24.9028 0.0000 0.0000
# 5 0.0000 0.0000 0.0000 0.0000 22.3078 0.0000
# 6 0.0000 0.0000 0.0000 0.0000 0.0000 19.4388
#
#
#
# Elastic Compliance Matrix: (Units=1/GPa)
#
#
# Indices 1 2 3 4 5 6 
#
# 1 0.019942 -0.008323 -0.008680 0.000000 0.000000 0.000000
# 2 -0.008323 0.011687 -0.011814 0.000000 0.000000 0.000000
# 3 -0.008680 -0.011814 0.122530 0.000000 0.000000 0.000000
# 4 0.000000 0.000000 0.000000 0.040156 0.000000 0.000000
# 5 0.000000 0.000000 0.000000 0.000000 0.044827 0.000000
# 6 0.000000 0.000000 0.000000 0.000000 0.000000 0.051444
#
#
# Mechanical properties :
#
#
# Convention : Reuss Voigt Hill
#
# Bulk Modulus (GPa) = 10.35987 53.55164 31.95575
# Shear Modulus (GPa) = 13.14426 23.28302 18.21364
#
# Velocity S-wave (km/s) = 2.74574 3.65436 3.23214
# Velocity P-wave (km/s) = 3.99927 6.96571 5.67958
#
# Compressibility (1/GPa) = 0.09652633
#
# Stress axis : x y z
#
# Youngs Moduli (GPa) = 50.14435 85.56855 8.16126
#
# Poissons Ratio (x) = 0.71216 0.07084
# Poissons Ratio (y) = 0.41734 0.09642
# Poissons Ratio (z) = 0.43524 1.01090
#
# Static dielectric constant tensor:
#      x y z
#    x 1.602860 0.000000 0.000000 
#    y 0.000000 1.624410 0.000000 
#    z 0.000000 0.000000 1.614340 
# 
# From -- ./inp_files/4856.got.cif
#   From: 2010.05.17/outbox.cif.g08.bks.cpg/sg57_3_cif.got.tgz:4856.got - 2010.06.03 13:58:18.
