data_PCOD9436359
_publ_section_title
;
Structure prediction by ZEFSAII (Michael W. Deem and Ramdas Pophale) SiO2 
 PCOD9436359
Probable space group: P B C M
;
_chemical_formula_sum "Si O2"
_cell_formula_units_Z 64
_cell_length_a 16.314513
_cell_length_b 9.613003
_cell_length_c 20.692144
_cell_angle_alpha 90.000000
_cell_angle_beta 90.000000
_cell_angle_gamma 90.000000
_cell_volume 3245.179204
_symmetry_space_group_name_H-M "P B C M"
_symmetry_group_IT_number 57
_symmetry_cell_setting 'orthorhombic'
loop_
_space_group_symop_operation_xyz
x,y,z
-x,-y,1/2+z
x,1/2-y,-z
-x,1/2+y,1/2-z
-x,-y,-z
x,y,1/2-z
-x,1/2+y,z
x,1/2-y,1/2+z
loop_
_atom_site_type_symbol
_atom_site_label
_atom_site_fract_x
_atom_site_fract_y
_atom_site_fract_z
Si Si1 0.614840 0.401901 0.470538
Si Si2 0.316228 0.278915 0.326813
Si Si3 0.192254 0.999423 0.877501
Si Si4 0.795120 0.087724 0.519300
Si Si5 0.440525 0.143975 0.938628
Si Si6 0.868320 0.272910 0.321669
Si Si7 0.947711 0.809597 0.173648
Si Si8 0.172892 0.436157 0.859373
O O1 0.616855 0.250000 0.500000
O O2 0.706342 0.419582 0.445429
O O3 0.600483 0.508727 0.529273
O O4 0.534771 0.401781 0.425234
O O5 0.335364 0.264566 0.250000
O O6 0.260949 0.417087 0.338169
O O7 0.392125 0.295602 0.377032
O O8 0.255275 0.155085 0.350037
O O9 0.184994 0.839213 0.858491
O O10 0.106037 0.073912 0.861942
O O11 0.209796 0.998529 0.953300
O O12 0.814736 0.250000 0.500000
O O13 0.847627 0.997339 0.569352
O O14 0.440325 0.250000 0.000000
O O15 0.880610 0.215387 0.250000
O O16 0.825941 0.421848 0.319669
O O17 0.959359 0.294165 0.349809
O O18 0.949639 0.844286 0.250000
O O19 0.899190 0.665576 0.164142
#
# Coordination Sequence:
#
# PCOD9436359 Si02
#       8
#     8   8   8   8   8   8   8   8
#     4   9  19  35  61  86 114 149 201 241 283 360
#     4  11  23  37  59  93 128 157 202 262 314 367
#     4  11  21  37  58  86 121 158 203 256 312 361
#     4  11  21  38  58  91 117 154 201 260 298 371
#     4  10  19  36  62  93 116 160 205 243 301 361
#     4  11  21  38  61  83 115 162 209 254 308 372
#     4  10  22  39  59  86 117 159 210 252 302 379
#     4  11  22  37  60  87 124 156 204 255 318 367
#
# _framework density 19.721561000000001
#
# number of rings (size 3 to 8) (size 9 to 14) (size 15 to 20)
#    0.000    1.500    2.500    4.500    0.000    3.500 
#    0.000    3.750    0.000   13.500    0.000    0.000 
#    0.000    0.000    0.000    0.000    0.000    0.000 
#
# Total GULP energy -356674.114320 kJ/mol
# GULP energy per Si atom -5573.033036 kJ/mol
# Density = 1.967667 g / cm^3
# Si number density = 19.721561 Si / 1000 Ang^3
#
#
#
# Elastic Constant Matrix: (Units=GPa)
#
#
# Indices 1 2 3 4 5 6 
#
# 1 64.4810 16.3878 32.6258 0.0000 0.0000 0.0000
# 2 16.3878 106.5160 27.0848 0.0000 0.0000 0.0000
# 3 32.6258 27.0848 103.7078 0.0000 0.0000 0.0000
# 4 0.0000 0.0000 0.0000 28.1762 0.0000 0.0000
# 5 0.0000 0.0000 0.0000 0.0000 1366.4761 0.0000
# 6 0.0000 0.0000 0.0000 0.0000 0.0000 17.0715
#
#
#
# Elastic Compliance Matrix: (Units=1/GPa)
#
#
# Indices 1 2 3 4 5 6 
#
# 1 0.018659 -0.001476 -0.005484 0.000000 0.000000 0.000000
# 2 -0.001476 0.010173 -0.002192 0.000000 0.000000 0.000000
# 3 -0.005484 -0.002192 0.011940 0.000000 0.000000 0.000000
# 4 0.000000 0.000000 0.000000 0.035491 0.000000 0.000000
# 5 0.000000 0.000000 0.000000 0.000000 0.000732 0.000000
# 6 0.000000 0.000000 0.000000 0.000000 0.000000 0.058577
#
#
# Mechanical properties :
#
#
# Convention : Reuss Voigt Hill
#
# Bulk Modulus (GPa) = 44.51161 47.43349 45.97255
# Shear Modulus (GPa) = 30.98544 295.58520 163.28532
#
# Velocity S-wave (km/s) = 3.96807 12.25580 9.10907
# Velocity P-wave (km/s) = 6.60402 14.97921 11.57561
#
# Compressibility (1/GPa) = 0.02246605
#
# Stress axis : x y z
#
# Youngs Moduli (GPa) = 53.59477 98.30092 83.74933
#
# Poissons Ratio (x) = 0.14510 0.45931
# Poissons Ratio (y) = 0.07911 0.18361
# Poissons Ratio (z) = 0.29393 0.21552
#
# Static dielectric constant tensor:
#      x y z
#    x 1.757240 0.000000 0.000000 
#    y 0.000000 1.688710 0.000000 
#    z 0.000000 0.000000 1.711590 
# 
# From -- ./inp_files/25639.got.cif
#   From: 2010.05.17/outbox.cif.g08.bks.cpg/sg57_13_cif.got.tgz:25639.got - 2010.06.03 13:58:18.
