data_PCOD9436897
_publ_section_title
;
Structure prediction by ZEFSAII (Michael W. Deem and Ramdas Pophale) SiO2 
 PCOD9436897
Probable space group: P B C M
;
_chemical_formula_sum "Si O2"
_cell_formula_units_Z 64
_cell_length_a 5.342242
_cell_length_b 30.635593
_cell_length_c 18.225688
_cell_angle_alpha 90.000000
_cell_angle_beta 90.000000
_cell_angle_gamma 90.000000
_cell_volume 2982.866248
_symmetry_space_group_name_H-M "P B C M"
_symmetry_group_IT_number 57
_symmetry_cell_setting 'orthorhombic'
loop_
_space_group_symop_operation_xyz
x,y,z
-x,-y,1/2+z
x,1/2-y,-z
-x,1/2+y,1/2-z
-x,-y,-z
x,y,1/2-z
-x,1/2+y,z
x,1/2-y,1/2+z
loop_
_atom_site_type_symbol
_atom_site_label
_atom_site_fract_x
_atom_site_fract_y
_atom_site_fract_z
Si Si1 0.581999 0.032128 0.595666
Si Si2 0.752616 0.899686 0.337758
Si Si3 0.241870 0.847015 0.161694
Si Si4 0.811100 0.700197 0.161276
Si Si5 0.083084 0.476051 0.672158
Si Si6 0.569642 0.890747 0.831756
Si Si7 0.307723 0.747913 0.339876
Si Si8 0.305875 0.553736 0.058003
O O1 0.332400 0.056276 0.621813
O O2 0.709312 0.057922 0.528908
O O3 0.765871 0.021202 0.662714
O O4 0.518905 0.983202 0.568895
O O5 0.768097 0.907081 0.250000
O O6 0.004459 0.875594 0.363361
O O7 0.509808 0.869076 0.351876
O O8 0.213133 0.844824 0.250000
O O9 0.248355 0.797096 0.135449
O O10 0.819080 0.703315 0.250000
O O11 0.735776 0.650449 0.145570
O O12 0.081665 0.716421 0.135735
O O13 0.579595 0.730564 0.136542
O O14 0.937066 0.477188 0.750000
O O15 0.261331 0.433766 0.676915
O O16 0.925097 0.467548 0.599714
O O17 0.457699 0.881466 0.750000
O O18 0.375596 0.903629 0.895135
O O19 0.312011 0.747971 0.250000
#
# Coordination Sequence:
#
# PCOD9436897 Si02
#       8
#     8   8   8   8   8   8   8   8
#     4  10  22  37  52  78 106 142 192 231 276 336
#     4  10  20  34  54  81 110 143 185 234 277 330
#     4   9  18  32  51  78 112 143 179 227 285 333
#     4   9  17  27  47  76 109 142 179 220 272 336
#     4  10  20  34  55  78 108 143 182 233 286 334
#     4   9  19  33  49  79 110 140 182 227 275 329
#     4   9  16  28  47  75 109 144 174 219 279 333
#     4  10  21  37  55  73 107 148 183 229 281 334
#
# _framework density 21.455874000000001
#
# number of rings (size 3 to 8) (size 9 to 14) (size 15 to 20)
#    0.000    2.500    0.000    1.875    3.500    4.500 
#    0.000    0.000    0.000    0.000    0.000    5.250 
#    0.000    0.000    0.000    0.000    0.000    0.000 
#
# Total GULP energy -356900.233182 kJ/mol
# GULP energy per Si atom -5576.566143 kJ/mol
# Density = 2.140704 g / cm^3
# Si number density = 21.455874 Si / 1000 Ang^3
#
#
#
# Elastic Constant Matrix: (Units=GPa)
#
#
# Indices 1 2 3 4 5 6 
#
# 1 60.7015 -9.3044 14.3327 0.0000 0.0000 0.0000
# 2 -9.3044 55.2698 19.6339 0.0000 0.0000 0.0000
# 3 14.3327 19.6339 47.4644 0.0000 0.0000 0.0000
# 4 0.0000 0.0000 0.0000 -14.4020 0.0000 0.0000
# 5 0.0000 0.0000 0.0000 0.0000 7.1899 0.0000
# 6 0.0000 0.0000 0.0000 0.0000 0.0000 21.4207
#
#
#
# Elastic Compliance Matrix: (Units=1/GPa)
#
#
# Indices 1 2 3 4 5 6 
#
# 1 0.019436 0.006279 -0.008466 0.000000 0.000000 0.000000
# 2 0.006279 0.023239 -0.011509 0.000000 0.000000 0.000000
# 3 -0.008466 -0.011509 0.028386 0.000000 0.000000 0.000000
# 4 0.000000 0.000000 0.000000 -0.069435 0.000000 0.000000
# 5 0.000000 0.000000 0.000000 0.000000 0.139084 0.000000
# 6 0.000000 0.000000 0.000000 0.000000 0.000000 0.046684
#
#
# Mechanical properties :
#
#
# Convention : Reuss Voigt Hill
#
# Bulk Modulus (GPa) = 22.90000 23.64002 23.27001
# Shear Modulus (GPa) = 21.80160 12.09328 16.94744
#
# Velocity S-wave (km/s) = 3.19111 2.37668 2.81352
# Velocity P-wave (km/s) = 4.92685 4.30968 4.62856
#
# Compressibility (1/GPa) = 0.04366812
#
# Stress axis : x y z
#
# Youngs Moduli (GPa) = 51.45181 43.03189 35.22893
#
# Poissons Ratio (x) = -0.27022 0.29827
# Poissons Ratio (y) = -0.32309 0.40545
# Poissons Ratio (z) = 0.43562 0.49525
#
# Static dielectric constant tensor:
#      x y z
#    x 1.817970 0.000000 0.000000 
#    y 0.000000 1.793670 0.000000 
#    z 0.000000 0.000000 1.825420 
# 
# From -- ./inp_files/20327.got.cif
#   From: 2010.05.17/outbox.cif.g08.bks.cpg/sg57_11_cif.got.tgz:20327.got - 2010.06.03 13:58:18.
