data_PCOD9436431
_publ_section_title
;
Structure prediction by ZEFSAII (Michael W. Deem and Ramdas Pophale) SiO2 
 PCOD9436431
Probable space group: P B C M
;
_chemical_formula_sum "Si O2"
_cell_formula_units_Z 48
_cell_length_a 8.523362
_cell_length_b 9.784334
_cell_length_c 29.313868
_cell_angle_alpha 90.000000
_cell_angle_beta 90.000000
_cell_angle_gamma 90.000000
_cell_volume 2444.642352
_symmetry_space_group_name_H-M "P B C M"
_symmetry_group_IT_number 57
_symmetry_cell_setting 'orthorhombic'
loop_
_space_group_symop_operation_xyz
x,y,z
-x,-y,1/2+z
x,1/2-y,-z
-x,1/2+y,1/2-z
-x,-y,-z
x,y,1/2-z
-x,1/2+y,z
x,1/2-y,1/2+z
loop_
_atom_site_type_symbol
_atom_site_label
_atom_site_fract_x
_atom_site_fract_y
_atom_site_fract_z
Si Si1 0.834424 0.668070 0.198689
Si Si2 0.327184 0.374236 0.605336
Si Si3 0.086291 0.037632 0.662880
Si Si4 0.308427 0.901388 0.589106
Si Si5 0.872168 0.121581 0.922226
Si Si6 0.802277 0.848837 0.041063
O O1 0.778809 0.642165 0.250000
O O2 0.716803 0.619992 0.158683
O O3 0.863253 0.830245 0.191630
O O4 0.993430 0.580657 0.189956
O O5 0.511815 0.366721 0.598070
O O6 0.255101 0.501723 0.577503
O O7 0.238454 0.242738 0.585315
O O8 0.963390 0.094532 0.625254
O O9 0.226422 0.969085 0.633657
O O10 0.210423 0.766875 0.577400
O O11 0.289645 0.010959 0.548392
O O12 0.012379 0.117818 0.958809
O O13 0.758245 0.750000 0.000000
#
# Coordination Sequence:
#
# PCOD9436431 Si02
#       6
#     8   8   8   8   8   8
#     4  11  21  38  63  91 122 159 208 250 296 360
#     4  11  23  39  62  89 126 160 197 251 310 362
#     4  10  19  38  61  89 118 159 203 248 292 354
#     4  11  21  39  64  88 125 160 195 247 311 359
#     4  10  20  37  63  86 116 159 202 242 294 356
#     4  11  23  41  64  90 119 157 207 251 299 367
#
# _framework density 19.634772999999999
#
# number of rings (size 3 to 8) (size 9 to 14) (size 15 to 20)
#    0.000    1.333    5.000    3.500    0.000    3.333 
#    0.000    3.333    0.000    0.000    0.000    0.000 
#    0.000    0.000    0.000    0.000    0.000    0.000 
#
# Total GULP energy -268038.857494 kJ/mol
# GULP energy per Si atom -5584.142864 kJ/mol
# Density = 1.959008 g / cm^3
# Si number density = 19.634773 Si / 1000 Ang^3
#
#
#
# Elastic Constant Matrix: (Units=GPa)
#
#
# Indices 1 2 3 4 5 6 
#
# 1 85.9324 16.2157 20.5682 0.0000 0.0000 0.0000
# 2 16.2157 107.8615 5.2297 0.0000 0.0000 0.0000
# 3 20.5682 5.2297 44.4753 0.0000 0.0000 0.0000
# 4 0.0000 0.0000 0.0000 15.9116 0.0000 0.0000
# 5 0.0000 0.0000 0.0000 0.0000 5.8840 0.0000
# 6 0.0000 0.0000 0.0000 0.0000 0.0000 2.8279
#
#
#
# Elastic Compliance Matrix: (Units=1/GPa)
#
#
# Indices 1 2 3 4 5 6 
#
# 1 0.013397 -0.001723 -0.005993 0.000000 0.000000 0.000000
# 2 -0.001723 0.009546 -0.000325 0.000000 0.000000 0.000000
# 3 -0.005993 -0.000325 0.025294 0.000000 0.000000 0.000000
# 4 0.000000 0.000000 0.000000 0.062847 0.000000 0.000000
# 5 0.000000 0.000000 0.000000 0.000000 0.169951 0.000000
# 6 0.000000 0.000000 0.000000 0.000000 0.000000 0.353626
#
#
# Mechanical properties :
#
#
# Convention : Reuss Voigt Hill
#
# Bulk Modulus (GPa) = 31.10096 35.81071 33.45584
# Shear Modulus (GPa) = 7.55901 18.00841 12.78371
#
# Velocity S-wave (km/s) = 1.96422 3.03177 2.55439
# Velocity P-wave (km/s) = 4.58458 5.52571 5.07700
#
# Compressibility (1/GPa) = 0.03215335
#
# Stress axis : x y z
#
# Youngs Moduli (GPa) = 74.64534 104.75557 39.53491
#
# Poissons Ratio (x) = 0.18054 0.23693
# Poissons Ratio (y) = 0.12865 0.01287
# Poissons Ratio (z) = 0.44734 0.03409
#
# Static dielectric constant tensor:
#      x y z
#    x 1.657320 0.000000 0.000000 
#    y 0.000000 1.696480 0.000000 
#    z 0.000000 0.000000 1.722060 
# 
# From -- ./inp_files/29457.got.cif
#   From: 2010.05.17/outbox.cif.g08.bks.cpg/sg57_15_cif.got.tgz:29457.got - 2010.06.03 13:58:18.
