data_PCOD9436500
_publ_section_title
;
Structure prediction by ZEFSAII (Michael W. Deem and Ramdas Pophale) SiO2 
 PCOD9436500
Probable space group: P B C M
;
_chemical_formula_sum "Si O2"
_cell_formula_units_Z 64
_cell_length_a 22.333410
_cell_length_b 19.619155
_cell_length_c 8.903941
_cell_angle_alpha 90.000000
_cell_angle_beta 90.000000
_cell_angle_gamma 90.000000
_cell_volume 3901.374228
_symmetry_space_group_name_H-M "P B C M"
_symmetry_group_IT_number 57
_symmetry_cell_setting 'orthorhombic'
loop_
_space_group_symop_operation_xyz
x,y,z
-x,-y,1/2+z
x,1/2-y,-z
-x,1/2+y,1/2-z
-x,-y,-z
x,y,1/2-z
-x,1/2+y,z
x,1/2-y,1/2+z
loop_
_atom_site_type_symbol
_atom_site_label
_atom_site_fract_x
_atom_site_fract_y
_atom_site_fract_z
Si Si1 0.549035 0.815966 0.081575
Si Si2 0.914195 0.461869 0.921604
Si Si3 0.682730 0.535131 0.931757
Si Si4 0.804203 0.531863 0.428909
Si Si5 0.133162 0.324004 0.569232
Si Si6 0.019275 0.391523 0.422123
Si Si7 0.691453 0.686126 0.914771
Si Si8 0.444138 0.038956 0.070938
O O1 0.525042 0.827683 0.250000
O O2 0.620101 0.802154 0.100616
O O3 0.522456 0.750000 0.000000
O O4 0.546481 0.882857 0.980346
O O5 0.897082 0.445494 0.750000
O O6 0.951318 0.532900 0.915639
O O7 0.857960 0.481965 0.023608
O O8 0.956960 0.404422 0.992384
O O9 0.677687 0.535626 0.750000
O O10 0.692950 0.612894 0.989431
O O11 0.744662 0.504331 0.988260
O O12 0.619212 0.513834 0.000911
O O13 0.795438 0.532363 0.250000
O O14 0.825108 0.609881 0.473144
O O15 0.148381 0.250000 0.500000
O O16 0.133809 0.319709 0.750000
O O17 0.067104 0.344991 0.509289
O O18 0.011430 0.368213 0.250000
O O19 0.718826 0.681546 0.750000
O O20 0.717183 0.750000 0.000000
O O21 0.442580 0.033097 0.250000
O O22 0.500000 0.000000 0.000000
#
# Coordination Sequence:
#
# PCOD9436500 Si02
#       8
#     8   8   8   8   8   8   8   8
#     4   9  16  28  45  67  92 119 151 188 230 278
#     4   9  16  27  44  64  85 111 144 184 228 269
#     4  10  20  33  46  63  88 119 155 195 238 285
#     4  10  20  32  45  63  87 118 155 194 235 280
#     4  10  20  32  45  63  91 125 161 196 231 272
#     4   9  16  27  44  64  86 113 147 186 226 266
#     4   8  15  25  38  55  77 106 142 180 216 256
#     4  11  21  34  51  71  96 127 162 203 251 302
#
# _framework density 16.404475000000001
#
# number of rings (size 3 to 8) (size 9 to 14) (size 15 to 20)
#    0.000    2.500    0.000    4.125    0.000    8.500 
#    0.000    2.500    0.000    0.000    0.000    0.000 
#    0.000    1.000    0.000   10.000    0.000    6.625 
#
# Total GULP energy -356296.394453 kJ/mol
# GULP energy per Si atom -5567.131163 kJ/mol
# Density = 1.636714 g / cm^3
# Si number density = 16.404475 Si / 1000 Ang^3
#
#
#
# Elastic Constant Matrix: (Units=GPa)
#
#
# Indices 1 2 3 4 5 6 
#
# 1 105.6602 34.1215 47.3239 0.0000 0.0000 0.0000
# 2 34.1215 30.7792 24.0652 0.0000 0.0000 0.0000
# 3 47.3239 24.0652 97.6402 0.0000 0.0000 0.0000
# 4 0.0000 0.0000 0.0000 19.5067 0.0000 0.0000
# 5 0.0000 0.0000 0.0000 0.0000 18.3312 0.0000
# 6 0.0000 0.0000 0.0000 0.0000 0.0000 8.2755
#
#
#
# Elastic Compliance Matrix: (Units=1/GPa)
#
#
# Indices 1 2 3 4 5 6 
#
# 1 0.016019 -0.014478 -0.004196 0.000000 0.000000 0.000000
# 2 -0.014478 0.053330 -0.006127 0.000000 0.000000 0.000000
# 3 -0.004196 -0.006127 0.013785 0.000000 0.000000 0.000000
# 4 0.000000 0.000000 0.000000 0.051264 0.000000 0.000000
# 5 0.000000 0.000000 0.000000 0.000000 0.054552 0.000000
# 6 0.000000 0.000000 0.000000 0.000000 0.000000 0.120839
#
#
# Mechanical properties :
#
#
# Convention : Reuss Voigt Hill
#
# Bulk Modulus (GPa) = 29.82129 49.45566 39.63848
# Shear Modulus (GPa) = 13.49279 17.79395 15.64337
#
# Velocity S-wave (km/s) = 2.87105 3.29705 3.09140
# Velocity P-wave (km/s) = 5.40451 6.68634 6.07931
#
# Compressibility (1/GPa) = 0.03353309
#
# Stress axis : x y z
#
# Youngs Moduli (GPa) = 62.42604 18.75108 72.54086
#
# Poissons Ratio (x) = 0.27148 0.30435
# Poissons Ratio (y) = 0.90381 0.44446
# Poissons Ratio (z) = 0.26192 0.11489
#
# Static dielectric constant tensor:
#      x y z
#    x 1.580930 0.000000 0.000000 
#    y 0.000000 1.559560 0.000000 
#    z 0.000000 0.000000 1.583820 
# 
# From -- ./inp_files/8745.got.cif
#   From: 2010.05.17/outbox.cif.g08.bks.cpg/sg57_5_cif.got.tgz:8745.got - 2010.06.03 13:58:18.
