data_PCOD9436578
_publ_section_title
;
Structure prediction by ZEFSAII (Michael W. Deem and Ramdas Pophale) SiO2 
 PCOD9436578
Probable space group: P B C M
;
_chemical_formula_sum "Si O2"
_cell_formula_units_Z 64
_cell_length_a 21.883554
_cell_length_b 19.199599
_cell_length_c 9.231003
_cell_angle_alpha 90.000000
_cell_angle_beta 90.000000
_cell_angle_gamma 90.000000
_cell_volume 3878.456326
_symmetry_space_group_name_H-M "P B C M"
_symmetry_group_IT_number 57
_symmetry_cell_setting 'orthorhombic'
loop_
_space_group_symop_operation_xyz
x,y,z
-x,-y,1/2+z
x,1/2-y,-z
-x,1/2+y,1/2-z
-x,-y,-z
x,y,1/2-z
-x,1/2+y,z
x,1/2-y,1/2+z
loop_
_atom_site_type_symbol
_atom_site_label
_atom_site_fract_x
_atom_site_fract_y
_atom_site_fract_z
Si Si1 0.560945 0.525964 0.922628
Si Si2 0.043634 0.098567 0.417386
Si Si3 0.923951 0.067270 0.582625
Si Si4 0.803649 0.037472 0.082531
Si Si5 0.595171 0.685077 0.579801
Si Si6 0.281569 0.153599 0.085770
Si Si7 0.163435 0.128645 0.582923
Si Si8 0.315566 0.509963 0.584641
O O1 0.560835 0.512382 0.750000
O O2 0.565538 0.609559 0.943223
O O3 0.500000 0.500000 0.000000
O O4 0.620958 0.492407 0.997096
O O5 0.041085 0.120650 0.250000
O O6 0.098345 0.134896 0.504591
O O7 0.978875 0.104402 0.497537
O O8 0.059797 0.015628 0.417491
O O9 0.920667 0.088996 0.750000
O O10 0.859432 0.073388 0.501639
O O11 0.800318 0.058919 0.250000
O O12 0.819605 0.954321 0.082974
O O13 0.739321 0.047078 0.001118
O O14 0.563993 0.750000 0.500000
O O15 0.598526 0.698356 0.750000
O O16 0.662637 0.678848 0.511716
O O17 0.283013 0.181134 0.250000
O O18 0.293223 0.070405 0.094495
O O19 0.217154 0.164564 0.007833
O O20 0.161763 0.151148 0.750000
O O21 0.323431 0.535060 0.750000
#
# Coordination Sequence:
#
# PCOD9436578 Si02
#       8
#     8   8   8   8   8   8   8   8
#     4  10  20  33  49  69  92 118 149 185 225 271
#     4   9  15  21  28  39  57  83 117 157 200 244
#     4   9  15  21  28  39  57  83 117 157 200 244
#     4   9  15  22  32  46  65  90 122 161 203 246
#     4  10  20  33  49  69  92 118 149 185 225 269
#     4   9  16  26  40  57  77 102 133 170 211 253
#     4   9  15  22  32  46  65  90 122 161 203 245
#     4   9  16  26  40  57  77 102 133 170 211 254
#
# _framework density 16.50141
#
# number of rings (size 3 to 8) (size 9 to 14) (size 15 to 20)
#    0.000    2.750    0.000    3.000    0.000   10.500 
#    0.000    0.000    0.000    0.000    0.000    0.000 
#    0.000    0.000    0.000    0.000    0.000    1.250 
#
# Total GULP energy -356686.223538 kJ/mol
# GULP energy per Si atom -5573.222243 kJ/mol
# Density = 1.646385 g / cm^3
# Si number density = 16.501410 Si / 1000 Ang^3
#
#
#
# Elastic Constant Matrix: (Units=GPa)
#
#
# Indices 1 2 3 4 5 6 
#
# 1 154.3972 25.8443 103.7866 0.0000 0.0000 0.0000
# 2 25.8443 18.5165 30.5215 0.0000 0.0000 0.0000
# 3 103.7866 30.5215 176.3896 0.0000 0.0000 0.0000
# 4 0.0000 0.0000 0.0000 10.5363 0.0000 0.0000
# 5 0.0000 0.0000 0.0000 0.0000 29.5878 0.0000
# 6 0.0000 0.0000 0.0000 0.0000 0.0000 3.0449
#
#
#
# Elastic Compliance Matrix: (Units=1/GPa)
#
#
# Indices 1 2 3 4 5 6 
#
# 1 0.011283 -0.006722 -0.005475 0.000000 0.000000 0.000000
# 2 -0.006722 0.079561 -0.009811 0.000000 0.000000 0.000000
# 3 -0.005475 -0.009811 0.010589 0.000000 0.000000 0.000000
# 4 0.000000 0.000000 0.000000 0.094910 0.000000 0.000000
# 5 0.000000 0.000000 0.000000 0.000000 0.033798 0.000000
# 6 0.000000 0.000000 0.000000 0.000000 0.000000 0.328423
#
#
# Mechanical properties :
#
#
# Convention : Reuss Voigt Hill
#
# Bulk Modulus (GPa) = 17.41736 74.40091 45.90913
# Shear Modulus (GPa) = 8.04222 21.24385 14.64303
#
# Velocity S-wave (km/s) = 2.21003 3.59192 2.98213
# Velocity P-wave (km/s) = 4.13404 7.89861 6.30390
#
# Compressibility (1/GPa) = 0.05741400
#
# Stress axis : x y z
#
# Youngs Moduli (GPa) = 88.63147 12.56896 94.44006
#
# Poissons Ratio (x) = 0.08449 0.51710
# Poissons Ratio (y) = 0.59581 0.92660
# Poissons Ratio (z) = 0.48530 0.12332
#
# Static dielectric constant tensor:
#      x y z
#    x 1.537010 0.000000 0.000000 
#    y 0.000000 1.574680 0.000000 
#    z 0.000000 0.000000 1.560810 
# 
# From -- ./inp_files/8704.got.cif
#   From: 2010.05.17/outbox.cif.g08.bks.cpg/sg57_5_cif.got.tgz:8704.got - 2010.06.03 13:58:18.
