data_PCOD9436309
_publ_section_title
;
Structure prediction by ZEFSAII (Michael W. Deem and Ramdas Pophale) SiO2 
 PCOD9436309
Probable space group: P B C M
;
_chemical_formula_sum "Si O2"
_cell_formula_units_Z 48
_cell_length_a 15.434902
_cell_length_b 19.422048
_cell_length_c 8.014188
_cell_angle_alpha 90.000000
_cell_angle_beta 90.000000
_cell_angle_gamma 90.000000
_cell_volume 2402.472502
_symmetry_space_group_name_H-M "P B C M"
_symmetry_group_IT_number 57
_symmetry_cell_setting 'orthorhombic'
loop_
_space_group_symop_operation_xyz
x,y,z
-x,-y,1/2+z
x,1/2-y,-z
-x,1/2+y,1/2-z
-x,-y,-z
x,y,1/2-z
-x,1/2+y,z
x,1/2-y,1/2+z
loop_
_atom_site_type_symbol
_atom_site_label
_atom_site_fract_x
_atom_site_fract_y
_atom_site_fract_z
Si Si1 0.468308 0.828599 0.948536
Si Si2 0.372016 0.075691 0.549088
Si Si3 0.319712 0.924978 0.954567
Si Si4 0.874962 0.051713 0.050450
Si Si5 0.218596 0.173698 0.549298
Si Si6 0.945947 0.902866 0.048408
O O1 0.465599 0.829230 0.750000
O O2 0.377756 0.860964 0.011781
O O3 0.483577 0.750000 0.000000
O O4 0.544263 0.880675 0.000964
O O5 0.368346 0.073849 0.750000
O O6 0.287574 0.117532 0.488563
O O7 0.365473 0.996646 0.492760
O O8 0.318641 0.924116 0.750000
O O9 0.219814 0.926884 0.011561
O O10 0.867809 0.045978 0.250000
O O11 0.905179 0.976033 0.989713
O O12 0.955385 0.101157 0.010235
O O13 0.244872 0.250000 0.500000
O O14 0.218392 0.169659 0.750000
O O15 0.121851 0.154743 0.491351
O O16 0.947423 0.903872 0.250000
#
# Coordination Sequence:
#
# PCOD9436309 Si02
#       6
#     8   8   8   8   8   8
#     4  11  23  38  55  78 108 143 181 220 267 322
#     4  10  19  36  59  81 106 138 176 223 273 321
#     4   9  18  35  59  82 105 139 180 220 268 323
#     4   9  16  31  55  78 101 133 173 214 259 309
#     4  10  20  33  51  75 108 144 176 214 266 322
#     4   9  17  31  50  75 105 136 170 212 260 308
#
# _framework density 19.979417999999999
#
# number of rings (size 3 to 8) (size 9 to 14) (size 15 to 20)
#    0.000    2.333    1.667    1.500    0.000    2.667 
#    0.000    4.167    0.000    4.000    0.000    0.000 
#    0.000    0.000    0.000    0.000    0.000    0.000 
#
# Total GULP energy -267794.894264 kJ/mol
# GULP energy per Si atom -5579.060297 kJ/mol
# Density = 1.993394 g / cm^3
# Si number density = 19.979418 Si / 1000 Ang^3
#
#
#
# Elastic Constant Matrix: (Units=GPa)
#
#
# Indices 1 2 3 4 5 6 
#
# 1 132.8883 23.2026 7.1738 0.0000 0.0000 0.0000
# 2 23.2026 39.7031 3.9582 0.0000 0.0000 0.0000
# 3 7.1738 3.9582 8.5091 0.0000 0.0000 0.0000
# 4 0.0000 0.0000 0.0000 12.0311 0.0000 0.0000
# 5 0.0000 0.0000 0.0000 0.0000 19.7191 0.0000
# 6 0.0000 0.0000 0.0000 0.0000 0.0000 22.0166
#
#
#
# Elastic Compliance Matrix: (Units=1/GPa)
#
#
# Indices 1 2 3 4 5 6 
#
# 1 0.008590 -0.004507 -0.005145 0.000000 0.000000 0.000000
# 2 -0.004507 0.028777 -0.009586 0.000000 0.000000 0.000000
# 3 -0.005145 -0.009586 0.126318 0.000000 0.000000 0.000000
# 4 0.000000 0.000000 0.000000 0.083118 0.000000 0.000000
# 5 0.000000 0.000000 0.000000 0.000000 0.050712 0.000000
# 6 0.000000 0.000000 0.000000 0.000000 0.000000 0.045420
#
#
# Mechanical properties :
#
#
# Convention : Reuss Voigt Hill
#
# Bulk Modulus (GPa) = 7.98676 27.75219 17.86948
# Shear Modulus (GPa) = 11.81621 20.53776 16.17698
#
# Velocity S-wave (km/s) = 2.43455 3.20964 2.84858
# Velocity P-wave (km/s) = 3.45092 5.25892 4.44776
#
# Compressibility (1/GPa) = 0.12520720
#
# Stress axis : x y z
#
# Youngs Moduli (GPa) = 116.41718 34.75058 7.91653
#
# Poissons Ratio (x) = 0.15662 0.04073
# Poissons Ratio (y) = 0.52469 0.07589
# Poissons Ratio (z) = 0.59900 0.33313
#
# Static dielectric constant tensor:
#      x y z
#    x 1.731720 0.000000 0.000000 
#    y 0.000000 1.164430 0.000000 
#    z 0.000000 0.000000 1.711590 
# 
# From -- ./inp_files/4639.got.cif
#   From: 2010.05.17/outbox.cif.g08.bks.cpg/sg57_3_cif.got.tgz:4639.got - 2010.06.03 13:58:18.
