data_PCOD9436697
_publ_section_title
;
Structure prediction by ZEFSAII (Michael W. Deem and Ramdas Pophale) SiO2 
 PCOD9436697
Probable space group: P B C M
;
_chemical_formula_sum "Si O2"
_cell_formula_units_Z 40
_cell_length_a 14.061736
_cell_length_b 18.413326
_cell_length_c 8.840684
_cell_angle_alpha 90.000000
_cell_angle_beta 90.000000
_cell_angle_gamma 90.000000
_cell_volume 2289.059333
_symmetry_space_group_name_H-M "P B C M"
_symmetry_group_IT_number 57
_symmetry_cell_setting 'orthorhombic'
loop_
_space_group_symop_operation_xyz
x,y,z
-x,-y,1/2+z
x,1/2-y,-z
-x,1/2+y,1/2-z
-x,-y,-z
x,y,1/2-z
-x,1/2+y,z
x,1/2-y,1/2+z
loop_
_atom_site_type_symbol
_atom_site_label
_atom_site_fract_x
_atom_site_fract_y
_atom_site_fract_z
Si Si1 0.122352 0.389375 0.068681
Si Si2 0.085565 0.830124 0.068052
Si Si3 0.399042 0.021145 0.431538
Si Si4 0.689948 0.824838 0.570249
Si Si5 0.209839 0.956079 0.568540
O O1 0.131478 0.382199 0.250000
O O2 0.144370 0.473430 0.030338
O O3 0.018018 0.362570 0.024767
O O4 0.204855 0.342268 0.992109
O O5 0.090768 0.827509 0.250000
O O6 0.095440 0.750000 0.000000
O O7 0.163961 0.884923 0.003344
O O8 0.398970 0.013268 0.250000
O O9 0.313601 0.974055 0.502431
O O10 0.500000 0.000000 0.500000
O O11 0.373390 0.104963 0.468256
O O12 0.654569 0.750000 0.500000
O O13 0.694278 0.818249 0.750000
O O14 0.214236 0.950013 0.750000
#
# Coordination Sequence:
#
# PCOD9436697 Si02
#       5
#     8   8   8   8   8
#     4   9  19  34  54  79 108 142 179 218 263 313
#     4  11  22  35  51  76 110 147 184 221 261 310
#     4  10  21  38  59  82 106 137 177 222 270 322
#     4  10  20  33  53  81 111 139 172 216 266 315
#     4  10  20  36  57  80 106 139 178 221 268 320
#
# _framework density 17.474428
#
# number of rings (size 3 to 8) (size 9 to 14) (size 15 to 20)
#    0.000    2.000    0.000    3.600    0.000    6.400 
#    0.000    1.000    0.000    2.400    0.000    0.000 
#    0.000    0.000    0.000    0.000    0.000    0.000 
#
# Total GULP energy -223418.697586 kJ/mol
# GULP energy per Si atom -5585.467440 kJ/mol
# Density = 1.743466 g / cm^3
# Si number density = 17.474428 Si / 1000 Ang^3
#
#
#
# Elastic Constant Matrix: (Units=GPa)
#
#
# Indices 1 2 3 4 5 6 
#
# 1 139.8979 105.5058 61.2432 0.0000 0.0000 0.0000
# 2 105.5058 146.0650 64.5440 0.0000 0.0000 0.0000
# 3 61.2432 64.5440 57.1989 0.0000 0.0000 0.0000
# 4 0.0000 0.0000 0.0000 29.2624 0.0000 0.0000
# 5 0.0000 0.0000 0.0000 0.0000 30.6270 0.0000
# 6 0.0000 0.0000 0.0000 0.0000 0.0000 12.2355
#
#
#
# Elastic Compliance Matrix: (Units=1/GPa)
#
#
# Indices 1 2 3 4 5 6 
#
# 1 0.017783 -0.008838 -0.009067 0.000000 0.000000 0.000000
# 2 -0.008838 0.018048 -0.010902 0.000000 0.000000 0.000000
# 3 -0.009067 -0.010902 0.039493 0.000000 0.000000 0.000000
# 4 0.000000 0.000000 0.000000 0.034174 0.000000 0.000000
# 5 0.000000 0.000000 0.000000 0.000000 0.032651 0.000000
# 6 0.000000 0.000000 0.000000 0.000000 0.000000 0.081729
#
#
# Mechanical properties :
#
#
# Convention : Reuss Voigt Hill
#
# Bulk Modulus (GPa) = 56.46882 89.52756 72.99819
# Shear Modulus (GPa) = 17.39761 21.88291 19.64026
#
# Velocity S-wave (km/s) = 3.15874 3.54260 3.35616
# Velocity P-wave (km/s) = 6.75935 8.25094 7.54211
#
# Compressibility (1/GPa) = 0.01770889
#
# Stress axis : x y z
#
# Youngs Moduli (GPa) = 56.23379 55.40775 25.32090
#
# Poissons Ratio (x) = 0.48972 0.22958
# Poissons Ratio (y) = 0.49702 0.27605
# Poissons Ratio (z) = 0.50986 0.60407
#
# Static dielectric constant tensor:
#      x y z
#    x 1.559360 0.000000 0.000000 
#    y 0.000000 1.589600 0.000000 
#    z 0.000000 0.000000 1.578210 
# 
# From -- ./inp_files/2634.got.cif
#   From: 2010.05.17/outbox.cif.g08.bks.cpg/sg57_2_cif.got.tgz:2634.got - 2010.06.03 13:58:18.
