data_PCOD9436729
_publ_section_title
;
Structure prediction by ZEFSAII (Michael W. Deem and Ramdas Pophale) SiO2 
 PCOD9436729
Probable space group: P B C M
;
_chemical_formula_sum "Si O2"
_cell_formula_units_Z 64
_cell_length_a 15.353455
_cell_length_b 24.583929
_cell_length_c 8.482124
_cell_angle_alpha 90.000000
_cell_angle_beta 90.000000
_cell_angle_gamma 90.000000
_cell_volume 3201.562840
_symmetry_space_group_name_H-M "P B C M"
_symmetry_group_IT_number 57
_symmetry_cell_setting 'orthorhombic'
loop_
_space_group_symop_operation_xyz
x,y,z
-x,-y,1/2+z
x,1/2-y,-z
-x,1/2+y,1/2-z
-x,-y,-z
x,y,1/2-z
-x,1/2+y,z
x,1/2-y,1/2+z
loop_
_atom_site_type_symbol
_atom_site_label
_atom_site_fract_x
_atom_site_fract_y
_atom_site_fract_z
Si Si1 0.901284 0.005465 0.559213
Si Si2 0.004299 0.689025 0.560564
Si Si3 0.849402 0.612726 0.061103
Si Si4 0.353126 0.601309 0.061546
Si Si5 0.544145 0.629125 0.559587
Si Si6 0.596426 0.513687 0.560327
Si Si7 0.296739 0.307992 0.438173
Si Si8 0.171245 0.622443 0.939760
O O1 0.901870 0.006527 0.750000
O O2 0.852447 0.950252 0.507568
O O3 0.860491 0.062538 0.504297
O O4 0.000000 0.000000 0.500000
O O5 0.988289 0.750000 0.500000
O O6 0.999574 0.689212 0.750000
O O7 0.099416 0.666661 0.511025
O O8 0.933852 0.645808 0.498128
O O9 0.849379 0.613090 0.250000
O O10 0.767262 0.645634 0.998704
O O11 0.351471 0.601558 0.250000
O O12 0.347549 0.537791 0.003911
O O13 0.447164 0.623894 0.008005
O O14 0.268909 0.632017 0.998221
O O15 0.536092 0.628252 0.750000
O O16 0.602523 0.576278 0.511357
O O17 0.603859 0.679532 0.510879
O O18 0.500000 0.500000 0.500000
O O19 0.599794 0.512861 0.750000
O O20 0.266749 0.250000 0.500000
O O21 0.294471 0.308248 0.250000
O O22 0.172093 0.621505 0.750000
#
# Coordination Sequence:
#
# PCOD9436729 Si02
#       8
#     8   8   8   8   8   8   8   8
#     4  10  21  38  60  89 123 159 197 242 298 358
#     4  11  23  41  64  86 115 154 199 247 293 348
#     4  11  23  39  62  91 122 155 195 243 297 359
#     4  10  20  33  56  87 117 150 190 239 288 343
#     4   9  19  37  58  79 110 151 192 236 290 348
#     4   8  15  29  48  75 106 138 177 220 272 331
#     4  11  24  41  62  86 117 157 202 251 301 357
#     4  10  22  39  58  85 123 162 196 237 295 355
#
# _framework density 19.990235999999999
#
# number of rings (size 3 to 8) (size 9 to 14) (size 15 to 20)
#    0.000    2.000    1.250    1.875    1.750    3.500 
#    0.000    0.625    0.000    0.000    0.000    0.000 
#    0.000    0.000    0.000    0.000    0.000    0.000 
#
# Total GULP energy -357110.069919 kJ/mol
# GULP energy per Si atom -5579.844842 kJ/mol
# Density = 1.994474 g / cm^3
# Si number density = 19.990236 Si / 1000 Ang^3
#
#
#
# Elastic Constant Matrix: (Units=GPa)
#
#
# Indices 1 2 3 4 5 6 
#
# 1 89.2900 7.9910 10.3503 0.0000 0.0000 0.0000
# 2 7.9910 69.8341 14.2247 0.0000 0.0000 0.0000
# 3 10.3503 14.2247 24.6642 0.0000 0.0000 0.0000
# 4 0.0000 0.0000 0.0000 14.9659 0.0000 0.0000
# 5 0.0000 0.0000 0.0000 0.0000 24.1661 0.0000
# 6 0.0000 0.0000 0.0000 0.0000 0.0000 27.4945
#
#
#
# Elastic Compliance Matrix: (Units=1/GPa)
#
#
# Indices 1 2 3 4 5 6 
#
# 1 0.011781 -0.000386 -0.004721 0.000000 0.000000 0.000000
# 2 -0.000386 0.016238 -0.009203 0.000000 0.000000 0.000000
# 3 -0.004721 -0.009203 0.047834 0.000000 0.000000 0.000000
# 4 0.000000 0.000000 0.000000 0.066819 0.000000 0.000000
# 5 0.000000 0.000000 0.000000 0.000000 0.041380 0.000000
# 6 0.000000 0.000000 0.000000 0.000000 0.000000 0.036371
#
#
# Mechanical properties :
#
#
# Convention : Reuss Voigt Hill
#
# Bulk Modulus (GPa) = 21.17215 27.65782 24.41498
# Shear Modulus (GPa) = 18.88300 23.40679 21.14489
#
# Velocity S-wave (km/s) = 3.07679 3.42557 3.25585
# Velocity P-wave (km/s) = 4.82041 5.43247 5.13557
#
# Compressibility (1/GPa) = 0.04723186
#
# Stress axis : x y z
#
# Youngs Moduli (GPa) = 84.88018 61.58205 20.90584
#
# Poissons Ratio (x) = 0.02380 0.09870
# Poissons Ratio (y) = 0.03280 0.19240
# Poissons Ratio (z) = 0.40073 0.56675
#
# Static dielectric constant tensor:
#      x y z
#    x 1.686000 0.000000 0.000000 
#    y 0.000000 1.734510 0.000000 
#    z 0.000000 0.000000 1.667110 
# 
# From -- ./inp_files/5570.got.cif
#   From: 2010.05.17/outbox.cif.g08.bks.cpg/sg57_3_cif.got.tgz:5570.got - 2010.06.03 13:58:18.
