data_PCOD9436194
_publ_section_title
;
Structure prediction by ZEFSAII (Michael W. Deem and Ramdas Pophale) SiO2 
 PCOD9436194
Probable space group: P B C M
;
_chemical_formula_sum "Si O2"
_cell_formula_units_Z 48
_cell_length_a 13.388192
_cell_length_b 10.615396
_cell_length_c 18.967120
_cell_angle_alpha 90.000000
_cell_angle_beta 90.000000
_cell_angle_gamma 90.000000
_cell_volume 2695.625299
_symmetry_space_group_name_H-M "P B C M"
_symmetry_group_IT_number 57
_symmetry_cell_setting 'orthorhombic'
loop_
_space_group_symop_operation_xyz
x,y,z
-x,-y,1/2+z
x,1/2-y,-z
-x,1/2+y,1/2-z
-x,-y,-z
x,y,1/2-z
-x,1/2+y,z
x,1/2-y,1/2+z
loop_
_atom_site_type_symbol
_atom_site_label
_atom_site_fract_x
_atom_site_fract_y
_atom_site_fract_z
Si Si1 0.430259 0.143092 0.060052
Si Si2 0.963736 0.496900 0.393008
Si Si3 0.078816 0.236616 0.668153
Si Si4 0.360038 0.968454 0.938388
Si Si5 0.854566 0.105161 0.484445
Si Si6 0.309049 0.196407 0.664282
O O1 0.367655 0.187990 0.127504
O O2 0.545174 0.117604 0.079378
O O3 0.426822 0.250000 0.000000
O O4 0.385904 0.026055 0.015907
O O5 0.941311 0.615143 0.342992
O O6 0.868552 0.472647 0.443154
O O7 0.999910 0.360950 0.365133
O O8 0.058926 0.547398 0.436388
O O9 0.076206 0.208240 0.750000
O O10 0.191965 0.207694 0.644096
O O11 0.349878 0.073789 0.877272
O O12 0.252742 0.905065 0.948310
O O13 0.877019 0.250000 0.500000
O O14 0.318662 0.192025 0.750000
#
# Coordination Sequence:
#
# PCOD9436194 Si02
#       6
#     8   8   8   8   8   8
#     4   9  19  35  56  82 109 145 186 241 297 346
#     4  11  22  37  56  87 114 154 198 240 296 345
#     4  11  22  39  59  82 118 158 197 239 293 359
#     4  10  19  35  58  83 111 147 192 242 293 348
#     4  11  21  34  57  84 117 146 191 251 289 344
#     4  10  21  36  56  82 113 152 192 238 295 357
#
# _framework density 17.806629000000001
#
# number of rings (size 3 to 8) (size 9 to 14) (size 15 to 20)
#    0.000    1.667    3.333    2.000    0.000    0.667 
#    0.000    0.000    0.000    0.000    0.000    0.000 
#    0.000    0.000    0.000    0.000    0.000    0.000 
#
# Total GULP energy -267358.214134 kJ/mol
# GULP energy per Si atom -5569.962794 kJ/mol
# Density = 1.776610 g / cm^3
# Si number density = 17.806629 Si / 1000 Ang^3
#
#
#
# Elastic Constant Matrix: (Units=GPa)
#
#
# Indices 1 2 3 4 5 6 
#
# 1 61.4238 -9.0039 20.1944 0.0000 0.0000 0.0000
# 2 -9.0039 38.5921 4.2369 0.0000 0.0000 0.0000
# 3 20.1944 4.2369 55.1675 0.0000 0.0000 0.0000
# 4 0.0000 0.0000 0.0000 22.6211 0.0000 0.0000
# 5 0.0000 0.0000 0.0000 0.0000 18.8405 0.0000
# 6 0.0000 0.0000 0.0000 0.0000 0.0000 27.0032
#
#
#
# Elastic Compliance Matrix: (Units=1/GPa)
#
#
# Indices 1 2 3 4 5 6 
#
# 1 0.019562 0.005396 -0.007575 0.000000 0.000000 0.000000
# 2 0.005396 0.027621 -0.004096 0.000000 0.000000 0.000000
# 3 -0.007575 -0.004096 0.021214 0.000000 0.000000 0.000000
# 4 0.000000 0.000000 0.000000 0.044207 0.000000 0.000000
# 5 0.000000 0.000000 0.000000 0.000000 0.053077 0.000000
# 6 0.000000 0.000000 0.000000 0.000000 0.000000 0.037033
#
#
# Mechanical properties :
#
#
# Convention : Reuss Voigt Hill
#
# Bulk Modulus (GPa) = 17.90681 20.67092 19.28887
# Shear Modulus (GPa) = 21.37853 23.01002 22.19427
#
# Velocity S-wave (km/s) = 3.46872 3.59864 3.53428
# Velocity P-wave (km/s) = 5.11085 5.37594 5.24507
#
# Compressibility (1/GPa) = 0.05584466
#
# Stress axis : x y z
#
# Youngs Moduli (GPa) = 51.12029 36.20491 47.13839
#
# Poissons Ratio (x) = -0.19534 0.35708
# Poissons Ratio (y) = -0.27582 0.19309
# Poissons Ratio (z) = 0.38724 0.14831
#
# Static dielectric constant tensor:
#      x y z
#    x 1.616180 0.000000 0.000000 
#    y 0.000000 1.632300 0.000000 
#    z 0.000000 0.000000 1.615810 
# 
# From -- ./inp_files/21839.got.cif
#   From: 2010.05.17/outbox.cif.g08.bks.cpg/sg57_11_cif.got.tgz:21839.got - 2010.06.03 13:58:18.
