data_PCOD9436838
_publ_section_title
;
Structure prediction by ZEFSAII (Michael W. Deem and Ramdas Pophale) SiO2 
 PCOD9436838
Probable space group: P B C M
;
_chemical_formula_sum "Si O2"
_cell_formula_units_Z 48
_cell_length_a 32.110502
_cell_length_b 9.145379
_cell_length_c 8.639777
_cell_angle_alpha 90.000000
_cell_angle_beta 90.000000
_cell_angle_gamma 90.000000
_cell_volume 2537.180333
_symmetry_space_group_name_H-M "P B C M"
_symmetry_group_IT_number 57
_symmetry_cell_setting 'orthorhombic'
loop_
_space_group_symop_operation_xyz
x,y,z
-x,-y,1/2+z
x,1/2-y,-z
-x,1/2+y,1/2-z
-x,-y,-z
x,y,1/2-z
-x,1/2+y,z
x,1/2-y,1/2+z
loop_
_atom_site_type_symbol
_atom_site_label
_atom_site_fract_x
_atom_site_fract_y
_atom_site_fract_z
Si Si1 0.716389 0.914751 0.565171
Si Si2 0.539270 0.914182 0.435404
Si Si3 0.959928 0.085445 0.564137
Si Si4 0.879933 0.585622 0.564414
Si Si5 0.199582 0.914064 0.436356
Si Si6 0.630393 0.915803 0.064643
O O1 0.721230 0.750000 0.500000
O O2 0.713792 0.904690 0.750000
O O3 0.672928 0.980445 0.502556
O O4 0.756391 0.010725 0.523043
O O5 0.537738 0.750000 0.500000
O O6 0.537247 0.909990 0.250000
O O7 0.584977 0.978839 0.478325
O O8 0.500000 0.000000 0.500000
O O9 0.960316 0.250000 0.500000
O O10 0.960579 0.086864 0.750000
O O11 0.918789 0.003758 0.503972
O O12 0.000000 0.000000 0.500000
O O13 0.881070 0.750000 0.500000
O O14 0.882146 0.587115 0.750000
O O15 0.837738 0.507601 0.508917
O O16 0.197852 0.750000 0.500000
O O17 0.195454 0.913515 0.250000
O O18 0.633363 0.911681 0.250000
O O19 0.629820 0.750000 0.000000
#
# Coordination Sequence:
#
# PCOD9436838 Si02
#       6
#     8   8   8   8   8   8
#     4  10  20  34  56  83 110 142 184 230 280 334
#     4  10  20  34  53  78 107 142 182 228 278 334
#     4  12  25  44  67  95 129 166 206 250 299 352
#     4  12  25  43  66  93 123 159 201 247 295 347
#     4  11  24  41  60  86 118 155 194 237 289 345
#     4   9  17  30  51  77 105 138 179 224 275 330
#
# _framework density 18.91864
#
# number of rings (size 3 to 8) (size 9 to 14) (size 15 to 20)
#    0.000    1.333    0.000    7.500    0.000    6.000 
#    0.000    0.833    0.000    2.000    0.000    0.000 
#    0.000    0.000    0.000    0.000    0.000    0.000 
#
# Total GULP energy -268254.626016 kJ/mol
# GULP energy per Si atom -5588.638042 kJ/mol
# Density = 1.887558 g / cm^3
# Si number density = 18.918640 Si / 1000 Ang^3
#
#
#
# Elastic Constant Matrix: (Units=GPa)
#
#
# Indices 1 2 3 4 5 6 
#
# 1 227.8027 96.5023 90.4685 0.0000 0.0000 0.0000
# 2 96.5023 127.9115 57.6234 0.0000 0.0000 0.0000
# 3 90.4685 57.6234 133.1612 0.0000 0.0000 0.0000
# 4 0.0000 0.0000 0.0000 32.2320 0.0000 0.0000
# 5 0.0000 0.0000 0.0000 0.0000 33.6321 0.0000
# 6 0.0000 0.0000 0.0000 0.0000 0.0000 51.4231
#
#
#
# Elastic Compliance Matrix: (Units=1/GPa)
#
#
# Indices 1 2 3 4 5 6 
#
# 1 0.007441 -0.004144 -0.003262 0.000000 0.000000 0.000000
# 2 -0.004144 0.012019 -0.002386 0.000000 0.000000 0.000000
# 3 -0.003262 -0.002386 0.010758 0.000000 0.000000 0.000000
# 4 0.000000 0.000000 0.000000 0.031025 0.000000 0.000000
# 5 0.000000 0.000000 0.000000 0.000000 0.029734 0.000000
# 6 0.000000 0.000000 0.000000 0.000000 0.000000 0.019447
#
#
# Mechanical properties :
#
#
# Convention : Reuss Voigt Hill
#
# Bulk Modulus (GPa) = 94.03120 108.67376 101.35248
# Shear Modulus (GPa) = 37.43885 39.74285 38.59085
#
# Velocity S-wave (km/s) = 4.45335 4.58834 4.52135
# Velocity P-wave (km/s) = 8.73235 9.25407 8.99700
#
# Compressibility (1/GPa) = 0.01063477
#
# Stress axis : x y z
#
# Youngs Moduli (GPa) = 134.39565 83.20050 92.95346
#
# Poissons Ratio (x) = 0.34480 0.30320
# Poissons Ratio (y) = 0.55696 0.22175
# Poissons Ratio (z) = 0.43837 0.19848
#
# Static dielectric constant tensor:
#      x y z
#    x 1.677490 0.000000 0.000000 
#    y 0.000000 1.623650 0.000000 
#    z 0.000000 0.000000 1.633210 
# 
# From -- ./inp_files/9960.got.cif
#   From: 2010.05.17/outbox.cif.g08.bks.cpg/sg57_5_cif.got.tgz:9960.got - 2010.06.03 13:58:18.
