data_PCOD9436106
_publ_section_title
;
Structure prediction by ZEFSAII (Michael W. Deem and Ramdas Pophale) SiO2 
 PCOD9436106
Probable space group: P B C M
;
_chemical_formula_sum "Si O2"
_cell_formula_units_Z 64
_cell_length_a 16.057257
_cell_length_b 11.320932
_cell_length_c 18.141009
_cell_angle_alpha 90.000000
_cell_angle_beta 90.000000
_cell_angle_gamma 90.000000
_cell_volume 3297.729118
_symmetry_space_group_name_H-M "P B C M"
_symmetry_group_IT_number 57
_symmetry_cell_setting 'orthorhombic'
loop_
_space_group_symop_operation_xyz
x,y,z
-x,-y,1/2+z
x,1/2-y,-z
-x,1/2+y,1/2-z
-x,-y,-z
x,y,1/2-z
-x,1/2+y,z
x,1/2-y,1/2+z
loop_
_atom_site_type_symbol
_atom_site_label
_atom_site_fract_x
_atom_site_fract_y
_atom_site_fract_z
Si Si1 0.347492 0.704090 0.661539
Si Si2 0.644782 0.926454 0.091119
Si Si3 0.048037 0.237567 0.838017
Si Si4 0.786907 0.727121 0.079318
Si Si5 0.232937 0.901186 0.662961
Si Si6 0.513183 0.738739 0.411926
Si Si7 0.949355 0.472431 0.659604
Si Si8 0.350752 0.038563 0.423868
O O1 0.348993 0.697433 0.750000
O O2 0.264206 0.773481 0.636962
O O3 0.428295 0.773339 0.631859
O O4 0.352089 0.577138 0.624462
O O5 0.711912 0.821285 0.080791
O O6 0.560244 0.859702 0.112021
O O7 0.689924 0.013121 0.146567
O O8 0.634819 0.985723 0.010825
O O9 0.037988 0.236662 0.750000
O O10 0.144825 0.253165 0.858814
O O11 0.000558 0.356022 0.864706
O O12 0.022455 0.104747 0.863943
O O13 0.738578 0.603347 0.083698
O O14 0.828972 0.750000 0.000000
O O15 0.221075 0.892472 0.750000
O O16 0.146067 0.951637 0.633627
O O17 0.499207 0.750000 0.500000
O O18 0.576814 0.630511 0.401181
O O19 0.951258 0.473909 0.750000
#
# Coordination Sequence:
#
# PCOD9436106 Si02
#       8
#     8   8   8   8   8   8   8   8
#     4  11  25  37  52  82 117 148 184 239 291 334
#     4   9  18  36  62  81 105 146 192 231 276 340
#     4  10  19  34  59  85 110 152 194 233 285 350
#     4   9  18  36  59  84 111 140 185 241 282 331
#     4  10  21  36  55  82 114 147 184 236 287 335
#     4   9  21  38  58  82 106 146 193 234 282 337
#     4   9  19  35  56  83 113 146 193 235 283 350
#     4   9  21  38  56  81 110 147 188 232 284 343
#
# _framework density 19.407295000000001
#
# number of rings (size 3 to 8) (size 9 to 14) (size 15 to 20)
#    0.000    2.500    1.250    1.500    3.500    3.500 
#    0.000    5.625    2.750    0.000    0.000    0.000 
#    0.000    0.000    0.000    0.000    0.000    0.000 
#
# Total GULP energy -356685.956059 kJ/mol
# GULP energy per Si atom -5573.218063 kJ/mol
# Density = 1.936312 g / cm^3
# Si number density = 19.407295 Si / 1000 Ang^3
#
#
#
# Elastic Constant Matrix: (Units=GPa)
#
#
# Indices 1 2 3 4 5 6 
#
# 1 52.8549 26.3198 -1.1588 0.0000 0.0000 0.0000
# 2 26.3198 70.1737 -13.5938 0.0000 0.0000 0.0000
# 3 -1.1588 -13.5938 -29.4915 0.0000 0.0000 0.0000
# 4 0.0000 0.0000 0.0000 21.4805 0.0000 0.0000
# 5 0.0000 0.0000 0.0000 0.0000 17.8891 0.0000
# 6 0.0000 0.0000 0.0000 0.0000 0.0000 20.3010
#
#
#
# Elastic Compliance Matrix: (Units=1/GPa)
#
#
# Indices 1 2 3 4 5 6 
#
# 1 0.023006 -0.008082 0.002821 0.000000 0.000000 0.000000
# 2 -0.008082 0.015922 -0.007021 0.000000 0.000000 0.000000
# 3 0.002821 -0.007021 -0.030783 0.000000 0.000000 0.000000
# 4 0.000000 0.000000 0.000000 0.046554 0.000000 0.000000
# 5 0.000000 0.000000 0.000000 0.000000 0.055900 0.000000
# 6 0.000000 0.000000 0.000000 0.000000 0.000000 0.049259
#
#
# Mechanical properties :
#
#
# Convention : Reuss Voigt Hill
#
# Bulk Modulus (GPa) = -60.90496 12.96349 -23.97073
# Shear Modulus (GPa) = 27.94092 17.39880 22.66986
#
# Velocity S-wave (km/s) = 3.79847 2.99742 3.42147
# Velocity P-wave (km/s) = 3.49468 4.32130 1.79733
#
# Compressibility (1/GPa) = -0.01641903
#
# Stress axis : x y z
#
# Youngs Moduli (GPa) = 43.46645 62.80780 -32.48594
#
# Poissons Ratio (x) = 0.50763 0.09166
# Poissons Ratio (y) = 0.35131 -0.22809
# Poissons Ratio (z) = -0.12264 0.44099
#
# Static dielectric constant tensor:
#      x y z
#    x 1.675560 0.000000 0.000000 
#    y 0.000000 1.732630 0.000000 
#    z 0.000000 0.000000 1.664230 
# 
# From -- ./inp_files/22684.got.cif
#   From: 2010.05.17/outbox.cif.g08.bks.cpg/sg57_12_cif.got.tgz:22684.got - 2010.06.03 13:58:18.
