data_PCOD9436580
_publ_section_title
;
Structure prediction by ZEFSAII (Michael W. Deem and Ramdas Pophale) SiO2 
 PCOD9436580
Probable space group: P B C M
;
_chemical_formula_sum "Si O2"
_cell_formula_units_Z 64
_cell_length_a 20.901321
_cell_length_b 7.614058
_cell_length_c 18.994021
_cell_angle_alpha 90.000000
_cell_angle_beta 90.000000
_cell_angle_gamma 90.000000
_cell_volume 3022.782016
_symmetry_space_group_name_H-M "P B C M"
_symmetry_group_IT_number 57
_symmetry_cell_setting 'orthorhombic'
loop_
_space_group_symop_operation_xyz
x,y,z
-x,-y,1/2+z
x,1/2-y,-z
-x,1/2+y,1/2-z
-x,-y,-z
x,y,1/2-z
-x,1/2+y,z
x,1/2-y,1/2+z
loop_
_atom_site_type_symbol
_atom_site_label
_atom_site_fract_x
_atom_site_fract_y
_atom_site_fract_z
Si Si1 0.675245 0.094731 0.168265
Si Si2 0.208511 0.798186 0.580664
Si Si3 0.276192 0.187638 0.167876
Si Si4 0.093443 0.687998 0.669481
Si Si5 0.409560 0.071513 0.168215
Si Si6 0.159199 0.299815 0.080804
Si Si7 0.044231 0.089602 0.830570
Si Si8 0.542732 0.972280 0.167552
O O1 0.675676 0.149871 0.250000
O O2 0.725588 0.203786 0.123640
O O3 0.602073 0.089394 0.140812
O O4 0.699740 0.891664 0.168029
O O5 0.217315 0.750000 0.500000
O O6 0.153893 0.682970 0.618520
O O7 0.183746 0.999105 0.583613
O O8 0.263075 0.143873 0.250000
O O9 0.337150 0.076185 0.140335
O O10 0.213567 0.186550 0.120142
O O11 0.109750 0.636872 0.750000
O O12 0.029267 0.589658 0.645324
O O13 0.071001 0.892093 0.671060
O O14 0.403125 0.015089 0.250000
O O15 0.471705 0.978400 0.135714
O O16 0.432665 0.273827 0.167306
O O17 0.092445 0.298161 0.122443
O O18 0.151706 0.250000 0.000000
O O19 0.044080 0.157354 0.750000
O O20 0.535750 0.025004 0.250000
#
# Coordination Sequence:
#
# PCOD9436580 Si02
#       8
#     8   8   8   8   8   8   8   8
#     4   8  14  27  48  69  88 117 157 193 224 266
#     4  10  20  33  49  69  94 123 155 190 227 269
#     4   8  14  27  48  69  88 117 157 193 224 266
#     4   9  18  33  53  74  94 119 152 189 227 268
#     4   8  13  22  39  64  90 113 141 182 229 271
#     4  10  20  33  49  69  94 123 155 190 227 269
#     4   9  18  33  53  74  94 119 152 189 227 268
#     4   8  13  22  39  64  90 113 141 182 229 271
#
# _framework density 21.172549
#
# number of rings (size 3 to 8) (size 9 to 14) (size 15 to 20)
#    0.000    3.250    0.000    2.250    0.000    4.500 
#    0.000    3.750    0.000    4.500    0.000    5.250 
#    0.000    0.000    0.000    0.000    0.000    0.000 
#
# Total GULP energy -356987.669100 kJ/mol
# GULP energy per Si atom -5577.932330 kJ/mol
# Density = 2.112436 g / cm^3
# Si number density = 21.172549 Si / 1000 Ang^3
#
#
#
# Elastic Constant Matrix: (Units=GPa)
#
#
# Indices 1 2 3 4 5 6 
#
# 1 40.1071 94.2306 28.4100 0.0000 0.0000 0.0000
# 2 94.2306 26.4544 35.8996 0.0000 0.0000 0.0000
# 3 28.4100 35.8996 54.1533 0.0000 0.0000 0.0000
# 4 0.0000 0.0000 0.0000 153.5335 0.0000 0.0000
# 5 0.0000 0.0000 0.0000 0.0000 -66.6089 0.0000
# 6 0.0000 0.0000 0.0000 0.0000 0.0000 32.5253
#
#
#
# Elastic Compliance Matrix: (Units=1/GPa)
#
#
# Indices 1 2 3 4 5 6 
#
# 1 -0.000473 0.013421 -0.008649 0.000000 0.000000 0.000000
# 2 0.013421 -0.004486 -0.004067 0.000000 0.000000 0.000000
# 3 -0.008649 -0.004067 0.025700 0.000000 0.000000 0.000000
# 4 0.000000 0.000000 0.000000 0.006513 0.000000 0.000000
# 5 0.000000 0.000000 0.000000 0.000000 -0.015013 0.000000
# 6 0.000000 0.000000 0.000000 0.000000 0.000000 0.030745
#
#
# Mechanical properties :
#
#
# Convention : Reuss Voigt Hill
#
# Bulk Modulus (GPa) = 45.14527 48.64388 46.89458
# Shear Modulus (GPa) = 102.12438 21.36830 61.74634
#
# Velocity S-wave (km/s) = 6.95263 3.18031 5.40617
# Velocity P-wave (km/s) = 9.26396 6.04241 7.82086
#
# Compressibility (1/GPa) = 0.02215072
#
# Stress axis : x y z
#
# Youngs Moduli (GPa) = -2115.36755 -222.90375 38.91087
#
# Poissons Ratio (x) = 2.99163 0.33655
# Poissons Ratio (y) = 28.39069 0.15825
# Poissons Ratio (z) = -18.29627 -0.90655
#
# Static dielectric constant tensor:
#      x y z
#    x 1.801890 0.000000 0.000000 
#    y 0.000000 1.846060 0.000000 
#    z 0.000000 0.000000 1.691920 
# 
# From -- ./inp_files/23056.got.cif
#   From: 2010.05.17/outbox.cif.g08.bks.cpg/sg57_12_cif.got.tgz:23056.got - 2010.06.03 13:58:18.
