data_PCOD9436642
_publ_section_title
;
Structure prediction by ZEFSAII (Michael W. Deem and Ramdas Pophale) SiO2 
 PCOD9436642
Probable space group: P B C M
;
_chemical_formula_sum "Si O2"
_cell_formula_units_Z 64
_cell_length_a 11.047252
_cell_length_b 34.642857
_cell_length_c 7.867373
_cell_angle_alpha 90.000000
_cell_angle_beta 90.000000
_cell_angle_gamma 90.000000
_cell_volume 3010.909507
_symmetry_space_group_name_H-M "P B C M"
_symmetry_group_IT_number 57
_symmetry_cell_setting 'orthorhombic'
loop_
_space_group_symop_operation_xyz
x,y,z
-x,-y,1/2+z
x,1/2-y,-z
-x,1/2+y,1/2-z
-x,-y,-z
x,y,1/2-z
-x,1/2+y,z
x,1/2-y,1/2+z
loop_
_atom_site_type_symbol
_atom_site_label
_atom_site_fract_x
_atom_site_fract_y
_atom_site_fract_z
Si Si1 0.416059 0.052783 0.454242
Si Si2 0.682510 0.055684 0.046243
Si Si3 0.708397 0.631245 0.452975
Si Si4 0.700294 0.292700 0.951278
Si Si5 0.050754 0.413350 0.452059
Si Si6 0.424418 0.293244 0.544821
Si Si7 0.812915 0.371606 0.451694
Si Si8 0.172372 0.488397 0.053736
O O1 0.406561 0.045717 0.250000
O O2 0.550422 0.043053 0.516932
O O3 0.392764 0.098350 0.480762
O O4 0.305293 0.031609 0.544989
O O5 0.680874 0.050605 0.250000
O O6 0.793837 0.029912 0.975516
O O7 0.705777 0.100265 0.010324
O O8 0.726409 0.634077 0.250000
O O9 0.832080 0.613809 0.525190
O O10 0.661267 0.672313 0.518130
O O11 0.690239 0.293864 0.750000
O O12 0.562841 0.297734 0.020576
O O13 0.743375 0.250000 0.000000
O O14 0.785756 0.327729 0.002894
O O15 0.034667 0.418715 0.250000
O O16 0.083416 0.456143 0.524138
O O17 0.935115 0.391009 0.524236
O O18 0.384015 0.250000 0.500000
O O19 0.427627 0.296298 0.750000
O O20 0.820467 0.373621 0.250000
O O21 0.136666 0.493893 0.250000
#
# Coordination Sequence:
#
# PCOD9436642 Si02
#       8
#     8   8   8   8   8   8   8   8
#     4   9  17  30  49  74 103 132 166 212 264 318
#     4  10  20  33  51  76 106 138 172 214 264 314
#     4   9  17  31  51  73  98 131 168 204 250 307
#     4  10  20  37  60  84 111 138 166 205 255 309
#     4   9  20  37  52  70 100 136 176 222 261 297
#     4   9  18  32  52  80 110 134 159 198 249 306
#     4  11  23  37  53  75 104 139 181 222 258 300
#     4   9  18  33  52  74 102 137 174 214 264 315
#
# _framework density 21.256036000000002
#
# number of rings (size 3 to 8) (size 9 to 14) (size 15 to 20)
#    0.000    2.500    0.000    1.875    0.000    5.500 
#    0.000    3.125    0.000    1.500    0.000    0.000 
#    0.000    0.000    0.000    0.000    0.000    0.000 
#
# Total GULP energy -357187.864071 kJ/mol
# GULP energy per Si atom -5581.060376 kJ/mol
# Density = 2.120766 g / cm^3
# Si number density = 21.256036 Si / 1000 Ang^3
#
#
#
# Elastic Constant Matrix: (Units=GPa)
#
#
# Indices 1 2 3 4 5 6 
#
# 1 67.4966 20.6516 2.7676 0.0000 0.0000 0.0000
# 2 20.6516 105.7959 3.7260 0.0000 0.0000 0.0000
# 3 2.7676 3.7260 29.7170 0.0000 0.0000 0.0000
# 4 0.0000 0.0000 0.0000 21.0610 0.0000 0.0000
# 5 0.0000 0.0000 0.0000 0.0000 13.8307 0.0000
# 6 0.0000 0.0000 0.0000 0.0000 0.0000 29.4204
#
#
#
# Elastic Compliance Matrix: (Units=1/GPa)
#
#
# Indices 1 2 3 4 5 6 
#
# 1 0.015792 -0.003044 -0.001089 0.000000 0.000000 0.000000
# 2 -0.003044 0.010081 -0.000980 0.000000 0.000000 0.000000
# 3 -0.001089 -0.000980 0.033875 0.000000 0.000000 0.000000
# 4 0.000000 0.000000 0.000000 0.047481 0.000000 0.000000
# 5 0.000000 0.000000 0.000000 0.000000 0.072303 0.000000
# 6 0.000000 0.000000 0.000000 0.000000 0.000000 0.033990
#
#
# Mechanical properties :
#
#
# Convention : Reuss Voigt Hill
#
# Bulk Modulus (GPa) = 20.19374 28.58887 24.39131
# Shear Modulus (GPa) = 20.81118 24.58673 22.69896
#
# Velocity S-wave (km/s) = 3.13241 3.40471 3.27139
# Velocity P-wave (km/s) = 4.75431 5.37913 5.07634
#
# Compressibility (1/GPa) = 0.04952029
#
# Stress axis : x y z
#
# Youngs Moduli (GPa) = 63.32470 99.19717 29.52023
#
# Poissons Ratio (x) = 0.30198 0.03215
# Poissons Ratio (y) = 0.19277 0.02894
# Poissons Ratio (z) = 0.06896 0.09726
#
# Static dielectric constant tensor:
#      x y z
#    x 1.798150 0.000000 0.000000 
#    y 0.000000 1.770850 0.000000 
#    z 0.000000 0.000000 1.766270 
# 
# From -- ./inp_files/3794.got.cif
#   From: 2010.05.17/outbox.cif.g08.bks.cpg/sg57_2_cif.got.tgz:3794.got - 2010.06.03 13:58:18.
