data_PCOD9436248
_publ_section_title
;
Structure prediction by ZEFSAII (Michael W. Deem and Ramdas Pophale) SiO2 
 PCOD9436248
Probable space group: P B C M
;
_chemical_formula_sum "Si O2"
_cell_formula_units_Z 48
_cell_length_a 10.372254
_cell_length_b 14.365105
_cell_length_c 17.544074
_cell_angle_alpha 90.000000
_cell_angle_beta 90.000000
_cell_angle_gamma 90.000000
_cell_volume 2614.041022
_symmetry_space_group_name_H-M "P B C M"
_symmetry_group_IT_number 57
_symmetry_cell_setting 'orthorhombic'
loop_
_space_group_symop_operation_xyz
x,y,z
-x,-y,1/2+z
x,1/2-y,-z
-x,1/2+y,1/2-z
-x,-y,-z
x,y,1/2-z
-x,1/2+y,z
x,1/2-y,1/2+z
loop_
_atom_site_type_symbol
_atom_site_label
_atom_site_fract_x
_atom_site_fract_y
_atom_site_fract_z
Si Si1 0.484106 0.019561 0.589285
Si Si2 0.385105 0.839537 0.658894
Si Si3 0.141041 0.716743 0.842812
Si Si4 0.380118 0.226270 0.910571
Si Si5 0.873517 0.810644 0.842266
Si Si6 0.771827 0.487139 0.342116
O O1 0.425077 0.120976 0.601128
O O2 0.625758 0.012105 0.626968
O O3 0.500000 0.000000 0.500000
O O4 0.390523 0.942278 0.624799
O O5 0.382932 0.844165 0.750000
O O6 0.264395 0.777436 0.632734
O O7 0.515543 0.790650 0.631283
O O8 0.140865 0.716282 0.750000
O O9 0.159956 0.609305 0.866772
O O10 0.009976 0.767599 0.867081
O O11 0.241505 0.249348 0.876117
O O12 0.381226 0.250000 0.000000
O O13 0.868686 0.807440 0.750000
O O14 0.845947 0.918195 0.864877
O O15 0.765194 0.486503 0.250000
#
# Coordination Sequence:
#
# PCOD9436248 Si02
#       6
#     8   8   8   8   8   8
#     4  12  23  37  60  89 124 160 203 252 307 358
#     4  11  22  38  62  92 119 155 209 254 295 361
#     4   9  20  37  60  89 121 157 201 251 303 359
#     4  12  23  39  61  88 122 161 202 251 306 361
#     4  10  21  38  60  88 121 156 200 253 302 360
#     4  10  19  35  60  86 118 157 199 249 308 357
#
# _framework density 18.362373999999999
#
# number of rings (size 3 to 8) (size 9 to 14) (size 15 to 20)
#    0.000    1.333    5.000    1.000    0.000    3.333 
#    0.000    5.833    0.000    4.000    0.000    0.000 
#    0.000    0.000    0.000    0.000    0.000    0.000 
#
# Total GULP energy -268089.751361 kJ/mol
# GULP energy per Si atom -5585.203153 kJ/mol
# Density = 1.832058 g / cm^3
# Si number density = 18.362374 Si / 1000 Ang^3
#
#
#
# Elastic Constant Matrix: (Units=GPa)
#
#
# Indices 1 2 3 4 5 6 
#
# 1 112.0925 39.9090 12.4020 0.0000 0.0000 0.0000
# 2 39.9090 138.9553 19.5914 0.0000 0.0000 0.0000
# 3 12.4020 19.5914 35.7992 0.0000 0.0000 0.0000
# 4 0.0000 0.0000 0.0000 23.7139 0.0000 0.0000
# 5 0.0000 0.0000 0.0000 0.0000 -47.7286 0.0000
# 6 0.0000 0.0000 0.0000 0.0000 0.0000 29.9750
#
#
#
# Elastic Compliance Matrix: (Units=1/GPa)
#
#
# Indices 1 2 3 4 5 6 
#
# 1 0.010076 -0.002603 -0.002066 0.000000 0.000000 0.000000
# 2 -0.002603 0.008471 -0.003734 0.000000 0.000000 0.000000
# 3 -0.002066 -0.003734 0.030693 0.000000 0.000000 0.000000
# 4 0.000000 0.000000 0.000000 0.042169 0.000000 0.000000
# 5 0.000000 0.000000 0.000000 0.000000 -0.020952 0.000000
# 6 0.000000 0.000000 0.000000 0.000000 0.000000 0.033361
#
#
# Mechanical properties :
#
#
# Convention : Reuss Voigt Hill
#
# Bulk Modulus (GPa) = 30.83210 47.85022 39.34116
# Shear Modulus (GPa) = 38.04131 15.52168 26.78150
#
# Velocity S-wave (km/s) = 4.55653 2.91055 3.82317
# Velocity P-wave (km/s) = 6.67158 6.11641 6.40002
#
# Compressibility (1/GPa) = 0.03243373
#
# Stress axis : x y z
#
# Youngs Moduli (GPa) = 99.24082 118.05648 32.58084
#
# Poissons Ratio (x) = 0.30726 0.06733
# Poissons Ratio (y) = 0.25829 0.12165
# Poissons Ratio (z) = 0.20508 0.44081
#
# Static dielectric constant tensor:
#      x y z
#    x 1.599230 0.000000 0.000000 
#    y 0.000000 1.653420 0.000000 
#    z 0.000000 0.000000 1.612950 
# 
# From -- ./inp_files/20904.got.cif
#   From: 2010.05.17/outbox.cif.g08.bks.cpg/sg57_11_cif.got.tgz:20904.got - 2010.06.03 13:58:18.
