data_PCOD9436305
_publ_section_title
;
Structure prediction by ZEFSAII (Michael W. Deem and Ramdas Pophale) SiO2 
 PCOD9436305
Probable space group: P B C M
;
_chemical_formula_sum "Si O2"
_cell_formula_units_Z 28
_cell_length_a 7.504074
_cell_length_b 31.586610
_cell_length_c 5.413011
_cell_angle_alpha 90.000000
_cell_angle_beta 90.000000
_cell_angle_gamma 90.000000
_cell_volume 1283.036572
_symmetry_space_group_name_H-M "P B C M"
_symmetry_group_IT_number 57
_symmetry_cell_setting 'orthorhombic'
loop_
_space_group_symop_operation_xyz
x,y,z
-x,-y,1/2+z
x,1/2-y,-z
-x,1/2+y,1/2-z
-x,-y,-z
x,y,1/2-z
-x,1/2+y,z
x,1/2-y,1/2+z
loop_
_atom_site_type_symbol
_atom_site_label
_atom_site_fract_x
_atom_site_fract_y
_atom_site_fract_z
Si Si1 0.687946 0.276470 0.250000
Si Si2 0.607854 0.944788 0.750000
Si Si3 0.023908 0.651065 0.750000
Si Si4 0.734998 0.723602 0.750000
Si Si5 0.000892 0.402716 0.750000
Si Si6 0.485089 0.039254 0.750000
Si Si7 0.108529 0.991404 0.750000
O O1 0.728186 0.250000 0.500000
O O2 0.476387 0.285368 0.250000
O O3 0.805163 0.318465 0.250000
O O4 0.801298 0.924002 0.750000
O O5 0.505324 0.934449 0.498630
O O6 0.606877 0.997093 0.750000
O O7 0.851895 0.681572 0.750000
O O8 0.019396 0.623539 0.500893
O O9 0.775366 0.750000 0.500000
O O10 0.862930 0.441402 0.750000
O O11 0.283891 0.020049 0.750000
O O12 0.000000 0.000000 0.500000
#
# Coordination Sequence:
#
# PCOD9436305 Si02
#       7
#     4   4   4   4   4   4   4
#     4  10  21  41  69  95 120 156 204 239 271 353
#     4  10  20  36  57  79 106 144 197 249 294 339
#     4  12  24  40  59  92 131 156 185 240 310 356
#     4  10  21  41  69  92 115 156 199 233 279 349
#     4  12  24  38  57  85 124 158 190 246 310 356
#     4  10  19  36  59  78  99 142 208 256 281 333
#     4  12  21  38  60  79 109 154 211 249 287 352
#
# _framework density 21.823229000000001
#
# number of rings (size 3 to 8) (size 9 to 14) (size 15 to 20)
#    0.000    1.143    2.857    4.286    0.000    0.000 
#    5.143    0.000    0.000    0.000    0.000    0.000 
#    0.000    0.000    0.000    0.000    0.000    0.000 
#
# Total GULP energy -156627.394302 kJ/mol
# GULP energy per Si atom -5593.835511 kJ/mol
# Density = 2.177356 g / cm^3
# Si number density = 21.823229 Si / 1000 Ang^3
#
#
#
# Elastic Constant Matrix: (Units=GPa)
#
#
# Indices 1 2 3 4 5 6 
#
# 1 86.9089 46.2365 52.9144 0.0000 0.0000 0.0000
# 2 46.2365 105.3514 75.1902 0.0000 0.0000 0.0000
# 3 52.9144 75.1902 251.3621 0.0000 0.0000 0.0000
# 4 0.0000 0.0000 0.0000 48.7441 0.0000 0.0000
# 5 0.0000 0.0000 0.0000 0.0000 13.9706 0.0000
# 6 0.0000 0.0000 0.0000 0.0000 0.0000 -823.0173
#
#
#
# Elastic Compliance Matrix: (Units=1/GPa)
#
#
# Indices 1 2 3 4 5 6 
#
# 1 0.015477 -0.005680 -0.001559 0.000000 0.000000 0.000000
# 2 -0.005680 0.014153 -0.003038 0.000000 0.000000 0.000000
# 3 -0.001559 -0.003038 0.005215 0.000000 0.000000 0.000000
# 4 0.000000 0.000000 0.000000 0.020515 0.000000 0.000000
# 5 0.000000 0.000000 0.000000 0.000000 0.071579 0.000000
# 6 0.000000 0.000000 0.000000 0.000000 0.000000 -0.001215
#
#
# Mechanical properties :
#
#
# Convention : Reuss Voigt Hill
#
# Bulk Modulus (GPa) = 69.97051 88.03384 79.00217
# Shear Modulus (GPa) = 33.10329 -134.10842 -50.50257
#
# Velocity S-wave (km/s) = 3.89894 -7.84765 -4.81580
# Velocity P-wave (km/s) = 7.23885 6.45655 2.31452
#
# Compressibility (1/GPa) = 0.01429174
#
# Stress axis : x y z
#
# Youngs Moduli (GPa) = 64.61056 70.65624 191.74456
#
# Poissons Ratio (x) = 0.40132 0.29895
# Poissons Ratio (y) = 0.36698 0.58251
# Poissons Ratio (z) = 0.10073 0.21465
#
# Static dielectric constant tensor:
#      x y z
#    x 1.829300 0.000000 0.000000 
#    y 0.000000 1.752140 0.000000 
#    z 0.000000 0.000000 2.188500 
# 
# From -- ./inp_files/176.got.cif
#   From: 2010.05.17/outbox.cif.g08.bks.cpg/sg57_1_cif.got.tgz:176.got - 2010.06.03 13:58:18.
