data_PCOD9436388
_publ_section_title
;
Structure prediction by ZEFSAII (Michael W. Deem and Ramdas Pophale) SiO2 
 PCOD9436388
Probable space group: P B C M
;
_chemical_formula_sum "Si O2"
_cell_formula_units_Z 48
_cell_length_a 9.249878
_cell_length_b 18.329865
_cell_length_c 14.943897
_cell_angle_alpha 90.000000
_cell_angle_beta 90.000000
_cell_angle_gamma 90.000000
_cell_volume 2533.723017
_symmetry_space_group_name_H-M "P B C M"
_symmetry_group_IT_number 57
_symmetry_cell_setting 'orthorhombic'
loop_
_space_group_symop_operation_xyz
x,y,z
-x,-y,1/2+z
x,1/2-y,-z
-x,1/2+y,1/2-z
-x,-y,-z
x,y,1/2-z
-x,1/2+y,z
x,1/2-y,1/2+z
loop_
_atom_site_type_symbol
_atom_site_label
_atom_site_fract_x
_atom_site_fract_y
_atom_site_fract_z
Si Si1 0.420034 0.923859 0.478980
Si Si2 0.827619 0.600440 0.155289
Si Si3 0.906108 0.458029 0.424451
Si Si4 0.495429 0.345377 0.651590
Si Si5 0.614633 0.679617 0.644080
Si Si6 0.912147 0.673040 0.532026
O O1 0.256619 0.941060 0.453506
O O2 0.416919 0.875171 0.568487
O O3 0.510148 0.878973 0.404178
O O4 0.500000 0.000000 0.500000
O O5 0.872764 0.635698 0.250000
O O6 0.885816 0.518114 0.152129
O O7 0.654195 0.608521 0.152200
O O8 0.877481 0.636776 0.063778
O O9 0.000000 0.500000 0.500000
O O10 0.986678 0.381365 0.412004
O O11 0.563321 0.353767 0.750000
O O12 0.453087 0.260776 0.638825
O O13 0.636316 0.663437 0.750000
O O14 0.764303 0.682460 0.588284
O O15 0.976292 0.750000 0.500000
#
# Coordination Sequence:
#
# PCOD9436388 Si02
#       6
#     8   8   8   8   8   8
#     4  12  21  39  62  89 121 158 202 261 309 363
#     4  10  19  37  61  86 120 165 206 249 306 370
#     4  10  23  39  59  88 125 164 205 248 310 378
#     4  10  20  37  64  91 116 156 207 256 306 363
#     4  11  23  39  64  93 122 161 213 262 310 368
#     4  11  20  38  60  93 126 166 210 260 317 379
#
# _framework density 18.944454
#
# number of rings (size 3 to 8) (size 9 to 14) (size 15 to 20)
#    0.000    1.333    5.000    1.500    0.000    3.333 
#    0.000    3.333    0.000    0.000    0.000    0.000 
#    0.000    0.000    0.000    0.000    0.000    0.000 
#
# Total GULP energy -267548.924760 kJ/mol
# GULP energy per Si atom -5573.935933 kJ/mol
# Density = 1.890134 g / cm^3
# Si number density = 18.944454 Si / 1000 Ang^3
#
#
#
# Elastic Constant Matrix: (Units=GPa)
#
#
# Indices 1 2 3 4 5 6 
#
# 1 40.2289 17.0457 0.9282 0.0000 0.0000 0.0000
# 2 17.0457 87.2605 38.5147 0.0000 0.0000 0.0000
# 3 0.9282 38.5147 123.1262 0.0000 0.0000 0.0000
# 4 0.0000 0.0000 0.0000 24.0733 0.0000 0.0000
# 5 0.0000 0.0000 0.0000 0.0000 -5.3967 0.0000
# 6 0.0000 0.0000 0.0000 0.0000 0.0000 33.8462
#
#
#
# Elastic Compliance Matrix: (Units=1/GPa)
#
#
# Indices 1 2 3 4 5 6 
#
# 1 0.027405 -0.006105 0.001703 0.000000 0.000000 0.000000
# 2 -0.006105 0.014656 -0.004538 0.000000 0.000000 0.000000
# 3 0.001703 -0.004538 0.009529 0.000000 0.000000 0.000000
# 4 0.000000 0.000000 0.000000 0.041540 0.000000 0.000000
# 5 0.000000 0.000000 0.000000 0.000000 -0.185298 0.000000
# 6 0.000000 0.000000 0.000000 0.000000 0.000000 0.029545
#
#
# Mechanical properties :
#
#
# Convention : Reuss Voigt Hill
#
# Bulk Modulus (GPa) = 29.66591 40.39920 35.03255
# Shear Modulus (GPa) = -149.22534 23.44637 -62.88949
#
# Velocity S-wave (km/s) = -8.88487 3.52182 -5.76792
# Velocity P-wave (km/s) = 9.46368 6.15703 5.08194
#
# Compressibility (1/GPa) = 0.03370873
#
# Stress axis : x y z
#
# Youngs Moduli (GPa) = 36.48932 68.23304 104.94796
#
# Poissons Ratio (x) = 0.41657 -0.17874
# Poissons Ratio (y) = 0.22277 0.47629
# Poissons Ratio (z) = -0.06215 0.30967
#
# Static dielectric constant tensor:
#      x y z
#    x 1.641020 0.000000 0.000000 
#    y 0.000000 1.682950 0.000000 
#    z 0.000000 0.000000 1.662650 
# 
# From -- ./inp_files/16548.got.cif
#   From: 2010.05.17/outbox.cif.g08.bks.cpg/sg57_9_cif.got.tgz:16548.got - 2010.06.03 13:58:18.
