data_PCOD9436933
_publ_section_title
;
Structure prediction by ZEFSAII (Michael W. Deem and Ramdas Pophale) SiO2 
 PCOD9436933
Probable space group: P B C M
;
_chemical_formula_sum "Si O2"
_cell_formula_units_Z 32
_cell_length_a 10.755678
_cell_length_b 18.625940
_cell_length_c 8.787960
_cell_angle_alpha 90.000000
_cell_angle_beta 90.000000
_cell_angle_gamma 90.000000
_cell_volume 1760.532566
_symmetry_space_group_name_H-M "P B C M"
_symmetry_group_IT_number 57
_symmetry_cell_setting 'orthorhombic'
loop_
_space_group_symop_operation_xyz
x,y,z
-x,-y,1/2+z
x,1/2-y,-z
-x,1/2+y,1/2-z
-x,-y,-z
x,y,1/2-z
-x,1/2+y,z
x,1/2-y,1/2+z
loop_
_atom_site_type_symbol
_atom_site_label
_atom_site_fract_x
_atom_site_fract_y
_atom_site_fract_z
Si Si1 0.489734 0.669563 0.568095
Si Si2 0.237101 0.669907 0.432001
Si Si3 0.233926 0.169585 0.932514
Si Si4 0.991908 0.920743 0.932459
O O1 0.492463 0.750000 0.500000
O O2 0.476264 0.672783 0.750000
O O3 0.365461 0.636726 0.496381
O O4 0.627021 0.639914 0.532631
O O5 0.222982 0.750000 0.500000
O O6 0.246429 0.675492 0.250000
O O7 0.116957 0.623232 0.471941
O O8 0.222246 0.173828 0.750000
O O9 0.224014 0.250000 0.000000
O O10 0.126562 0.120799 0.001087
O O11 0.983096 0.923620 0.750000
O O12 0.000000 0.000000 0.000000
#
# Coordination Sequence:
#
# PCOD9436933 Si02
#       4
#     8   8   8   8
#     4   9  17  30  52  81 109 137 171 215 264 312
#     4  10  20  34  55  82 108 137 175 217 263 316
#     4  10  20  35  57  84 111 140 178 220 264 317
#     4  11  24  39  55  77 107 144 183 224 270 319
#
# _framework density 18.176317000000001
#
# number of rings (size 3 to 8) (size 9 to 14) (size 15 to 20)
#    0.000    2.000    0.000    5.250    0.000    9.000 
#    0.000    1.250    0.000    0.000    0.000    0.000 
#    0.000    0.000    0.000    0.000    0.000    0.000 
#
# Total GULP energy -178566.958384 kJ/mol
# GULP energy per Si atom -5580.217450 kJ/mol
# Density = 1.813495 g / cm^3
# Si number density = 18.176317 Si / 1000 Ang^3
#
#
#
# Elastic Constant Matrix: (Units=GPa)
#
#
# Indices 1 2 3 4 5 6 
#
# 1 228.8937 84.3921 85.7795 0.0000 0.0000 0.0000
# 2 84.3921 81.8857 40.8638 0.0000 0.0000 0.0000
# 3 85.7795 40.8638 74.5418 0.0000 0.0000 0.0000
# 4 0.0000 0.0000 0.0000 23.4499 0.0000 0.0000
# 5 0.0000 0.0000 0.0000 0.0000 34.9513 0.0000
# 6 0.0000 0.0000 0.0000 0.0000 0.0000 -10.2763
#
#
#
# Elastic Compliance Matrix: (Units=1/GPa)
#
#
# Indices 1 2 3 4 5 6 
#
# 1 0.009371 -0.005887 -0.007557 0.000000 0.000000 0.000000
# 2 -0.005887 0.020509 -0.004469 0.000000 0.000000 0.000000
# 3 -0.007557 -0.004469 0.024561 0.000000 0.000000 0.000000
# 4 0.000000 0.000000 0.000000 0.042644 0.000000 0.000000
# 5 0.000000 0.000000 0.000000 0.000000 0.028611 0.000000
# 6 0.000000 0.000000 0.000000 0.000000 0.000000 -0.097312
#
#
# Mechanical properties :
#
#
# Convention : Reuss Voigt Hill
#
# Bulk Modulus (GPa) = 53.71523 89.71023 71.71273
# Shear Modulus (GPa) = 71.00620 21.24404 46.12512
#
# Velocity S-wave (km/s) = 6.25700 3.42245 5.04297
# Velocity P-wave (km/s) = 9.04525 8.06723 8.57020
#
# Compressibility (1/GPa) = 0.01861669
#
# Stress axis : x y z
#
# Youngs Moduli (GPa) = 106.70795 48.75805 40.71471
#
# Poissons Ratio (x) = 0.28704 0.30768
# Poissons Ratio (y) = 0.62820 0.18194
# Poissons Ratio (z) = 0.80638 0.21788
#
# Static dielectric constant tensor:
#      x y z
#    x 1.668670 0.000000 0.000000 
#    y 0.000000 1.576920 0.000000 
#    z 0.000000 0.000000 1.606670 
# 
# From -- ./inp_files/2504.got.cif
#   From: 2010.05.17/outbox.cif.g08.bks.cpg/sg57_2_cif.got.tgz:2504.got - 2010.06.03 13:58:18.
