data_PCOD9436475
_publ_section_title
;
Structure prediction by ZEFSAII (Michael W. Deem and Ramdas Pophale) SiO2 
 PCOD9436475
Probable space group: P B C M
;
_chemical_formula_sum "Si O2"
_cell_formula_units_Z 56
_cell_length_a 5.479570
_cell_length_b 22.708542
_cell_length_c 21.673720
_cell_angle_alpha 90.000000
_cell_angle_beta 90.000000
_cell_angle_gamma 90.000000
_cell_volume 2696.926987
_symmetry_space_group_name_H-M "P B C M"
_symmetry_group_IT_number 57
_symmetry_cell_setting 'orthorhombic'
loop_
_space_group_symop_operation_xyz
x,y,z
-x,-y,1/2+z
x,1/2-y,-z
-x,1/2+y,1/2-z
-x,-y,-z
x,y,1/2-z
-x,1/2+y,z
x,1/2-y,1/2+z
loop_
_atom_site_type_symbol
_atom_site_label
_atom_site_fract_x
_atom_site_fract_y
_atom_site_fract_z
Si Si1 0.444902 0.512101 0.175946
Si Si2 0.251810 0.419047 0.503104
Si Si3 0.946553 0.576538 0.325228
Si Si4 0.251433 0.941369 0.983826
Si Si5 0.644555 0.223023 0.675028
Si Si6 0.477420 0.604785 0.605319
Si Si7 0.856127 0.711401 0.324673
O O1 0.438204 0.511848 0.250000
O O2 0.709766 0.537918 0.158110
O O3 0.433662 0.446192 0.150488
O O4 0.205611 0.548488 0.154599
O O5 0.497804 0.416043 0.542453
O O6 0.246987 0.487852 0.479738
O O7 0.303550 0.380266 0.442757
O O8 0.997969 0.411950 0.535905
O O9 0.957587 0.576466 0.250000
O O10 0.896584 0.643896 0.342850
O O11 0.284316 0.924132 0.056831
O O12 0.641750 0.217168 0.750000
O O13 0.405868 0.261631 0.656655
O O14 0.902620 0.252156 0.656853
O O15 0.617401 0.160057 0.642514
O O16 0.852348 0.712712 0.250000
#
# Coordination Sequence:
#
# PCOD9436475 Si02
#       7
#     8   8   8   8   8   8   8
#     4  10  20  29  44  67  94 125 149 179 221 268
#     4   8  16  29  44  61  87 118 149 179 209 263
#     4   9  18  33  47  59  81 121 168 198 212 236
#     4   8  16  29  44  61  87 118 149 179 209 263
#     4  10  20  29  44  67  94 125 149 179 221 268
#     4  10  20  28  46  68 104 118 140 172 234 284
#     4   9  18  33  47  59  81 121 168 198 212 236
#
# _framework density 20.764372999999999
#
# number of rings (size 3 to 8) (size 9 to 14) (size 15 to 20)
#    0.857    2.000    0.000    1.286    4.000    3.429 
#    0.000    4.286    0.000    0.000    0.000    0.000 
#    0.000   27.429    0.000    0.000    0.000    0.000 
#
# Total GULP energy -312048.882547 kJ/mol
# GULP energy per Si atom -5572.301474 kJ/mol
# Density = 2.071711 g / cm^3
# Si number density = 20.764373 Si / 1000 Ang^3
#
#
#
# Elastic Constant Matrix: (Units=GPa)
#
#
# Indices 1 2 3 4 5 6 
#
# 1 130.3180 -1.4902 25.7058 0.0000 0.0000 0.0000
# 2 -1.4902 57.5196 8.9262 0.0000 0.0000 0.0000
# 3 25.7058 8.9262 43.4161 0.0000 0.0000 0.0000
# 4 0.0000 0.0000 0.0000 17.2043 0.0000 0.0000
# 5 0.0000 0.0000 0.0000 0.0000 23.4072 0.0000
# 6 0.0000 0.0000 0.0000 0.0000 0.0000 18.4209
#
#
#
# Elastic Compliance Matrix: (Units=1/GPa)
#
#
# Indices 1 2 3 4 5 6 
#
# 1 0.008751 0.001065 -0.005400 0.000000 0.000000 0.000000
# 2 0.001065 0.018088 -0.004349 0.000000 0.000000 0.000000
# 3 -0.005400 -0.004349 0.027124 0.000000 0.000000 0.000000
# 4 0.000000 0.000000 0.000000 0.058125 0.000000 0.000000
# 5 0.000000 0.000000 0.000000 0.000000 0.042722 0.000000
# 6 0.000000 0.000000 0.000000 0.000000 0.000000 0.054286
#
#
# Mechanical properties :
#
#
# Convention : Reuss Voigt Hill
#
# Bulk Modulus (GPa) = 27.32688 33.05970 30.19329
# Shear Modulus (GPa) = 20.94999 25.01394 22.98197
#
# Velocity S-wave (km/s) = 3.17983 3.47458 3.33047
# Velocity P-wave (km/s) = 5.16437 5.66153 5.41866
#
# Compressibility (1/GPa) = 0.03659401
#
# Stress axis : x y z
#
# Youngs Moduli (GPa) = 114.27374 55.28564 36.86708
#
# Poissons Ratio (x) = -0.05886 0.19909
# Poissons Ratio (y) = -0.12167 0.16034
# Poissons Ratio (z) = 0.61710 0.24045
#
# Static dielectric constant tensor:
#      x y z
#    x 1.824050 0.000000 0.000000 
#    y 0.000000 1.679570 0.000000 
#    z 0.000000 0.000000 1.790080 
# 
# From -- ./inp_files/28157.got.cif
#   From: 2010.05.17/outbox.cif.g08.bks.cpg/sg57_15_cif.got.tgz:28157.got - 2010.06.03 13:58:18.
