data_PCOD9436070
_publ_section_title
;
Structure prediction by ZEFSAII (Michael W. Deem and Ramdas Pophale) SiO2 
 PCOD9436070
Probable space group: P B C M
;
_chemical_formula_sum "Si O2"
_cell_formula_units_Z 64
_cell_length_a 21.067220
_cell_length_b 19.054284
_cell_length_c 8.691747
_cell_angle_alpha 90.000000
_cell_angle_beta 90.000000
_cell_angle_gamma 90.000000
_cell_volume 3489.047973
_symmetry_space_group_name_H-M "P B C M"
_symmetry_group_IT_number 57
_symmetry_cell_setting 'orthorhombic'
loop_
_space_group_symop_operation_xyz
x,y,z
-x,-y,1/2+z
x,1/2-y,-z
-x,1/2+y,1/2-z
-x,-y,-z
x,y,1/2-z
-x,1/2+y,z
x,1/2-y,1/2+z
loop_
_atom_site_type_symbol
_atom_site_label
_atom_site_fract_x
_atom_site_fract_y
_atom_site_fract_z
Si Si1 0.805520 0.537127 0.067026
Si Si2 0.877356 0.326816 0.933870
Si Si3 0.061284 0.538237 0.933360
Si Si4 0.502807 0.578245 0.565786
Si Si5 0.247999 0.323495 0.066896
Si Si6 0.254200 0.598623 0.435002
Si Si7 0.612169 0.328771 0.935323
Si Si8 0.389540 0.325071 0.565743
O O1 0.799790 0.547378 0.250000
O O2 0.875350 0.506827 0.031701
O O3 0.792789 0.609522 0.980833
O O4 0.756602 0.476803 0.012679
O O5 0.880162 0.324998 0.750000
O O6 0.806496 0.353546 0.978873
O O7 0.888942 0.250000 0.000000
O O8 0.925781 0.385194 0.996060
O O9 0.056061 0.544201 0.750000
O O10 0.000000 0.500000 0.000000
O O11 0.500000 0.500000 0.500000
O O12 0.502770 0.577177 0.750000
O O13 0.443762 0.623946 0.504498
O O14 0.566112 0.615282 0.503176
O O15 0.254595 0.318124 0.250000
O O16 0.222535 0.250000 0.000000
O O17 0.317471 0.333552 0.991554
O O18 0.252648 0.589282 0.250000
O O19 0.319960 0.636185 0.475436
O O20 0.606499 0.327078 0.750000
O O21 0.608923 0.250000 0.000000
O O22 0.412179 0.250000 0.500000
O O23 0.391884 0.324575 0.750000
#
# Coordination Sequence:
#
# PCOD9436070 Si02
#       8
#     8   8   8   8   8   8   8   8
#     4  10  21  37  59  87 119 153 192 236 287 343
#     4  10  19  34  57  86 119 155 195 240 286 340
#     4  10  21  38  60  86 118 157 198 241 286 342
#     4  12  26  43  60  82 112 150 193 241 293 347
#     4  11  22  38  61  88 118 151 191 240 292 347
#     4   9  20  36  57  85 118 154 192 235 286 342
#     4  11  23  40  60  85 117 152 192 237 288 347
#     4  11  22  40  63  86 112 147 190 238 291 349
#
# _framework density 18.343112999999999
#
# number of rings (size 3 to 8) (size 9 to 14) (size 15 to 20)
#    0.000    1.500    0.000    6.375    1.750    3.000 
#    0.000    0.625    0.000    3.000    0.000    0.000 
#    0.000    0.000    0.000    0.000    0.000    0.000 
#
# Total GULP energy -357806.802750 kJ/mol
# GULP energy per Si atom -5590.731293 kJ/mol
# Density = 1.830136 g / cm^3
# Si number density = 18.343113 Si / 1000 Ang^3
#
#
#
# Elastic Constant Matrix: (Units=GPa)
#
#
# Indices 1 2 3 4 5 6 
#
# 1 57.2712 57.0451 44.7765 0.0000 0.0000 0.0000
# 2 57.0451 171.1388 76.1210 0.0000 0.0000 0.0000
# 3 44.7765 76.1210 119.1561 0.0000 0.0000 0.0000
# 4 0.0000 0.0000 0.0000 39.3303 0.0000 0.0000
# 5 0.0000 0.0000 0.0000 0.0000 28.8738 0.0000
# 6 0.0000 0.0000 0.0000 0.0000 0.0000 28.2309
#
#
#
# Elastic Compliance Matrix: (Units=1/GPa)
#
#
# Indices 1 2 3 4 5 6 
#
# 1 0.029548 -0.006860 -0.006722 0.000000 0.000000 0.000000
# 2 -0.006860 0.009755 -0.003654 0.000000 0.000000 0.000000
# 3 -0.006722 -0.003654 0.013253 0.000000 0.000000 0.000000
# 4 0.000000 0.000000 0.000000 0.025426 0.000000 0.000000
# 5 0.000000 0.000000 0.000000 0.000000 0.034633 0.000000
# 6 0.000000 0.000000 0.000000 0.000000 0.000000 0.035422
#
#
# Mechanical properties :
#
#
# Convention : Reuss Voigt Hill
#
# Bulk Modulus (GPa) = 55.29311 78.16122 66.72716
# Shear Modulus (GPa) = 26.52007 30.59524 28.55766
#
# Velocity S-wave (km/s) = 3.80646 4.08847 3.94999
# Velocity P-wave (km/s) = 7.03762 8.06168 7.56699
#
# Compressibility (1/GPa) = 0.01808544
#
# Stress axis : x y z
#
# Youngs Moduli (GPa) = 33.84272 102.51132 75.45699
#
# Poissons Ratio (x) = 0.70318 0.50719
# Poissons Ratio (y) = 0.23215 0.27573
# Poissons Ratio (z) = 0.22748 0.37459
#
# Static dielectric constant tensor:
#      x y z
#    x 1.614590 0.000000 0.000000 
#    y 0.000000 1.609560 0.000000 
#    z 0.000000 0.000000 1.610550 
# 
# From -- ./inp_files/8385.got.cif
#   From: 2010.05.17/outbox.cif.g08.bks.cpg/sg57_5_cif.got.tgz:8385.got - 2010.06.03 13:58:18.
