data_PCOD9436726
_publ_section_title
;
Structure prediction by ZEFSAII (Michael W. Deem and Ramdas Pophale) SiO2 
 PCOD9436726
Probable space group: P B C M
;
_chemical_formula_sum "Si O2"
_cell_formula_units_Z 60
_cell_length_a 25.270612
_cell_length_b 5.418214
_cell_length_c 19.849070
_cell_angle_alpha 90.000000
_cell_angle_beta 90.000000
_cell_angle_gamma 90.000000
_cell_volume 2717.766100
_symmetry_space_group_name_H-M "P B C M"
_symmetry_group_IT_number 57
_symmetry_cell_setting 'orthorhombic'
loop_
_space_group_symop_operation_xyz
x,y,z
-x,-y,1/2+z
x,1/2-y,-z
-x,1/2+y,1/2-z
-x,-y,-z
x,y,1/2-z
-x,1/2+y,z
x,1/2-y,1/2+z
loop_
_atom_site_type_symbol
_atom_site_label
_atom_site_fract_x
_atom_site_fract_y
_atom_site_fract_z
Si Si1 0.890543 0.788416 0.073949
Si Si2 0.213626 0.923039 0.566505
Si Si3 0.672943 0.165363 0.426168
Si Si4 0.617827 0.597017 0.679038
Si Si5 0.533438 0.860762 0.750000
Si Si6 0.034037 0.962300 0.673305
Si Si7 0.831257 0.458780 0.328593
Si Si8 0.717902 0.563339 0.323372
O O1 0.922317 0.990150 0.116789
O O2 0.879013 0.563518 0.125916
O O3 0.831986 0.881587 0.058229
O O4 0.916041 0.750000 0.000000
O O5 0.210943 0.750000 0.500000
O O6 0.274611 0.008438 0.568039
O O7 0.194779 0.773147 0.633033
O O8 0.658664 0.250000 0.500000
O O9 0.697237 0.387587 0.382133
O O10 0.622348 0.061614 0.387212
O O11 0.611396 0.452283 0.750000
O O12 0.572741 0.804439 0.686830
O O13 0.675277 0.721643 0.681021
O O14 0.492765 0.628316 0.750000
O O15 0.055591 0.975300 0.750000
O O16 0.995210 0.200221 0.666253
O O17 0.845826 0.421848 0.250000
O O18 0.779333 0.638637 0.329529
O O19 0.715830 0.430126 0.250000
#
# Coordination Sequence:
#
# PCOD9436726 Si02
#       8
#     8   8   8   8   4   8   8   8
#     4  12  24  38  65  89 128 168 213 265 327 403
#     4  10  21  38  56  88 131 173 212 254 319 388
#     4  10  20  33  55  88 128 172 210 253 316 394
#     4   9  20  34  60  84 120 159 212 273 319 384
#     4  10  24  40  68 100 124 164 222 292 346 388
#     4  10  25  48  71  97 126 164 219 286 341 398
#     4  10  21  36  57  89 125 164 212 258 313 384
#     4   9  18  34  56  84 120 162 210 262 308 375
#
# _framework density 22.076955000000002
#
# number of rings (size 3 to 8) (size 9 to 14) (size 15 to 20)
#    0.400    1.600    1.333    1.600    3.733    2.667 
#    0.000    0.000    0.000    0.800    0.000    0.000 
#    0.000    0.000    0.000    0.000    0.000    0.000 
#
# Total GULP energy -334466.801218 kJ/mol
# GULP energy per Si atom -5574.446687 kJ/mol
# Density = 2.202671 g / cm^3
# Si number density = 22.076955 Si / 1000 Ang^3
#
#
#
# Elastic Constant Matrix: (Units=GPa)
#
#
# Indices 1 2 3 4 5 6 
#
# 1 61.8182 20.7751 29.0311 0.0000 0.0000 0.0000
# 2 20.7751 47.4339 20.1732 0.0000 0.0000 0.0000
# 3 29.0311 20.1732 149.2272 0.0000 0.0000 0.0000
# 4 0.0000 0.0000 0.0000 23.7180 0.0000 0.0000
# 5 0.0000 0.0000 0.0000 0.0000 -38.0827 0.0000
# 6 0.0000 0.0000 0.0000 0.0000 0.0000 37.2721
#
#
#
# Elastic Compliance Matrix: (Units=1/GPa)
#
#
# Indices 1 2 3 4 5 6 
#
# 1 0.020073 -0.007566 -0.002882 0.000000 0.000000 0.000000
# 2 -0.007566 0.025220 -0.001937 0.000000 0.000000 0.000000
# 3 -0.002882 -0.001937 0.007524 0.000000 0.000000 0.000000
# 4 0.000000 0.000000 0.000000 0.042162 0.000000 0.000000
# 5 0.000000 0.000000 0.000000 0.000000 -0.026259 0.000000
# 6 0.000000 0.000000 0.000000 0.000000 0.000000 0.026830
#
#
# Mechanical properties :
#
#
# Convention : Reuss Voigt Hill
#
# Bulk Modulus (GPa) = 35.65653 44.27090 39.96371
# Shear Modulus (GPa) = 38.55999 17.14814 27.85406
#
# Velocity S-wave (km/s) = 4.18379 2.79004 3.55587
# Velocity P-wave (km/s) = 6.28688 5.52047 5.91610
#
# Compressibility (1/GPa) = 0.02804536
#
# Stress axis : x y z
#
# Youngs Moduli (GPa) = 49.81922 39.65180 132.91123
#
# Poissons Ratio (x) = 0.29999 0.38308
# Poissons Ratio (y) = 0.37691 0.25751
# Poissons Ratio (z) = 0.14359 0.07682
#
# Static dielectric constant tensor:
#      x y z
#    x 1.838750 0.000000 0.000000 
#    y 0.000000 1.896470 0.000000 
#    z 0.000000 0.000000 1.889160 
# 
# From -- ./inp_files/23151.got.cif
#   From: 2010.05.17/outbox.cif.g08.bks.cpg/sg57_12_cif.got.tgz:23151.got - 2010.06.03 13:58:18.
