data_PCOD9436153
_publ_section_title
;
Structure prediction by ZEFSAII (Michael W. Deem and Ramdas Pophale) SiO2 
 PCOD9436153
Probable space group: P B C M
;
_chemical_formula_sum "Si O2"
_cell_formula_units_Z 64
_cell_length_a 9.926993
_cell_length_b 21.052937
_cell_length_c 17.879180
_cell_angle_alpha 90.000000
_cell_angle_beta 90.000000
_cell_angle_gamma 90.000000
_cell_volume 3736.611991
_symmetry_space_group_name_H-M "P B C M"
_symmetry_group_IT_number 57
_symmetry_cell_setting 'orthorhombic'
loop_
_space_group_symop_operation_xyz
x,y,z
-x,-y,1/2+z
x,1/2-y,-z
-x,1/2+y,1/2-z
-x,-y,-z
x,y,1/2-z
-x,1/2+y,z
x,1/2-y,1/2+z
loop_
_atom_site_type_symbol
_atom_site_label
_atom_site_fract_x
_atom_site_fract_y
_atom_site_fract_z
Si Si1 0.079459 0.593006 0.335132
Si Si2 0.304986 0.801442 0.836425
Si Si3 0.188359 0.802698 0.060257
Si Si4 0.242618 0.461736 0.166657
Si Si5 0.543882 0.176818 0.476539
Si Si6 0.045362 0.596696 0.838306
Si Si7 0.895167 0.522913 0.435714
Si Si8 0.386469 0.052541 0.983995
O O1 0.026148 0.592732 0.250000
O O2 0.175361 0.653018 0.344727
O O3 0.175943 0.531390 0.342301
O O4 0.963186 0.583657 0.395693
O O5 0.339847 0.797363 0.750000
O O6 0.260857 0.735567 0.873145
O O7 0.425376 0.825811 0.888379
O O8 0.087636 0.849414 0.102390
O O9 0.135446 0.750000 0.000000
O O10 0.310377 0.836900 0.015734
O O11 0.298665 0.456988 0.250000
O O12 0.348904 0.450404 0.102920
O O13 0.115216 0.414666 0.159505
O O14 0.510638 0.250000 0.500000
O O15 0.440177 0.122714 0.497820
O O16 0.081197 0.606941 0.750000
O O17 0.108999 0.531860 0.872114
O O18 0.750701 0.536402 0.471293
O O19 0.000000 0.500000 0.500000
O O20 0.500000 0.000000 0.000000
#
# Coordination Sequence:
#
# PCOD9436153 Si02
#       8
#     8   8   8   8   8   8   8   8
#     4   9  17  32  53  79 108 137 175 225 283 337
#     4   9  17  32  56  79 105 145 184 224 277 337
#     4   9  19  32  55  81 110 141 192 235 274 327
#     4   9  19  35  53  76 107 144 178 223 288 343
#     4   9  21  37  51  76 114 149 184 229 279 339
#     4  10  19  35  56  82 113 144 180 234 292 340
#     4  11  21  33  57  80 111 143 181 228 291 334
#     4  12  22  35  57  84 109 144 195 235 275 339
#
# _framework density 17.127815999999999
#
# number of rings (size 3 to 8) (size 9 to 14) (size 15 to 20)
#    0.000    2.500    2.500    3.000    3.500    0.000 
#    0.000    8.750    0.000    0.000    0.000    0.000 
#    0.000    0.000    0.000    0.000    0.000    0.000 
#
# Total GULP energy -356573.581329 kJ/mol
# GULP energy per Si atom -5571.462208 kJ/mol
# Density = 1.708883 g / cm^3
# Si number density = 17.127816 Si / 1000 Ang^3
#
#
#
# Elastic Constant Matrix: (Units=GPa)
#
#
# Indices 1 2 3 4 5 6 
#
# 1 56.6740 22.5166 55.2190 0.0000 0.0000 0.0000
# 2 22.5166 33.5975 36.6891 0.0000 0.0000 0.0000
# 3 55.2190 36.6891 150.5689 0.0000 0.0000 0.0000
# 4 0.0000 0.0000 0.0000 24.3690 0.0000 0.0000
# 5 0.0000 0.0000 0.0000 0.0000 32.2132 0.0000
# 6 0.0000 0.0000 0.0000 0.0000 0.0000 14.1096
#
#
#
# Elastic Compliance Matrix: (Units=1/GPa)
#
#
# Indices 1 2 3 4 5 6 
#
# 1 0.030218 -0.011105 -0.008376 0.000000 0.000000 0.000000
# 2 -0.011105 0.044636 -0.006804 0.000000 0.000000 0.000000
# 3 -0.008376 -0.006804 0.011371 0.000000 0.000000 0.000000
# 4 0.000000 0.000000 0.000000 0.041036 0.000000 0.000000
# 5 0.000000 0.000000 0.000000 0.000000 0.031043 0.000000
# 6 0.000000 0.000000 0.000000 0.000000 0.000000 0.070874
#
#
# Mechanical properties :
#
#
# Convention : Reuss Voigt Hill
#
# Bulk Modulus (GPa) = 29.71257 52.18776 40.95017
# Shear Modulus (GPa) = 17.06682 22.56607 19.81644
#
# Velocity S-wave (km/s) = 3.16007 3.63369 3.40512
# Velocity P-wave (km/s) = 5.54075 6.93835 6.27856
#
# Compressibility (1/GPa) = 0.03365579
#
# Stress axis : x y z
#
# Youngs Moduli (GPa) = 33.09331 22.40323 87.94134
#
# Poissons Ratio (x) = 0.24878 0.73660
# Poissons Ratio (y) = 0.36749 0.59836
# Poissons Ratio (z) = 0.27719 0.15243
#
# Static dielectric constant tensor:
#      x y z
#    x 1.562670 0.000000 0.000000 
#    y 0.000000 1.639790 0.000000 
#    z 0.000000 0.000000 1.612930 
# 
# From -- ./inp_files/21450.got.cif
#   From: 2010.05.17/outbox.cif.g08.bks.cpg/sg57_11_cif.got.tgz:21450.got - 2010.06.03 13:58:18.
