data_PCOD9436745
_publ_section_title
;
Structure prediction by ZEFSAII (Michael W. Deem and Ramdas Pophale) SiO2 
 PCOD9436745
Probable space group: P B C M
;
_chemical_formula_sum "Si O2"
_cell_formula_units_Z 48
_cell_length_a 16.399125
_cell_length_b 19.857664
_cell_length_c 7.786892
_cell_angle_alpha 90.000000
_cell_angle_beta 90.000000
_cell_angle_gamma 90.000000
_cell_volume 2535.788252
_symmetry_space_group_name_H-M "P B C M"
_symmetry_group_IT_number 57
_symmetry_cell_setting 'orthorhombic'
loop_
_space_group_symop_operation_xyz
x,y,z
-x,-y,1/2+z
x,1/2-y,-z
-x,1/2+y,1/2-z
-x,-y,-z
x,y,1/2-z
-x,1/2+y,z
x,1/2-y,1/2+z
loop_
_atom_site_type_symbol
_atom_site_label
_atom_site_fract_x
_atom_site_fract_y
_atom_site_fract_z
Si Si1 0.735628 0.923711 0.957526
Si Si2 0.409199 0.827555 0.545674
Si Si3 0.591735 0.827748 0.543019
Si Si4 0.086460 0.432480 0.455909
Si Si5 0.086382 0.911864 0.447372
Si Si6 0.739580 0.422594 0.044722
O O1 0.732048 0.924416 0.750000
O O2 0.662678 0.876705 0.021486
O O3 0.726871 0.001039 0.020029
O O4 0.826288 0.899742 0.007642
O O5 0.392098 0.750000 0.500000
O O6 0.412197 0.832733 0.750000
O O7 0.500276 0.844084 0.478255
O O8 0.337913 0.876268 0.485264
O O9 0.608347 0.750000 0.500000
O O10 0.590037 0.833496 0.750000
O O11 0.079048 0.442627 0.250000
O O12 0.088875 0.506198 0.543559
O O13 0.003694 0.395900 0.518408
O O14 0.085714 0.888575 0.250000
O O15 0.174273 0.893172 0.525383
O O16 0.750873 0.428173 0.250000
#
# Coordination Sequence:
#
# PCOD9436745 Si02
#       6
#     8   8   8   8   8   8
#     4   9  18  32  48  69  99 129 154 188 237 281
#     4  10  20  34  51  70  92 121 158 196 234 280
#     4   9  19  35  52  69  92 124 159 193 233 282
#     4   9  15  24  42  68  94 122 158 193 224 268
#     4   8  15  27  42  63  95 129 154 184 231 278
#     4   9  17  30  48  70  97 127 155 188 233 278
#
# _framework density 18.929026
#
# number of rings (size 3 to 8) (size 9 to 14) (size 15 to 20)
#    0.000    3.000    0.000    2.000    0.000    5.333 
#    0.000    0.000    0.000    1.000    0.000    2.333 
#    0.000    0.000    0.000    0.000    0.000    0.000 
#
# Total GULP energy -267208.695796 kJ/mol
# GULP energy per Si atom -5566.847829 kJ/mol
# Density = 1.888594 g / cm^3
# Si number density = 18.929026 Si / 1000 Ang^3
#
#
#
# Elastic Constant Matrix: (Units=GPa)
#
#
# Indices 1 2 3 4 5 6 
#
# 1 228.0267 90.6188 2.1104 0.0000 0.0000 0.0000
# 2 90.6188 50.3632 -0.1831 0.0000 0.0000 0.0000
# 3 2.1104 -0.1831 30.7815 0.0000 0.0000 0.0000
# 4 0.0000 0.0000 0.0000 15.2172 0.0000 0.0000
# 5 0.0000 0.0000 0.0000 0.0000 22.3661 0.0000
# 6 0.0000 0.0000 0.0000 0.0000 0.0000 -10.9930
#
#
#
# Elastic Compliance Matrix: (Units=1/GPa)
#
#
# Indices 1 2 3 4 5 6 
#
# 1 0.015436 -0.027779 -0.001224 0.000000 0.000000 0.000000
# 2 -0.027779 0.069847 0.002320 0.000000 0.000000 0.000000
# 3 -0.001224 0.002320 0.032585 0.000000 0.000000 0.000000
# 4 0.000000 0.000000 0.000000 0.065715 0.000000 0.000000
# 5 0.000000 0.000000 0.000000 0.000000 0.044711 0.000000
# 6 0.000000 0.000000 0.000000 0.000000 0.000000 -0.090967
#
#
# Mechanical properties :
#
#
# Convention : Reuss Voigt Hill
#
# Bulk Modulus (GPa) = 15.50317 54.91818 35.21068
# Shear Modulus (GPa) = 23.56345 19.75974 21.66159
#
# Velocity S-wave (km/s) = 3.53204 3.23443 3.38651
# Velocity P-wave (km/s) = 4.98415 6.55930 5.82521
#
# Compressibility (1/GPa) = 0.06450295
#
# Stress axis : x y z
#
# Youngs Moduli (GPa) = 64.78241 14.31696 30.68924
#
# Poissons Ratio (x) = 0.39771 0.03755
# Poissons Ratio (y) = 1.79959 -0.07120
# Poissons Ratio (z) = 0.07926 -0.03321
#
# Static dielectric constant tensor:
#      x y z
#    x 1.740400 0.000000 0.000000 
#    y 0.000000 1.599140 0.000000 
#    z 0.000000 0.000000 1.709020 
# 
# From -- ./inp_files/4911.got.cif
#   From: 2010.05.17/outbox.cif.g08.bks.cpg/sg57_3_cif.got.tgz:4911.got - 2010.06.03 13:58:18.
