data_PCOD9436841
_publ_section_title
;
Structure prediction by ZEFSAII (Michael W. Deem and Ramdas Pophale) SiO2 
 PCOD9436841
Probable space group: P B C M
;
_chemical_formula_sum "Si O2"
_cell_formula_units_Z 64
_cell_length_a 20.954828
_cell_length_b 18.310865
_cell_length_c 9.086609
_cell_angle_alpha 90.000000
_cell_angle_beta 90.000000
_cell_angle_gamma 90.000000
_cell_volume 3486.541202
_symmetry_space_group_name_H-M "P B C M"
_symmetry_group_IT_number 57
_symmetry_cell_setting 'orthorhombic'
loop_
_space_group_symop_operation_xyz
x,y,z
-x,-y,1/2+z
x,1/2-y,-z
-x,1/2+y,1/2-z
-x,-y,-z
x,y,1/2-z
-x,1/2+y,z
x,1/2-y,1/2+z
loop_
_atom_site_type_symbol
_atom_site_label
_atom_site_fract_x
_atom_site_fract_y
_atom_site_fract_z
Si Si1 0.319181 0.075320 0.425597
Si Si2 0.076313 0.172988 0.575723
Si Si3 0.416058 0.828662 0.925748
Si Si4 0.787029 0.670981 0.924967
Si Si5 0.840484 0.331794 0.071463
Si Si6 0.440158 0.329802 0.926481
Si Si7 0.703396 0.405055 0.425961
Si Si8 0.037259 0.568929 0.927177
O O1 0.312553 0.085633 0.250000
O O2 0.268775 0.123677 0.510789
O O3 0.388495 0.108385 0.466436
O O4 0.301925 0.991441 0.456045
O O5 0.076955 0.250000 0.500000
O O6 0.075766 0.183094 0.750000
O O7 0.143854 0.135541 0.539411
O O8 0.013216 0.131617 0.535481
O O9 0.410830 0.823710 0.750000
O O10 0.487821 0.855674 0.961986
O O11 0.412687 0.750000 0.000000
O O12 0.356887 0.872081 0.990348
O O13 0.781468 0.679162 0.750000
O O14 0.784972 0.750000 0.000000
O O15 0.844299 0.323289 0.250000
O O16 0.770616 0.365972 0.034127
O O17 0.894397 0.393654 0.030869
O O18 0.848694 0.250000 0.000000
O O19 0.436878 0.318696 0.750000
O O20 0.428367 0.250000 0.000000
O O21 0.695883 0.394727 0.250000
O O22 0.039739 0.556184 0.750000
O O23 0.000000 0.500000 0.000000
#
# Coordination Sequence:
#
# PCOD9436841 Si02
#       8
#     8   8   8   8   8   8   8   8
#     4  10  21  36  54  78 113 151 186 229 280 334
#     4   9  19  35  54  78 107 140 181 227 271 324
#     4  10  20  36  58  82 108 141 185 233 281 336
#     4  10  20  34  53  78 108 143 184 228 274 330
#     4  10  22  40  61  85 113 148 191 234 277 330
#     4   9  19  35  55  80 109 144 186 231 279 334
#     4  10  22  38  56  82 115 149 186 232 284 334
#     4  10  22  38  57  84 115 145 181 227 277 330
#
# _framework density 18.356300999999998
#
# number of rings (size 3 to 8) (size 9 to 14) (size 15 to 20)
#    0.000    2.250    0.000    1.875    1.750    6.000 
#    0.000    0.000    0.000    0.000    0.000    0.000 
#    0.000    0.000    0.000    0.000    0.000    0.000 
#
# Total GULP energy -356411.558823 kJ/mol
# GULP energy per Si atom -5568.930607 kJ/mol
# Density = 1.831452 g / cm^3
# Si number density = 18.356301 Si / 1000 Ang^3
#
#
#
# Elastic Constant Matrix: (Units=GPa)
#
#
# Indices 1 2 3 4 5 6 
#
# 1 156.7513 71.0697 52.0036 0.0000 0.0000 0.0000
# 2 71.0697 75.9243 42.5220 0.0000 0.0000 0.0000
# 3 52.0036 42.5220 -15.6654 0.0000 0.0000 0.0000
# 4 0.0000 0.0000 0.0000 29.3999 0.0000 0.0000
# 5 0.0000 0.0000 0.0000 0.0000 29.2517 0.0000
# 6 0.0000 0.0000 0.0000 0.0000 0.0000 18.5466
#
#
#
# Elastic Compliance Matrix: (Units=1/GPa)
#
#
# Indices 1 2 3 4 5 6 
#
# 1 0.010639 -0.011800 0.003288 0.000000 0.000000 0.000000
# 2 -0.011800 0.018314 0.010539 0.000000 0.000000 0.000000
# 3 0.003288 0.010539 -0.024313 0.000000 0.000000 0.000000
# 4 0.000000 0.000000 0.000000 0.034014 0.000000 0.000000
# 5 0.000000 0.000000 0.000000 0.000000 0.034186 0.000000
# 6 0.000000 0.000000 0.000000 0.000000 0.000000 0.053918
#
#
# Mechanical properties :
#
#
# Convention : Reuss Voigt Hill
#
# Bulk Modulus (GPa) = 115.02608 60.91120 87.96864
# Shear Modulus (GPa) = 39.80875 18.86732 29.33803
#
# Velocity S-wave (km/s) = 4.66195 3.20947 4.00215
# Velocity P-wave (km/s) = 9.58005 6.85485 8.32966
#
# Compressibility (1/GPa) = 0.00869368
#
# Stress axis : x y z
#
# Youngs Moduli (GPa) = 93.99618 54.60402 -41.12992
#
# Poissons Ratio (x) = 0.64432 0.13522
# Poissons Ratio (y) = 1.10913 0.43348
# Poissons Ratio (z) = -0.30903 -0.57549
#
# Static dielectric constant tensor:
#      x y z
#    x 1.679370 0.000000 0.000000 
#    y 0.000000 1.648500 0.000000 
#    z 0.000000 0.000000 1.616590 
# 
# From -- ./inp_files/8522.got.cif
#   From: 2010.05.17/outbox.cif.g08.bks.cpg/sg57_5_cif.got.tgz:8522.got - 2010.06.03 13:58:18.
