data_PCOD9436003
_publ_section_title
;
Structure prediction by ZEFSAII (Michael W. Deem and Ramdas Pophale) SiO2 
 PCOD9436003
Probable space group: P B C M
;
_chemical_formula_sum "Si O2"
_cell_formula_units_Z 32
_cell_length_a 10.968126
_cell_length_b 8.790168
_cell_length_c 15.908622
_cell_angle_alpha 90.000000
_cell_angle_beta 90.000000
_cell_angle_gamma 90.000000
_cell_volume 1533.776817
_symmetry_space_group_name_H-M "P B C M"
_symmetry_group_IT_number 57
_symmetry_cell_setting 'orthorhombic'
loop_
_space_group_symop_operation_xyz
x,y,z
-x,-y,1/2+z
x,1/2-y,-z
-x,1/2+y,1/2-z
-x,-y,-z
x,y,1/2-z
-x,1/2+y,z
x,1/2-y,1/2+z
loop_
_atom_site_type_symbol
_atom_site_label
_atom_site_fract_x
_atom_site_fract_y
_atom_site_fract_z
Si Si1 0.121919 0.318594 0.905509
Si Si2 0.124028 0.683328 0.594181
Si Si3 0.382677 0.855172 0.344411
Si Si4 0.610354 0.679852 0.407031
O O1 0.111569 0.500824 0.909237
O O2 0.255731 0.281189 0.869460
O O3 0.999181 0.251186 0.865973
O O4 0.123939 0.250000 0.000000
O O5 0.134074 0.750000 0.500000
O O6 0.251055 0.719376 0.639644
O O7 0.384458 0.917763 0.250000
O O8 0.495126 0.743609 0.357653
O O9 0.394986 0.997114 0.407580
O O10 0.604858 0.750000 0.500000
#
# Coordination Sequence:
#
# PCOD9436003 Si02
#       4
#     8   8   8   8
#     4   9  18  32  55  84 108 136 183 234 271 319
#     4  10  19  34  56  81 110 143 183 227 272 331
#     4  11  23  38  55  83 118 150 185 235 288 340
#     4  10  21  38  60  84 110 149 195 236 279 336
#
# _framework density 20.863530999999998
#
# number of rings (size 3 to 8) (size 9 to 14) (size 15 to 20)
#    0.000    2.000    0.000    5.250    0.000    6.000 
#    0.000    6.250    0.000    0.000    0.000    0.000 
#    0.000    0.000    0.000    0.000    0.000    0.000 
#
# Total GULP energy -178561.701165 kJ/mol
# GULP energy per Si atom -5580.053161 kJ/mol
# Density = 2.081604 g / cm^3
# Si number density = 20.863531 Si / 1000 Ang^3
#
#
#
# Elastic Constant Matrix: (Units=GPa)
#
#
# Indices 1 2 3 4 5 6 
#
# 1 236.3985 72.0509 21.5889 0.0000 0.0000 0.0000
# 2 72.0509 58.2031 -4.6979 0.0000 0.0000 0.0000
# 3 21.5889 -4.6979 23.6042 0.0000 0.0000 0.0000
# 4 0.0000 0.0000 0.0000 12.6365 0.0000 0.0000
# 5 0.0000 0.0000 0.0000 0.0000 2.1911 0.0000
# 6 0.0000 0.0000 0.0000 0.0000 0.0000 38.2672
#
#
#
# Elastic Compliance Matrix: (Units=1/GPa)
#
#
# Indices 1 2 3 4 5 6 
#
# 1 0.008706 -0.011606 -0.010272 0.000000 0.000000 0.000000
# 2 -0.011606 0.032934 0.017170 0.000000 0.000000 0.000000
# 3 -0.010272 0.017170 0.055178 0.000000 0.000000 0.000000
# 4 0.000000 0.000000 0.000000 0.079136 0.000000 0.000000
# 5 0.000000 0.000000 0.000000 0.000000 0.456390 0.000000
# 6 0.000000 0.000000 0.000000 0.000000 0.000000 0.026132
#
#
# Mechanical properties :
#
#
# Convention : Reuss Voigt Hill
#
# Bulk Modulus (GPa) = 11.44145 55.12106 33.28126
# Shear Modulus (GPa) = 7.17333 25.90323 16.53828
#
# Velocity S-wave (km/s) = 1.85625 3.52739 2.81853
# Velocity P-wave (km/s) = 3.17649 6.56256 5.15545
#
# Compressibility (1/GPa) = 0.08740148
#
# Stress axis : x y z
#
# Youngs Moduli (GPa) = 114.86877 30.36340 18.12318
#
# Poissons Ratio (x) = 0.35240 0.18617
# Poissons Ratio (y) = 1.33316 -0.31118
# Poissons Ratio (z) = 1.17996 -0.52134
#
# Static dielectric constant tensor:
#      x y z
#    x 1.810630 0.000000 0.000000 
#    y 0.000000 1.713550 0.000000 
#    z 0.000000 0.000000 1.758180 
# 
# From -- ./inp_files/17181.got.cif
#   From: 2010.05.17/outbox.cif.g08.bks.cpg/sg57_9_cif.got.tgz:17181.got - 2010.06.03 13:58:18.
