data_PCOD9436595
_publ_section_title
;
Structure prediction by ZEFSAII (Michael W. Deem and Ramdas Pophale) SiO2 
 PCOD9436595
Probable space group: P B C M
;
_chemical_formula_sum "Si O2"
_cell_formula_units_Z 64
_cell_length_a 17.396447
_cell_length_b 24.815578
_cell_length_c 8.156868
_cell_angle_alpha 90.000000
_cell_angle_beta 90.000000
_cell_angle_gamma 90.000000
_cell_volume 3521.343468
_symmetry_space_group_name_H-M "P B C M"
_symmetry_group_IT_number 57
_symmetry_cell_setting 'orthorhombic'
loop_
_space_group_symop_operation_xyz
x,y,z
-x,-y,1/2+z
x,1/2-y,-z
-x,1/2+y,1/2-z
-x,-y,-z
x,y,1/2-z
-x,1/2+y,z
x,1/2-y,1/2+z
loop_
_atom_site_type_symbol
_atom_site_label
_atom_site_fract_x
_atom_site_fract_y
_atom_site_fract_z
Si Si1 0.172638 0.027775 0.049562
Si Si2 0.108112 0.189758 0.943370
Si Si3 0.152291 0.589053 0.944557
Si Si4 0.248269 0.687984 0.556122
Si Si5 0.260751 0.366209 0.550841
Si Si6 0.585439 0.187563 0.446391
Si Si7 0.980068 0.586939 0.441426
Si Si8 0.417297 0.312436 0.551977
O O1 0.171392 0.027914 0.250000
O O2 0.232825 0.074060 0.000294
O O3 0.087356 0.047224 0.996511
O O4 0.187390 0.967201 0.991482
O O5 0.095168 0.184103 0.750000
O O6 0.091736 0.250000 0.000000
O O7 0.196096 0.174431 0.984700
O O8 0.056267 0.146148 0.036331
O O9 0.167138 0.589941 0.750000
O O10 0.188250 0.644219 0.013379
O O11 0.061213 0.584946 0.970219
O O12 0.239713 0.750000 0.500000
O O13 0.239352 0.690587 0.750000
O O14 0.334342 0.666874 0.517022
O O15 0.258317 0.364116 0.750000
O O16 0.344897 0.347568 0.495787
O O17 0.583999 0.250000 0.500000
O O18 0.589954 0.184361 0.250000
O O19 0.501717 0.166690 0.501592
O O20 0.992663 0.575730 0.250000
O O21 0.408143 0.250000 0.500000
O O22 0.417581 0.313018 0.750000
#
# Coordination Sequence:
#
# PCOD9436595 Si02
#       8
#     8   8   8   8   8   8   8   8
#     4   8  16  32  52  71  94 124 159 198 237 281
#     4  11  21  33  48  68  98 133 164 195 235 283
#     4  10  20  34  52  73  94 121 159 200 242 288
#     4  10  20  33  50  71  96 124 154 192 239 288
#     4   9  17  31  49  71  98 127 161 198 236 280
#     4   9  16  28  46  68  95 125 156 191 232 278
#     4  10  20  34  52  73  95 123 159 200 244 285
#     4   9  17  27  44  71  99 127 158 192 232 278
#
# _framework density 18.174880000000002
#
# number of rings (size 3 to 8) (size 9 to 14) (size 15 to 20)
#    0.000    2.500    0.000    4.500    0.000    3.500 
#    0.000    3.750    0.000    0.750    0.000    0.000 
#    0.000    0.000    0.000    0.000    0.000    2.625 
#
# Total GULP energy -356701.314112 kJ/mol
# GULP energy per Si atom -5573.458033 kJ/mol
# Density = 1.813351 g / cm^3
# Si number density = 18.174880 Si / 1000 Ang^3
#
#
#
# Elastic Constant Matrix: (Units=GPa)
#
#
# Indices 1 2 3 4 5 6 
#
# 1 82.0828 53.6141 -0.0423 0.0000 0.0000 0.0000
# 2 53.6141 104.4094 3.9103 0.0000 0.0000 0.0000
# 3 -0.0423 3.9103 14.0919 0.0000 0.0000 0.0000
# 4 0.0000 0.0000 0.0000 11.9138 0.0000 0.0000
# 5 0.0000 0.0000 0.0000 0.0000 28.5681 0.0000
# 6 0.0000 0.0000 0.0000 0.0000 0.0000 12.4702
#
#
#
# Elastic Compliance Matrix: (Units=1/GPa)
#
#
# Indices 1 2 3 4 5 6 
#
# 1 0.018433 -0.009567 0.002710 0.000000 0.000000 0.000000
# 2 -0.009567 0.014643 -0.004092 0.000000 0.000000 0.000000
# 3 0.002710 -0.004092 0.072106 0.000000 0.000000 0.000000
# 4 0.000000 0.000000 0.000000 0.083936 0.000000 0.000000
# 5 0.000000 0.000000 0.000000 0.000000 0.035004 0.000000
# 6 0.000000 0.000000 0.000000 0.000000 0.000000 0.080191
#
#
# Mechanical properties :
#
#
# Convention : Reuss Voigt Hill
#
# Bulk Modulus (GPa) = 12.00697 35.06094 23.53396
# Shear Modulus (GPa) = 14.12535 20.13057 17.12796
#
# Velocity S-wave (km/s) = 2.79084 3.33168 3.07318
# Velocity P-wave (km/s) = 4.12380 5.84233 5.05661
#
# Compressibility (1/GPa) = 0.08328493
#
# Stress axis : x y z
#
# Youngs Moduli (GPa) = 54.25060 68.28980 13.86841
#
# Poissons Ratio (x) = 0.65331 -0.03758
# Poissons Ratio (y) = 0.51900 0.05675
# Poissons Ratio (z) = -0.14702 0.27945
#
# Static dielectric constant tensor:
#      x y z
#    x 1.646530 0.000000 0.000000 
#    y 0.000000 1.633060 0.000000 
#    z 0.000000 0.000000 1.655790 
# 
# From -- ./inp_files/7450.got.cif
#   From: 2010.05.17/outbox.cif.g08.bks.cpg/sg57_4_cif.got.tgz:7450.got - 2010.06.03 13:58:18.
