data_PCOD9436121
_publ_section_title
;
Structure prediction by ZEFSAII (Michael W. Deem and Ramdas Pophale) SiO2 
 PCOD9436121
Probable space group: P B C M
;
_chemical_formula_sum "Si O2"
_cell_formula_units_Z 56
_cell_length_a 10.323640
_cell_length_b 17.309261
_cell_length_c 14.895718
_cell_angle_alpha 90.000000
_cell_angle_beta 90.000000
_cell_angle_gamma 90.000000
_cell_volume 2661.784060
_symmetry_space_group_name_H-M "P B C M"
_symmetry_group_IT_number 57
_symmetry_cell_setting 'orthorhombic'
loop_
_space_group_symop_operation_xyz
x,y,z
-x,-y,1/2+z
x,1/2-y,-z
-x,1/2+y,1/2-z
-x,-y,-z
x,y,1/2-z
-x,1/2+y,z
x,1/2-y,1/2+z
loop_
_atom_site_type_symbol
_atom_site_label
_atom_site_fract_x
_atom_site_fract_y
_atom_site_fract_z
Si Si1 0.190386 0.320561 0.859252
Si Si2 0.555800 0.108829 0.851257
Si Si3 0.901071 0.148263 0.148173
Si Si4 0.126537 0.003642 0.939001
Si Si5 0.745483 0.648032 0.856109
Si Si6 0.430232 0.076472 0.355636
Si Si7 0.677765 0.376797 0.527377
O O1 0.185753 0.324657 0.750000
O O2 0.237195 0.235867 0.885717
O O3 0.295965 0.384221 0.886617
O O4 0.042535 0.331159 0.888605
O O5 0.591334 0.132161 0.750000
O O6 0.404067 0.124718 0.865040
O O7 0.572716 0.016259 0.859610
O O8 0.635545 0.149936 0.929500
O O9 0.884879 0.175752 0.250000
O O10 0.896378 0.054359 0.144917
O O11 0.783441 0.171535 0.083226
O O12 0.247012 0.958929 0.984327
O O13 0.165589 0.088146 0.908692
O O14 0.000000 0.000000 0.000000
O O15 0.777664 0.643646 0.750000
O O16 0.450446 0.096898 0.250000
O O17 0.549922 0.107849 0.413733
#
# Coordination Sequence:
#
# PCOD9436121 Si02
#       7
#     8   8   8   8   8   8   8
#     4   9  20  36  62  95 126 161 210 259 308 371
#     4  10  20  35  60  90 124 162 206 258 316 374
#     4   9  19  37  61  89 122 163 206 254 309 375
#     4  10  22  35  59  87 125 157 211 253 302 368
#     4  10  20  39  64  91 123 166 211 261 316 366
#     4  10  19  34  60  94 123 159 207 257 308 374
#     4  10  21  34  62  88 122 155 210 255 307 361
#
# _framework density 21.038520999999999
#
# number of rings (size 3 to 8) (size 9 to 14) (size 15 to 20)
#    0.857    1.429    1.429    1.286    2.000    0.000 
#    0.000    3.571    6.286    0.000    0.000    0.000 
#    0.000    1.143    0.000    0.000    0.000    0.000 
#
# Total GULP energy -312499.976604 kJ/mol
# GULP energy per Si atom -5580.356725 kJ/mol
# Density = 2.099064 g / cm^3
# Si number density = 21.038521 Si / 1000 Ang^3
#
#
#
# Elastic Constant Matrix: (Units=GPa)
#
#
# Indices 1 2 3 4 5 6 
#
# 1 133.1248 24.5266 84.5020 0.0000 0.0000 0.0000
# 2 24.5266 58.7420 19.3370 0.0000 0.0000 0.0000
# 3 84.5020 19.3370 113.2419 0.0000 0.0000 0.0000
# 4 0.0000 0.0000 0.0000 8.6944 0.0000 0.0000
# 5 0.0000 0.0000 0.0000 0.0000 28.6568 0.0000
# 6 0.0000 0.0000 0.0000 0.0000 0.0000 14.3336
#
#
#
# Elastic Compliance Matrix: (Units=1/GPa)
#
#
# Indices 1 2 3 4 5 6 
#
# 1 0.014656 -0.002669 -0.010481 0.000000 0.000000 0.000000
# 2 -0.002669 0.018524 -0.001171 0.000000 0.000000 0.000000
# 3 -0.010481 -0.001171 0.016852 0.000000 0.000000 0.000000
# 4 0.000000 0.000000 0.000000 0.115017 0.000000 0.000000
# 5 0.000000 0.000000 0.000000 0.000000 0.034896 0.000000
# 6 0.000000 0.000000 0.000000 0.000000 0.000000 0.069766
#
#
# Mechanical properties :
#
#
# Convention : Reuss Voigt Hill
#
# Bulk Modulus (GPa) = 46.75352 62.42665 54.59009
# Shear Modulus (GPa) = 16.36755 22.11984 19.24369
#
# Velocity S-wave (km/s) = 2.79225 3.24604 3.02766
# Velocity P-wave (km/s) = 5.71547 6.61710 6.18274
#
# Compressibility (1/GPa) = 0.02138877
#
# Stress axis : x y z
#
# Youngs Moduli (GPa) = 68.22971 53.98504 59.34162
#
# Poissons Ratio (x) = 0.14410 0.62195
# Poissons Ratio (y) = 0.18213 0.06950
# Poissons Ratio (z) = 0.71511 0.06323
#
# Static dielectric constant tensor:
#      x y z
#    x 1.725600 0.000000 0.000000 
#    y 0.000000 1.741850 0.000000 
#    z 0.000000 0.000000 1.799090 
# 
# From -- ./inp_files/16770.got.cif
#   From: 2010.05.17/outbox.cif.g08.bks.cpg/sg57_9_cif.got.tgz:16770.got - 2010.06.03 13:58:18.
