data_PCOD9436706
_publ_section_title
;
Structure prediction by ZEFSAII (Michael W. Deem and Ramdas Pophale) SiO2 
 PCOD9436706
Probable space group: P B C M
;
_chemical_formula_sum "Si O2"
_cell_formula_units_Z 64
_cell_length_a 17.425961
_cell_length_b 20.056662
_cell_length_c 9.384114
_cell_angle_alpha 90.000000
_cell_angle_beta 90.000000
_cell_angle_gamma 90.000000
_cell_volume 3279.809870
_symmetry_space_group_name_H-M "P B C M"
_symmetry_group_IT_number 57
_symmetry_cell_setting 'orthorhombic'
loop_
_space_group_symop_operation_xyz
x,y,z
-x,-y,1/2+z
x,1/2-y,-z
-x,1/2+y,1/2-z
-x,-y,-z
x,y,1/2-z
-x,1/2+y,z
x,1/2-y,1/2+z
loop_
_atom_site_type_symbol
_atom_site_label
_atom_site_fract_x
_atom_site_fract_y
_atom_site_fract_z
Si Si1 0.719483 0.318573 0.915452
Si Si2 0.071580 0.465956 0.922000
Si Si3 0.871106 0.818085 0.580261
Si Si4 0.544093 0.813929 0.082090
Si Si5 0.436339 0.906436 0.586656
Si Si6 0.690002 0.841696 0.587148
Si Si7 0.200538 0.574479 0.910435
Si Si8 0.641247 0.505595 0.095769
O O1 0.734686 0.305899 0.750000
O O2 0.638907 0.358923 0.924594
O O3 0.712856 0.250000 0.000000
O O4 0.786467 0.364344 0.983350
O O5 0.061437 0.465671 0.750000
O O6 0.089972 0.388889 0.963754
O O7 0.142469 0.515836 0.953333
O O8 0.000000 0.500000 0.000000
O O9 0.894895 0.750000 0.500000
O O10 0.883889 0.810318 0.750000
O O11 0.779039 0.827098 0.560121
O O12 0.534238 0.809293 0.250000
O O13 0.510213 0.750000 0.000000
O O14 0.501134 0.876832 0.014876
O O15 0.632756 0.816444 0.034177
O O16 0.461707 0.905708 0.750000
O O17 0.410259 0.978589 0.531592
O O18 0.670663 0.818384 0.750000
O O19 0.673422 0.920416 0.586177
O O20 0.179639 0.597160 0.750000
O O21 0.283637 0.540389 0.902564
O O22 0.601942 0.497212 0.250000
#
# Coordination Sequence:
#
# PCOD9436706 Si02
#       8
#     8   8   8   8   8   8   8   8
#     4  10  20  33  53  82 112 146 192 244 295 349
#     4  10  21  39  63  92 123 157 194 234 284 344
#     4  10  21  39  63  92 124 158 198 241 289 348
#     4  12  25  39  54  75 106 147 194 245 300 358
#     4  10  21  36  54  78 110 148 193 246 297 351
#     4  10  20  37  60  84 114 150 191 241 294 348
#     4   9  17  34  58  82 112 150 190 234 285 341
#     4   9  17  33  58  83 108 146 189 234 290 346
#
# _framework density 19.513324999999998
#
# number of rings (size 3 to 8) (size 9 to 14) (size 15 to 20)
#    0.000    2.000    1.250    2.625    0.000    6.000 
#    0.000    0.625    0.000    1.500    0.000    0.000 
#    0.000    0.000    0.000    0.000    0.000    0.000 
#
# Total GULP energy -357151.065913 kJ/mol
# GULP energy per Si atom -5580.485405 kJ/mol
# Density = 1.946891 g / cm^3
# Si number density = 19.513325 Si / 1000 Ang^3
#
#
#
# Elastic Constant Matrix: (Units=GPa)
#
#
# Indices 1 2 3 4 5 6 
#
# 1 64.8204 38.4042 41.4501 0.0000 0.0000 0.0000
# 2 38.4042 125.1399 69.3668 0.0000 0.0000 0.0000
# 3 41.4501 69.3668 121.6023 0.0000 0.0000 0.0000
# 4 0.0000 0.0000 0.0000 33.3836 0.0000 0.0000
# 5 0.0000 0.0000 0.0000 0.0000 24.9716 0.0000
# 6 0.0000 0.0000 0.0000 0.0000 0.0000 13.3507
#
#
#
# Elastic Compliance Matrix: (Units=1/GPa)
#
#
# Indices 1 2 3 4 5 6 
#
# 1 0.020770 -0.003583 -0.005036 0.000000 0.000000 0.000000
# 2 -0.003583 0.012304 -0.005798 0.000000 0.000000 0.000000
# 3 -0.005036 -0.005798 0.013247 0.000000 0.000000 0.000000
# 4 0.000000 0.000000 0.000000 0.029955 0.000000 0.000000
# 5 0.000000 0.000000 0.000000 0.000000 0.040045 0.000000
# 6 0.000000 0.000000 0.000000 0.000000 0.000000 0.074903
#
#
# Mechanical properties :
#
#
# Convention : Reuss Voigt Hill
#
# Bulk Modulus (GPa) = 57.17866 67.77831 62.47849
# Shear Modulus (GPa) = 22.13493 25.16395 23.64944
#
# Velocity S-wave (km/s) = 3.37166 3.59496 3.48510
# Velocity P-wave (km/s) = 6.67259 7.21398 6.94856
#
# Compressibility (1/GPa) = 0.01748904
#
# Stress axis : x y z
#
# Youngs Moduli (GPa) = 48.14564 81.27295 75.48632
#
# Poissons Ratio (x) = 0.29116 0.38017
# Poissons Ratio (y) = 0.17248 0.43764
# Poissons Ratio (z) = 0.24248 0.47119
#
# Static dielectric constant tensor:
#      x y z
#    x 1.689730 0.000000 0.000000 
#    y 0.000000 1.726520 0.000000 
#    z 0.000000 0.000000 1.685210 
# 
# From -- ./inp_files/7126.got.cif
#   From: 2010.05.17/outbox.cif.g08.bks.cpg/sg57_4_cif.got.tgz:7126.got - 2010.06.03 13:58:18.
