data_PCOD9436030
_publ_section_title
;
Structure prediction by ZEFSAII (Michael W. Deem and Ramdas Pophale) SiO2 
 PCOD9436030
Probable space group: P B C M
;
_chemical_formula_sum "Si O2"
_cell_formula_units_Z 48
_cell_length_a 10.465787
_cell_length_b 9.058406
_cell_length_c 25.482839
_cell_angle_alpha 90.000000
_cell_angle_beta 90.000000
_cell_angle_gamma 90.000000
_cell_volume 2415.858448
_symmetry_space_group_name_H-M "P B C M"
_symmetry_group_IT_number 57
_symmetry_cell_setting 'orthorhombic'
loop_
_space_group_symop_operation_xyz
x,y,z
-x,-y,1/2+z
x,1/2-y,-z
-x,1/2+y,1/2-z
-x,-y,-z
x,y,1/2-z
-x,1/2+y,z
x,1/2-y,1/2+z
loop_
_atom_site_type_symbol
_atom_site_label
_atom_site_fract_x
_atom_site_fract_y
_atom_site_fract_z
Si Si1 0.363623 0.916420 0.311748
Si Si2 0.267723 0.464390 0.077031
Si Si3 0.793058 0.218851 0.608255
Si Si4 0.578511 0.781641 0.867529
Si Si5 0.946550 0.762265 0.057219
Si Si6 0.303675 0.053488 0.457220
O O1 0.375481 0.896946 0.250000
O O2 0.231150 0.859529 0.336316
O O3 0.462765 0.811199 0.343172
O O4 0.384085 0.087254 0.327714
O O5 0.276260 0.625846 0.100178
O O6 0.321344 0.347930 0.118731
O O7 0.121018 0.419894 0.065363
O O8 0.329922 0.447485 0.019167
O O9 0.941711 0.250064 0.598542
O O10 0.733098 0.105867 0.565522
O O11 0.582956 0.872586 0.923033
O O12 0.826121 0.649634 0.054306
O O13 0.009494 0.750000 0.000000
#
# Coordination Sequence:
#
# PCOD9436030 Si02
#       6
#     8   8   8   8   8   8
#     4  11  24  42  60  76 101 138 189 246 288 324
#     4  10  19  34  56  86 122 150 178 216 265 334
#     4  11  20  32  56  86 114 153 190 220 268 324
#     4  10  21  39  60  81 103 141 184 226 281 331
#     4   9  17  31  53  83 121 157 183 211 256 323
#     4   9  19  34  54  86 125 154 177 212 264 332
#
# _framework density 19.868715000000002
#
# number of rings (size 3 to 8) (size 9 to 14) (size 15 to 20)
#    0.000    2.000    0.000    5.500    0.000    2.667 
#    0.000   17.500    0.000   20.000    0.000    0.000 
#    0.000    0.000    0.000    0.000    0.000    0.000 
#
# Total GULP energy -267619.938645 kJ/mol
# GULP energy per Si atom -5575.415388 kJ/mol
# Density = 1.982349 g / cm^3
# Si number density = 19.868715 Si / 1000 Ang^3
#
#
#
# Elastic Constant Matrix: (Units=GPa)
#
#
# Indices 1 2 3 4 5 6 
#
# 1 52.1192 23.9524 44.5382 0.0000 0.0000 0.0000
# 2 23.9524 155.0676 39.0612 0.0000 0.0000 0.0000
# 3 44.5382 39.0612 94.3760 0.0000 0.0000 0.0000
# 4 0.0000 0.0000 0.0000 21.6557 0.0000 0.0000
# 5 0.0000 0.0000 0.0000 0.0000 16.9066 0.0000
# 6 0.0000 0.0000 0.0000 0.0000 0.0000 15.2407
#
#
#
# Elastic Compliance Matrix: (Units=1/GPa)
#
#
# Indices 1 2 3 4 5 6 
#
# 1 0.032382 -0.001287 -0.014749 0.000000 0.000000 0.000000
# 2 -0.001287 0.007251 -0.002394 0.000000 0.000000 0.000000
# 3 -0.014749 -0.002394 0.018547 0.000000 0.000000 0.000000
# 4 0.000000 0.000000 0.000000 0.046177 0.000000 0.000000
# 5 0.000000 0.000000 0.000000 0.000000 0.059149 0.000000
# 6 0.000000 0.000000 0.000000 0.000000 0.000000 0.065614
#
#
# Mechanical properties :
#
#
# Convention : Reuss Voigt Hill
#
# Bulk Modulus (GPa) = 46.90324 57.40735 52.15530
# Shear Modulus (GPa) = 18.30929 23.69466 21.00198
#
# Velocity S-wave (km/s) = 3.03894 3.45709 3.25474
# Velocity P-wave (km/s) = 5.99761 6.70010 6.35857
#
# Compressibility (1/GPa) = 0.02132049
#
# Stress axis : x y z
#
# Youngs Moduli (GPa) = 30.88134 137.92141 53.91648
#
# Poissons Ratio (x) = 0.17744 0.79523
# Poissons Ratio (y) = 0.03973 0.12906
# Poissons Ratio (z) = 0.45548 0.33015
#
# Static dielectric constant tensor:
#      x y z
#    x 1.784030 0.000000 0.000000 
#    y 0.000000 1.742840 0.000000 
#    z 0.000000 0.000000 1.671480 
# 
# From -- ./inp_files/27080.got.cif
#   From: 2010.05.17/outbox.cif.g08.bks.cpg/sg57_14_cif.got.tgz:27080.got - 2010.06.03 13:58:18.
