data_PCOD9436485
_publ_section_title
;
Structure prediction by ZEFSAII (Michael W. Deem and Ramdas Pophale) SiO2 
 PCOD9436485
Probable space group: P B C M
;
_chemical_formula_sum "Si O2"
_cell_formula_units_Z 64
_cell_length_a 17.236648
_cell_length_b 8.619544
_cell_length_c 25.204355
_cell_angle_alpha 90.000000
_cell_angle_beta 90.000000
_cell_angle_gamma 90.000000
_cell_volume 3744.662587
_symmetry_space_group_name_H-M "P B C M"
_symmetry_group_IT_number 57
_symmetry_cell_setting 'orthorhombic'
loop_
_space_group_symop_operation_xyz
x,y,z
-x,-y,1/2+z
x,1/2-y,-z
-x,1/2+y,1/2-z
-x,-y,-z
x,y,1/2-z
-x,1/2+y,z
x,1/2-y,1/2+z
loop_
_atom_site_type_symbol
_atom_site_label
_atom_site_fract_x
_atom_site_fract_y
_atom_site_fract_z
Si Si1 0.320353 0.867902 0.687515
Si Si2 0.461562 0.677648 0.685242
Si Si3 0.170500 0.805329 0.309544
Si Si4 0.943965 0.357150 0.611680
Si Si5 0.961807 0.873683 0.038546
Si Si6 0.610837 0.852235 0.814403
Si Si7 0.238475 0.318739 0.314716
Si Si8 0.091156 0.138990 0.188662
O O1 0.332857 0.901690 0.750000
O O2 0.273597 0.016962 0.666992
O O3 0.403501 0.814409 0.666770
O O4 0.261900 0.721969 0.683751
O O5 0.459795 0.676126 0.750000
O O6 0.425936 0.514409 0.667627
O O7 0.549545 0.717571 0.670646
O O8 0.152324 0.745053 0.250000
O O9 0.141204 0.981011 0.311617
O O10 0.124447 0.709762 0.353060
O O11 0.973926 0.227949 0.569754
O O12 0.017748 0.381177 0.650735
O O13 0.921939 0.515588 0.581701
O O14 0.918957 0.750000 0.000000
O O15 0.000000 0.000000 0.000000
O O16 0.612960 0.857660 0.750000
O O17 0.697382 0.808354 0.831417
O O18 0.236016 0.319841 0.250000
O O19 0.151386 0.271413 0.329764
O O20 0.066927 0.168673 0.250000
#
# Coordination Sequence:
#
# PCOD9436485 Si02
#       8
#     8   8   8   8   8   8   8   8
#     4   9  17  27  38  54  80 113 149 189 225 256
#     4   9  15  23  36  52  72 103 147 192 226 257
#     4  10  20  31  43  64  94 125 155 186 221 267
#     4  11  19  34  51  70  89 118 153 185 230 276
#     4   9  20  36  54  70  86 106 144 195 238 280
#     4   9  15  23  36  52  72 103 147 192 226 257
#     4   9  17  27  38  54  80 113 149 189 225 256
#     4  10  20  31  43  64  94 125 155 186 221 267
#
# _framework density 17.090993000000001
#
# number of rings (size 3 to 8) (size 9 to 14) (size 15 to 20)
#    0.000    2.500    1.250    1.875    1.750    6.000 
#    0.000    0.000    0.000    0.000    0.000    0.000 
#    0.000    0.000    0.000    0.000    0.000   25.000 
#
# Total GULP energy -356423.597199 kJ/mol
# GULP energy per Si atom -5569.118706 kJ/mol
# Density = 1.705209 g / cm^3
# Si number density = 17.090993 Si / 1000 Ang^3
#
#
#
# Elastic Constant Matrix: (Units=GPa)
#
#
# Indices 1 2 3 4 5 6 
#
# 1 36.9597 -6.9083 13.6554 0.0000 0.0000 0.0000
# 2 -6.9083 58.1072 18.9584 0.0000 0.0000 0.0000
# 3 13.6554 18.9584 45.7587 0.0000 0.0000 0.0000
# 4 0.0000 0.0000 0.0000 27.0374 0.0000 0.0000
# 5 0.0000 0.0000 0.0000 0.0000 -0.2155 0.0000
# 6 0.0000 0.0000 0.0000 0.0000 0.0000 23.9475
#
#
#
# Elastic Compliance Matrix: (Units=1/GPa)
#
#
# Indices 1 2 3 4 5 6 
#
# 1 0.033622 0.008407 -0.013517 0.000000 0.000000 0.000000
# 2 0.008407 0.022002 -0.011625 0.000000 0.000000 0.000000
# 3 -0.013517 -0.011625 0.030704 0.000000 0.000000 0.000000
# 4 0.000000 0.000000 0.000000 0.036986 0.000000 0.000000
# 5 0.000000 0.000000 0.000000 0.000000 -4.640699 0.000000
# 6 0.000000 0.000000 0.000000 0.000000 0.000000 0.041758
#
#
# Mechanical properties :
#
#
# Convention : Reuss Voigt Hill
#
# Bulk Modulus (GPa) = 18.91809 21.35961 20.13885
# Shear Modulus (GPa) = -1.13006 17.82855 8.34925
#
# Velocity S-wave (km/s) = -0.81403 3.23329 2.21264
# Velocity P-wave (km/s) = 3.19524 5.14428 4.28213
#
# Compressibility (1/GPa) = 0.05285947
#
# Stress axis : x y z
#
# Youngs Moduli (GPa) = 29.74244 45.45077 32.56937
#
# Poissons Ratio (x) = -0.38212 0.44023
# Poissons Ratio (y) = -0.25006 0.37861
# Poissons Ratio (z) = 0.40202 0.52835
#
# Static dielectric constant tensor:
#      x y z
#    x 1.586000 0.000000 0.000000 
#    y 0.000000 1.661270 0.000000 
#    z 0.000000 0.000000 1.565270 
# 
# From -- ./inp_files/27589.got.cif
#   From: 2010.05.17/outbox.cif.g08.bks.cpg/sg57_14_cif.got.tgz:27589.got - 2010.06.03 13:58:18.
