data_PCOD9436036
_publ_section_title
;
Structure prediction by ZEFSAII (Michael W. Deem and Ramdas Pophale) SiO2 
 PCOD9436036
Probable space group: P B C M
;
_chemical_formula_sum "Si O2"
_cell_formula_units_Z 48
_cell_length_a 8.674570
_cell_length_b 15.873610
_cell_length_c 18.239540
_cell_angle_alpha 90.000000
_cell_angle_beta 90.000000
_cell_angle_gamma 90.000000
_cell_volume 2511.525217
_symmetry_space_group_name_H-M "P B C M"
_symmetry_group_IT_number 57
_symmetry_cell_setting 'orthorhombic'
loop_
_space_group_symop_operation_xyz
x,y,z
-x,-y,1/2+z
x,1/2-y,-z
-x,1/2+y,1/2-z
-x,-y,-z
x,y,1/2-z
-x,1/2+y,z
x,1/2-y,1/2+z
loop_
_atom_site_type_symbol
_atom_site_label
_atom_site_fract_x
_atom_site_fract_y
_atom_site_fract_z
Si Si1 0.031338 0.063975 0.335168
Si Si2 0.961962 0.834145 0.463970
Si Si3 0.759486 0.111718 0.439631
Si Si4 0.747711 0.535720 0.041553
Si Si5 0.456273 0.196872 0.074607
Si Si6 0.825771 0.746454 0.666394
O O1 0.022242 0.038414 0.250000
O O2 0.151557 0.012044 0.386218
O O3 0.099319 0.159904 0.337438
O O4 0.867900 0.071203 0.376844
O O5 0.887902 0.750000 0.500000
O O6 0.869321 0.915115 0.489985
O O7 0.936165 0.815762 0.379255
O O8 0.125606 0.842303 0.503203
O O9 0.631905 0.173181 0.405848
O O10 0.687312 0.040506 0.492680
O O11 0.624923 0.606223 0.062978
O O12 0.344404 0.245853 0.130698
O O13 0.463164 0.250000 0.000000
O O14 0.814278 0.720721 0.750000
#
# Coordination Sequence:
#
# PCOD9436036 Si02
#       6
#     8   8   8   8   8   8
#     4   9  18  33  54  80 109 143 183 223 273 330
#     4  11  16  35  55  79 106 140 188 228 265 322
#     4  11  22  31  57  86 112 140 184 239 276 321
#     4  10  19  36  54  81 110 143 186 223 276 336
#     4  11  20  36  58  79 107 146 188 228 272 330
#     4  10  19  34  57  79 106 145 185 226 273 328
#
# _framework density 19.111892999999998
#
# number of rings (size 3 to 8) (size 9 to 14) (size 15 to 20)
#    0.000    1.667    6.667    3.000    0.000    0.667 
#    0.000    3.333    0.000    1.000    0.000    0.000 
#    0.000    0.000    0.000    0.000    0.000    0.000 
#
# Total GULP energy -267514.235507 kJ/mol
# GULP energy per Si atom -5573.213240 kJ/mol
# Density = 1.906839 g / cm^3
# Si number density = 19.111893 Si / 1000 Ang^3
#
#
#
# Elastic Constant Matrix: (Units=GPa)
#
#
# Indices 1 2 3 4 5 6 
#
# 1 79.0595 -2.5742 20.8608 0.0000 0.0000 0.0000
# 2 -2.5742 20.3595 10.7260 0.0000 0.0000 0.0000
# 3 20.8608 10.7260 132.6703 0.0000 0.0000 0.0000
# 4 0.0000 0.0000 0.0000 21.8429 0.0000 0.0000
# 5 0.0000 0.0000 0.0000 0.0000 18.1534 0.0000
# 6 0.0000 0.0000 0.0000 0.0000 0.0000 23.7358
#
#
#
# Elastic Compliance Matrix: (Units=1/GPa)
#
#
# Indices 1 2 3 4 5 6 
#
# 1 0.013360 0.002920 -0.002337 0.000000 0.000000 0.000000
# 2 0.002920 0.051940 -0.004658 0.000000 0.000000 0.000000
# 3 -0.002337 -0.004658 0.008282 0.000000 0.000000 0.000000
# 4 0.000000 0.000000 0.000000 0.045781 0.000000 0.000000
# 5 0.000000 0.000000 0.000000 0.000000 0.055086 0.000000
# 6 0.000000 0.000000 0.000000 0.000000 0.000000 0.042130
#
#
# Mechanical properties :
#
#
# Convention : Reuss Voigt Hill
#
# Bulk Modulus (GPa) = 15.28290 32.23493 23.75891
# Shear Modulus (GPa) = 20.28061 26.28489 23.28275
#
# Velocity S-wave (km/s) = 3.26107 3.71255 3.49411
# Velocity P-wave (km/s) = 4.71098 5.93973 5.36068
#
# Compressibility (1/GPa) = 0.06543262
#
# Stress axis : x y z
#
# Youngs Moduli (GPa) = 74.84805 19.25282 120.75045
#
# Poissons Ratio (x) = -0.05623 0.28218
# Poissons Ratio (y) = -0.21859 0.56251
# Poissons Ratio (z) = 0.17491 0.08969
#
# Static dielectric constant tensor:
#      x y z
#    x 1.716260 0.000000 0.000000 
#    y 0.000000 1.706290 0.000000 
#    z 0.000000 0.000000 1.685270 
# 
# From -- ./inp_files/20945.got.cif
#   From: 2010.05.17/outbox.cif.g08.bks.cpg/sg57_11_cif.got.tgz:20945.got - 2010.06.03 13:58:18.
