data_PCOD9436144
_publ_section_title
;
Structure prediction by ZEFSAII (Michael W. Deem and Ramdas Pophale) SiO2 
 PCOD9436144
Probable space group: P B C M
;
_chemical_formula_sum "Si O2"
_cell_formula_units_Z 64
_cell_length_a 12.745059
_cell_length_b 31.678974
_cell_length_c 7.801227
_cell_angle_alpha 90.000000
_cell_angle_beta 90.000000
_cell_angle_gamma 90.000000
_cell_volume 3149.748465
_symmetry_space_group_name_H-M "P B C M"
_symmetry_group_IT_number 57
_symmetry_cell_setting 'orthorhombic'
loop_
_space_group_symop_operation_xyz
x,y,z
-x,-y,1/2+z
x,1/2-y,-z
-x,1/2+y,1/2-z
-x,-y,-z
x,y,1/2-z
-x,1/2+y,z
x,1/2-y,1/2+z
loop_
_atom_site_type_symbol
_atom_site_label
_atom_site_fract_x
_atom_site_fract_y
_atom_site_fract_z
Si Si1 0.975469 0.201121 0.954227
Si Si2 0.750173 0.436721 0.550350
Si Si3 0.357985 0.112113 0.041391
Si Si4 0.127528 0.125004 0.045155
Si Si5 0.414242 0.629987 0.049214
Si Si6 0.617705 0.985924 0.546018
Si Si7 0.981722 0.049053 0.042617
Si Si8 0.739937 0.201389 0.545183
O O1 0.971648 0.199080 0.750000
O O2 0.857628 0.190429 0.018877
O O3 0.998675 0.250000 0.000000
O O4 0.058257 0.166509 0.014290
O O5 0.761396 0.424533 0.750000
O O6 0.662914 0.405611 0.471630
O O7 0.701198 0.483147 0.539186
O O8 0.866918 0.436782 0.476251
O O9 0.356294 0.116265 0.250000
O O10 0.246288 0.129040 0.977602
O O11 0.467840 0.131686 0.978413
O O12 0.364958 0.062555 0.999164
O O13 0.135162 0.119558 0.250000
O O14 0.068351 0.082719 0.980308
O O15 0.427063 0.618537 0.250000
O O16 0.349858 0.672740 0.033630
O O17 0.630841 0.989511 0.750000
O O18 0.500000 0.000000 0.500000
O O19 0.980289 0.051314 0.250000
O O20 0.000000 0.000000 0.000000
O O21 0.723507 0.250000 0.500000
O O22 0.737414 0.195927 0.750000
#
# Coordination Sequence:
#
# PCOD9436144 Si02
#       8
#     8   8   8   8   8   8   8   8
#     4  10  21  38  61  88 115 142 178 228 282 338
#     4  10  20  34  52  77 108 143 184 228 277 327
#     4   9  19  35  55  78 108 147 188 228 272 325
#     4  10  20  37  59  82 110 150 194 233 281 336
#     4  10  19  35  56  78 108 142 178 223 270 318
#     4  11  20  34  54  77 107 145 188 232 276 324
#     4  10  21  35  53  78 112 152 191 235 284 337
#     4  10  21  37  58  85 112 138 172 216 271 331
#
# _framework density 20.319082000000002
#
# number of rings (size 3 to 8) (size 9 to 14) (size 15 to 20)
#    0.000    2.000    1.250    2.625    0.000    5.000 
#    0.000    2.500    0.000    0.000    0.000    0.000 
#    0.000    0.000    0.000    0.000    0.000    0.000 
#
# Total GULP energy -357310.563107 kJ/mol
# GULP energy per Si atom -5582.977549 kJ/mol
# Density = 2.027283 g / cm^3
# Si number density = 20.319082 Si / 1000 Ang^3
#
#
#
# Elastic Constant Matrix: (Units=GPa)
#
#
# Indices 1 2 3 4 5 6 
#
# 1 211.5020 93.1560 8.0615 0.0000 0.0000 0.0000
# 2 93.1560 88.1174 -8.0881 0.0000 0.0000 0.0000
# 3 8.0615 -8.0881 26.9961 0.0000 0.0000 0.0000
# 4 0.0000 0.0000 0.0000 27.0830 0.0000 0.0000
# 5 0.0000 0.0000 0.0000 0.0000 8.1385 0.0000
# 6 0.0000 0.0000 0.0000 0.0000 0.0000 36.6909
#
#
#
# Elastic Compliance Matrix: (Units=1/GPa)
#
#
# Indices 1 2 3 4 5 6 
#
# 1 0.009755 -0.010880 -0.006173 0.000000 0.000000 0.000000
# 2 -0.010880 0.023803 0.010380 0.000000 0.000000 0.000000
# 3 -0.006173 0.010380 0.041996 0.000000 0.000000 0.000000
# 4 0.000000 0.000000 0.000000 0.036924 0.000000 0.000000
# 5 0.000000 0.000000 0.000000 0.000000 0.122873 0.000000
# 6 0.000000 0.000000 0.000000 0.000000 0.000000 0.027255
#
#
# Mechanical properties :
#
#
# Convention : Reuss Voigt Hill
#
# Bulk Modulus (GPa) = 16.07459 56.98602 36.53030
# Shear Modulus (GPa) = 16.85279 29.94820 23.40049
#
# Velocity S-wave (km/s) = 2.88307 3.84330 3.39728
# Velocity P-wave (km/s) = 4.36016 6.91383 5.77980
#
# Compressibility (1/GPa) = 0.06220999
#
# Stress axis : x y z
#
# Youngs Moduli (GPa) = 102.50803 42.01129 23.81196
#
# Poissons Ratio (x) = 0.45707 0.14698
# Poissons Ratio (y) = 1.11526 -0.24718
# Poissons Ratio (z) = 0.63275 -0.43609
#
# Static dielectric constant tensor:
#      x y z
#    x 1.749190 0.000000 0.000000 
#    y 0.000000 1.678100 0.000000 
#    z 0.000000 0.000000 1.762680 
# 
# From -- ./inp_files/3788.got.cif
#   From: 2010.05.17/outbox.cif.g08.bks.cpg/sg57_2_cif.got.tgz:3788.got - 2010.06.03 13:58:18.
