data_PCOD9436230
_publ_section_title
;
Structure prediction by ZEFSAII (Michael W. Deem and Ramdas Pophale) SiO2 
 PCOD9436230
Probable space group: P B C M
;
_chemical_formula_sum "Si O2"
_cell_formula_units_Z 64
_cell_length_a 11.950832
_cell_length_b 18.611629
_cell_length_c 13.660216
_cell_angle_alpha 90.000000
_cell_angle_beta 90.000000
_cell_angle_gamma 90.000000
_cell_volume 3038.366050
_symmetry_space_group_name_H-M "P B C M"
_symmetry_group_IT_number 57
_symmetry_cell_setting 'orthorhombic'
loop_
_space_group_symop_operation_xyz
x,y,z
-x,-y,1/2+z
x,1/2-y,-z
-x,1/2+y,1/2-z
-x,-y,-z
x,y,1/2-z
-x,1/2+y,z
x,1/2-y,1/2+z
loop_
_atom_site_type_symbol
_atom_site_label
_atom_site_fract_x
_atom_site_fract_y
_atom_site_fract_z
Si Si1 0.791875 0.205226 0.862399
Si Si2 0.295801 0.931158 0.633045
Si Si3 0.103229 0.411077 0.930112
Si Si4 0.765243 0.683288 0.940971
Si Si5 0.017429 0.235661 0.140003
Si Si6 0.577665 0.327443 0.005747
Si Si7 0.118535 0.565351 0.548012
Si Si8 0.413361 0.086950 0.858590
O O1 0.763634 0.220212 0.750000
O O2 0.889356 0.260396 0.896576
O O3 0.681840 0.195916 0.925979
O O4 0.850314 0.128877 0.879918
O O5 0.265678 0.921756 0.750000
O O6 0.372626 0.865594 0.591775
O O7 0.195005 0.935355 0.551883
O O8 0.361692 0.007404 0.626148
O O9 0.058737 0.346238 0.864488
O O10 0.007364 0.422670 0.011506
O O11 0.211966 0.379818 0.982063
O O12 0.127577 0.490413 0.894473
O O13 0.686303 0.646326 0.862515
O O14 0.886619 0.714472 0.907317
O O15 0.716215 0.750000 0.000000
O O16 0.009193 0.261392 0.250000
O O17 0.501573 0.386218 0.060842
O O18 0.518030 0.250000 0.000000
O O19 0.464886 0.088036 0.750000
#
# Coordination Sequence:
#
# PCOD9436230 Si02
#       8
#     8   8   8   8   8   8   8   8
#     4  10  22  38  59  88 124 164 206 256 309 369
#     4  10  23  41  66  94 123 159 208 261 314 371
#     4  10  20  34  56  84 121 163 203 246 303 363
#     4  10  19  35  59  85 123 161 204 250 310 362
#     4  10  21  35  56  87 122 159 203 253 306 363
#     4  11  25  42  65  90 125 162 208 256 318 367
#     4  10  20  37  58  88 122 163 202 249 307 367
#     4  11  22  41  65  92 120 160 209 258 311 373
#
# _framework density 21.063953000000001
#
# number of rings (size 3 to 8) (size 9 to 14) (size 15 to 20)
#    0.000    1.750    2.500    1.500    3.500    2.000 
#    0.000    1.875    0.000    0.750    0.000    0.000 
#    0.000    0.000    0.000    0.000    0.000    0.000 
#
# Total GULP energy -356631.794099 kJ/mol
# GULP energy per Si atom -5572.371783 kJ/mol
# Density = 2.101601 g / cm^3
# Si number density = 21.063953 Si / 1000 Ang^3
#
#
#
# Elastic Constant Matrix: (Units=GPa)
#
#
# Indices 1 2 3 4 5 6 
#
# 1 63.5117 3.8407 12.5432 0.0000 0.0000 0.0000
# 2 3.8407 109.2988 13.6057 0.0000 0.0000 0.0000
# 3 12.5432 13.6057 86.3808 0.0000 0.0000 0.0000
# 4 0.0000 0.0000 0.0000 23.8592 0.0000 0.0000
# 5 0.0000 0.0000 0.0000 0.0000 23.6107 0.0000
# 6 0.0000 0.0000 0.0000 0.0000 0.0000 8.7761
#
#
#
# Elastic Compliance Matrix: (Units=1/GPa)
#
#
# Indices 1 2 3 4 5 6 
#
# 1 0.016219 -0.000282 -0.002311 0.000000 0.000000 0.000000
# 2 -0.000282 0.009337 -0.001430 0.000000 0.000000 0.000000
# 3 -0.002311 -0.001430 0.012137 0.000000 0.000000 0.000000
# 4 0.000000 0.000000 0.000000 0.041912 0.000000 0.000000
# 5 0.000000 0.000000 0.000000 0.000000 0.042354 0.000000
# 6 0.000000 0.000000 0.000000 0.000000 0.000000 0.113946
#
#
# Mechanical properties :
#
#
# Convention : Reuss Voigt Hill
#
# Bulk Modulus (GPa) = 33.72922 35.46337 34.59629
# Shear Modulus (GPa) = 19.69799 26.52932 23.11366
#
# Velocity S-wave (km/s) = 3.06134 3.55275 3.31616
# Velocity P-wave (km/s) = 5.34259 5.80534 5.57876
#
# Compressibility (1/GPa) = 0.02964789
#
# Stress axis : x y z
#
# Youngs Moduli (GPa) = 61.65783 107.09936 82.39032
#
# Poissons Ratio (x) = 0.03023 0.19037
# Poissons Ratio (y) = 0.01740 0.11779
# Poissons Ratio (z) = 0.14247 0.15312
#
# Static dielectric constant tensor:
#      x y z
#    x 1.785910 0.000000 0.000000 
#    y 0.000000 1.412840 0.000000 
#    z 0.000000 0.000000 1.763550 
# 
# From -- ./inp_files/17997.got.cif
#   From: 2010.05.17/outbox.cif.g08.bks.cpg/sg57_9_cif.got.tgz:17997.got - 2010.06.03 13:58:18.
