data_PCOD9436004
_publ_section_title
;
Structure prediction by ZEFSAII (Michael W. Deem and Ramdas Pophale) SiO2 
 PCOD9436004
Probable space group: P B C M
;
_chemical_formula_sum "Si O2"
_cell_formula_units_Z 64
_cell_length_a 12.521346
_cell_length_b 21.689954
_cell_length_c 11.766684
_cell_angle_alpha 90.000000
_cell_angle_beta 90.000000
_cell_angle_gamma 90.000000
_cell_volume 3195.683335
_symmetry_space_group_name_H-M "P B C M"
_symmetry_group_IT_number 57
_symmetry_cell_setting 'orthorhombic'
loop_
_space_group_symop_operation_xyz
x,y,z
-x,-y,1/2+z
x,1/2-y,-z
-x,1/2+y,1/2-z
-x,-y,-z
x,y,1/2-z
-x,1/2+y,z
x,1/2-y,1/2+z
loop_
_atom_site_type_symbol
_atom_site_label
_atom_site_fract_x
_atom_site_fract_y
_atom_site_fract_z
Si Si1 0.251819 0.809626 0.876066
Si Si2 0.041208 0.769836 0.376566
Si Si3 0.498996 0.280001 0.621442
Si Si4 0.798392 0.433982 0.499460
Si Si5 0.434503 0.410570 0.950918
Si Si6 0.246380 0.057791 0.882454
Si Si7 0.599639 0.453298 0.128951
Si Si8 0.002421 0.085379 0.878227
O O1 0.245485 0.837445 0.750000
O O2 0.162194 0.756501 0.880109
O O3 0.372023 0.785489 0.888431
O O4 0.221781 0.864968 0.958892
O O5 0.992963 0.750000 0.500000
O O6 0.998844 0.748740 0.250000
O O7 0.032316 0.843195 0.374465
O O8 0.463611 0.250000 0.500000
O O9 0.476994 0.253507 0.750000
O O10 0.448726 0.348451 0.618198
O O11 0.757194 0.484865 0.588608
O O12 0.724948 0.444673 0.389513
O O13 0.920929 0.444351 0.466852
O O14 0.333324 0.411604 0.035561
O O15 0.539016 0.418310 0.029237
O O16 0.426624 0.474264 0.881657
O O17 0.270677 0.067686 0.750000
O O18 0.127025 0.081500 0.907228
O O19 0.563845 0.429303 0.250000
O O20 0.990955 0.059415 0.750000
#
# Coordination Sequence:
#
# PCOD9436004 Si02
#       8
#     8   8   8   8   8   8   8   8
#     4  10  20  34  56  88 123 154 188 239 307 374
#     4  10  19  34  56  81 115 153 193 239 294 355
#     4  11  24  41  62  92 127 164 204 255 313 374
#     4  11  19  34  57  86 122 153 194 250 312 370
#     4  10  21  39  59  83 119 164 204 253 303 366
#     4  10  22  38  58  85 118 163 211 255 306 367
#     4  10  20  33  57  90 120 154 198 248 310 371
#     4  10  21  36  56  83 119 160 203 256 309 363
#
# _framework density 20.027017000000001
#
# number of rings (size 3 to 8) (size 9 to 14) (size 15 to 20)
#    0.000    1.750    2.500    2.250    0.000    1.000 
#    0.000    0.625    0.000    7.500    0.000    0.000 
#    0.000    0.000    0.000    0.000    0.000    0.000 
#
# Total GULP energy -356722.394759 kJ/mol
# GULP energy per Si atom -5573.787418 kJ/mol
# Density = 1.998143 g / cm^3
# Si number density = 20.027017 Si / 1000 Ang^3
#
#
#
# Elastic Constant Matrix: (Units=GPa)
#
#
# Indices 1 2 3 4 5 6 
#
# 1 66.7839 7.1437 13.3221 0.0000 0.0000 0.0000
# 2 7.1437 53.6222 11.9542 0.0000 0.0000 0.0000
# 3 13.3221 11.9542 127.0358 0.0000 0.0000 0.0000
# 4 0.0000 0.0000 0.0000 11.3706 0.0000 0.0000
# 5 0.0000 0.0000 0.0000 0.0000 6.8141 0.0000
# 6 0.0000 0.0000 0.0000 0.0000 0.0000 14.7601
#
#
#
# Elastic Compliance Matrix: (Units=1/GPa)
#
#
# Indices 1 2 3 4 5 6 
#
# 1 0.015450 -0.001733 -0.001457 0.000000 0.000000 0.000000
# 2 -0.001733 0.019243 -0.001629 0.000000 0.000000 0.000000
# 3 -0.001457 -0.001629 0.008178 0.000000 0.000000 0.000000
# 4 0.000000 0.000000 0.000000 0.087946 0.000000 0.000000
# 5 0.000000 0.000000 0.000000 0.000000 0.146755 0.000000
# 6 0.000000 0.000000 0.000000 0.000000 0.000000 0.067750
#
#
# Mechanical properties :
#
#
# Convention : Reuss Voigt Hill
#
# Bulk Modulus (GPa) = 30.09173 34.69797 32.39485
# Shear Modulus (GPa) = 13.65976 20.92374 17.29175
#
# Velocity S-wave (km/s) = 2.61447 3.23581 2.94159
# Velocity P-wave (km/s) = 4.91652 5.59677 5.26763
#
# Compressibility (1/GPa) = 0.03323172
#
# Stress axis : x y z
#
# Youngs Moduli (GPa) = 64.72599 51.96668 122.28091
#
# Poissons Ratio (x) = 0.09008 0.17817
# Poissons Ratio (y) = 0.11220 0.19920
# Poissons Ratio (z) = 0.09431 0.08465
#
# Static dielectric constant tensor:
#      x y z
#    x 1.689070 0.000000 0.000000 
#    y 0.000000 1.686580 0.000000 
#    z 0.000000 0.000000 1.783700 
# 
# From -- ./inp_files/13250.got.cif
#   From: 2010.05.17/outbox.cif.g08.bks.cpg/sg57_7_cif.got.tgz:13250.got - 2010.06.03 13:58:18.
