data_PCOD9436258
_publ_section_title
;
Structure prediction by ZEFSAII (Michael W. Deem and Ramdas Pophale) SiO2 
 PCOD9436258
Probable space group: P B C M
;
_chemical_formula_sum "Si O2"
_cell_formula_units_Z 64
_cell_length_a 10.471581
_cell_length_b 19.039674
_cell_length_c 18.226818
_cell_angle_alpha 90.000000
_cell_angle_beta 90.000000
_cell_angle_gamma 90.000000
_cell_volume 3633.980743
_symmetry_space_group_name_H-M "P B C M"
_symmetry_group_IT_number 57
_symmetry_cell_setting 'orthorhombic'
loop_
_space_group_symop_operation_xyz
x,y,z
-x,-y,1/2+z
x,1/2-y,-z
-x,1/2+y,1/2-z
-x,-y,-z
x,y,1/2-z
-x,1/2+y,z
x,1/2-y,1/2+z
loop_
_atom_site_type_symbol
_atom_site_label
_atom_site_fract_x
_atom_site_fract_y
_atom_site_fract_z
Si Si1 0.540482 0.416070 0.162454
Si Si2 0.569884 0.796526 0.573844
Si Si3 0.657118 0.272176 0.161582
Si Si4 0.241075 0.948359 0.663293
Si Si5 0.757897 0.891798 0.336497
Si Si6 0.088743 0.809446 0.837636
Si Si7 0.843386 0.754937 0.412386
Si Si8 0.497552 0.045196 0.426150
O O1 0.543549 0.420584 0.250000
O O2 0.630870 0.352433 0.138310
O O3 0.393365 0.395462 0.142969
O O4 0.571611 0.491851 0.129734
O O5 0.558056 0.750000 0.500000
O O6 0.454620 0.774157 0.626526
O O7 0.706522 0.778229 0.608384
O O8 0.562985 0.879323 0.559121
O O9 0.647339 0.268662 0.250000
O O10 0.794233 0.241707 0.140481
O O11 0.279304 0.940324 0.750000
O O12 0.138387 0.888286 0.646976
O O13 0.364011 0.941364 0.610991
O O14 0.193782 0.028346 0.655044
O O15 0.765071 0.873036 0.250000
O O16 0.832322 0.834909 0.383999
O O17 0.071832 0.803519 0.750000
O O18 0.960479 0.785786 0.876629
O O19 0.854184 0.750000 0.500000
O O20 0.500000 0.000000 0.500000
#
# Coordination Sequence:
#
# PCOD9436258 Si02
#       8
#     8   8   8   8   8   8   8   8
#     4   9  18  34  56  86 116 144 187 240 289 343
#     4  11  23  37  56  84 121 152 189 240 289 347
#     4  10  19  35  61  87 111 143 192 244 293 342
#     4   9  19  37  61  85 113 149 196 240 287 352
#     4   9  17  34  61  83 108 151 193 231 284 347
#     4  10  21  40  60  84 116 155 199 244 293 347
#     4  11  24  38  55  83 122 155 196 237 285 347
#     4  11  21  33  56  88 118 150 186 236 296 346
#
# _framework density 17.611540000000002
#
# number of rings (size 3 to 8) (size 9 to 14) (size 15 to 20)
#    0.000    2.000    2.500    2.250    5.250    1.500 
#    2.250    1.875    0.000    3.000    0.000    0.000 
#    0.000    0.000    0.000    0.000    0.000    0.000 
#
# Total GULP energy -356998.072091 kJ/mol
# GULP energy per Si atom -5578.094876 kJ/mol
# Density = 1.757146 g / cm^3
# Si number density = 17.611540 Si / 1000 Ang^3
#
#
#
# Elastic Constant Matrix: (Units=GPa)
#
#
# Indices 1 2 3 4 5 6 
#
# 1 71.2778 31.4669 28.0760 0.0000 0.0000 0.0000
# 2 31.4669 142.3355 35.0547 0.0000 0.0000 0.0000
# 3 28.0760 35.0547 40.2062 0.0000 0.0000 0.0000
# 4 0.0000 0.0000 0.0000 27.6416 0.0000 0.0000
# 5 0.0000 0.0000 0.0000 0.0000 14.0516 0.0000
# 6 0.0000 0.0000 0.0000 0.0000 0.0000 19.2800
#
#
#
# Elastic Compliance Matrix: (Units=1/GPa)
#
#
# Indices 1 2 3 4 5 6 
#
# 1 0.019518 -0.001220 -0.012565 0.000000 0.000000 0.000000
# 2 -0.001220 0.009023 -0.007015 0.000000 0.000000 0.000000
# 3 -0.012565 -0.007015 0.039762 0.000000 0.000000 0.000000
# 4 0.000000 0.000000 0.000000 0.036177 0.000000 0.000000
# 5 0.000000 0.000000 0.000000 0.000000 0.071166 0.000000
# 6 0.000000 0.000000 0.000000 0.000000 0.000000 0.051867
#
#
# Mechanical properties :
#
#
# Convention : Reuss Voigt Hill
#
# Bulk Modulus (GPa) = 37.45021 49.22386 43.33703
# Shear Modulus (GPa) = 17.98462 22.80944 20.39703
#
# Velocity S-wave (km/s) = 3.19906 3.60271 3.40687
# Velocity P-wave (km/s) = 5.91237 6.73175 6.33532
#
# Compressibility (1/GPa) = 0.02670212
#
# Stress axis : x y z
#
# Youngs Moduli (GPa) = 51.23551 110.82721 25.14957
#
# Poissons Ratio (x) = 0.13524 0.31601
# Poissons Ratio (y) = 0.06252 0.17642
# Poissons Ratio (z) = 0.64379 0.77743
#
# Static dielectric constant tensor:
#      x y z
#    x 1.574520 0.000000 0.000000 
#    y 0.000000 1.625720 0.000000 
#    z 0.000000 0.000000 1.628560 
# 
# From -- ./inp_files/24611.got.cif
#   From: 2010.05.17/outbox.cif.g08.bks.cpg/sg57_13_cif.got.tgz:24611.got - 2010.06.03 13:58:18.
