data_PCOD9436695
_publ_section_title
;
Structure prediction by ZEFSAII (Michael W. Deem and Ramdas Pophale) SiO2 
 PCOD9436695
Probable space group: P B C M
;
_chemical_formula_sum "Si O2"
_cell_formula_units_Z 48
_cell_length_a 10.603665
_cell_length_b 24.076471
_cell_length_c 8.963435
_cell_angle_alpha 90.000000
_cell_angle_beta 90.000000
_cell_angle_gamma 90.000000
_cell_volume 2288.354494
_symmetry_space_group_name_H-M "P B C M"
_symmetry_group_IT_number 57
_symmetry_cell_setting 'orthorhombic'
loop_
_space_group_symop_operation_xyz
x,y,z
-x,-y,1/2+z
x,1/2-y,-z
-x,1/2+y,1/2-z
-x,-y,-z
x,y,1/2-z
-x,1/2+y,z
x,1/2-y,1/2+z
loop_
_atom_site_type_symbol
_atom_site_label
_atom_site_fract_x
_atom_site_fract_y
_atom_site_fract_z
Si Si1 0.727630 0.072224 0.571269
Si Si2 0.201451 0.465693 0.428338
Si Si3 0.832898 0.307566 0.429515
Si Si4 0.539077 0.924252 0.924413
Si Si5 0.108177 0.347427 0.429086
Si Si6 0.638047 0.696646 0.078592
O O1 0.728083 0.068436 0.750000
O O2 0.763295 0.135180 0.528483
O O3 0.589437 0.060024 0.505352
O O4 0.819812 0.024992 0.505472
O O5 0.204304 0.472197 0.250000
O O6 0.337735 0.445779 0.489947
O O7 0.111860 0.413364 0.466027
O O8 0.787328 0.250000 0.500000
O O9 0.827148 0.303041 0.250000
O O10 0.978599 0.318473 0.474256
O O11 0.540824 0.941506 0.750000
O O12 0.551766 0.857531 0.929429
O O13 0.119558 0.343738 0.250000
O O14 0.229490 0.319011 0.501745
O O15 0.663107 0.709734 0.250000
O O16 0.580794 0.750000 0.000000
#
# Coordination Sequence:
#
# PCOD9436695 Si02
#       6
#     8   8   8   8   8   8
#     4  11  23  38  56  80 113 149 184 224 271 324
#     4  10  20  36  60  87 113 142 179 225 277 329
#     4  10  23  41  59  81 111 148 187 227 271 321
#     4  10  21  37  56  80 111 147 187 228 275 329
#     4   9  19  37  59  83 111 142 180 227 277 327
#     4  10  20  33  53  81 110 142 182 230 280 329
#
# _framework density 20.975771000000002
#
# number of rings (size 3 to 8) (size 9 to 14) (size 15 to 20)
#    0.000    2.000    0.000    3.000    0.000    7.333 
#    0.000    3.333    0.000    0.000    0.000    0.000 
#    0.000    0.000    0.000    0.000    0.000    0.000 
#
# Total GULP energy -268209.129435 kJ/mol
# GULP energy per Si atom -5587.690197 kJ/mol
# Density = 2.092803 g / cm^3
# Si number density = 20.975771 Si / 1000 Ang^3
#
#
#
# Elastic Constant Matrix: (Units=GPa)
#
#
# Indices 1 2 3 4 5 6 
#
# 1 17.9017 3.1800 5.9408 0.0000 0.0000 0.0000
# 2 3.1800 147.4838 36.6642 0.0000 0.0000 0.0000
# 3 5.9408 36.6642 45.6161 0.0000 0.0000 0.0000
# 4 0.0000 0.0000 0.0000 41.5155 0.0000 0.0000
# 5 0.0000 0.0000 0.0000 0.0000 15.1785 0.0000
# 6 0.0000 0.0000 0.0000 0.0000 0.0000 15.6037
#
#
#
# Elastic Compliance Matrix: (Units=1/GPa)
#
#
# Indices 1 2 3 4 5 6 
#
# 1 0.058458 0.000790 -0.008248 0.000000 0.000000 0.000000
# 2 0.000790 0.008484 -0.006922 0.000000 0.000000 0.000000
# 3 -0.008248 -0.006922 0.028560 0.000000 0.000000 0.000000
# 4 0.000000 0.000000 0.000000 0.024087 0.000000 0.000000
# 5 0.000000 0.000000 0.000000 0.000000 0.065883 0.000000
# 6 0.000000 0.000000 0.000000 0.000000 0.000000 0.064088
#
#
# Mechanical properties :
#
#
# Convention : Reuss Voigt Hill
#
# Bulk Modulus (GPa) = 14.98324 33.61905 24.30114
# Shear Modulus (GPa) = 16.63523 25.47397 21.05460
#
# Velocity S-wave (km/s) = 2.81920 3.48867 3.17165
# Velocity P-wave (km/s) = 4.21377 5.68244 5.00230
#
# Compressibility (1/GPa) = 0.06674124
#
# Stress axis : x y z
#
# Youngs Moduli (GPa) = 17.10643 117.86631 35.01403
#
# Poissons Ratio (x) = -0.09312 0.28880
# Poissons Ratio (y) = -0.01351 0.24237
# Poissons Ratio (z) = 0.14110 0.81588
#
# Static dielectric constant tensor:
#      x y z
#    x 1.738380 0.000000 0.000000 
#    y 0.000000 1.806860 0.000000 
#    z 0.000000 0.000000 1.705850 
# 
# From -- ./inp_files/3191.got.cif
#   From: 2010.05.17/outbox.cif.g08.bks.cpg/sg57_2_cif.got.tgz:3191.got - 2010.06.03 13:58:18.
