data_PCOD9436724
_publ_section_title
;
Structure prediction by ZEFSAII (Michael W. Deem and Ramdas Pophale) SiO2 
 PCOD9436724
Probable space group: P B C M
;
_chemical_formula_sum "Si O2"
_cell_formula_units_Z 56
_cell_length_a 13.477009
_cell_length_b 9.907638
_cell_length_c 20.903792
_cell_angle_alpha 90.000000
_cell_angle_beta 90.000000
_cell_angle_gamma 90.000000
_cell_volume 2791.185652
_symmetry_space_group_name_H-M "P B C M"
_symmetry_group_IT_number 57
_symmetry_cell_setting 'orthorhombic'
loop_
_space_group_symop_operation_xyz
x,y,z
-x,-y,1/2+z
x,1/2-y,-z
-x,1/2+y,1/2-z
-x,-y,-z
x,y,1/2-z
-x,1/2+y,z
x,1/2-y,1/2+z
loop_
_atom_site_type_symbol
_atom_site_label
_atom_site_fract_x
_atom_site_fract_y
_atom_site_fract_z
Si Si1 0.278868 0.604339 0.324988
Si Si2 0.068801 0.737691 0.321851
Si Si3 0.526326 0.234985 0.673186
Si Si4 0.989324 0.488904 0.104668
Si Si5 0.780268 0.573082 0.067098
Si Si6 0.795611 0.605626 0.572880
Si Si7 0.377861 0.458061 0.827258
O O1 0.290921 0.565997 0.250000
O O2 0.186019 0.707845 0.328134
O O3 0.377140 0.680735 0.348094
O O4 0.250672 0.476394 0.368062
O O5 0.040244 0.700974 0.250000
O O6 0.016042 0.636662 0.370304
O O7 0.035143 0.887831 0.337293
O O8 0.527182 0.244070 0.750000
O O9 0.427934 0.315224 0.654255
O O10 0.543062 0.077933 0.659305
O O11 0.886612 0.500173 0.067666
O O12 0.087375 0.432307 0.070866
O O13 0.790559 0.733549 0.079330
O O14 0.713617 0.519054 0.125230
O O15 0.744069 0.562179 0.993814
O O16 0.355171 0.461306 0.750000
#
# Coordination Sequence:
#
# PCOD9436724 Si02
#       7
#     8   8   8   8   8   8   8
#     4   9  19  37  61  86 117 155 199 248 300 360
#     4  10  20  33  55  87 121 151 192 250 302 352
#     4   9  19  38  63  93 126 155 198 247 301 365
#     4  11  20  39  57  85 116 164 204 242 301 367
#     4  11  23  40  61  86 124 161 208 256 301 364
#     4  10  23  40  59  88 122 161 204 252 309 363
#     4  10  22  39  65  97 123 161 203 252 306 362
#
# _framework density 20.063158000000001
#
# number of rings (size 3 to 8) (size 9 to 14) (size 15 to 20)
#    0.000    2.000    1.429    1.714    2.000    3.429 
#    0.000    4.286    0.000    0.000    0.000    0.000 
#    0.000    0.000    0.000    0.000    0.000    0.000 
#
# Total GULP energy -312313.709843 kJ/mol
# GULP energy per Si atom -5577.030533 kJ/mol
# Density = 2.001749 g / cm^3
# Si number density = 20.063158 Si / 1000 Ang^3
#
#
#
# Elastic Constant Matrix: (Units=GPa)
#
#
# Indices 1 2 3 4 5 6 
#
# 1 37.0265 2.0406 24.0159 0.0000 0.0000 0.0000
# 2 2.0406 54.6071 17.5425 0.0000 0.0000 0.0000
# 3 24.0159 17.5425 71.2429 0.0000 0.0000 0.0000
# 4 0.0000 0.0000 0.0000 18.0635 0.0000 0.0000
# 5 0.0000 0.0000 0.0000 0.0000 9.6566 0.0000
# 6 0.0000 0.0000 0.0000 0.0000 0.0000 24.9922
#
#
#
# Elastic Compliance Matrix: (Units=1/GPa)
#
#
# Indices 1 2 3 4 5 6 
#
# 1 0.034925 0.002690 -0.012436 0.000000 0.000000 0.000000
# 2 0.002690 0.020093 -0.005854 0.000000 0.000000 0.000000
# 3 -0.012436 -0.005854 0.019670 0.000000 0.000000 0.000000
# 4 0.000000 0.000000 0.000000 0.055360 0.000000 0.000000
# 5 0.000000 0.000000 0.000000 0.000000 0.103556 0.000000
# 6 0.000000 0.000000 0.000000 0.000000 0.000000 0.040012
#
#
# Mechanical properties :
#
#
# Convention : Reuss Voigt Hill
#
# Bulk Modulus (GPa) = 22.99484 27.78604 25.39044
# Shear Modulus (GPa) = 15.65861 18.49430 17.07646
#
# Velocity S-wave (km/s) = 2.79671 3.03942 2.92059
# Velocity P-wave (km/s) = 4.68134 5.11828 4.90467
#
# Compressibility (1/GPa) = 0.04348803
#
# Stress axis : x y z
#
# Youngs Moduli (GPa) = 28.63252 49.76903 50.83874
#
# Poissons Ratio (x) = -0.13387 0.63221
# Poissons Ratio (y) = -0.07702 0.29762
# Poissons Ratio (z) = 0.35606 0.29136
#
# Static dielectric constant tensor:
#      x y z
#    x 1.736770 0.000000 0.000000 
#    y 0.000000 1.701450 0.000000 
#    z 0.000000 0.000000 1.692020 
# 
# From -- ./inp_files/25424.got.cif
#   From: 2010.05.17/outbox.cif.g08.bks.cpg/sg57_13_cif.got.tgz:25424.got - 2010.06.03 13:58:18.
