data_PCOD9436530
_publ_section_title
;
Structure prediction by ZEFSAII (Michael W. Deem and Ramdas Pophale) SiO2 
 PCOD9436530
Probable space group: P B C M
;
_chemical_formula_sum "Si O2"
_cell_formula_units_Z 64
_cell_length_a 13.735392
_cell_length_b 25.359733
_cell_length_c 8.446401
_cell_angle_alpha 90.000000
_cell_angle_beta 90.000000
_cell_angle_gamma 90.000000
_cell_volume 2942.100009
_symmetry_space_group_name_H-M "P B C M"
_symmetry_group_IT_number 57
_symmetry_cell_setting 'orthorhombic'
loop_
_space_group_symop_operation_xyz
x,y,z
-x,-y,1/2+z
x,1/2-y,-z
-x,1/2+y,1/2-z
-x,-y,-z
x,y,1/2-z
-x,1/2+y,z
x,1/2-y,1/2+z
loop_
_atom_site_type_symbol
_atom_site_label
_atom_site_fract_x
_atom_site_fract_y
_atom_site_fract_z
Si Si1 0.128274 0.444284 0.072148
Si Si2 0.557032 0.887504 0.941147
Si Si3 0.053745 0.190434 0.438679
Si Si4 0.848859 0.349420 0.073001
Si Si5 0.268467 0.189890 0.058276
Si Si6 0.063383 0.564639 0.079408
Si Si7 0.345634 0.608312 0.558603
Si Si8 0.671484 0.986686 0.940970
O O1 0.127314 0.421390 0.250000
O O2 0.083425 0.503279 0.088529
O O3 0.233822 0.455842 0.003832
O O4 0.048992 0.420880 0.951504
O O5 0.553383 0.885806 0.750000
O O6 0.643659 0.848243 0.993352
O O7 0.583589 0.947780 0.988209
O O8 0.452193 0.873333 0.008959
O O9 0.060230 0.250000 0.500000
O O10 0.054675 0.188719 0.250000
O O11 0.945574 0.173283 0.493502
O O12 0.161110 0.169186 0.494367
O O13 0.844532 0.328317 0.250000
O O14 0.740749 0.352544 0.001564
O O15 0.876462 0.411659 0.065289
O O16 0.268678 0.190195 0.250000
O O17 0.281907 0.250000 0.000000
O O18 0.094919 0.586894 0.250000
O O19 0.338089 0.607485 0.750000
O O20 0.333471 0.547235 0.501526
O O21 0.675785 0.988019 0.750000
#
# Coordination Sequence:
#
# PCOD9436530 Si02
#       8
#     8   8   8   8   8   8   8   8
#     4  10  20  32  49  77 110 148 195 242 288 345
#     4  10  22  38  60  87 116 155 203 248 296 354
#     4  10  21  39  63  91 121 153 189 236 302 368
#     4  11  22  37  58  85 117 153 198 245 295 354
#     4   9  20  40  64  92 120 149 188 240 300 355
#     4  10  20  33  50  74 109 151 193 238 290 346
#     4  10  22  39  57  82 119 161 202 246 292 343
#     4  10  20  36  56  80 117 160 197 245 297 345
#
# _framework density 21.753167999999999
#
# number of rings (size 3 to 8) (size 9 to 14) (size 15 to 20)
#    0.000    2.000    1.250    1.875    1.750    4.000 
#    0.000    0.625    0.000    1.500    0.000    0.000 
#    0.000    0.000    0.000    0.000    0.000    0.000 
#
# Total GULP energy -356735.120766 kJ/mol
# GULP energy per Si atom -5573.986262 kJ/mol
# Density = 2.170366 g / cm^3
# Si number density = 21.753168 Si / 1000 Ang^3
#
#
#
# Elastic Constant Matrix: (Units=GPa)
#
#
# Indices 1 2 3 4 5 6 
#
# 1 200.0018 42.7023 16.6673 0.0000 0.0000 0.0000
# 2 42.7023 38.1351 -0.2459 0.0000 0.0000 0.0000
# 3 16.6673 -0.2459 23.2173 0.0000 0.0000 0.0000
# 4 0.0000 0.0000 0.0000 27.4571 0.0000 0.0000
# 5 0.0000 0.0000 0.0000 0.0000 31.2070 0.0000
# 6 0.0000 0.0000 0.0000 0.0000 0.0000 13.6770
#
#
#
# Elastic Compliance Matrix: (Units=1/GPa)
#
#
# Indices 1 2 3 4 5 6 
#
# 1 0.007152 -0.008042 -0.005220 0.000000 0.000000 0.000000
# 2 -0.008042 0.035268 0.006147 0.000000 0.000000 0.000000
# 3 -0.005220 0.006147 0.046883 0.000000 0.000000 0.000000
# 4 0.000000 0.000000 0.000000 0.036420 0.000000 0.000000
# 5 0.000000 0.000000 0.000000 0.000000 0.032044 0.000000
# 6 0.000000 0.000000 0.000000 0.000000 0.000000 0.073115
#
#
# Mechanical properties :
#
#
# Convention : Reuss Voigt Hill
#
# Bulk Modulus (GPa) = 13.32026 42.17794 27.74910
# Shear Modulus (GPa) = 18.50912 27.95025 23.22968
#
# Velocity S-wave (km/s) = 2.92013 3.58841 3.27138
# Velocity P-wave (km/s) = 4.18404 6.04982 5.20128
#
# Compressibility (1/GPa) = 0.07507359
#
# Stress axis : x y z
#
# Youngs Moduli (GPa) = 139.82064 28.35461 21.32948
#
# Poissons Ratio (x) = 0.22803 0.11133
# Poissons Ratio (y) = 1.12447 -0.13111
# Poissons Ratio (z) = 0.72980 -0.17430
#
# Static dielectric constant tensor:
#      x y z
#    x 1.824380 0.000000 0.000000 
#    y 0.000000 2.244190 0.000000 
#    z 0.000000 0.000000 1.815490 
# 
# From -- ./inp_files/3736.got.cif
#   From: 2010.05.17/outbox.cif.g08.bks.cpg/sg57_2_cif.got.tgz:3736.got - 2010.06.03 13:58:18.
