data_PCOD9436232
_publ_section_title
;
Structure prediction by ZEFSAII (Michael W. Deem and Ramdas Pophale) SiO2 
 PCOD9436232
Probable space group: P B C M
;
_chemical_formula_sum "Si O2"
_cell_formula_units_Z 56
_cell_length_a 9.162707
_cell_length_b 21.645479
_cell_length_c 14.521475
_cell_angle_alpha 90.000000
_cell_angle_beta 90.000000
_cell_angle_gamma 90.000000
_cell_volume 2880.061300
_symmetry_space_group_name_H-M "P B C M"
_symmetry_group_IT_number 57
_symmetry_cell_setting 'orthorhombic'
loop_
_space_group_symop_operation_xyz
x,y,z
-x,-y,1/2+z
x,1/2-y,-z
-x,1/2+y,1/2-z
-x,-y,-z
x,y,1/2-z
-x,1/2+y,z
x,1/2-y,1/2+z
loop_
_atom_site_type_symbol
_atom_site_label
_atom_site_fract_x
_atom_site_fract_y
_atom_site_fract_z
Si Si1 0.835960 0.973193 0.489644
Si Si2 0.173635 0.833982 0.149725
Si Si3 0.789147 0.394910 0.547673
Si Si4 0.835919 0.856101 0.143655
Si Si5 0.708680 0.734211 0.355781
Si Si6 0.376859 0.722019 0.102132
Si Si7 0.111010 0.385787 0.639013
O O1 0.833064 0.917700 0.416683
O O2 0.805190 0.942280 0.588637
O O3 0.748679 0.032891 0.454705
O O4 0.000000 0.000000 0.500000
O O5 0.206317 0.863038 0.250000
O O6 0.259788 0.769243 0.145885
O O7 0.999068 0.827753 0.144009
O O8 0.210625 0.873411 0.059313
O O9 0.684534 0.347006 0.598548
O O10 0.948549 0.385787 0.594954
O O11 0.797169 0.871233 0.250000
O O12 0.736204 0.801720 0.102228
O O13 0.756476 0.742333 0.250000
O O14 0.537662 0.721444 0.357067
O O15 0.806009 0.677178 0.388614
O O16 0.392749 0.750000 0.000000
O O17 0.105867 0.391486 0.750000
#
# Coordination Sequence:
#
# PCOD9436232 Si02
#       7
#     8   8   8   8   8   8   8
#     4  10  20  36  56  85 118 150 192 234 283 349
#     4  10  19  35  59  86 116 148 190 243 288 338
#     4  10  21  39  56  88 116 153 192 234 288 351
#     4  10  20  35  60  86 112 148 193 242 293 342
#     4  10  22  38  57  84 113 150 194 240 294 341
#     4  10  22  35  58  85 113 149 189 237 295 338
#     4  10  21  36  59  87 117 152 193 243 294 340
#
# _framework density 19.444030000000001
#
# number of rings (size 3 to 8) (size 9 to 14) (size 15 to 20)
#    0.000    2.000    2.857    1.286    2.000    5.143 
#    0.000    0.714    0.000    0.000    0.000    0.000 
#    0.000    0.000    0.000    0.000    0.000    0.000 
#
# Total GULP energy -312076.545886 kJ/mol
# GULP energy per Si atom -5572.795462 kJ/mol
# Density = 1.939977 g / cm^3
# Si number density = 19.444030 Si / 1000 Ang^3
#
#
#
# Elastic Constant Matrix: (Units=GPa)
#
#
# Indices 1 2 3 4 5 6 
#
# 1 54.9372 65.7423 26.3608 0.0000 0.0000 0.0000
# 2 65.7423 178.6153 53.0909 0.0000 0.0000 0.0000
# 3 26.3608 53.0909 109.2078 0.0000 0.0000 0.0000
# 4 0.0000 0.0000 0.0000 25.9740 0.0000 0.0000
# 5 0.0000 0.0000 0.0000 0.0000 19.8380 0.0000
# 6 0.0000 0.0000 0.0000 0.0000 0.0000 11.5415
#
#
#
# Elastic Compliance Matrix: (Units=1/GPa)
#
#
# Indices 1 2 3 4 5 6 
#
# 1 0.033067 -0.011453 -0.002414 0.000000 0.000000 0.000000
# 2 -0.011453 0.010511 -0.002345 0.000000 0.000000 0.000000
# 3 -0.002414 -0.002345 0.010880 0.000000 0.000000 0.000000
# 4 0.000000 0.000000 0.000000 0.038500 0.000000 0.000000
# 5 0.000000 0.000000 0.000000 0.000000 0.050408 0.000000
# 6 0.000000 0.000000 0.000000 0.000000 0.000000 0.086644
#
#
# Mechanical properties :
#
#
# Convention : Reuss Voigt Hill
#
# Bulk Modulus (GPa) = 45.38678 70.34983 57.86831
# Shear Modulus (GPa) = 18.53367 24.64178 21.58772
#
# Velocity S-wave (km/s) = 3.09071 3.56380 3.33566
# Velocity P-wave (km/s) = 6.01079 7.29339 6.68293
#
# Compressibility (1/GPa) = 0.02203285
#
# Stress axis : x y z
#
# Youngs Moduli (GPa) = 30.24187 95.13525 91.91422
#
# Poissons Ratio (x) = 1.08961 0.22186
# Poissons Ratio (y) = 0.34637 0.21558
# Poissons Ratio (z) = 0.07300 0.22313
#
# Static dielectric constant tensor:
#      x y z
#    x 1.684310 0.000000 0.000000 
#    y 0.000000 1.704920 0.000000 
#    z 0.000000 0.000000 1.727910 
# 
# From -- ./inp_files/16690.got.cif
#   From: 2010.05.17/outbox.cif.g08.bks.cpg/sg57_9_cif.got.tgz:16690.got - 2010.06.03 13:58:18.
