data_PCOD9436050
_publ_section_title
;
Structure prediction by ZEFSAII (Michael W. Deem and Ramdas Pophale) SiO2 
 PCOD9436050
Probable space group: P B C M
;
_chemical_formula_sum "Si O2"
_cell_formula_units_Z 56
_cell_length_a 14.061998
_cell_length_b 24.743506
_cell_length_c 8.766178
_cell_angle_alpha 90.000000
_cell_angle_beta 90.000000
_cell_angle_gamma 90.000000
_cell_volume 3050.131428
_symmetry_space_group_name_H-M "P B C M"
_symmetry_group_IT_number 57
_symmetry_cell_setting 'orthorhombic'
loop_
_space_group_symop_operation_xyz
x,y,z
-x,-y,1/2+z
x,1/2-y,-z
-x,1/2+y,1/2-z
-x,-y,-z
x,y,1/2-z
-x,1/2+y,z
x,1/2-y,1/2+z
loop_
_atom_site_type_symbol
_atom_site_label
_atom_site_fract_x
_atom_site_fract_y
_atom_site_fract_z
Si Si1 0.726906 0.808022 0.067904
Si Si2 0.774165 0.020564 0.066995
Si Si3 0.842056 0.309151 0.068730
Si Si4 0.953764 0.406226 0.933190
Si Si5 0.665862 0.126180 0.433317
Si Si6 0.482785 0.192255 0.066702
Si Si7 0.171888 0.411193 0.931978
O O1 0.725618 0.804972 0.250000
O O2 0.757153 0.750000 0.000000
O O3 0.620100 0.818141 0.005631
O O4 0.791893 0.856778 0.010599
O O5 0.772986 0.013009 0.250000
O O6 0.874377 0.049416 0.024528
O O7 0.693769 0.064738 0.026070
O O8 0.769049 0.963104 0.986664
O O9 0.842384 0.306548 0.250000
O O10 0.854573 0.250000 0.000000
O O11 0.922315 0.350389 0.009991
O O12 0.742912 0.334853 0.010869
O O13 0.947762 0.399774 0.750000
O O14 0.061273 0.420954 0.973369
O O15 0.678760 0.130889 0.250000
O O16 0.560643 0.146754 0.470032
O O17 0.473679 0.196378 0.250000
O O18 0.516130 0.250000 0.000000
O O19 0.178731 0.405330 0.750000
#
# Coordination Sequence:
#
# PCOD9436050 Si02
#       7
#     8   8   8   8   8   8   8
#     4  11  23  40  60  82 109 140 177 224 271 319
#     4   9  18  35  56  81 112 143 176 218 267 317
#     4  11  21  32  50  76 109 144 180 221 268 322
#     4   9  20  37  55  76 107 143 181 225 270 317
#     4   9  19  35  55  80 112 145 178 219 267 317
#     4  10  19  34  57  83 110 142 179 220 266 319
#     4  11  22  37  58  82 107 141 182 223 268 319
#
# _framework density 18.359864000000002
#
# number of rings (size 3 to 8) (size 9 to 14) (size 15 to 20)
#    0.000    2.000    0.000    6.000    0.000    6.286 
#    0.000    0.714    0.000    0.000    0.000    0.000 
#    0.000    0.000    0.000    0.000    0.000    0.000 
#
# Total GULP energy -312721.328167 kJ/mol
# GULP energy per Si atom -5584.309432 kJ/mol
# Density = 1.831808 g / cm^3
# Si number density = 18.359864 Si / 1000 Ang^3
#
#
#
# Elastic Constant Matrix: (Units=GPa)
#
#
# Indices 1 2 3 4 5 6 
#
# 1 41.5100 28.5759 20.6603 0.0000 0.0000 0.0000
# 2 28.5759 113.0838 39.5955 0.0000 0.0000 0.0000
# 3 20.6603 39.5955 52.1778 0.0000 0.0000 0.0000
# 4 0.0000 0.0000 0.0000 32.8657 0.0000 0.0000
# 5 0.0000 0.0000 0.0000 0.0000 26.3206 0.0000
# 6 0.0000 0.0000 0.0000 0.0000 0.0000 20.5360
#
#
#
# Elastic Compliance Matrix: (Units=1/GPa)
#
#
# Indices 1 2 3 4 5 6 
#
# 1 0.031922 -0.004958 -0.008877 0.000000 0.000000 0.000000
# 2 -0.004958 0.012813 -0.007760 0.000000 0.000000 0.000000
# 3 -0.008877 -0.007760 0.028569 0.000000 0.000000 0.000000
# 4 0.000000 0.000000 0.000000 0.030427 0.000000 0.000000
# 5 0.000000 0.000000 0.000000 0.000000 0.037993 0.000000
# 6 0.000000 0.000000 0.000000 0.000000 0.000000 0.048695
#
#
# Mechanical properties :
#
#
# Convention : Reuss Voigt Hill
#
# Bulk Modulus (GPa) = 33.20802 42.71498 37.96150
# Shear Modulus (GPa) = 20.52140 23.80713 22.16426
#
# Velocity S-wave (km/s) = 3.34688 3.60487 3.47827
# Velocity P-wave (km/s) = 5.74996 6.37516 6.07061
#
# Compressibility (1/GPa) = 0.03011321
#
# Stress axis : x y z
#
# Youngs Moduli (GPa) = 31.32599 78.04545 35.00304
#
# Poissons Ratio (x) = 0.38698 0.31073
# Poissons Ratio (y) = 0.15533 0.27162
# Poissons Ratio (z) = 0.27809 0.60563
#
# Static dielectric constant tensor:
#      x y z
#    x 1.631720 0.000000 0.000000 
#    y 0.000000 1.616090 0.000000 
#    z 0.000000 0.000000 1.609690 
# 
# From -- ./inp_files/5173.got.cif
#   From: 2010.05.17/outbox.cif.g08.bks.cpg/sg57_3_cif.got.tgz:5173.got - 2010.06.03 13:58:18.
