data_PCOD9436324
_publ_section_title
;
Structure prediction by ZEFSAII (Michael W. Deem and Ramdas Pophale) SiO2 
 PCOD9436324
Probable space group: P B C M
;
_chemical_formula_sum "Si O2"
_cell_formula_units_Z 64
_cell_length_a 12.914450
_cell_length_b 14.718048
_cell_length_c 17.086901
_cell_angle_alpha 90.000000
_cell_angle_beta 90.000000
_cell_angle_gamma 90.000000
_cell_volume 3247.801165
_symmetry_space_group_name_H-M "P B C M"
_symmetry_group_IT_number 57
_symmetry_cell_setting 'orthorhombic'
loop_
_space_group_symop_operation_xyz
x,y,z
-x,-y,1/2+z
x,1/2-y,-z
-x,1/2+y,1/2-z
-x,-y,-z
x,y,1/2-z
-x,1/2+y,z
x,1/2-y,1/2+z
loop_
_atom_site_type_symbol
_atom_site_label
_atom_site_fract_x
_atom_site_fract_y
_atom_site_fract_z
Si Si1 0.794921 0.054164 0.913991
Si Si2 0.207209 0.939532 0.898588
Si Si3 0.342407 0.406495 0.839389
Si Si4 0.976557 0.934804 0.656397
Si Si5 0.855192 0.730570 0.339393
Si Si6 0.289032 0.744226 0.595229
Si Si7 0.705473 0.878432 0.155931
Si Si8 0.474140 0.249412 0.906228
O O1 0.777371 0.156019 0.883414
O O2 0.697304 0.992428 0.887789
O O3 0.897178 0.006615 0.880271
O O4 0.799947 0.056084 0.007585
O O5 0.245241 0.839495 0.875042
O O6 0.094009 0.956054 0.863346
O O7 0.283499 0.018455 0.870097
O O8 0.365297 0.431991 0.750000
O O9 0.243880 0.337418 0.837694
O O10 0.433856 0.346926 0.875718
O O11 0.960699 0.934589 0.750000
O O12 0.944669 0.833295 0.625996
O O13 0.885735 0.752630 0.250000
O O14 0.806706 0.821867 0.375101
O O15 0.288693 0.750000 0.500000
O O16 0.408357 0.732459 0.619180
O O17 0.705941 0.871548 0.250000
O O18 0.604352 0.827051 0.124960
O O19 0.469253 0.250000 0.000000
#
# Coordination Sequence:
#
# PCOD9436324 Si02
#       8
#     8   8   8   8   8   8   8   8
#     4  10  20  39  61  81 108 152 198 232 274 343
#     4  11  22  37  56  83 114 148 190 238 284 337
#     4   9  17  33  56  84 111 140 184 237 275 320
#     4  10  20  37  58  84 113 144 182 234 292 342
#     4   7  14  30  52  73 103 140 174 213 268 330
#     4   9  22  40  57  80 115 150 189 236 281 330
#     4  10  20  36  55  83 118 149 183 233 287 340
#     4  10  19  36  60  84 110 149 190 231 282 336
#
# _framework density 19.705639999999999
#
# number of rings (size 3 to 8) (size 9 to 14) (size 15 to 20)
#    0.000    2.500    0.000    3.750    0.000    2.000 
#    0.000   15.000    0.000    0.000    0.000    0.000 
#    0.000    0.000    0.000    0.000    0.000    0.000 
#
# Total GULP energy -357030.475116 kJ/mol
# GULP energy per Si atom -5578.601174 kJ/mol
# Density = 1.966079 g / cm^3
# Si number density = 19.705640 Si / 1000 Ang^3
#
#
#
# Elastic Constant Matrix: (Units=GPa)
#
#
# Indices 1 2 3 4 5 6 
#
# 1 88.6858 46.9486 16.0429 0.0000 0.0000 0.0000
# 2 46.9486 130.7931 7.6633 0.0000 0.0000 0.0000
# 3 16.0429 7.6633 41.7743 0.0000 0.0000 0.0000
# 4 0.0000 0.0000 0.0000 18.2320 0.0000 0.0000
# 5 0.0000 0.0000 0.0000 0.0000 135.7841 0.0000
# 6 0.0000 0.0000 0.0000 0.0000 0.0000 -4.4087
#
#
#
# Elastic Compliance Matrix: (Units=1/GPa)
#
#
# Indices 1 2 3 4 5 6 
#
# 1 0.014802 -0.005034 -0.004761 0.000000 0.000000 0.000000
# 2 -0.005034 0.009441 0.000201 0.000000 0.000000 0.000000
# 3 -0.004761 0.000201 0.025730 0.000000 0.000000 0.000000
# 4 0.000000 0.000000 0.000000 0.054849 0.000000 0.000000
# 5 0.000000 0.000000 0.000000 0.000000 0.007365 0.000000
# 6 0.000000 0.000000 0.000000 0.000000 0.000000 -0.226824
#
#
# Mechanical properties :
#
#
# Convention : Reuss Voigt Hill
#
# Bulk Modulus (GPa) = 32.48345 44.72919 38.60632
# Shear Modulus (GPa) = -58.69343 42.62802 -8.03270
#
# Velocity S-wave (km/s) = -5.46349 4.65611 -2.02119
# Velocity P-wave (km/s) = 4.82489 7.18706 3.76658
#
# Compressibility (1/GPa) = 0.03078491
#
# Stress axis : x y z
#
# Youngs Moduli (GPa) = 67.55804 105.92169 38.86566
#
# Poissons Ratio (x) = 0.53324 0.18504
# Poissons Ratio (y) = 0.34011 -0.00783
# Poissons Ratio (z) = 0.32165 -0.02134
#
# Static dielectric constant tensor:
#      x y z
#    x 1.685400 0.000000 0.000000 
#    y 0.000000 1.714680 0.000000 
#    z 0.000000 0.000000 1.680640 
# 
# From -- ./inp_files/22106.got.cif
#   From: 2010.05.17/outbox.cif.g08.bks.cpg/sg57_12_cif.got.tgz:22106.got - 2010.06.03 13:58:18.
