data_PCOD9436546
_publ_section_title
;
Structure prediction by ZEFSAII (Michael W. Deem and Ramdas Pophale) SiO2 
 PCOD9436546
Probable space group: P B C M
;
_chemical_formula_sum "Si O2"
_cell_formula_units_Z 64
_cell_length_a 15.888722
_cell_length_b 22.361981
_cell_length_c 8.443120
_cell_angle_alpha 90.000000
_cell_angle_beta 90.000000
_cell_angle_gamma 90.000000
_cell_volume 2999.868394
_symmetry_space_group_name_H-M "P B C M"
_symmetry_group_IT_number 57
_symmetry_cell_setting 'orthorhombic'
loop_
_space_group_symop_operation_xyz
x,y,z
-x,-y,1/2+z
x,1/2-y,-z
-x,1/2+y,1/2-z
-x,-y,-z
x,y,1/2-z
-x,1/2+y,z
x,1/2-y,1/2+z
loop_
_atom_site_type_symbol
_atom_site_label
_atom_site_fract_x
_atom_site_fract_y
_atom_site_fract_z
Si Si1 0.750081 0.317296 0.440856
Si Si2 0.431071 0.870450 0.058990
Si Si3 0.606260 0.867488 0.939019
Si Si4 0.096581 0.601470 0.438313
Si Si5 0.038604 0.188903 0.937837
Si Si6 0.194951 0.491492 0.059615
Si Si7 0.375055 0.503250 0.561756
Si Si8 0.785598 0.647614 0.940184
O O1 0.763208 0.250000 0.500000
O O2 0.756035 0.319985 0.250000
O O3 0.655728 0.338365 0.487694
O O4 0.821479 0.359957 0.512937
O O5 0.433401 0.871617 0.250000
O O6 0.425395 0.939551 0.998494
O O7 0.517643 0.842125 0.998206
O O8 0.606129 0.868914 0.750000
O O9 0.609952 0.936530 0.003200
O O10 0.693509 0.837926 0.993435
O O11 0.086432 0.604399 0.250000
O O12 0.116653 0.533064 0.484554
O O13 0.016300 0.631980 0.516045
O O14 0.042717 0.191997 0.750000
O O15 0.133858 0.183447 0.001656
O O16 0.998326 0.250000 0.000000
O O17 0.206840 0.496570 0.250000
O O18 0.192240 0.421593 0.020975
O O19 0.277512 0.516309 0.972991
O O20 0.389033 0.500673 0.750000
O O21 0.781106 0.652658 0.750000
#
# Coordination Sequence:
#
# PCOD9436546 Si02
#       8
#     8   8   8   8   8   8   8   8
#     4  11  23  39  58  80 112 153 195 239 285 337
#     4  10  20  34  53  77 111 152 190 229 277 333
#     4  10  20  32  54  85 115 146 185 233 280 332
#     4  11  22  37  60  89 119 148 184 231 283 343
#     4  11  24  42  64  86 111 147 192 239 285 338
#     4   9  18  33  56  86 118 151 185 225 279 342
#     4   9  17  31  50  79 115 150 186 225 274 330
#     4   9  20  40  61  83 115 152 189 233 288 342
#
# _framework density 21.33427
#
# number of rings (size 3 to 8) (size 9 to 14) (size 15 to 20)
#    0.000    2.000    1.250    2.250    0.000    4.000 
#    0.000    0.625    0.000    0.000    0.000    0.000 
#    0.000    0.000    0.000    0.000    0.000    0.000 
#
# Total GULP energy -357378.129600 kJ/mol
# GULP energy per Si atom -5584.033275 kJ/mol
# Density = 2.128571 g / cm^3
# Si number density = 21.334270 Si / 1000 Ang^3
#
#
#
# Elastic Constant Matrix: (Units=GPa)
#
#
# Indices 1 2 3 4 5 6 
#
# 1 101.9537 4.8296 7.9553 0.0000 0.0000 0.0000
# 2 4.8296 21.6454 -0.6484 0.0000 0.0000 0.0000
# 3 7.9553 -0.6484 17.9144 0.0000 0.0000 0.0000
# 4 0.0000 0.0000 0.0000 14.1603 0.0000 0.0000
# 5 0.0000 0.0000 0.0000 0.0000 25.9661 0.0000
# 6 0.0000 0.0000 0.0000 0.0000 0.0000 13.3705
#
#
#
# Elastic Compliance Matrix: (Units=1/GPa)
#
#
# Indices 1 2 3 4 5 6 
#
# 1 0.010287 -0.002435 -0.004656 0.000000 0.000000 0.000000
# 2 -0.002435 0.046826 0.002776 0.000000 0.000000 0.000000
# 3 -0.004656 0.002776 0.057989 0.000000 0.000000 0.000000
# 4 0.000000 0.000000 0.000000 0.070620 0.000000 0.000000
# 5 0.000000 0.000000 0.000000 0.000000 0.038512 0.000000
# 6 0.000000 0.000000 0.000000 0.000000 0.000000 0.074792
#
#
# Mechanical properties :
#
#
# Convention : Reuss Voigt Hill
#
# Bulk Modulus (GPa) = 9.39215 18.42072 13.90644
# Shear Modulus (GPa) = 14.57105 19.32449 16.94777
#
# Velocity S-wave (km/s) = 2.61624 3.01291 2.82155
# Velocity P-wave (km/s) = 3.67943 4.55594 4.14094
#
# Compressibility (1/GPa) = 0.10647187
#
# Stress axis : x y z
#
# Youngs Moduli (GPa) = 97.20972 21.35579 17.24459
#
# Poissons Ratio (x) = 0.05200 0.08030
# Poissons Ratio (y) = 0.23668 -0.04787
# Poissons Ratio (z) = 0.45264 -0.05929
#
# Static dielectric constant tensor:
#      x y z
#    x 1.792800 0.000000 0.000000 
#    y 0.000000 1.800170 0.000000 
#    z 0.000000 0.000000 1.720190 
# 
# From -- ./inp_files/5760.got.cif
#   From: 2010.05.17/outbox.cif.g08.bks.cpg/sg57_3_cif.got.tgz:5760.got - 2010.06.03 13:58:18.
