data_PCOD9436981
_publ_section_title
;
Structure prediction by ZEFSAII (Michael W. Deem and Ramdas Pophale) SiO2 
 PCOD9436981
Probable space group: P B C M
;
_chemical_formula_sum "Si O2"
_cell_formula_units_Z 64
_cell_length_a 15.443195
_cell_length_b 24.779639
_cell_length_c 8.304861
_cell_angle_alpha 90.000000
_cell_angle_beta 90.000000
_cell_angle_gamma 90.000000
_cell_volume 3178.077608
_symmetry_space_group_name_H-M "P B C M"
_symmetry_group_IT_number 57
_symmetry_cell_setting 'orthorhombic'
loop_
_space_group_symop_operation_xyz
x,y,z
-x,-y,1/2+z
x,1/2-y,-z
-x,1/2+y,1/2-z
-x,-y,-z
x,y,1/2-z
-x,1/2+y,z
x,1/2-y,1/2+z
loop_
_atom_site_type_symbol
_atom_site_label
_atom_site_fract_x
_atom_site_fract_y
_atom_site_fract_z
Si Si1 0.900902 0.005148 0.443260
Si Si2 0.007631 0.688886 0.555525
Si Si3 0.848600 0.612141 0.946599
Si Si4 0.351417 0.599446 0.057868
Si Si5 0.542333 0.628707 0.944593
Si Si6 0.596569 0.514362 0.556254
Si Si7 0.300813 0.308351 0.444072
Si Si8 0.169001 0.620562 0.941659
O O1 0.898419 0.005745 0.250000
O O2 0.860755 0.061109 0.502399
O O3 0.853344 0.950109 0.499061
O O4 0.000000 0.000000 0.500000
O O5 0.992646 0.750000 0.500000
O O6 0.006974 0.689234 0.750000
O O7 0.099441 0.664503 0.498267
O O8 0.933182 0.646551 0.504655
O O9 0.847445 0.610951 0.750000
O O10 0.765747 0.645984 0.000732
O O11 0.347199 0.598569 0.250000
O O12 0.347773 0.536587 0.998066
O O13 0.445266 0.622760 0.009658
O O14 0.267551 0.629842 0.994272
O O15 0.535349 0.628050 0.750000
O O16 0.600838 0.576493 0.993266
O O17 0.600934 0.678779 0.996895
O O18 0.500000 0.500000 0.500000
O O19 0.603332 0.514143 0.750000
O O20 0.271724 0.250000 0.500000
O O21 0.300209 0.309750 0.250000
O O22 0.165250 0.621221 0.750000
#
# Coordination Sequence:
#
# PCOD9436981 Si02
#       8
#     8   8   8   8   8   8   8   8
#     4  11  21  37  61  88 123 159 196 239 293 356
#     4  10  21  39  60  83 112 150 193 239 288 340
#     4   9  19  37  60  85 117 154 188 233 293 350
#     4  10  20  34  56  84 112 147 190 237 287 341
#     4   9  18  34  55  78 108 148 187 228 286 344
#     4   8  15  28  48  74 103 135 175 218 268 329
#     4  10  21  37  59  83 113 152 195 241 293 347
#     4  11  23  39  57  85 124 159 195 240 293 352
#
# _framework density 20.137961000000001
#
# number of rings (size 3 to 8) (size 9 to 14) (size 15 to 20)
#    0.000    2.250    1.250    1.500    1.750    2.000 
#    0.000    1.875    0.000    0.000    0.000    0.000 
#    0.000    0.000    0.000    0.000    0.000    0.000 
#
# Total GULP energy -356934.891435 kJ/mol
# GULP energy per Si atom -5577.107679 kJ/mol
# Density = 2.009213 g / cm^3
# Si number density = 20.137961 Si / 1000 Ang^3
#
#
#
# Elastic Constant Matrix: (Units=GPa)
#
#
# Indices 1 2 3 4 5 6 
#
# 1 89.0034 14.1548 11.4798 0.0000 0.0000 0.0000
# 2 14.1548 68.8673 3.8080 0.0000 0.0000 0.0000
# 3 11.4798 3.8080 17.9787 0.0000 0.0000 0.0000
# 4 0.0000 0.0000 0.0000 24.5840 0.0000 0.0000
# 5 0.0000 0.0000 0.0000 0.0000 16.1096 0.0000
# 6 0.0000 0.0000 0.0000 0.0000 0.0000 27.3298
#
#
#
# Elastic Compliance Matrix: (Units=1/GPa)
#
#
# Indices 1 2 3 4 5 6 
#
# 1 0.012554 -0.002162 -0.007558 0.000000 0.000000 0.000000
# 2 -0.002162 0.015065 -0.001810 0.000000 0.000000 0.000000
# 3 -0.007558 -0.001810 0.060831 0.000000 0.000000 0.000000
# 4 0.000000 0.000000 0.000000 0.040677 0.000000 0.000000
# 5 0.000000 0.000000 0.000000 0.000000 0.062075 0.000000
# 6 0.000000 0.000000 0.000000 0.000000 0.000000 0.036590
#
#
# Mechanical properties :
#
#
# Convention : Reuss Voigt Hill
#
# Bulk Modulus (GPa) = 15.29314 26.08163 20.68738
# Shear Modulus (GPa) = 18.33853 23.36513 20.85183
#
# Velocity S-wave (km/s) = 3.02096 3.40994 3.22133
# Velocity P-wave (km/s) = 4.44735 5.33697 4.91234
#
# Compressibility (1/GPa) = 0.06538880
#
# Stress axis : x y z
#
# Youngs Moduli (GPa) = 79.65396 66.37795 16.43902
#
# Poissons Ratio (x) = 0.14354 0.12425
# Poissons Ratio (y) = 0.17225 0.02976
# Poissons Ratio (z) = 0.60204 0.12016
#
# Static dielectric constant tensor:
#      x y z
#    x 1.713660 0.000000 0.000000 
#    y 0.000000 1.729540 0.000000 
#    z 0.000000 0.000000 1.591530 
# 
# From -- ./inp_files/5568.got.cif
#   From: 2010.05.17/outbox.cif.g08.bks.cpg/sg57_3_cif.got.tgz:5568.got - 2010.06.03 13:58:18.
