data_PCOD9436587
_publ_section_title
;
Structure prediction by ZEFSAII (Michael W. Deem and Ramdas Pophale) SiO2 
 PCOD9436587
Probable space group: P B C M
;
_chemical_formula_sum "Si O2"
_cell_formula_units_Z 64
_cell_length_a 24.044593
_cell_length_b 15.690542
_cell_length_c 8.064243
_cell_angle_alpha 90.000000
_cell_angle_beta 90.000000
_cell_angle_gamma 90.000000
_cell_volume 3042.418701
_symmetry_space_group_name_H-M "P B C M"
_symmetry_group_IT_number 57
_symmetry_cell_setting 'orthorhombic'
loop_
_space_group_symop_operation_xyz
x,y,z
-x,-y,1/2+z
x,1/2-y,-z
-x,1/2+y,1/2-z
-x,-y,-z
x,y,1/2-z
-x,1/2+y,z
x,1/2-y,1/2+z
loop_
_atom_site_type_symbol
_atom_site_label
_atom_site_fract_x
_atom_site_fract_y
_atom_site_fract_z
Si Si1 0.576219 0.585756 0.558211
Si Si2 0.014057 0.903442 0.950322
Si Si3 0.812215 0.517325 0.052685
Si Si4 0.309425 0.026103 0.950273
Si Si5 0.135128 0.654824 0.446983
Si Si6 0.102594 0.158705 0.449669
Si Si7 0.344231 0.838332 0.552003
Si Si8 0.458901 0.600845 0.948270
O O1 0.581557 0.611486 0.750000
O O2 0.638518 0.582826 0.485398
O O3 0.557829 0.486249 0.543000
O O4 0.520141 0.630501 0.491971
O O5 0.015908 0.899550 0.750000
O O6 0.960854 0.850078 0.010359
O O7 0.073541 0.870688 0.014560
O O8 0.000000 0.000000 0.000000
O O9 0.815153 0.517270 0.250000
O O10 0.860520 0.579928 0.987619
O O11 0.752083 0.551480 0.000451
O O12 0.823375 0.421019 0.995088
O O13 0.313241 0.026203 0.750000
O O14 0.317707 0.927596 0.006345
O O15 0.150524 0.750000 0.500000
O O16 0.131666 0.655119 0.250000
O O17 0.125925 0.250000 0.500000
O O18 0.101643 0.153924 0.250000
O O19 0.315966 0.750000 0.500000
O O20 0.346849 0.840943 0.750000
O O21 0.406670 0.839591 0.479978
O O22 0.462435 0.583864 0.750000
#
# Coordination Sequence:
#
# PCOD9436587 Si02
#       8
#     8   8   8   8   8   8   8   8
#     4   8  15  28  46  70  98 127 161 206 256 310
#     4  10  20  36  59  87 118 150 184 226 281 340
#     4  11  23  39  58  82 115 149 191 243 287 336
#     4   9  19  35  53  74 103 140 184 227 271 325
#     4  11  23  38  59  85 115 155 193 231 283 341
#     4  10  22  39  60  87 115 145 184 232 284 337
#     4  10  20  33  49  72 104 140 178 223 271 325
#     4   9  15  25  45  71  98 127 161 203 255 312
#
# _framework density 21.035896000000001
#
# number of rings (size 3 to 8) (size 9 to 14) (size 15 to 20)
#    0.000    2.250    1.250    2.625    0.000    5.500 
#    0.000    1.250    0.000    0.750    0.000    1.750 
#    0.000    0.000    0.000    0.000    0.000    0.000 
#
# Total GULP energy -356864.165672 kJ/mol
# GULP energy per Si atom -5576.002589 kJ/mol
# Density = 2.098802 g / cm^3
# Si number density = 21.035896 Si / 1000 Ang^3
#
#
#
# Elastic Constant Matrix: (Units=GPa)
#
#
# Indices 1 2 3 4 5 6 
#
# 1 99.5418 -2.3319 5.3995 0.0000 0.0000 0.0000
# 2 -2.3319 48.7243 -7.4012 0.0000 0.0000 0.0000
# 3 5.3995 -7.4012 24.5932 0.0000 0.0000 0.0000
# 4 0.0000 0.0000 0.0000 23.0409 0.0000 0.0000
# 5 0.0000 0.0000 0.0000 0.0000 24.0468 0.0000
# 6 0.0000 0.0000 0.0000 0.0000 0.0000 13.2586
#
#
#
# Elastic Compliance Matrix: (Units=1/GPa)
#
#
# Indices 1 2 3 4 5 6 
#
# 1 0.010168 0.000155 -0.002186 0.000000 0.000000 0.000000
# 2 0.000155 0.021509 0.006439 0.000000 0.000000 0.000000
# 3 -0.002186 0.006439 0.043079 0.000000 0.000000 0.000000
# 4 0.000000 0.000000 0.000000 0.043401 0.000000 0.000000
# 5 0.000000 0.000000 0.000000 0.000000 0.041586 0.000000
# 6 0.000000 0.000000 0.000000 0.000000 0.000000 0.075423
#
#
# Mechanical properties :
#
#
# Convention : Reuss Voigt Hill
#
# Bulk Modulus (GPa) = 11.96568 18.24356 15.10462
# Shear Modulus (GPa) = 19.66895 23.88213 21.77554
#
# Velocity S-wave (km/s) = 3.06112 3.37308 3.22088
# Velocity P-wave (km/s) = 4.26551 4.88484 4.58564
#
# Compressibility (1/GPa) = 0.08357232
#
# Stress axis : x y z
#
# Youngs Moduli (GPa) = 98.34554 46.49183 23.21297
#
# Poissons Ratio (x) = -0.00719 0.05074
# Poissons Ratio (y) = -0.01520 -0.14947
# Poissons Ratio (z) = 0.21498 -0.29937
#
# Static dielectric constant tensor:
#      x y z
#    x 1.815130 0.000000 0.000000 
#    y 0.000000 1.689700 0.000000 
#    z 0.000000 0.000000 1.769090 
# 
# From -- ./inp_files/9457.got.cif
#   From: 2010.05.17/outbox.cif.g08.bks.cpg/sg57_5_cif.got.tgz:9457.got - 2010.06.03 13:58:18.
