data_PCOD9436514
_publ_section_title
;
Structure prediction by ZEFSAII (Michael W. Deem and Ramdas Pophale) SiO2 
 PCOD9436514
Probable space group: P B C M
;
_chemical_formula_sum "Si O2"
_cell_formula_units_Z 64
_cell_length_a 21.951472
_cell_length_b 19.331776
_cell_length_c 8.841112
_cell_angle_alpha 90.000000
_cell_angle_beta 90.000000
_cell_angle_gamma 90.000000
_cell_volume 3751.822595
_symmetry_space_group_name_H-M "P B C M"
_symmetry_group_IT_number 57
_symmetry_cell_setting 'orthorhombic'
loop_
_space_group_symop_operation_xyz
x,y,z
-x,-y,1/2+z
x,1/2-y,-z
-x,1/2+y,1/2-z
-x,-y,-z
x,y,1/2-z
-x,1/2+y,z
x,1/2-y,1/2+z
loop_
_atom_site_type_symbol
_atom_site_label
_atom_site_fract_x
_atom_site_fract_y
_atom_site_fract_z
Si Si1 0.032478 0.174040 0.931172
Si Si2 0.725806 0.640561 0.077611
Si Si3 0.187631 0.938558 0.066920
Si Si4 0.395736 0.179944 0.571415
Si Si5 0.317953 0.519326 0.922753
Si Si6 0.144215 0.094370 0.067687
Si Si7 0.438127 0.471375 0.069292
Si Si8 0.098405 0.825898 0.931346
O O1 0.028426 0.178186 0.750000
O O2 0.045839 0.250000 0.000000
O O3 0.085355 0.122524 0.983570
O O4 0.967309 0.152829 0.000692
O O5 0.720589 0.667155 0.250000
O O6 0.707438 0.559413 0.082360
O O7 0.796006 0.640251 0.028527
O O8 0.675572 0.674576 0.972455
O O9 0.185317 0.931027 0.250000
O O10 0.259161 0.938131 0.022484
O O11 0.159837 0.014486 0.031846
O O12 0.148743 0.879980 0.986357
O O13 0.421059 0.250000 0.500000
O O14 0.402034 0.183306 0.750000
O O15 0.425795 0.107998 0.517411
O O16 0.332354 0.539549 0.750000
O O17 0.379439 0.515892 0.018096
O O18 0.136676 0.099101 0.250000
O O19 0.441671 0.471334 0.250000
O O20 0.500000 0.500000 0.000000
O O21 0.095062 0.822162 0.750000
O O22 0.111149 0.750000 0.000000
#
# Coordination Sequence:
#
# PCOD9436514 Si02
#       8
#     8   8   8   8   8   8   8   8
#     4  11  22  36  52  69  95 131 171 214 260 310
#     4   8  15  29  48  69  96 130 163 197 239 287
#     4   9  18  34  56  80 105 132 164 207 256 304
#     4  10  20  32  48  72 101 134 172 212 249 290
#     4   8  15  30  52  76 102 130 159 196 242 289
#     4   9  18  33  52  75 103 134 169 207 251 302
#     4  10  20  33  52  78 106 138 175 210 249 299
#     4  11  22  37  56  75  98 129 168 213 262 315
#
# _framework density 17.058377
#
# number of rings (size 3 to 8) (size 9 to 14) (size 15 to 20)
#    0.000    2.500    0.000    5.250    0.000    4.000 
#    0.000    2.500    0.000    0.750    0.000    3.500 
#    0.000    0.000    0.000    0.000    0.000    0.000 
#
# Total GULP energy -356848.718027 kJ/mol
# GULP energy per Si atom -5575.761219 kJ/mol
# Density = 1.701955 g / cm^3
# Si number density = 17.058377 Si / 1000 Ang^3
#
#
#
# Elastic Constant Matrix: (Units=GPa)
#
#
# Indices 1 2 3 4 5 6 
#
# 1 141.9426 69.4737 63.0834 0.0000 0.0000 0.0000
# 2 69.4737 66.7565 41.9899 0.0000 0.0000 0.0000
# 3 63.0834 41.9899 77.2745 0.0000 0.0000 0.0000
# 4 0.0000 0.0000 0.0000 23.4629 0.0000 0.0000
# 5 0.0000 0.0000 0.0000 0.0000 27.0272 0.0000
# 6 0.0000 0.0000 0.0000 0.0000 0.0000 13.3193
#
#
#
# Elastic Compliance Matrix: (Units=1/GPa)
#
#
# Indices 1 2 3 4 5 6 
#
# 1 0.016063 -0.012867 -0.006122 0.000000 0.000000 0.000000
# 2 -0.012867 0.033064 -0.007463 0.000000 0.000000 0.000000
# 3 -0.006122 -0.007463 0.021994 0.000000 0.000000 0.000000
# 4 0.000000 0.000000 0.000000 0.042620 0.000000 0.000000
# 5 0.000000 0.000000 0.000000 0.000000 0.037000 0.000000
# 6 0.000000 0.000000 0.000000 0.000000 0.000000 0.075079
#
#
# Mechanical properties :
#
#
# Convention : Reuss Voigt Hill
#
# Bulk Modulus (GPa) = 54.88904 70.56307 62.72606
# Shear Modulus (GPa) = 17.55638 20.19031 18.87335
#
# Velocity S-wave (km/s) = 3.21159 3.44408 3.32986
# Velocity P-wave (km/s) = 6.78229 7.56776 7.18577
#
# Compressibility (1/GPa) = 0.01821857
#
# Stress axis : x y z
#
# Youngs Moduli (GPa) = 62.25344 30.24409 45.46722
#
# Poissons Ratio (x) = 0.38914 0.27835
# Poissons Ratio (y) = 0.80098 0.33932
# Poissons Ratio (z) = 0.38111 0.22571
#
# Static dielectric constant tensor:
#      x y z
#    x 1.572880 0.000000 0.000000 
#    y 0.000000 1.584350 0.000000 
#    z 0.000000 0.000000 1.574020 
# 
# From -- ./inp_files/8563.got.cif
#   From: 2010.05.17/outbox.cif.g08.bks.cpg/sg57_5_cif.got.tgz:8563.got - 2010.06.03 13:58:18.
