data_PCOD9436344
_publ_section_title
;
Structure prediction by ZEFSAII (Michael W. Deem and Ramdas Pophale) SiO2 
 PCOD9436344
Probable space group: P B C M
;
_chemical_formula_sum "Si O2"
_cell_formula_units_Z 56
_cell_length_a 15.827181
_cell_length_b 12.173528
_cell_length_c 14.280290
_cell_angle_alpha 90.000000
_cell_angle_beta 90.000000
_cell_angle_gamma 90.000000
_cell_volume 2751.421047
_symmetry_space_group_name_H-M "P B C M"
_symmetry_group_IT_number 57
_symmetry_cell_setting 'orthorhombic'
loop_
_space_group_symop_operation_xyz
x,y,z
-x,-y,1/2+z
x,1/2-y,-z
-x,1/2+y,1/2-z
-x,-y,-z
x,y,1/2-z
-x,1/2+y,z
x,1/2-y,1/2+z
loop_
_atom_site_type_symbol
_atom_site_label
_atom_site_fract_x
_atom_site_fract_y
_atom_site_fract_z
Si Si1 0.385995 0.972515 0.457029
Si Si2 0.153004 0.276550 0.855414
Si Si3 0.549192 0.919817 0.357262
Si Si4 0.871791 0.968222 0.138516
Si Si5 0.657311 0.792036 0.604271
Si Si6 0.797394 0.379359 0.485079
Si Si7 0.929545 0.997375 0.861749
O O1 0.457954 0.901763 0.405946
O O2 0.293460 0.921600 0.450030
O O3 0.406941 0.998813 0.566454
O O4 0.387786 0.091088 0.405445
O O5 0.118545 0.262420 0.750000
O O6 0.149243 0.154745 0.896274
O O7 0.251125 0.308383 0.851304
O O8 0.100248 0.377041 0.896166
O O9 0.543059 0.960398 0.250000
O O10 0.601358 0.805900 0.354522
O O11 0.854087 0.976132 0.250000
O O12 0.971288 0.987133 0.122810
O O13 0.818826 0.055953 0.080619
O O14 0.676020 0.750000 0.500000
O O15 0.796217 0.250000 0.500000
O O16 0.871383 0.415012 0.413999
O O17 0.914220 0.003638 0.750000
#
# Coordination Sequence:
#
# PCOD9436344 Si02
#       7
#     8   8   8   8   8   8   8
#     4  10  23  42  60  90 132 165 207 270 324 386
#     4  10  20  36  65  94 120 163 214 265 324 380
#     4  10  22  39  65  94 121 162 215 268 327 386
#     4  10  23  42  65  94 127 168 220 273 323 380
#     4  10  19  36  61  88 122 160 201 266 322 376
#     4  12  26  42  63  93 130 178 216 255 324 395
#     4  10  23  42  63  93 131 167 213 271 322 378
#
# _framework density 20.353117999999998
#
# number of rings (size 3 to 8) (size 9 to 14) (size 15 to 20)
#    0.000    1.714    1.429    2.571    2.000    6.857 
#    0.000    0.000    0.000    0.000    0.000    0.000 
#    0.000    0.000    0.000    0.000    0.000    0.000 
#
# Total GULP energy -312731.410706 kJ/mol
# GULP energy per Si atom -5584.489477 kJ/mol
# Density = 2.030679 g / cm^3
# Si number density = 20.353118 Si / 1000 Ang^3
#
#
#
# Elastic Constant Matrix: (Units=GPa)
#
#
# Indices 1 2 3 4 5 6 
#
# 1 77.0957 17.9673 4.4359 0.0000 0.0000 0.0000
# 2 17.9673 95.3460 8.6637 0.0000 0.0000 0.0000
# 3 4.4359 8.6637 78.9339 0.0000 0.0000 0.0000
# 4 0.0000 0.0000 0.0000 21.4052 0.0000 0.0000
# 5 0.0000 0.0000 0.0000 0.0000 23.9351 0.0000
# 6 0.0000 0.0000 0.0000 0.0000 0.0000 26.7978
#
#
#
# Elastic Compliance Matrix: (Units=1/GPa)
#
#
# Indices 1 2 3 4 5 6 
#
# 1 0.013585 -0.002516 -0.000487 0.000000 0.000000 0.000000
# 2 -0.002516 0.011060 -0.001073 0.000000 0.000000 0.000000
# 3 -0.000487 -0.001073 0.012814 0.000000 0.000000 0.000000
# 4 0.000000 0.000000 0.000000 0.046718 0.000000 0.000000
# 5 0.000000 0.000000 0.000000 0.000000 0.041780 0.000000
# 6 0.000000 0.000000 0.000000 0.000000 0.000000 0.037317
#
#
# Mechanical properties :
#
#
# Convention : Reuss Voigt Hill
#
# Bulk Modulus (GPa) = 34.12084 34.83438 34.47761
# Shear Modulus (GPa) = 27.59489 29.11487 28.35488
#
# Velocity S-wave (km/s) = 3.68612 3.78628 3.73654
# Velocity P-wave (km/s) = 5.90910 6.02219 5.96591
#
# Compressibility (1/GPa) = 0.02930760
#
# Stress axis : x y z
#
# Youngs Moduli (GPa) = 73.60929 90.41881 78.04006
#
# Poissons Ratio (x) = 0.22747 0.03803
# Poissons Ratio (y) = 0.18518 0.08370
# Poissons Ratio (z) = 0.03587 0.09698
#
# Static dielectric constant tensor:
#      x y z
#    x 1.703940 0.000000 0.000000 
#    y 0.000000 1.712240 0.000000 
#    z 0.000000 0.000000 1.808410 
# 
# From -- ./inp_files/18546.got.cif
#   From: 2010.05.17/outbox.cif.g08.bks.cpg/sg57_10_cif.got.tgz:18546.got - 2010.06.03 13:58:18.
