data_PCOD9436376
_publ_section_title
;
Structure prediction by ZEFSAII (Michael W. Deem and Ramdas Pophale) SiO2 
 PCOD9436376
Probable space group: P B C M
;
_chemical_formula_sum "Si O2"
_cell_formula_units_Z 40
_cell_length_a 8.948570
_cell_length_b 23.068768
_cell_length_c 9.994135
_cell_angle_alpha 90.000000
_cell_angle_beta 90.000000
_cell_angle_gamma 90.000000
_cell_volume 2063.114126
_symmetry_space_group_name_H-M "P B C M"
_symmetry_group_IT_number 57
_symmetry_cell_setting 'orthorhombic'
loop_
_space_group_symop_operation_xyz
x,y,z
-x,-y,1/2+z
x,1/2-y,-z
-x,1/2+y,1/2-z
-x,-y,-z
x,y,1/2-z
-x,1/2+y,z
x,1/2-y,1/2+z
loop_
_atom_site_type_symbol
_atom_site_label
_atom_site_fract_x
_atom_site_fract_y
_atom_site_fract_z
Si Si1 0.893074 0.696976 0.907390
Si Si2 0.745791 0.994948 0.027698
Si Si3 0.015405 0.920642 0.102685
Si Si4 0.467778 0.193038 0.909979
Si Si5 0.496471 0.085273 0.100612
O O1 0.927116 0.706061 0.750000
O O2 0.976369 0.640315 0.962949
O O3 0.713521 0.689172 0.914145
O O4 0.935014 0.750000 0.000000
O O5 0.860455 0.038929 0.959152
O O6 0.652766 0.951306 0.933564
O O7 0.625672 0.036492 0.097317
O O8 0.857867 0.954344 0.109347
O O9 0.069221 0.906761 0.250000
O O10 0.509142 0.195902 0.750000
O O11 0.508988 0.250000 0.000000
O O12 0.521283 0.134912 0.988271
O O13 0.486537 0.110895 0.250000
#
# Coordination Sequence:
#
# PCOD9436376 Si02
#       5
#     8   8   8   8   8
#     4   9  18  34  56  82 111 145 185 234 282 336
#     4  10  22  36  56  84 117 156 195 237 287 346
#     4  10  19  37  58  82 114 152 193 238 289 343
#     4  10  20  36  59  85 115 150 192 240 288 343
#     4  11  22  37  58  87 119 154 195 241 290 347
#
# _framework density 19.388165000000001
#
# number of rings (size 3 to 8) (size 9 to 14) (size 15 to 20)
#    0.000    2.000    2.000    1.800    0.000    4.800 
#    0.000    3.000    0.000    2.400    0.000    0.000 
#    0.000    0.000    0.000    0.000    0.000    0.000 
#
# Total GULP energy -222741.567113 kJ/mol
# GULP energy per Si atom -5568.539178 kJ/mol
# Density = 1.934404 g / cm^3
# Si number density = 19.388165 Si / 1000 Ang^3
#
#
#
# Elastic Constant Matrix: (Units=GPa)
#
#
# Indices 1 2 3 4 5 6 
#
# 1 52.2495 12.3907 15.1074 0.0000 0.0000 0.0000
# 2 12.3907 125.8479 47.7289 0.0000 0.0000 0.0000
# 3 15.1074 47.7289 104.2529 0.0000 0.0000 0.0000
# 4 0.0000 0.0000 0.0000 18.8144 0.0000 0.0000
# 5 0.0000 0.0000 0.0000 0.0000 -13.8575 0.0000
# 6 0.0000 0.0000 0.0000 0.0000 0.0000 17.2670
#
#
#
# Elastic Compliance Matrix: (Units=1/GPa)
#
#
# Indices 1 2 3 4 5 6 
#
# 1 0.020092 -0.001058 -0.002427 0.000000 0.000000 0.000000
# 2 -0.001058 0.009671 -0.004274 0.000000 0.000000 0.000000
# 3 -0.002427 -0.004274 0.011901 0.000000 0.000000 0.000000
# 4 0.000000 0.000000 0.000000 0.053151 0.000000 0.000000
# 5 0.000000 0.000000 0.000000 0.000000 -0.072163 0.000000
# 6 0.000000 0.000000 0.000000 0.000000 0.000000 0.057914
#
#
# Mechanical properties :
#
#
# Convention : Reuss Voigt Hill
#
# Bulk Modulus (GPa) = 38.24835 48.08936 43.16886
# Shear Modulus (GPa) = 47.71052 18.25301 32.98177
#
# Velocity S-wave (km/s) = 4.96603 3.07164 4.12895
# Velocity P-wave (km/s) = 7.25620 6.11860 6.71155
#
# Compressibility (1/GPa) = 0.02614492
#
# Stress axis : x y z
#
# Youngs Moduli (GPa) = 49.77213 103.39816 84.02844
#
# Poissons Ratio (x) = 0.10935 0.20396
# Poissons Ratio (y) = 0.05264 0.35918
# Poissons Ratio (z) = 0.12081 0.44197
#
# Static dielectric constant tensor:
#      x y z
#    x 1.676030 0.000000 0.000000 
#    y 0.000000 1.704960 0.000000 
#    z 0.000000 0.000000 1.715330 
# 
# From -- ./inp_files/1543.got.cif
#   From: 2010.05.17/outbox.cif.g08.bks.cpg/sg57_1_cif.got.tgz:1543.got - 2010.06.03 13:58:18.
