data_PCOD9436040
_publ_section_title
;
Structure prediction by ZEFSAII (Michael W. Deem and Ramdas Pophale) SiO2 
 PCOD9436040
Probable space group: P B C M
;
_chemical_formula_sum "Si O2"
_cell_formula_units_Z 64
_cell_length_a 12.012375
_cell_length_b 18.622322
_cell_length_c 15.815236
_cell_angle_alpha 90.000000
_cell_angle_beta 90.000000
_cell_angle_gamma 90.000000
_cell_volume 3537.841648
_symmetry_space_group_name_H-M "P B C M"
_symmetry_group_IT_number 57
_symmetry_cell_setting 'orthorhombic'
loop_
_space_group_symop_operation_xyz
x,y,z
-x,-y,1/2+z
x,1/2-y,-z
-x,1/2+y,1/2-z
-x,-y,-z
x,y,1/2-z
-x,1/2+y,z
x,1/2-y,1/2+z
loop_
_atom_site_type_symbol
_atom_site_label
_atom_site_fract_x
_atom_site_fract_y
_atom_site_fract_z
Si Si1 0.765412 0.189310 0.849937
Si Si2 0.384922 0.966979 0.534926
Si Si3 0.029195 0.411498 0.929085
Si Si4 0.827515 0.684233 0.946002
Si Si5 0.980352 0.231898 0.152838
Si Si6 0.549523 0.175749 0.962623
Si Si7 0.158368 0.547702 0.563031
Si Si8 0.361296 0.098023 0.850755
O O1 0.741825 0.193260 0.750000
O O2 0.855924 0.248839 0.875051
O O3 0.656150 0.195008 0.905991
O O4 0.822172 0.113462 0.874023
O O5 0.410434 0.881545 0.534267
O O6 0.279614 0.975515 0.471801
O O7 0.500000 0.000000 0.500000
O O8 0.356464 0.015202 0.616713
O O9 0.088253 0.483089 0.896590
O O10 0.002348 0.351702 0.860562
O O11 0.118313 0.374334 0.992009
O O12 0.918702 0.428741 0.983473
O O13 0.745398 0.643042 0.883174
O O14 0.930170 0.722703 0.899136
O O15 0.773988 0.750000 0.000000
O O16 0.990008 0.252718 0.250000
O O17 0.463019 0.135450 0.901184
O O18 0.504568 0.250000 0.000000
O O19 0.373613 0.101616 0.750000
#
# Coordination Sequence:
#
# PCOD9436040 Si02
#       8
#     8   8   8   8   8   8   8   8
#     4  10  21  35  55  83 114 146 186 239 288 333
#     4   9  20  37  58  83 109 144 185 229 278 337
#     4  10  20  33  56  79 109 150 191 230 271 342
#     4  10  19  34  57  80 112 151 194 228 278 337
#     4  10  21  35  52  81 115 148 185 234 286 324
#     4  10  22  38  63  84 110 150 194 231 276 349
#     4  10  19  35  57  80 107 146 195 225 277 340
#     4  11  21  38  59  85 115 146 185 238 290 332
#
# _framework density 18.090126000000001
#
# number of rings (size 3 to 8) (size 9 to 14) (size 15 to 20)
#    0.000    2.000    2.500    1.125    3.500    0.500 
#    0.000    1.875    0.000    0.000    0.000    0.000 
#    0.000    0.000    0.000    0.000    0.000    0.000 
#
# Total GULP energy -356761.431869 kJ/mol
# GULP energy per Si atom -5574.397373 kJ/mol
# Density = 1.804895 g / cm^3
# Si number density = 18.090126 Si / 1000 Ang^3
#
#
#
# Elastic Constant Matrix: (Units=GPa)
#
#
# Indices 1 2 3 4 5 6 
#
# 1 67.0440 14.4895 13.0821 0.0000 0.0000 0.0000
# 2 14.4895 67.3403 22.7685 0.0000 0.0000 0.0000
# 3 13.0821 22.7685 56.1196 0.0000 0.0000 0.0000
# 4 0.0000 0.0000 0.0000 17.0827 0.0000 0.0000
# 5 0.0000 0.0000 0.0000 0.0000 20.2402 0.0000
# 6 0.0000 0.0000 0.0000 0.0000 0.0000 19.1074
#
#
#
# Elastic Compliance Matrix: (Units=1/GPa)
#
#
# Indices 1 2 3 4 5 6 
#
# 1 0.015989 -0.002527 -0.002702 0.000000 0.000000 0.000000
# 2 -0.002527 0.017610 -0.006556 0.000000 0.000000 0.000000
# 3 -0.002702 -0.006556 0.021109 0.000000 0.000000 0.000000
# 4 0.000000 0.000000 0.000000 0.058539 0.000000 0.000000
# 5 0.000000 0.000000 0.000000 0.000000 0.049407 0.000000
# 6 0.000000 0.000000 0.000000 0.000000 0.000000 0.052336
#
#
# Mechanical properties :
#
#
# Convention : Reuss Voigt Hill
#
# Bulk Modulus (GPa) = 32.11424 32.35379 32.23402
# Shear Modulus (GPa) = 20.08536 20.63031 20.35784
#
# Velocity S-wave (km/s) = 3.33572 3.38067 3.35827
# Velocity P-wave (km/s) = 5.71200 5.75866 5.73538
#
# Compressibility (1/GPa) = 0.03113883
#
# Stress axis : x y z
#
# Youngs Moduli (GPa) = 62.54347 56.78535 47.37384
#
# Poissons Ratio (x) = 0.14348 0.12801
# Poissons Ratio (y) = 0.15803 0.31057
# Poissons Ratio (z) = 0.16900 0.37227
#
# Static dielectric constant tensor:
#      x y z
#    x 1.629020 0.000000 0.000000 
#    y 0.000000 1.647290 0.000000 
#    z 0.000000 0.000000 1.548960 
# 
# From -- ./inp_files/17998.got.cif
#   From: 2010.05.17/outbox.cif.g08.bks.cpg/sg57_9_cif.got.tgz:17998.got - 2010.06.03 13:58:18.
