data_PCOD9436425
_publ_section_title
;
Structure prediction by ZEFSAII (Michael W. Deem and Ramdas Pophale) SiO2 
 PCOD9436425
Probable space group: P B C M
;
_chemical_formula_sum "Si O2"
_cell_formula_units_Z 56
_cell_length_a 9.557911
_cell_length_b 13.960832
_cell_length_c 17.910006
_cell_angle_alpha 90.000000
_cell_angle_beta 90.000000
_cell_angle_gamma 90.000000
_cell_volume 2389.846541
_symmetry_space_group_name_H-M "P B C M"
_symmetry_group_IT_number 57
_symmetry_cell_setting 'orthorhombic'
loop_
_space_group_symop_operation_xyz
x,y,z
-x,-y,1/2+z
x,1/2-y,-z
-x,1/2+y,1/2-z
-x,-y,-z
x,y,1/2-z
-x,1/2+y,z
x,1/2-y,1/2+z
loop_
_atom_site_type_symbol
_atom_site_label
_atom_site_fract_x
_atom_site_fract_y
_atom_site_fract_z
Si Si1 0.602424 0.502875 0.071665
Si Si2 0.198140 0.111724 0.337035
Si Si3 0.015236 0.838786 0.452433
Si Si4 0.309361 0.785872 0.083654
Si Si5 0.641320 0.504780 0.836995
Si Si6 0.919392 0.040390 0.097522
Si Si7 0.590316 0.719111 0.663197
O O1 0.738798 0.566025 0.085507
O O2 0.656934 0.397770 0.086099
O O3 0.508514 0.535961 0.141546
O O4 0.500000 0.500000 0.000000
O O5 0.227610 0.078428 0.250000
O O6 0.272308 0.214999 0.341281
O O7 0.034870 0.090162 0.350124
O O8 0.946222 0.750000 0.500000
O O9 0.140333 0.787761 0.404632
O O10 0.075714 0.907450 0.517901
O O11 0.940858 0.923820 0.405457
O O12 0.443652 0.744914 0.128043
O O13 0.325838 0.750000 0.000000
O O14 0.666608 0.507160 0.750000
O O15 0.762846 0.445623 0.874503
O O16 0.631305 0.614018 0.867217
O O17 0.557026 0.705568 0.750000
#
# Coordination Sequence:
#
# PCOD9436425 Si02
#       7
#     8   8   8   8   8   8   8
#     4  11  21  36  61  91 120 161 210 262 320 371
#     4  11  23  41  64  93 129 169 216 269 320 386
#     4  10  23  41  63  91 133 164 210 269 315 379
#     4  10  19  38  59  88 119 158 203 260 312 372
#     4  10  22  40  62  90 129 167 207 262 319 383
#     4  11  23  41  65  95 126 174 217 257 327 386
#     4   9  21  39  61  90 126 165 212 260 317 382
#
# _framework density 23.432466999999999
#
# number of rings (size 3 to 8) (size 9 to 14) (size 15 to 20)
#    0.000    1.714    1.429    2.571    4.000    1.714 
#    0.000    0.000    0.000    3.429    0.000    0.000 
#    0.000    0.000    0.000    0.000    0.000    0.000 
#
# Total GULP energy -311782.486737 kJ/mol
# GULP energy per Si atom -5567.544406 kJ/mol
# Density = 2.337913 g / cm^3
# Si number density = 23.432467 Si / 1000 Ang^3
#
#
#
# Elastic Constant Matrix: (Units=GPa)
#
#
# Indices 1 2 3 4 5 6 
#
# 1 82.3769 2.6733 10.2726 0.0000 0.0000 0.0000
# 2 2.6733 80.0379 -7.9801 0.0000 0.0000 0.0000
# 3 10.2726 -7.9801 41.2724 0.0000 0.0000 0.0000
# 4 0.0000 0.0000 0.0000 26.2295 0.0000 0.0000
# 5 0.0000 0.0000 0.0000 0.0000 20.9264 0.0000
# 6 0.0000 0.0000 0.0000 0.0000 0.0000 29.6276
#
#
#
# Elastic Compliance Matrix: (Units=1/GPa)
#
#
# Indices 1 2 3 4 5 6 
#
# 1 0.012572 -0.000746 -0.003273 0.000000 0.000000 0.000000
# 2 -0.000746 0.012784 0.002658 0.000000 0.000000 0.000000
# 3 -0.003273 0.002658 0.025558 0.000000 0.000000 0.000000
# 4 0.000000 0.000000 0.000000 0.038125 0.000000 0.000000
# 5 0.000000 0.000000 0.000000 0.000000 0.047787 0.000000
# 6 0.000000 0.000000 0.000000 0.000000 0.000000 0.033752
#
#
# Mechanical properties :
#
#
# Convention : Reuss Voigt Hill
#
# Bulk Modulus (GPa) = 20.75149 23.73545 22.24347
# Shear Modulus (GPa) = 26.40406 28.60478 27.50442
#
# Velocity S-wave (km/s) = 3.36045 3.49769 3.42976
# Velocity P-wave (km/s) = 4.89203 5.14423 5.01971
#
# Compressibility (1/GPa) = 0.04818932
#
# Stress axis : x y z
#
# Youngs Moduli (GPa) = 79.54346 78.22298 39.12697
#
# Poissons Ratio (x) = 0.05838 0.12808
# Poissons Ratio (y) = 0.05936 -0.10398
# Poissons Ratio (z) = 0.26038 -0.20788
#
# Static dielectric constant tensor:
#      x y z
#    x 1.930090 0.000000 0.000000 
#    y 0.000000 1.846530 0.000000 
#    z 0.000000 0.000000 1.883380 
# 
# From -- ./inp_files/24450.got.cif
#   From: 2010.05.17/outbox.cif.g08.bks.cpg/sg57_13_cif.got.tgz:24450.got - 2010.06.03 13:58:18.
