data_PCOD9436554
_publ_section_title
;
Structure prediction by ZEFSAII (Michael W. Deem and Ramdas Pophale) SiO2 
 PCOD9436554
Probable space group: P B C M
;
_chemical_formula_sum "Si O2"
_cell_formula_units_Z 44
_cell_length_a 7.896756
_cell_length_b 9.258646
_cell_length_c 28.244397
_cell_angle_alpha 90.000000
_cell_angle_beta 90.000000
_cell_angle_gamma 90.000000
_cell_volume 2065.040177
_symmetry_space_group_name_H-M "P B C M"
_symmetry_group_IT_number 57
_symmetry_cell_setting 'orthorhombic'
loop_
_space_group_symop_operation_xyz
x,y,z
-x,-y,1/2+z
x,1/2-y,-z
-x,1/2+y,1/2-z
-x,-y,-z
x,y,1/2-z
-x,1/2+y,z
x,1/2-y,1/2+z
loop_
_atom_site_type_symbol
_atom_site_label
_atom_site_fract_x
_atom_site_fract_y
_atom_site_fract_z
Si Si1 0.895304 0.538718 0.953673
Si Si2 0.259009 0.820611 0.803551
Si Si3 0.649120 0.852584 0.597290
Si Si4 0.524111 0.590745 0.660038
Si Si5 0.373137 0.250000 0.000000
Si Si6 0.036855 0.793181 0.895191
O O1 0.741524 0.632478 0.973089
O O2 0.841744 0.395373 0.926086
O O3 0.006740 0.638996 0.918877
O O4 0.000000 0.500000 0.000000
O O5 0.194059 0.821869 0.750000
O O6 0.394510 0.689114 0.809420
O O7 0.112651 0.795402 0.842693
O O8 0.354387 0.974218 0.813900
O O9 0.621326 0.711009 0.629672
O O10 0.557332 0.831501 0.546381
O O11 0.852044 0.863179 0.596064
O O12 0.579359 0.991579 0.623764
#
# Coordination Sequence:
#
# PCOD9436554 Si02
#       6
#     8   8   8   8   4   8
#     4  11  18  34  56  91 121 159 191 244 305 364
#     4  11  23  42  65  91 119 160 208 255 311 364
#     4  10  21  40  59  88 122 161 200 252 299 368
#     4  10  23  42  62  83 126 166 197 247 320 367
#     4  10  20  32  60  84 126 154 212 236 306 362
#     4  11  22  37  63  92 119 155 209 260 291 353
#
# _framework density 21.307091
#
# number of rings (size 3 to 8) (size 9 to 14) (size 15 to 20)
#    0.000    1.455    3.636    3.818    0.000    0.727 
#    0.000   11.818    0.000    0.000    0.000    0.000 
#    0.000    0.000    0.000    0.000    0.000    0.000 
#
# Total GULP energy -245481.483031 kJ/mol
# GULP energy per Si atom -5579.124614 kJ/mol
# Density = 2.125859 g / cm^3
# Si number density = 21.307091 Si / 1000 Ang^3
#
#
#
# Elastic Constant Matrix: (Units=GPa)
#
#
# Indices 1 2 3 4 5 6 
#
# 1 44.2485 10.6853 15.2642 0.0000 0.0000 0.0000
# 2 10.6853 108.5241 13.1204 0.0000 0.0000 0.0000
# 3 15.2642 13.1204 145.3850 0.0000 0.0000 0.0000
# 4 0.0000 0.0000 0.0000 12.3686 0.0000 0.0000
# 5 0.0000 0.0000 0.0000 0.0000 23.5602 0.0000
# 6 0.0000 0.0000 0.0000 0.0000 0.0000 17.6825
#
#
#
# Elastic Compliance Matrix: (Units=1/GPa)
#
#
# Indices 1 2 3 4 5 6 
#
# 1 0.023901 -0.002073 -0.002322 0.000000 0.000000 0.000000
# 2 -0.002073 0.009496 -0.000639 0.000000 0.000000 0.000000
# 3 -0.002322 -0.000639 0.007180 0.000000 0.000000 0.000000
# 4 0.000000 0.000000 0.000000 0.080850 0.000000 0.000000
# 5 0.000000 0.000000 0.000000 0.000000 0.042445 0.000000
# 6 0.000000 0.000000 0.000000 0.000000 0.000000 0.056553
#
#
# Mechanical properties :
#
#
# Convention : Reuss Voigt Hill
#
# Bulk Modulus (GPa) = 32.77786 41.81080 37.29433
# Shear Modulus (GPa) = 20.77598 27.99477 24.38537
#
# Velocity S-wave (km/s) = 3.12600 3.62867 3.38667
# Velocity P-wave (km/s) = 5.33349 6.10097 5.73010
#
# Compressibility (1/GPa) = 0.03050840
#
# Stress axis : x y z
#
# Youngs Moduli (GPa) = 41.83877 105.30860 139.27924
#
# Poissons Ratio (x) = 0.21826 0.32346
# Poissons Ratio (y) = 0.08671 0.08905
# Poissons Ratio (z) = 0.09717 0.06733
#
# Static dielectric constant tensor:
#      x y z
#    x 1.859830 0.000000 0.000000 
#    y 0.000000 1.776230 0.000000 
#    z 0.000000 0.000000 1.790700 
# 
# From -- ./inp_files/29415.got.cif
#   From: 2010.05.17/outbox.cif.g08.bks.cpg/sg57_15_cif.got.tgz:29415.got - 2010.06.03 13:58:18.
