data_PCOD9436183
_publ_section_title
;
Structure prediction by ZEFSAII (Michael W. Deem and Ramdas Pophale) SiO2 
 PCOD9436183
Probable space group: P B C M
;
_chemical_formula_sum "Si O2"
_cell_formula_units_Z 56
_cell_length_a 11.985727
_cell_length_b 11.637085
_cell_length_c 18.925898
_cell_angle_alpha 90.000000
_cell_angle_beta 90.000000
_cell_angle_gamma 90.000000
_cell_volume 2639.763887
_symmetry_space_group_name_H-M "P B C M"
_symmetry_group_IT_number 57
_symmetry_cell_setting 'orthorhombic'
loop_
_space_group_symop_operation_xyz
x,y,z
-x,-y,1/2+z
x,1/2-y,-z
-x,1/2+y,1/2-z
-x,-y,-z
x,y,1/2-z
-x,1/2+y,z
x,1/2-y,1/2+z
loop_
_atom_site_type_symbol
_atom_site_label
_atom_site_fract_x
_atom_site_fract_y
_atom_site_fract_z
Si Si1 0.873175 0.558373 0.390177
Si Si2 0.255450 0.277976 0.167573
Si Si3 0.736785 0.366940 0.832143
Si Si4 0.932727 0.313386 0.931390
Si Si5 0.692845 0.403937 0.166621
Si Si6 0.027268 0.382231 0.328239
Si Si7 0.559516 0.940357 0.335413
O O1 0.799997 0.667322 0.367099
O O2 0.781902 0.457750 0.387734
O O3 0.959184 0.606216 0.449090
O O4 0.965364 0.503149 0.337339
O O5 0.272057 0.249512 0.250000
O O6 0.160635 0.377195 0.164039
O O7 0.369480 0.330499 0.138076
O O8 0.769670 0.392065 0.750000
O O9 0.836012 0.376373 0.888497
O O10 0.632087 0.447165 0.851148
O O11 0.701258 0.233241 0.833772
O O12 0.979138 0.211710 0.881525
O O13 0.888608 0.250000 0.000000
O O14 0.714201 0.439601 0.250000
O O15 0.569192 0.442436 0.144632
O O16 0.001810 0.338161 0.250000
O O17 0.558686 0.930107 0.250000
#
# Coordination Sequence:
#
# PCOD9436183 Si02
#       7
#     8   8   8   8   8   8   8
#     4  11  21  34  56  83 116 153 193 240 296 354
#     4   9  18  30  50  81 115 148 185 235 293 352
#     4  10  20  38  61  86 120 158 198 247 302 359
#     4  11  24  39  58  86 121 163 200 247 301 364
#     4  10  20  33  55  88 119 151 192 244 300 352
#     4  10  19  35  57  88 119 149 195 248 303 356
#     4   9  19  33  54  87 122 153 191 243 301 355
#
# _framework density 21.214017999999999
#
# number of rings (size 3 to 8) (size 9 to 14) (size 15 to 20)
#    0.000    2.000    1.429    2.571    2.000    4.571 
#    0.000    0.000    0.000    1.714    0.000    0.000 
#    0.000    0.000    0.000    0.000    0.000    0.000 
#
# Total GULP energy -312179.784515 kJ/mol
# GULP energy per Si atom -5574.639009 kJ/mol
# Density = 2.116573 g / cm^3
# Si number density = 21.214018 Si / 1000 Ang^3
#
#
#
# Elastic Constant Matrix: (Units=GPa)
#
#
# Indices 1 2 3 4 5 6 
#
# 1 123.2258 27.5934 5.2351 0.0000 0.0000 0.0000
# 2 27.5934 85.0059 5.5629 0.0000 0.0000 0.0000
# 3 5.2351 5.5629 26.8736 0.0000 0.0000 0.0000
# 4 0.0000 0.0000 0.0000 14.7603 0.0000 0.0000
# 5 0.0000 0.0000 0.0000 0.0000 -11.7106 0.0000
# 6 0.0000 0.0000 0.0000 0.0000 0.0000 27.6669
#
#
#
# Elastic Compliance Matrix: (Units=1/GPa)
#
#
# Indices 1 2 3 4 5 6 
#
# 1 0.008785 -0.002777 -0.001136 0.000000 0.000000 0.000000
# 2 -0.002777 0.012803 -0.002109 0.000000 0.000000 0.000000
# 3 -0.001136 -0.002109 0.037869 0.000000 0.000000 0.000000
# 4 0.000000 0.000000 0.000000 0.067749 0.000000 0.000000
# 5 0.000000 0.000000 0.000000 0.000000 -0.085392 0.000000
# 6 0.000000 0.000000 0.000000 0.000000 0.000000 0.036144
#
#
# Mechanical properties :
#
#
# Convention : Reuss Voigt Hill
#
# Bulk Modulus (GPa) = 21.09187 34.65425 27.87306
# Shear Modulus (GPa) = 47.25482 19.25759 33.25620
#
# Velocity S-wave (km/s) = 4.72479 3.01620 3.96365
# Velocity P-wave (km/s) = 6.30308 5.33863 5.84080
#
# Compressibility (1/GPa) = 0.04741164
#
# Stress axis : x y z
#
# Youngs Moduli (GPa) = 113.82528 78.10376 26.40668
#
# Poissons Ratio (x) = 0.21693 0.03001
# Poissons Ratio (y) = 0.31614 0.05570
# Poissons Ratio (z) = 0.12936 0.16475
#
# Static dielectric constant tensor:
#      x y z
#    x 1.799360 0.000000 0.000000 
#    y 0.000000 1.834800 0.000000 
#    z 0.000000 0.000000 1.746680 
# 
# From -- ./inp_files/25041.got.cif
#   From: 2010.05.17/outbox.cif.g08.bks.cpg/sg57_13_cif.got.tgz:25041.got - 2010.06.03 13:58:18.
