data_PCOD9436950
_publ_section_title
;
Structure prediction by ZEFSAII (Michael W. Deem and Ramdas Pophale) SiO2 
 PCOD9436950
Probable space group: P B C M
;
_chemical_formula_sum "Si O2"
_cell_formula_units_Z 64
_cell_length_a 20.578637
_cell_length_b 20.184353
_cell_length_c 8.792444
_cell_angle_alpha 90.000000
_cell_angle_beta 90.000000
_cell_angle_gamma 90.000000
_cell_volume 3652.086457
_symmetry_space_group_name_H-M "P B C M"
_symmetry_group_IT_number 57
_symmetry_cell_setting 'orthorhombic'
loop_
_space_group_symop_operation_xyz
x,y,z
-x,-y,1/2+z
x,1/2-y,-z
-x,1/2+y,1/2-z
-x,-y,-z
x,y,1/2-z
-x,1/2+y,z
x,1/2-y,1/2+z
loop_
_atom_site_type_symbol
_atom_site_label
_atom_site_fract_x
_atom_site_fract_y
_atom_site_fract_z
Si Si1 0.521915 0.570399 0.566303
Si Si2 0.302239 0.593013 0.431529
Si Si3 0.922002 0.822890 0.568209
Si Si4 0.841143 0.056020 0.068082
Si Si5 0.331474 0.439394 0.067606
Si Si6 0.021387 0.929107 0.068468
Si Si7 0.197446 0.085189 0.069281
Si Si8 0.585075 0.322485 0.068382
O O1 0.500000 0.500000 0.500000
O O2 0.520058 0.565739 0.750000
O O3 0.596734 0.583861 0.523041
O O4 0.472189 0.627510 0.517521
O O5 0.309166 0.601965 0.250000
O O6 0.225722 0.594320 0.468896
O O7 0.325902 0.518091 0.467350
O O8 0.347216 0.645031 0.516022
O O9 0.927640 0.750000 0.500000
O O10 0.930808 0.821257 0.750000
O O11 0.851218 0.854721 0.536353
O O12 0.974508 0.872584 0.496286
O O13 0.850186 0.057200 0.250000
O O14 0.904745 0.082387 0.984984
O O15 0.829019 0.980288 0.015661
O O16 0.323615 0.432719 0.250000
O O17 0.271053 0.404763 0.986009
O O18 0.017213 0.932046 0.250000
O O19 0.000000 0.000000 0.000000
O O20 0.196191 0.072494 0.250000
O O21 0.583312 0.318632 0.250000
O O22 0.576980 0.250000 0.000000
#
# Coordination Sequence:
#
# PCOD9436950 Si02
#       8
#     8   8   8   8   8   8   8   8
#     4  10  20  35  56  84 112 147 190 237 290 343
#     4   9  18  34  56  82 112 146 183 230 283 338
#     4  11  24  41  60  85 118 157 197 242 296 355
#     4  10  20  35  58  86 117 149 186 235 291 340
#     4   9  18  33  55  82 114 145 181 232 289 339
#     4  12  23  37  60  89 120 155 197 244 291 346
#     4  10  20  34  55  84 115 147 190 236 283 341
#     4  11  23  37  56  81 113 153 193 235 288 348
#
# _framework density 17.524229999999999
#
# number of rings (size 3 to 8) (size 9 to 14) (size 15 to 20)
#    0.000    1.750    2.500    3.375    0.000    5.000 
#    0.000    1.250    0.000    6.000    0.000    0.000 
#    0.000    0.000    0.000    0.000    0.000    0.000 
#
# Total GULP energy -357393.276524 kJ/mol
# GULP energy per Si atom -5584.269946 kJ/mol
# Density = 1.748434 g / cm^3
# Si number density = 17.524230 Si / 1000 Ang^3
#
#
#
# Elastic Constant Matrix: (Units=GPa)
#
#
# Indices 1 2 3 4 5 6 
#
# 1 159.2487 86.1272 65.1148 0.0000 0.0000 0.0000
# 2 86.1272 126.6470 58.0825 0.0000 0.0000 0.0000
# 3 65.1148 58.0825 71.1261 0.0000 0.0000 0.0000
# 4 0.0000 0.0000 0.0000 25.8685 0.0000 0.0000
# 5 0.0000 0.0000 0.0000 0.0000 30.7068 0.0000
# 6 0.0000 0.0000 0.0000 0.0000 0.0000 22.0676
#
#
#
# Elastic Compliance Matrix: (Units=1/GPa)
#
#
# Indices 1 2 3 4 5 6 
#
# 1 0.011638 -0.004841 -0.006701 0.000000 0.000000 0.000000
# 2 -0.004841 0.014638 -0.007521 0.000000 0.000000 0.000000
# 3 -0.006701 -0.007521 0.026336 0.000000 0.000000 0.000000
# 4 0.000000 0.000000 0.000000 0.038657 0.000000 0.000000
# 5 0.000000 0.000000 0.000000 0.000000 0.032566 0.000000
# 6 0.000000 0.000000 0.000000 0.000000 0.000000 0.045315
#
#
# Mechanical properties :
#
#
# Convention : Reuss Voigt Hill
#
# Bulk Modulus (GPa) = 69.03754 86.18564 77.61159
# Shear Modulus (GPa) = 23.57336 25.57507 24.57422
#
# Velocity S-wave (km/s) = 3.67166 3.82437 3.74879
# Velocity P-wave (km/s) = 7.57996 8.29389 7.94495
#
# Compressibility (1/GPa) = 0.01448487
#
# Stress axis : x y z
#
# Youngs Moduli (GPa) = 85.92856 68.31715 37.97111
#
# Poissons Ratio (x) = 0.33074 0.25443
# Poissons Ratio (y) = 0.41600 0.28559
# Poissons Ratio (z) = 0.57578 0.51383
#
# Static dielectric constant tensor:
#      x y z
#    x 1.612270 0.000000 0.000000 
#    y 0.000000 1.558080 0.000000 
#    z 0.000000 0.000000 1.588630 
# 
# From -- ./inp_files/8456.got.cif
#   From: 2010.05.17/outbox.cif.g08.bks.cpg/sg57_5_cif.got.tgz:8456.got - 2010.06.03 13:58:18.
