data_PCOD9436134
_publ_section_title
;
Structure prediction by ZEFSAII (Michael W. Deem and Ramdas Pophale) SiO2 
 PCOD9436134
Probable space group: P B C M
;
_chemical_formula_sum "Si O2"
_cell_formula_units_Z 48
_cell_length_a 19.755866
_cell_length_b 5.487139
_cell_length_c 22.744857
_cell_angle_alpha 90.000000
_cell_angle_beta 90.000000
_cell_angle_gamma 90.000000
_cell_volume 2465.614891
_symmetry_space_group_name_H-M "P B C M"
_symmetry_group_IT_number 57
_symmetry_cell_setting 'orthorhombic'
loop_
_space_group_symop_operation_xyz
x,y,z
-x,-y,1/2+z
x,1/2-y,-z
-x,1/2+y,1/2-z
-x,-y,-z
x,y,1/2-z
-x,1/2+y,z
x,1/2-y,1/2+z
loop_
_atom_site_type_symbol
_atom_site_label
_atom_site_fract_x
_atom_site_fract_y
_atom_site_fract_z
Si Si1 0.725076 0.476165 0.750000
Si Si2 0.457015 0.519678 0.119256
Si Si3 0.457225 0.461924 0.250000
Si Si4 0.156002 0.016581 0.151332
Si Si5 0.672276 0.999981 0.462980
Si Si6 0.798214 0.483398 0.624439
Si Si7 0.957336 0.491703 0.250000
Si Si8 0.272537 0.476419 0.750000
O O1 0.773316 0.476444 0.692747
O O2 0.686064 0.223216 0.750000
O O3 0.686168 0.729443 0.750000
O O4 0.505220 0.280954 0.113073
O O5 0.426434 0.501128 0.185135
O O6 0.398267 0.503004 0.071656
O O7 0.486977 0.185196 0.250000
O O8 0.163399 0.770418 0.114316
O O9 0.222886 0.023314 0.193707
O O10 0.158128 0.272094 0.117662
O O11 0.091823 0.000122 0.193671
O O12 0.677277 0.250000 0.500000
O O13 0.676629 0.750000 0.500000
O O14 0.732839 0.000505 0.416047
O O15 0.997529 0.236401 0.250000
#
# Coordination Sequence:
#
# PCOD9436134 Si02
#       8
#     4   8   4   8   8   8   4   4
#     4   8  14  26  48  73  92 126 172 215 266 324
#     4  10  21  39  62  85 114 151 189 240 306 371
#     4   8  16  33  56  81 104 131 176 223 272 342
#     4   9  17  31  50  74 109 157 188 214 270 335
#     4  12  26  40  56  83 115 149 200 257 300 351
#     4  10  19  35  55  76 109 148 194 239 281 341
#     4  11  20  31  52  90 138 167 184 223 282 361
#     4   7  12  22  40  66  96 126 168 205 238 303
#
# _framework density 19.467759000000001
#
# number of rings (size 3 to 8) (size 9 to 14) (size 15 to 20)
#    0.000    2.333    0.000    4.000    0.000    4.000 
#    0.000    0.000    0.000   16.000    0.000    0.000 
#    0.000   46.667    0.000    0.000    0.000    0.000 
#
# Total GULP energy -267611.895263 kJ/mol
# GULP energy per Si atom -5575.247818 kJ/mol
# Density = 1.942345 g / cm^3
# Si number density = 19.467759 Si / 1000 Ang^3
#
#
#
# Elastic Constant Matrix: (Units=GPa)
#
#
# Indices 1 2 3 4 5 6 
#
# 1 57.9213 23.2543 21.2538 0.0000 0.0000 0.0000
# 2 23.2543 192.4579 15.2878 0.0000 0.0000 0.0000
# 3 21.2538 15.2878 59.8756 0.0000 0.0000 0.0000
# 4 0.0000 0.0000 0.0000 25.0774 0.0000 0.0000
# 5 0.0000 0.0000 0.0000 0.0000 392.0207 0.0000
# 6 0.0000 0.0000 0.0000 0.0000 0.0000 28.0882
#
#
#
# Elastic Compliance Matrix: (Units=1/GPa)
#
#
# Indices 1 2 3 4 5 6 
#
# 1 0.020538 -0.001942 -0.006794 0.000000 0.000000 0.000000
# 2 -0.001942 0.005487 -0.000712 0.000000 0.000000 0.000000
# 3 -0.006794 -0.000712 0.019295 0.000000 0.000000 0.000000
# 4 0.000000 0.000000 0.000000 0.039876 0.000000 0.000000
# 5 0.000000 0.000000 0.000000 0.000000 0.002551 0.000000
# 6 0.000000 0.000000 0.000000 0.000000 0.000000 0.035602
#
#
# Mechanical properties :
#
#
# Convention : Reuss Voigt Hill
#
# Bulk Modulus (GPa) = 37.84484 47.76075 42.80280
# Shear Modulus (GPa) = 33.10107 105.73454 69.41780
#
# Velocity S-wave (km/s) = 4.12795 7.37771 5.97790
# Velocity P-wave (km/s) = 6.49630 9.85701 8.34753
#
# Compressibility (1/GPa) = 0.02642368
#
# Stress axis : x y z
#
# Youngs Moduli (GPa) = 48.69129 182.24559 51.82751
#
# Poissons Ratio (x) = 0.35389 0.35213
# Poissons Ratio (y) = 0.09455 0.03689
# Poissons Ratio (z) = 0.33083 0.12971
#
# Static dielectric constant tensor:
#      x y z
#    x 1.661710 0.000000 0.000000 
#    y 0.000000 1.825290 0.000000 
#    z 0.000000 0.000000 1.669550 
# 
# From -- ./inp_files/27619.got.cif
#   From: 2010.05.17/outbox.cif.g08.bks.cpg/sg57_14_cif.got.tgz:27619.got - 2010.06.03 13:58:18.
