data_PCOD9436192
_publ_section_title
;
Structure prediction by ZEFSAII (Michael W. Deem and Ramdas Pophale) SiO2 
 PCOD9436192
Probable space group: P B C M
;
_chemical_formula_sum "Si O2"
_cell_formula_units_Z 56
_cell_length_a 8.068773
_cell_length_b 15.750813
_cell_length_c 18.957991
_cell_angle_alpha 90.000000
_cell_angle_beta 90.000000
_cell_angle_gamma 90.000000
_cell_volume 2409.366046
_symmetry_space_group_name_H-M "P B C M"
_symmetry_group_IT_number 57
_symmetry_cell_setting 'orthorhombic'
loop_
_space_group_symop_operation_xyz
x,y,z
-x,-y,1/2+z
x,1/2-y,-z
-x,1/2+y,1/2-z
-x,-y,-z
x,y,1/2-z
-x,1/2+y,z
x,1/2-y,1/2+z
loop_
_atom_site_type_symbol
_atom_site_label
_atom_site_fract_x
_atom_site_fract_y
_atom_site_fract_z
Si Si1 0.550905 0.308364 0.829886
Si Si2 0.301416 0.315669 0.550187
Si Si3 0.844777 0.158872 0.962962
Si Si4 0.913409 0.264460 0.328721
Si Si5 0.284132 0.994998 0.666712
Si Si6 0.008539 0.409707 0.898316
Si Si7 0.494408 0.578674 0.946540
O O1 0.488035 0.308356 0.750000
O O2 0.406103 0.283969 0.883123
O O3 0.713938 0.249439 0.832912
O O4 0.624819 0.402863 0.845052
O O5 0.198053 0.250000 0.500000
O O6 0.431822 0.346339 0.493087
O O7 0.198223 0.396869 0.578753
O O8 0.958635 0.178115 0.895226
O O9 0.692072 0.105778 0.932463
O O10 0.800238 0.250000 0.000000
O O11 0.918078 0.105587 0.027134
O O12 0.958417 0.291852 0.250000
O O13 0.984750 0.171458 0.346440
O O14 0.285760 0.012160 0.750000
O O15 0.095235 0.983775 0.638894
O O16 0.391623 0.059217 0.620459
O O17 0.500000 0.500000 0.000000
#
# Coordination Sequence:
#
# PCOD9436192 Si02
#       7
#     8   8   8   8   8   8   8
#     4   9  18  33  54  80 110 144 191 239 288 346
#     4  12  23  36  58  91 120 152 196 250 299 353
#     4  10  19  35  58  82 116 151 194 239 287 356
#     4   9  17  32  55  81 110 148 187 234 293 346
#     4  10  21  39  60  84 114 155 199 239 290 356
#     4  10  20  36  57  82 112 157 196 229 285 356
#     4  12  21  37  60  88 116 152 198 249 300 343
#
# _framework density 23.242629000000001
#
# number of rings (size 3 to 8) (size 9 to 14) (size 15 to 20)
#    0.000    1.714    2.857    5.571    0.000    2.286 
#    0.000    0.714    0.000    0.857    0.000    0.000 
#    0.000    0.000    0.000    0.000    0.000    0.000 
#
# Total GULP energy -312666.549799 kJ/mol
# GULP energy per Si atom -5583.331246 kJ/mol
# Density = 2.318973 g / cm^3
# Si number density = 23.242629 Si / 1000 Ang^3
#
#
#
# Elastic Constant Matrix: (Units=GPa)
#
#
# Indices 1 2 3 4 5 6 
#
# 1 45.0875 -6.3324 16.0344 0.0000 0.0000 0.0000
# 2 -6.3324 45.8469 24.1778 0.0000 0.0000 0.0000
# 3 16.0344 24.1778 164.0278 0.0000 0.0000 0.0000
# 4 0.0000 0.0000 0.0000 24.0302 0.0000 0.0000
# 5 0.0000 0.0000 0.0000 0.0000 6.5005 0.0000
# 6 0.0000 0.0000 0.0000 0.0000 0.0000 20.4894
#
#
#
# Elastic Compliance Matrix: (Units=1/GPa)
#
#
# Indices 1 2 3 4 5 6 
#
# 1 0.023963 0.004928 -0.003069 0.000000 0.000000 0.000000
# 2 0.004928 0.024664 -0.004117 0.000000 0.000000 0.000000
# 3 -0.003069 -0.004117 0.007003 0.000000 0.000000 0.000000
# 4 0.000000 0.000000 0.000000 0.041614 0.000000 0.000000
# 5 0.000000 0.000000 0.000000 0.000000 0.153835 0.000000
# 6 0.000000 0.000000 0.000000 0.000000 0.000000 0.048806
#
#
# Mechanical properties :
#
#
# Convention : Reuss Voigt Hill
#
# Bulk Modulus (GPa) = 19.56419 35.85797 27.71108
# Shear Modulus (GPa) = 15.55508 24.94283 20.24896
#
# Velocity S-wave (km/s) = 2.58979 3.27945 2.95481
# Velocity P-wave (km/s) = 4.16873 5.45902 4.85691
#
# Compressibility (1/GPa) = 0.05111379
#
# Stress axis : x y z
#
# Youngs Moduli (GPa) = 41.73168 40.54554 142.78791
#
# Poissons Ratio (x) = -0.19981 0.43819
# Poissons Ratio (y) = -0.20566 0.58788
# Poissons Ratio (z) = 0.12807 0.16693
#
# Static dielectric constant tensor:
#      x y z
#    x 1.930760 0.000000 0.000000 
#    y 0.000000 1.986830 0.000000 
#    z 0.000000 0.000000 1.840430 
# 
# From -- ./inp_files/21359.got.cif
#   From: 2010.05.17/outbox.cif.g08.bks.cpg/sg57_11_cif.got.tgz:21359.got - 2010.06.03 13:58:18.
