data_PCOD9436132
_publ_section_title
;
Structure prediction by ZEFSAII (Michael W. Deem and Ramdas Pophale) SiO2 
 PCOD9436132
Probable space group: P B C M
;
_chemical_formula_sum "Si O2"
_cell_formula_units_Z 56
_cell_length_a 5.178469
_cell_length_b 20.983597
_cell_length_c 30.306023
_cell_angle_alpha 90.000000
_cell_angle_beta 90.000000
_cell_angle_gamma 90.000000
_cell_volume 3293.140546
_symmetry_space_group_name_H-M "P B C M"
_symmetry_group_IT_number 57
_symmetry_cell_setting 'orthorhombic'
loop_
_space_group_symop_operation_xyz
x,y,z
-x,-y,1/2+z
x,1/2-y,-z
-x,1/2+y,1/2-z
-x,-y,-z
x,y,1/2-z
-x,1/2+y,z
x,1/2-y,1/2+z
loop_
_atom_site_type_symbol
_atom_site_label
_atom_site_fract_x
_atom_site_fract_y
_atom_site_fract_z
Si Si1 0.983441 0.231272 0.750000
Si Si2 0.483758 0.178924 0.250000
Si Si3 0.519927 0.821523 0.652869
Si Si4 0.980532 0.269651 0.346944
Si Si5 0.040455 0.142184 0.931001
Si Si6 0.540771 0.177055 0.513912
Si Si7 0.968878 0.995865 0.946929
Si Si8 0.532561 0.414733 0.929220
O O1 0.729590 0.274784 0.750000
O O2 0.985759 0.198852 0.702045
O O3 0.229537 0.277580 0.750000
O O4 0.488262 0.146779 0.201884
O O5 0.278284 0.772898 0.648668
O O6 0.508128 0.873183 0.614484
O O7 0.778608 0.779068 0.649443
O O8 0.002110 0.321257 0.385213
O O9 0.319582 0.157432 0.951561
O O10 0.820510 0.167352 0.964394
O O11 0.004712 0.066458 0.927967
O O12 0.504970 0.250000 0.500000
O O13 0.518792 0.132224 0.471224
O O14 0.691289 0.966850 0.935466
O O15 0.191355 0.949126 0.929543
O O16 0.000000 0.000000 0.000000
#
# Coordination Sequence:
#
# PCOD9436132 Si02
#       8
#     4   4   8   8   8   8   8   8
#     4   8  16  30  54  76 106 136 164 206 264 326
#     4   8  16  32  54  80 108 136 164 208 268 330
#     4  10  20  35  57  84 110 135 171 218 274 319
#     4  10  19  35  54  83 108 134 170 216 271 323
#     4  12  23  36  54  74 107 140 179 217 253 314
#     4  12  23  35  53  79 106 135 166 222 277 309
#     4  12  23  40  54  72 104 151 192 214 250 307
#     4  12  22  37  56  76 106 140 183 222 254 315
#
# _framework density 17.005046
#
# number of rings (size 3 to 8) (size 9 to 14) (size 15 to 20)
#    0.000    1.143    2.857    5.143    0.000    0.000 
#    0.000    0.000    0.000    1.714    0.000    0.000 
#    0.000    0.000    0.000    0.000    0.000    0.000 
#
# Total GULP energy -312679.143503 kJ/mol
# GULP energy per Si atom -5583.556134 kJ/mol
# Density = 1.696634 g / cm^3
# Si number density = 17.005046 Si / 1000 Ang^3
#
#
#
# Elastic Constant Matrix: (Units=GPa)
#
#
# Indices 1 2 3 4 5 6 
#
# 1 65.9448 -17.2086 -21.5199 0.0000 0.0000 0.0000
# 2 -17.2086 57.3824 19.8810 0.0000 0.0000 0.0000
# 3 -21.5199 19.8810 115.2232 0.0000 0.0000 0.0000
# 4 0.0000 0.0000 0.0000 1.1795 0.0000 0.0000
# 5 0.0000 0.0000 0.0000 0.0000 17.1891 0.0000
# 6 0.0000 0.0000 0.0000 0.0000 0.0000 25.3177
#
#
#
# Elastic Compliance Matrix: (Units=1/GPa)
#
#
# Indices 1 2 3 4 5 6 
#
# 1 0.017079 0.004272 0.002453 0.000000 0.000000 0.000000
# 2 0.004272 0.019604 -0.002585 0.000000 0.000000 0.000000
# 3 0.002453 -0.002585 0.009583 0.000000 0.000000 0.000000
# 4 0.000000 0.000000 0.000000 0.847844 0.000000 0.000000
# 5 0.000000 0.000000 0.000000 0.000000 0.058177 0.000000
# 6 0.000000 0.000000 0.000000 0.000000 0.000000 0.039498
#
#
# Mechanical properties :
#
#
# Convention : Reuss Voigt Hill
#
# Bulk Modulus (GPa) = 18.33291 22.31728 20.32509
# Shear Modulus (GPa) = 4.99158 25.89711 15.44435
#
# Velocity S-wave (km/s) = 1.71515 3.90668 3.01694
# Velocity P-wave (km/s) = 3.83752 5.78808 4.91063
#
# Compressibility (1/GPa) = 0.05454671
#
# Stress axis : x y z
#
# Youngs Moduli (GPa) = 58.54985 51.01102 104.35305
#
# Poissons Ratio (x) = -0.21793 -0.25595
# Poissons Ratio (y) = -0.25014 0.26971
# Poissons Ratio (z) = -0.14361 0.13184
#
# Static dielectric constant tensor:
#      x y z
#    x 1.570620 0.000000 0.000000 
#    y 0.000000 1.532480 0.000000 
#    z 0.000000 0.000000 1.601220 
# 
# From -- ./inp_files/29253.got.cif
#   From: 2010.05.17/outbox.cif.g08.bks.cpg/sg57_15_cif.got.tgz:29253.got - 2010.06.03 13:58:18.
