data_PCOD9436493
_publ_section_title
;
Structure prediction by ZEFSAII (Michael W. Deem and Ramdas Pophale) SiO2 
 PCOD9436493
Probable space group: P B C M
;
_chemical_formula_sum "Si O2"
_cell_formula_units_Z 64
_cell_length_a 8.690569
_cell_length_b 24.576806
_cell_length_c 15.298379
_cell_angle_alpha 90.000000
_cell_angle_beta 90.000000
_cell_angle_gamma 90.000000
_cell_volume 3267.526130
_symmetry_space_group_name_H-M "P B C M"
_symmetry_group_IT_number 57
_symmetry_cell_setting 'orthorhombic'
loop_
_space_group_symop_operation_xyz
x,y,z
-x,-y,1/2+z
x,1/2-y,-z
-x,1/2+y,1/2-z
-x,-y,-z
x,y,1/2-z
-x,1/2+y,z
x,1/2-y,1/2+z
loop_
_atom_site_type_symbol
_atom_site_label
_atom_site_fract_x
_atom_site_fract_y
_atom_site_fract_z
Si Si1 0.418011 0.311336 0.844065
Si Si2 0.695917 0.710979 0.918320
Si Si3 0.220842 0.679037 0.145593
Si Si4 0.031463 0.787597 0.146931
Si Si5 0.286323 0.575798 0.036236
Si Si6 0.876473 0.971838 0.063973
Si Si7 0.368488 0.389734 0.509980
Si Si8 0.858244 0.408861 0.150046
O O1 0.405071 0.337778 0.750000
O O2 0.357964 0.250149 0.842075
O O3 0.598251 0.307891 0.866376
O O4 0.326697 0.349211 0.910995
O O5 0.615402 0.653077 0.929835
O O6 0.878063 0.704331 0.909298
O O7 0.655982 0.750000 0.000000
O O8 0.196714 0.667420 0.250000
O O9 0.121573 0.732399 0.122575
O O10 0.201097 0.627042 0.082531
O O11 0.990698 0.782298 0.250000
O O12 0.126537 0.843523 0.140356
O O13 0.232423 0.522409 0.088857
O O14 0.470018 0.583649 0.036170
O O15 0.241514 0.572218 0.933412
O O16 0.765681 0.930881 0.012374
O O17 0.975574 0.938035 0.134252
O O18 0.000000 0.000000 0.000000
O O19 0.807001 0.420559 0.250000
#
# Coordination Sequence:
#
# PCOD9436493 Si02
#       8
#     8   8   8   8   8   8   8   8
#     4   9  19  36  56  84 119 152 190 243 299 358
#     4  10  20  31  51  79 113 151 187 232 291 356
#     4   9  20  36  57  87 119 152 197 246 297 354
#     4  10  20  34  53  80 115 152 192 240 290 351
#     4  10  22  37  63  86 115 158 200 252 305 355
#     4  10  21  40  62  82 112 155 200 250 300 353
#     4  10  20  38  57  86 117 153 203 247 301 361
#     4  10  22  39  56  84 118 155 199 246 299 360
#
# _framework density 19.586683000000001
#
# number of rings (size 3 to 8) (size 9 to 14) (size 15 to 20)
#    0.000    2.250    1.250    0.750    3.500    1.500 
#    0.000    3.750    0.000    3.000    0.000    0.000 
#    0.000    0.000    0.000    0.000    0.000    0.000 
#
# Total GULP energy -356389.980474 kJ/mol
# GULP energy per Si atom -5568.593445 kJ/mol
# Density = 1.954210 g / cm^3
# Si number density = 19.586683 Si / 1000 Ang^3
#
#
#
# Elastic Constant Matrix: (Units=GPa)
#
#
# Indices 1 2 3 4 5 6 
#
# 1 26.3189 19.5861 3.9763 0.0000 0.0000 0.0000
# 2 19.5861 100.6241 12.9788 0.0000 0.0000 0.0000
# 3 3.9763 12.9788 43.1867 0.0000 0.0000 0.0000
# 4 0.0000 0.0000 0.0000 14.2499 0.0000 0.0000
# 5 0.0000 0.0000 0.0000 0.0000 22.7586 0.0000
# 6 0.0000 0.0000 0.0000 0.0000 0.0000 38.0099
#
#
#
# Elastic Compliance Matrix: (Units=1/GPa)
#
#
# Indices 1 2 3 4 5 6 
#
# 1 0.044532 -0.008467 -0.001555 0.000000 0.000000 0.000000
# 2 -0.008467 0.011949 -0.002811 0.000000 0.000000 0.000000
# 3 -0.001555 -0.002811 0.024143 0.000000 0.000000 0.000000
# 4 0.000000 0.000000 0.000000 0.070176 0.000000 0.000000
# 5 0.000000 0.000000 0.000000 0.000000 0.043939 0.000000
# 6 0.000000 0.000000 0.000000 0.000000 0.000000 0.026309
#
#
# Mechanical properties :
#
#
# Convention : Reuss Voigt Hill
#
# Bulk Modulus (GPa) = 18.19647 27.02356 22.61001
# Shear Modulus (GPa) = 18.86545 23.90959 21.38752
#
# Velocity S-wave (km/s) = 3.10688 3.49765 3.30804
# Velocity P-wave (km/s) = 4.70963 5.48983 5.11463
#
# Compressibility (1/GPa) = 0.05495573
#
# Stress axis : x y z
#
# Youngs Moduli (GPa) = 22.45583 83.69094 41.41922
#
# Poissons Ratio (x) = 0.70864 0.06443
# Poissons Ratio (y) = 0.19014 0.11644
# Poissons Ratio (z) = 0.03493 0.23528
#
# Static dielectric constant tensor:
#      x y z
#    x 1.692840 0.000000 0.000000 
#    y 0.000000 1.726220 0.000000 
#    z 0.000000 0.000000 1.010290 
# 
# From -- ./inp_files/16944.got.cif
#   From: 2010.05.17/outbox.cif.g08.bks.cpg/sg57_9_cif.got.tgz:16944.got - 2010.06.03 13:58:18.
