data_PCOD9436351
_publ_section_title
;
Structure prediction by ZEFSAII (Michael W. Deem and Ramdas Pophale) SiO2 
 PCOD9436351
Probable space group: P B C M
;
_chemical_formula_sum "Si O2"
_cell_formula_units_Z 64
_cell_length_a 9.463354
_cell_length_b 24.314165
_cell_length_c 14.052850
_cell_angle_alpha 90.000000
_cell_angle_beta 90.000000
_cell_angle_gamma 90.000000
_cell_volume 3233.470153
_symmetry_space_group_name_H-M "P B C M"
_symmetry_group_IT_number 57
_symmetry_cell_setting 'orthorhombic'
loop_
_space_group_symop_operation_xyz
x,y,z
-x,-y,1/2+z
x,1/2-y,-z
-x,1/2+y,1/2-z
-x,-y,-z
x,y,1/2-z
-x,1/2+y,z
x,1/2-y,1/2+z
loop_
_atom_site_type_symbol
_atom_site_label
_atom_site_fract_x
_atom_site_fract_y
_atom_site_fract_z
Si Si1 0.071254 0.226366 0.863874
Si Si2 0.290517 0.381697 0.858209
Si Si3 0.488610 0.977111 0.605695
Si Si4 0.391072 0.302292 0.135464
Si Si5 0.979431 0.842512 0.539622
Si Si6 0.445062 0.699887 0.138907
Si Si7 0.562333 0.095498 0.644675
Si Si8 0.270270 0.892232 0.545175
O O1 0.055328 0.219189 0.750000
O O2 0.237068 0.218918 0.892609
O O3 0.020400 0.286893 0.895793
O O4 0.002277 0.180411 0.931965
O O5 0.232365 0.379490 0.750000
O O6 0.379803 0.437567 0.870650
O O7 0.407227 0.333606 0.865720
O O8 0.168430 0.371478 0.934322
O O9 0.349943 0.938580 0.608684
O O10 0.500000 0.000000 0.500000
O O11 0.498471 0.035037 0.656808
O O12 0.385710 0.300595 0.250000
O O13 0.515045 0.260810 0.106931
O O14 0.439280 0.363228 0.108392
O O15 0.104808 0.885113 0.558866
O O16 0.400633 0.700442 0.250000
O O17 0.335427 0.666113 0.077314
O O18 0.610790 0.114315 0.750000
O O19 0.681970 0.096443 0.563601
#
# Coordination Sequence:
#
# PCOD9436351 Si02
#       8
#     8   8   8   8   8   8   8   8
#     4  10  22  38  56  85 129 167 202 242 297 377
#     4  10  19  36  62  87 117 158 205 250 302 364
#     4   9  20  39  63  87 115 153 203 260 307 354
#     4   9  18  33  58  89 112 151 202 244 295 359
#     4  11  23  36  60  91 122 167 202 243 306 367
#     4   9  18  34  58  88 118 149 192 250 304 349
#     4  10  21  38  62  86 119 159 202 251 304 363
#     4  10  23  38  56  93 123 153 199 252 308 357
#
# _framework density 19.792977
#
# number of rings (size 3 to 8) (size 9 to 14) (size 15 to 20)
#    0.000    2.250    1.250    0.750    5.250    4.500 
#    0.000    3.750    0.000    0.000    0.000    0.000 
#    0.000    0.000    0.000    0.000    0.000    0.000 
#
# Total GULP energy -356817.404133 kJ/mol
# GULP energy per Si atom -5575.271940 kJ/mol
# Density = 1.974793 g / cm^3
# Si number density = 19.792977 Si / 1000 Ang^3
#
#
#
# Elastic Constant Matrix: (Units=GPa)
#
#
# Indices 1 2 3 4 5 6 
#
# 1 32.3552 21.3216 24.9200 0.0000 0.0000 0.0000
# 2 21.3216 112.9594 15.2777 0.0000 0.0000 0.0000
# 3 24.9200 15.2777 99.4759 0.0000 0.0000 0.0000
# 4 0.0000 0.0000 0.0000 21.4364 0.0000 0.0000
# 5 0.0000 0.0000 0.0000 0.0000 11.6480 0.0000
# 6 0.0000 0.0000 0.0000 0.0000 0.0000 19.2425
#
#
#
# Elastic Compliance Matrix: (Units=1/GPa)
#
#
# Indices 1 2 3 4 5 6 
#
# 1 0.042835 -0.006775 -0.009690 0.000000 0.000000 0.000000
# 2 -0.006775 0.010112 0.000144 0.000000 0.000000 0.000000
# 3 -0.009690 0.000144 0.012458 0.000000 0.000000 0.000000
# 4 0.000000 0.000000 0.000000 0.046650 0.000000 0.000000
# 5 0.000000 0.000000 0.000000 0.000000 0.085852 0.000000
# 6 0.000000 0.000000 0.000000 0.000000 0.000000 0.051968
#
#
# Mechanical properties :
#
#
# Convention : Reuss Voigt Hill
#
# Bulk Modulus (GPa) = 30.52195 40.86992 35.69593
# Shear Modulus (GPa) = 17.03944 22.68347 19.86146
#
# Velocity S-wave (km/s) = 2.93726 3.38899 3.17118
# Velocity P-wave (km/s) = 5.19205 6.00060 5.61091
#
# Compressibility (1/GPa) = 0.03276331
#
# Stress axis : x y z
#
# Youngs Moduli (GPa) = 23.34553 98.89241 80.26919
#
# Poissons Ratio (x) = 0.66996 0.77783
# Poissons Ratio (y) = 0.15816 -0.01157
# Poissons Ratio (z) = 0.22622 -0.01425
#
# Static dielectric constant tensor:
#      x y z
#    x 1.687930 0.000000 0.000000 
#    y 0.000000 1.731800 0.000000 
#    z 0.000000 0.000000 1.761250 
# 
# From -- ./inp_files/16977.got.cif
#   From: 2010.05.17/outbox.cif.g08.bks.cpg/sg57_9_cif.got.tgz:16977.got - 2010.06.03 13:58:18.
