data_PCOD9436987
_publ_section_title
;
Structure prediction by ZEFSAII (Michael W. Deem and Ramdas Pophale) SiO2 
 PCOD9436987
Probable space group: P B C M
;
_chemical_formula_sum "Si O2"
_cell_formula_units_Z 56
_cell_length_a 7.104457
_cell_length_b 21.663601
_cell_length_c 13.884312
_cell_angle_alpha 90.000000
_cell_angle_beta 90.000000
_cell_angle_gamma 90.000000
_cell_volume 2136.908382
_symmetry_space_group_name_H-M "P B C M"
_symmetry_group_IT_number 57
_symmetry_cell_setting 'orthorhombic'
loop_
_space_group_symop_operation_xyz
x,y,z
-x,-y,1/2+z
x,1/2-y,-z
-x,1/2+y,1/2-z
-x,-y,-z
x,y,1/2-z
-x,1/2+y,z
x,1/2-y,1/2+z
loop_
_atom_site_type_symbol
_atom_site_label
_atom_site_fract_x
_atom_site_fract_y
_atom_site_fract_z
Si Si1 0.284201 0.213359 0.863741
Si Si2 0.556671 0.038108 0.859661
Si Si3 0.067874 0.171588 0.139967
Si Si4 0.018879 0.958021 0.864766
Si Si5 0.871749 0.585770 0.859759
Si Si6 0.659082 0.221113 0.400445
Si Si7 0.578893 0.414942 0.566767
O O1 0.243827 0.209780 0.750000
O O2 0.177807 0.152624 0.902634
O O3 0.509093 0.226731 0.867144
O O4 0.190611 0.274673 0.904282
O O5 0.629818 0.045633 0.750000
O O6 0.337459 0.057018 0.853250
O O7 0.567902 0.966983 0.896354
O O8 0.618189 0.077900 0.952395
O O9 0.134616 0.163370 0.250000
O O10 0.080650 0.103344 0.095031
O O11 0.854773 0.198947 0.146062
O O12 0.983839 0.961715 0.750000
O O13 0.233197 0.935724 0.878597
O O14 0.004826 0.028783 0.901835
O O15 0.942556 0.595046 0.750000
O O16 0.724848 0.250000 0.500000
O O17 0.545797 0.156348 0.409833
#
# Coordination Sequence:
#
# PCOD9436987 Si02
#       7
#     8   8   8   8   8   8   8
#     4  10  20  34  56  85 116 153 197 245 298 354
#     4   9  16  28  49  77 109 145 187 237 289 343
#     4   9  19  36  57  82 114 153 197 245 296 352
#     4   8  14  28  52  78 109 152 193 233 289 352
#     4   8  14  26  47  75 106 144 187 231 287 351
#     4  11  22  35  54  82 116 155 194 239 291 347
#     4   9  17  29  48  77 109 144 191 235 282 347
#
# _framework density 26.206084000000001
#
# number of rings (size 3 to 8) (size 9 to 14) (size 15 to 20)
#    0.000    2.857    0.000    2.571    0.000    2.286 
#    0.000    0.714    0.000    8.571    0.000   35.000 
#    0.000    8.000    0.000    2.571    0.000    0.000 
#
# Total GULP energy -312149.292519 kJ/mol
# GULP energy per Si atom -5574.094509 kJ/mol
# Density = 2.614644 g / cm^3
# Si number density = 26.206084 Si / 1000 Ang^3
#
#
#
# Elastic Constant Matrix: (Units=GPa)
#
#
# Indices 1 2 3 4 5 6 
#
# 1 67.7628 31.0642 11.2039 0.0000 0.0000 0.0000
# 2 31.0642 162.9518 34.5109 0.0000 0.0000 0.0000
# 3 11.2039 34.5109 83.6543 0.0000 0.0000 0.0000
# 4 0.0000 0.0000 0.0000 17.1993 0.0000 0.0000
# 5 0.0000 0.0000 0.0000 0.0000 75.8519 0.0000
# 6 0.0000 0.0000 0.0000 0.0000 0.0000 64.4889
#
#
#
# Elastic Compliance Matrix: (Units=1/GPa)
#
#
# Indices 1 2 3 4 5 6 
#
# 1 0.016244 -0.002888 -0.000984 0.000000 0.000000 0.000000
# 2 -0.002888 0.007238 -0.002599 0.000000 0.000000 0.000000
# 3 -0.000984 -0.002599 0.013158 0.000000 0.000000 0.000000
# 4 0.000000 0.000000 0.000000 0.058142 0.000000 0.000000
# 5 0.000000 0.000000 0.000000 0.000000 0.013184 0.000000
# 6 0.000000 0.000000 0.000000 0.000000 0.000000 0.015507
#
#
# Mechanical properties :
#
#
# Convention : Reuss Voigt Hill
#
# Bulk Modulus (GPa) = 42.19921 51.99187 47.09554
# Shear Modulus (GPa) = 34.64669 47.34735 40.99702
#
# Velocity S-wave (km/s) = 3.63999 4.25518 3.95955
# Velocity P-wave (km/s) = 5.81411 6.63511 6.23813
#
# Compressibility (1/GPa) = 0.02369712
#
# Stress axis : x y z
#
# Youngs Moduli (GPa) = 61.56074 138.16281 75.99945
#
# Poissons Ratio (x) = 0.39905 0.07479
# Poissons Ratio (y) = 0.17780 0.19753
# Poissons Ratio (z) = 0.06058 0.35910
#
# Static dielectric constant tensor:
#      x y z
#    x 2.100520 0.000000 0.000000 
#    y 0.000000 2.119400 0.000000 
#    z 0.000000 0.000000 1.856670 
# 
# From -- ./inp_files/16772.got.cif
#   From: 2010.05.17/outbox.cif.g08.bks.cpg/sg57_9_cif.got.tgz:16772.got - 2010.06.03 13:58:18.
