data_PCOD9436943
_publ_section_title
;
Structure prediction by ZEFSAII (Michael W. Deem and Ramdas Pophale) SiO2 
 PCOD9436943
Probable space group: P B C M
;
_chemical_formula_sum "Si O2"
_cell_formula_units_Z 64
_cell_length_a 21.563209
_cell_length_b 19.083850
_cell_length_c 8.749492
_cell_angle_alpha 90.000000
_cell_angle_beta 90.000000
_cell_angle_gamma 90.000000
_cell_volume 3600.495107
_symmetry_space_group_name_H-M "P B C M"
_symmetry_group_IT_number 57
_symmetry_cell_setting 'orthorhombic'
loop_
_space_group_symop_operation_xyz
x,y,z
-x,-y,1/2+z
x,1/2-y,-z
-x,1/2+y,1/2-z
-x,-y,-z
x,y,1/2-z
-x,1/2+y,z
x,1/2-y,1/2+z
loop_
_atom_site_type_symbol
_atom_site_label
_atom_site_fract_x
_atom_site_fract_y
_atom_site_fract_z
Si Si1 0.123349 0.824827 0.567409
Si Si2 0.391100 0.175434 0.933674
Si Si3 0.497961 0.577376 0.565399
Si Si4 0.063605 0.529537 0.433493
Si Si5 0.752501 0.109322 0.565910
Si Si6 0.752185 0.674366 0.566539
Si Si7 0.619488 0.171855 0.934890
Si Si8 0.812302 0.963638 0.566798
O O1 0.104971 0.750000 0.500000
O O2 0.125967 0.820371 0.750000
O O3 0.077782 0.889149 0.525529
O O4 0.191392 0.846310 0.505881
O O5 0.392460 0.179107 0.750000
O O6 0.439689 0.117362 0.983839
O O7 0.319940 0.162760 0.979656
O O8 0.410653 0.250000 0.000000
O O9 0.500000 0.500000 0.500000
O O10 0.497056 0.574239 0.750000
O O11 0.437784 0.622397 0.517589
O O12 0.063480 0.524343 0.250000
O O13 0.121350 0.486409 0.500943
O O14 0.000000 0.500000 0.500000
O O15 0.756791 0.115281 0.750000
O O16 0.685359 0.137772 0.518306
O O17 0.765602 0.027890 0.526414
O O18 0.771007 0.750000 0.500000
O O19 0.755786 0.676311 0.750000
O O20 0.790658 0.609629 0.502083
O O21 0.618881 0.175766 0.750000
O O22 0.613533 0.250000 0.000000
O O23 0.815181 0.959128 0.750000
#
# Coordination Sequence:
#
# PCOD9436943 Si02
#       8
#     8   8   8   8   8   8   8   8
#     4  10  20  34  55  83 113 145 182 223 266 316
#     4   9  19  35  54  76 101 135 178 225 275 329
#     4  10  22  37  52  74 104 137 178 225 272 326
#     4  10  21  38  59  84 114 149 188 227 270 319
#     4   9  19  34  53  79 110 143 179 221 269 322
#     4  10  20  35  55  80 109 140 181 231 280 332
#     4  10  21  36  53  76 106 139 177 221 269 323
#     4  10  20  35  57  83 112 146 182 222 272 324
#
# _framework density 17.775333
#
# number of rings (size 3 to 8) (size 9 to 14) (size 15 to 20)
#    0.000    2.250    0.000    2.250    1.750    5.000 
#    0.000    0.625    0.000    1.500    0.000    0.000 
#    0.000    0.000    0.000    0.000    0.000    0.000 
#
# Total GULP energy -357254.840557 kJ/mol
# GULP energy per Si atom -5582.106884 kJ/mol
# Density = 1.773488 g / cm^3
# Si number density = 17.775333 Si / 1000 Ang^3
#
#
#
# Elastic Constant Matrix: (Units=GPa)
#
#
# Indices 1 2 3 4 5 6 
#
# 1 101.5310 107.1740 35.9810 0.0000 0.0000 0.0000
# 2 107.1740 198.5921 53.6437 0.0000 0.0000 0.0000
# 3 35.9810 53.6437 34.3545 0.0000 0.0000 0.0000
# 4 0.0000 0.0000 0.0000 34.4285 0.0000 0.0000
# 5 0.0000 0.0000 0.0000 0.0000 21.3939 0.0000
# 6 0.0000 0.0000 0.0000 0.0000 0.0000 24.8308
#
#
#
# Elastic Compliance Matrix: (Units=1/GPa)
#
#
# Indices 1 2 3 4 5 6 
#
# 1 0.024270 -0.010777 -0.008590 0.000000 0.000000 0.000000
# 2 -0.010777 0.013494 -0.009784 0.000000 0.000000 0.000000
# 3 -0.008590 -0.009784 0.053382 0.000000 0.000000 0.000000
# 4 0.000000 0.000000 0.000000 0.029046 0.000000 0.000000
# 5 0.000000 0.000000 0.000000 0.000000 0.046742 0.000000
# 6 0.000000 0.000000 0.000000 0.000000 0.000000 0.040273
#
#
# Mechanical properties :
#
#
# Convention : Reuss Voigt Hill
#
# Bulk Modulus (GPa) = 30.44715 80.89723 55.67219
# Shear Modulus (GPa) = 18.08599 25.30923 21.69761
#
# Velocity S-wave (km/s) = 3.19325 3.77747 3.49758
# Velocity P-wave (km/s) = 5.54634 8.03962 6.90642
#
# Compressibility (1/GPa) = 0.03284379
#
# Stress axis : x y z
#
# Youngs Moduli (GPa) = 41.20381 74.10563 18.73280
#
# Poissons Ratio (x) = 0.79864 0.16092
# Poissons Ratio (y) = 0.44406 0.18327
# Poissons Ratio (z) = 0.35396 0.72502
#
# Static dielectric constant tensor:
#      x y z
#    x 1.591530 0.000000 0.000000 
#    y 0.000000 1.573420 0.000000 
#    z 0.000000 0.000000 1.593840 
# 
# From -- ./inp_files/8379.got.cif
#   From: 2010.05.17/outbox.cif.g08.bks.cpg/sg57_5_cif.got.tgz:8379.got - 2010.06.03 13:58:18.
