data_PCOD9436477
_publ_section_title
;
Structure prediction by ZEFSAII (Michael W. Deem and Ramdas Pophale) SiO2 
 PCOD9436477
Probable space group: P B C M
;
_chemical_formula_sum "Si O2"
_cell_formula_units_Z 64
_cell_length_a 15.324399
_cell_length_b 17.839232
_cell_length_c 14.465211
_cell_angle_alpha 90.000000
_cell_angle_beta 90.000000
_cell_angle_gamma 90.000000
_cell_volume 3954.434420
_symmetry_space_group_name_H-M "P B C M"
_symmetry_group_IT_number 57
_symmetry_cell_setting 'orthorhombic'
loop_
_space_group_symop_operation_xyz
x,y,z
-x,-y,1/2+z
x,1/2-y,-z
-x,1/2+y,1/2-z
-x,-y,-z
x,y,1/2-z
-x,1/2+y,z
x,1/2-y,1/2+z
loop_
_atom_site_type_symbol
_atom_site_label
_atom_site_fract_x
_atom_site_fract_y
_atom_site_fract_z
Si Si1 0.261282 0.450327 0.641693
Si Si2 0.602392 0.487245 0.000000
Si Si3 0.972963 0.339656 1.000000
Si Si4 0.164396 0.893216 0.358160
Si Si5 0.835604 0.106784 0.358160
Si Si6 0.738718 0.549673 0.641693
Si Si7 0.697358 0.166360 1.000000
Si Si8 0.179761 0.161278 0.500000
O O1 0.275395 0.437897 0.750000
O O2 0.348529 0.476400 0.588288
O O3 0.193991 0.520217 0.630834
O O4 0.221920 0.379446 0.588550
O O5 0.626565 0.399303 0.000000
O O6 0.500000 0.500000 0.000000
O O7 0.651472 0.523600 0.911713
O O8 0.924730 0.375135 0.911368
O O9 0.956978 0.250000 0.000000
O O10 0.924729 0.375135 0.088632
O O11 0.075905 0.352160 0.000000
O O12 0.160129 0.875564 0.250000
O O13 0.239223 0.846954 0.412026
O O14 0.839870 0.124436 0.250000
O O15 0.760777 0.153046 0.412027
O O16 0.806010 0.020217 0.369165
O O17 0.724605 0.562103 0.750000
O O18 0.778080 0.620554 0.588550
O O19 0.662018 0.250000 0.000000
O O20 0.195210 0.250000 0.500000
#
# Coordination Sequence:
#
# PCOD9436477 Si02
#       8
#     8   8   8   8   8   8   8   8
#     4   9  19  35  53  72  94 126 165 199 242 299
#     4   9  18  34  54  76 101 127 157 199 244 290
#     4  10  20  30  43  69 100 129 165 205 242 281
#     4   9  17  30  49  71  96 126 158 196 243 294
#     4   9  17  30  49  71  96 126 158 196 243 294
#     4   9  19  35  53  72  94 126 165 199 242 299
#     4   9  17  29  47  72 100 127 155 190 238 295
#     4  10  21  35  49  67  96 133 170 209 245 275
#
# _framework density 16.184363000000001
#
# number of rings (size 3 to 8) (size 9 to 14) (size 15 to 20)
#    0.000    2.750    0.000    3.750    0.000    6.000 
#    0.000    7.500    0.000    0.000    0.000    0.000 
#    0.000    0.000    0.000    0.000    0.000    0.000 
#
# Total GULP energy -356826.277613 kJ/mol
# GULP energy per Si atom -5575.410588 kJ/mol
# Density = 1.614753 g / cm^3
# Si number density = 16.184363 Si / 1000 Ang^3
#
#
#
# Elastic Constant Matrix: (Units=GPa)
#
#
# Indices 1 2 3 4 5 6 
#
# 1 118.0424 79.8975 65.5108 0.0000 0.0000 0.0000
# 2 79.8975 108.8186 69.8876 0.0000 0.0000 0.0000
# 3 65.5108 69.8876 161.4399 0.0000 0.0000 0.0000
# 4 0.0000 0.0000 0.0000 -9.4362 0.0000 0.0000
# 5 0.0000 0.0000 0.0000 0.0000 3.6827 0.0000
# 6 0.0000 0.0000 0.0000 0.0000 0.0000 12.4330
#
#
#
# Elastic Compliance Matrix: (Units=1/GPa)
#
#
# Indices 1 2 3 4 5 6 
#
# 1 0.017346 -0.011379 -0.002113 0.000000 0.000000 0.000000
# 2 -0.011379 0.020193 -0.004124 0.000000 0.000000 0.000000
# 3 -0.002113 -0.004124 0.008837 0.000000 0.000000 0.000000
# 4 0.000000 0.000000 0.000000 -0.105974 0.000000 0.000000
# 5 0.000000 0.000000 0.000000 0.000000 0.271539 0.000000
# 6 0.000000 0.000000 0.000000 0.000000 0.000000 0.080431
#
#
# Mechanical properties :
#
#
# Convention : Reuss Voigt Hill
#
# Bulk Modulus (GPa) = 89.73345 90.98809 90.36077
# Shear Modulus (GPa) = 15.09121 12.86955 13.98038
#
# Velocity S-wave (km/s) = 3.05693 2.82296 2.94227
# Velocity P-wave (km/s) = 8.24771 8.18335 8.21559
#
# Compressibility (1/GPa) = 0.01114412
#
# Stress axis : x y z
#
# Youngs Moduli (GPa) = 57.65022 49.52220 113.16065
#
# Poissons Ratio (x) = 0.56351 0.23910
# Poissons Ratio (y) = 0.65600 0.46669
# Poissons Ratio (z) = 0.12181 0.20424
#
# Static dielectric constant tensor:
#      x y z
#    x 1.508140 0.000000 0.000000 
#    y 0.000000 1.548190 0.000000 
#    z 0.000000 0.000000 1.538730 
# 
# From -- ./inp_files/18696.got.cif
#   From: 2010.05.17/outbox.cif.g08.bks.cpg/sg57_10_cif.got.tgz:18696.got - 2010.06.03 13:58:18.
