data_PCOD9436219
_publ_section_title
;
Structure prediction by ZEFSAII (Michael W. Deem and Ramdas Pophale) SiO2 
 PCOD9436219
Probable space group: P B C M
;
_chemical_formula_sum "Si O2"
_cell_formula_units_Z 64
_cell_length_a 20.624384
_cell_length_b 18.523455
_cell_length_c 7.558933
_cell_angle_alpha 90.000000
_cell_angle_beta 90.000000
_cell_angle_gamma 90.000000
_cell_volume 2887.775827
_symmetry_space_group_name_H-M "P B C M"
_symmetry_group_IT_number 57
_symmetry_cell_setting 'orthorhombic'
loop_
_space_group_symop_operation_xyz
x,y,z
-x,-y,1/2+z
x,1/2-y,-z
-x,1/2+y,1/2-z
-x,-y,-z
x,y,1/2-z
-x,1/2+y,z
x,1/2-y,1/2+z
loop_
_atom_site_type_symbol
_atom_site_label
_atom_site_fract_x
_atom_site_fract_y
_atom_site_fract_z
Si Si1 0.669714 0.089683 0.032919
Si Si2 0.172796 0.330532 0.038037
Si Si3 0.280523 0.064208 0.953866
Si Si4 0.204275 0.667622 0.462070
Si Si5 0.523065 0.418354 0.537994
Si Si6 0.601642 0.834026 0.538929
Si Si7 0.047463 0.095537 0.964733
Si Si8 0.906361 0.061510 0.044209
O O1 0.667239 0.089080 0.250000
O O2 0.722862 0.148414 0.977333
O O3 0.595640 0.096745 0.971045
O O4 0.697491 0.012264 0.971424
O O5 0.173007 0.337780 0.250000
O O6 0.220681 0.391924 0.965706
O O7 0.099463 0.344992 0.978329
O O8 0.195708 0.250000 0.000000
O O9 0.262955 0.048560 0.750000
O O10 0.341403 0.117940 0.958353
O O11 0.186540 0.750000 0.500000
O O12 0.204252 0.660201 0.250000
O O13 0.152133 0.609079 0.531431
O O14 0.500000 0.500000 0.500000
O O15 0.525611 0.411169 0.750000
O O16 0.467497 0.364105 0.473407
O O17 0.609557 0.750000 0.500000
O O18 0.605042 0.844670 0.750000
O O19 0.043709 0.093881 0.750000
O O20 0.076461 0.018081 0.027654
O O21 0.974528 0.103620 0.031229
O O22 0.890610 0.048948 0.250000
#
# Coordination Sequence:
#
# PCOD9436219 Si02
#       8
#     8   8   8   8   8   8   8   8
#     4   9  18  35  60  82 104 140 181 221 270 324
#     4  10  21  34  50  75 105 138 174 213 259 312
#     4  10  19  35  59  80 103 140 182 223 269 321
#     4  10  21  37  56  80 111 145 184 227 273 329
#     4  10  20  36  58  83 109 140 182 226 271 324
#     4  11  23  36  53  81 114 145 179 221 270 324
#     4   9  18  34  55  78 104 135 178 222 264 319
#     4   9  18  34  56  79 103 135 176 223 269 315
#
# _framework density 22.162383999999999
#
# number of rings (size 3 to 8) (size 9 to 14) (size 15 to 20)
#    0.000    2.250    1.250    1.500    0.000    7.000 
#    0.000    3.750    0.000    3.000    0.000    0.000 
#    0.000    0.000    0.000    0.000    0.000    0.000 
#
# Total GULP energy -357426.365732 kJ/mol
# GULP energy per Si atom -5584.786965 kJ/mol
# Density = 2.211194 g / cm^3
# Si number density = 22.162384 Si / 1000 Ang^3
#
#
#
# Elastic Constant Matrix: (Units=GPa)
#
#
# Indices 1 2 3 4 5 6 
#
# 1 114.3795 7.3361 -2.7880 0.0000 0.0000 0.0000
# 2 7.3361 43.9619 -9.6727 0.0000 0.0000 0.0000
# 3 -2.7880 -9.6727 53.8417 0.0000 0.0000 0.0000
# 4 0.0000 0.0000 0.0000 17.1940 0.0000 0.0000
# 5 0.0000 0.0000 0.0000 0.0000 9.3942 0.0000
# 6 0.0000 0.0000 0.0000 0.0000 0.0000 19.4624
#
#
#
# Elastic Compliance Matrix: (Units=1/GPa)
#
#
# Indices 1 2 3 4 5 6 
#
# 1 0.008839 -0.001431 0.000201 0.000000 0.000000 0.000000
# 2 -0.001431 0.023915 0.004222 0.000000 0.000000 0.000000
# 3 0.000201 0.004222 0.019342 0.000000 0.000000 0.000000
# 4 0.000000 0.000000 0.000000 0.058160 0.000000 0.000000
# 5 0.000000 0.000000 0.000000 0.000000 0.106448 0.000000
# 6 0.000000 0.000000 0.000000 0.000000 0.000000 0.051381
#
#
# Mechanical properties :
#
#
# Convention : Reuss Voigt Hill
#
# Bulk Modulus (GPa) = 17.21766 22.43711 19.82738
# Shear Modulus (GPa) = 17.76441 23.69729 20.73085
#
# Velocity S-wave (km/s) = 2.83425 3.27350 3.06176
# Velocity P-wave (km/s) = 4.30074 4.94304 4.63303
#
# Compressibility (1/GPa) = 0.05807992
#
# Stress axis : x y z
#
# Youngs Moduli (GPa) = 113.12860 41.81520 51.70132
#
# Poissons Ratio (x) = 0.05984 -0.01037
# Poissons Ratio (y) = 0.16188 -0.21829
# Poissons Ratio (z) = -0.02270 -0.17655
#
# Static dielectric constant tensor:
#      x y z
#    x 1.824500 0.000000 0.000000 
#    y 0.000000 1.784300 0.000000 
#    z 0.000000 0.000000 1.900070 
# 
# From -- ./inp_files/7216.got.cif
#   From: 2010.05.17/outbox.cif.g08.bks.cpg/sg57_4_cif.got.tgz:7216.got - 2010.06.03 13:58:18.
