data_PCOD9436129
_publ_section_title
;
Structure prediction by ZEFSAII (Michael W. Deem and Ramdas Pophale) SiO2 
 PCOD9436129
Probable space group: P B C M
;
_chemical_formula_sum "Si O2"
_cell_formula_units_Z 52
_cell_length_a 14.625035
_cell_length_b 10.170688
_cell_length_c 17.727095
_cell_angle_alpha 90.000000
_cell_angle_beta 90.000000
_cell_angle_gamma 90.000000
_cell_volume 2636.846314
_symmetry_space_group_name_H-M "P B C M"
_symmetry_group_IT_number 57
_symmetry_cell_setting 'orthorhombic'
loop_
_space_group_symop_operation_xyz
x,y,z
-x,-y,1/2+z
x,1/2-y,-z
-x,1/2+y,1/2-z
-x,-y,-z
x,y,1/2-z
-x,1/2+y,z
x,1/2-y,1/2+z
loop_
_atom_site_type_symbol
_atom_site_label
_atom_site_fract_x
_atom_site_fract_y
_atom_site_fract_z
Si Si1 0.508916 0.780543 0.250000
Si Si2 0.299786 0.573734 0.562642
Si Si3 0.102759 0.874567 0.054633
Si Si4 0.601757 0.684858 0.098092
Si Si5 0.903492 0.625588 0.555138
Si Si6 0.612494 0.043273 0.250000
Si Si7 0.555132 0.250000 0.500000
Si Si8 0.712993 0.554121 0.599571
O O1 0.561125 0.725142 0.177706
O O2 0.415127 0.696905 0.250000
O O3 0.525300 0.939306 0.250000
O O4 0.201631 0.618571 0.593950
O O5 0.333016 0.439826 0.600108
O O6 0.381505 0.678196 0.561113
O O7 0.289105 0.542470 0.472583
O O8 0.003381 0.865333 0.093762
O O9 0.107035 0.750000 0.000000
O O10 0.096815 0.003453 0.002547
O O11 0.656321 0.816517 0.075033
O O12 0.514686 0.655724 0.044583
O O13 0.889092 0.750000 0.500000
O O14 0.817540 0.601952 0.609151
O O15 0.669171 0.007000 0.325511
#
# Coordination Sequence:
#
# PCOD9436129 Si02
#       8
#     4   8   8   8   8   4   4   8
#     4  10  24  38  54  75 107 149 189 224 264 330
#     4  11  20  33  52  79 113 133 180 223 279 318
#     4   9  17  31  48  82 108 133 168 220 278 323
#     4  11  22  35  53  77 106 145 185 219 273 322
#     4   9  17  30  55  77 106 136 171 217 274 325
#     4  10  22  38  54  75 109 147 193 222 270 324
#     4  12  22  30  52  80 106 146 172 232 264 316
#     4  10  19  35  53  78 105 141 181 224 269 326
#
# _framework density 19.720527000000001
#
# number of rings (size 3 to 8) (size 9 to 14) (size 15 to 20)
#    0.000    1.846    2.308    3.231    4.308    0.000 
#    0.000    0.000    0.000    0.923    0.000   31.231 
#    0.000    0.000    0.000    0.000    0.000    0.000 
#
# Total GULP energy -289823.774835 kJ/mol
# GULP energy per Si atom -5573.534131 kJ/mol
# Density = 1.967564 g / cm^3
# Si number density = 19.720527 Si / 1000 Ang^3
#
#
#
# Elastic Constant Matrix: (Units=GPa)
#
#
# Indices 1 2 3 4 5 6 
#
# 1 148.5619 12.9749 2.5816 0.0000 0.0000 0.0000
# 2 12.9749 69.9313 -10.4060 0.0000 0.0000 0.0000
# 3 2.5816 -10.4060 19.4711 0.0000 0.0000 0.0000
# 4 0.0000 0.0000 0.0000 11.9830 0.0000 0.0000
# 5 0.0000 0.0000 0.0000 0.0000 0.5919 0.0000
# 6 0.0000 0.0000 0.0000 0.0000 0.0000 31.1866
#
#
#
# Elastic Compliance Matrix: (Units=1/GPa)
#
#
# Indices 1 2 3 4 5 6 
#
# 1 0.006896 -0.001538 -0.001736 0.000000 0.000000 0.000000
# 2 -0.001538 0.015878 0.008690 0.000000 0.000000 0.000000
# 3 -0.001736 0.008690 0.056232 0.000000 0.000000 0.000000
# 4 0.000000 0.000000 0.000000 0.083451 0.000000 0.000000
# 5 0.000000 0.000000 0.000000 0.000000 1.689358 0.000000
# 6 0.000000 0.000000 0.000000 0.000000 0.000000 0.032065
#
#
# Mechanical properties :
#
#
# Convention : Reuss Voigt Hill
#
# Bulk Modulus (GPa) = 11.13115 27.58503 19.35809
# Shear Modulus (GPa) = 2.62744 24.27322 13.45033
#
# Velocity S-wave (km/s) = 1.15552 3.51217 2.61444
# Velocity P-wave (km/s) = 2.72709 5.51955 4.35330
#
# Compressibility (1/GPa) = 0.08983795
#
# Stress axis : x y z
#
# Youngs Moduli (GPa) = 145.01855 62.97978 17.78332
#
# Poissons Ratio (x) = 0.09685 0.03087
# Poissons Ratio (y) = 0.22300 -0.15453
# Poissons Ratio (z) = 0.25177 -0.54727
#
# Static dielectric constant tensor:
#      x y z
#    x 1.804950 0.000000 0.000000 
#    y 0.000000 1.716100 0.000000 
#    z 0.000000 0.000000 1.708380 
# 
# From -- ./inp_files/25342.got.cif
#   From: 2010.05.17/outbox.cif.g08.bks.cpg/sg57_13_cif.got.tgz:25342.got - 2010.06.03 13:58:18.
