data_PCOD9436644
_publ_section_title
;
Structure prediction by ZEFSAII (Michael W. Deem and Ramdas Pophale) SiO2 
 PCOD9436644
Probable space group: P B C M
;
_chemical_formula_sum "Si O2"
_cell_formula_units_Z 64
_cell_length_a 23.048660
_cell_length_b 16.359240
_cell_length_c 8.890456
_cell_angle_alpha 90.000000
_cell_angle_beta 90.000000
_cell_angle_gamma 90.000000
_cell_volume 3352.222543
_symmetry_space_group_name_H-M "P B C M"
_symmetry_group_IT_number 57
_symmetry_cell_setting 'orthorhombic'
loop_
_space_group_symop_operation_xyz
x,y,z
-x,-y,1/2+z
x,1/2-y,-z
-x,1/2+y,1/2-z
-x,-y,-z
x,y,1/2-z
-x,1/2+y,z
x,1/2-y,1/2+z
loop_
_atom_site_type_symbol
_atom_site_label
_atom_site_fract_x
_atom_site_fract_y
_atom_site_fract_z
Si Si1 0.282474 0.830849 0.926804
Si Si2 0.532543 0.664457 0.570488
Si Si3 0.370469 0.442954 0.579551
Si Si4 0.252724 0.013483 0.930348
Si Si5 0.084260 0.836219 0.068453
Si Si6 0.868447 0.983927 0.930362
Si Si7 0.400375 0.866147 0.078521
Si Si8 0.955291 0.835161 0.568672
O O1 0.275265 0.825847 0.750000
O O2 0.257941 0.917916 0.979657
O O3 0.256353 0.750000 0.000000
O O4 0.350441 0.833515 0.970494
O O5 0.549985 0.750000 0.500000
O O6 0.533092 0.666252 0.750000
O O7 0.578694 0.600113 0.511415
O O8 0.465762 0.648027 0.524484
O O9 0.367249 0.410988 0.750000
O O10 0.307748 0.440291 0.500986
O O11 0.388626 0.537583 0.586313
O O12 0.256487 0.016533 0.750000
O O13 0.190844 0.041995 0.989318
O O14 0.083835 0.829772 0.250000
O O15 0.115116 0.922285 0.026999
O O16 0.107269 0.750000 0.000000
O O17 0.018792 0.843991 0.004977
O O18 0.860298 0.983623 0.750000
O O19 0.917550 0.916134 0.964826
O O20 0.393722 0.833478 0.250000
O O21 0.930806 0.750000 0.500000
O O22 0.960197 0.827421 0.750000
#
# Coordination Sequence:
#
# PCOD9436644 Si02
#       8
#     8   8   8   8   8   8   8   8
#     4  10  20  33  51  76 106 140 177 219 267 321
#     4  11  22  35  52  78 108 135 170 214 263 319
#     4  10  20  37  58  77 102 137 174 215 266 318
#     4  10  22  38  56  78 104 139 184 228 268 317
#     4  10  20  35  56  85 120 154 186 223 270 325
#     4  10  22  38  57  82 113 149 188 231 277 325
#     4   9  19  34  54  79 105 135 170 212 263 320
#     4  10  20  36  58  85 115 147 185 228 276 327
#
# _framework density 19.091811
#
# number of rings (size 3 to 8) (size 9 to 14) (size 15 to 20)
#    0.000    2.000    0.000    4.125    0.000    6.500 
#    0.000    3.125    0.000    1.500    0.000    0.000 
#    0.000    0.000    0.000    0.000    0.000    0.000 
#
# Total GULP energy -357192.920909 kJ/mol
# GULP energy per Si atom -5581.139389 kJ/mol
# Density = 1.904836 g / cm^3
# Si number density = 19.091811 Si / 1000 Ang^3
#
#
#
# Elastic Constant Matrix: (Units=GPa)
#
#
# Indices 1 2 3 4 5 6 
#
# 1 56.6659 14.2880 10.1251 0.0000 0.0000 0.0000
# 2 14.2880 54.8451 13.4346 0.0000 0.0000 0.0000
# 3 10.1251 13.4346 39.0254 0.0000 0.0000 0.0000
# 4 0.0000 0.0000 0.0000 28.6069 0.0000 0.0000
# 5 0.0000 0.0000 0.0000 0.0000 24.6113 0.0000
# 6 0.0000 0.0000 0.0000 0.0000 0.0000 -1.5769
#
#
#
# Elastic Compliance Matrix: (Units=1/GPa)
#
#
# Indices 1 2 3 4 5 6 
#
# 1 0.019337 -0.004159 -0.003585 0.000000 0.000000 0.000000
# 2 -0.004159 0.020807 -0.006084 0.000000 0.000000 0.000000
# 3 -0.003585 -0.006084 0.028649 0.000000 0.000000 0.000000
# 4 0.000000 0.000000 0.000000 0.034957 0.000000 0.000000
# 5 0.000000 0.000000 0.000000 0.000000 0.040632 0.000000
# 6 0.000000 0.000000 0.000000 0.000000 0.000000 -0.634167
#
#
# Mechanical properties :
#
#
# Convention : Reuss Voigt Hill
#
# Bulk Modulus (GPa) = 24.30941 25.13684 24.72313
# Shear Modulus (GPa) = -11.15031 17.84085 3.34527
#
# Velocity S-wave (km/s) = -2.41931 3.06024 1.32514
# Velocity P-wave (km/s) = 2.22632 5.06770 3.91396
#
# Compressibility (1/GPa) = 0.04113633
#
# Stress axis : x y z
#
# Youngs Moduli (GPa) = 51.71541 48.06081 34.90547
#
# Poissons Ratio (x) = 0.19990 0.12514
# Poissons Ratio (y) = 0.21510 0.21235
# Poissons Ratio (z) = 0.18540 0.29239
#
# Static dielectric constant tensor:
#      x y z
#    x 1.642630 0.000000 0.000000 
#    y 0.000000 1.679020 0.000000 
#    z 0.000000 0.000000 1.655210 
# 
# From -- ./inp_files/9310.got.cif
#   From: 2010.05.17/outbox.cif.g08.bks.cpg/sg57_5_cif.got.tgz:9310.got - 2010.06.03 13:58:18.
