data_PCOD9436152
_publ_section_title
;
Structure prediction by ZEFSAII (Michael W. Deem and Ramdas Pophale) SiO2 
 PCOD9436152
Probable space group: P B C M
;
_chemical_formula_sum "Si O2"
_cell_formula_units_Z 64
_cell_length_a 12.320861
_cell_length_b 32.789032
_cell_length_c 8.292674
_cell_angle_alpha 90.000000
_cell_angle_beta 90.000000
_cell_angle_gamma 90.000000
_cell_volume 3350.149952
_symmetry_space_group_name_H-M "P B C M"
_symmetry_group_IT_number 57
_symmetry_cell_setting 'orthorhombic'
loop_
_space_group_symop_operation_xyz
x,y,z
-x,-y,1/2+z
x,1/2-y,-z
-x,1/2+y,1/2-z
-x,-y,-z
x,y,1/2-z
-x,1/2+y,z
x,1/2-y,1/2+z
loop_
_atom_site_type_symbol
_atom_site_label
_atom_site_fract_x
_atom_site_fract_y
_atom_site_fract_z
Si Si1 0.262924 0.921152 0.062708
Si Si2 0.932767 0.128190 0.555684
Si Si3 0.143603 0.416653 0.444663
Si Si4 0.489722 0.953092 0.561833
Si Si5 0.639534 0.620778 0.942384
Si Si6 0.122062 0.507029 0.057658
Si Si7 0.934467 0.705272 0.443294
Si Si8 0.683666 0.794668 0.557893
O O1 0.292841 0.914482 0.250000
O O2 0.188203 0.883759 0.999518
O O3 0.368971 0.935489 0.968688
O O4 0.179849 0.958704 0.045410
O O5 0.927382 0.124933 0.750000
O O6 0.025108 0.096364 0.494345
O O7 0.984103 0.171314 0.509929
O O8 0.138396 0.412187 0.250000
O O9 0.239726 0.388816 0.508643
O O10 0.175655 0.463153 0.473582
O O11 0.513464 0.954716 0.750000
O O12 0.566711 0.918244 0.486081
O O13 0.500000 0.000000 0.500000
O O14 0.643585 0.622885 0.750000
O O15 0.613753 0.666220 0.003808
O O16 0.126974 0.515760 0.250000
O O17 0.000000 0.500000 0.000000
O O18 0.968850 0.750000 0.500000
O O19 0.933653 0.702896 0.250000
O O20 0.809196 0.700214 0.502710
O O21 0.646332 0.750000 0.500000
O O22 0.687115 0.794121 0.750000
#
# Coordination Sequence:
#
# PCOD9436152 Si02
#       8
#     8   8   8   8   8   8   8   8
#     4  11  23  40  60  84 114 152 196 242 295 351
#     4  10  19  35  56  81 116 152 188 233 286 346
#     4   9  18  32  51  78 112 149 187 229 283 340
#     4  12  26  45  65  87 117 156 206 257 305 361
#     4  11  21  37  62  87 117 157 199 246 300 356
#     4  11  20  33  51  77 112 151 191 235 286 339
#     4  10  20  33  53  83 120 158 196 235 287 350
#     4  10  20  34  54  86 123 159 199 246 299 358
#
# _framework density 19.103624
#
# number of rings (size 3 to 8) (size 9 to 14) (size 15 to 20)
#    0.000    1.500    2.500    3.750    0.000    3.000 
#    0.000    1.875    0.000    0.750    0.000    1.750 
#    0.000    0.000    0.000    0.000    0.000    0.000 
#
# Total GULP energy -356997.090472 kJ/mol
# GULP energy per Si atom -5578.079539 kJ/mol
# Density = 1.906014 g / cm^3
# Si number density = 19.103624 Si / 1000 Ang^3
#
#
#
# Elastic Constant Matrix: (Units=GPa)
#
#
# Indices 1 2 3 4 5 6 
#
# 1 57.6175 31.5114 -1.0368 0.0000 0.0000 0.0000
# 2 31.5114 131.9197 17.1801 0.0000 0.0000 0.0000
# 3 -1.0368 17.1801 45.2305 0.0000 0.0000 0.0000
# 4 0.0000 0.0000 0.0000 31.3048 0.0000 0.0000
# 5 0.0000 0.0000 0.0000 0.0000 21.5077 0.0000
# 6 0.0000 0.0000 0.0000 0.0000 0.0000 26.1828
#
#
#
# Elastic Compliance Matrix: (Units=1/GPa)
#
#
# Indices 1 2 3 4 5 6 
#
# 1 0.020212 -0.005143 0.002417 0.000000 0.000000 0.000000
# 2 -0.005143 0.009283 -0.003644 0.000000 0.000000 0.000000
# 3 0.002417 -0.003644 0.023549 0.000000 0.000000 0.000000
# 4 0.000000 0.000000 0.000000 0.031944 0.000000 0.000000
# 5 0.000000 0.000000 0.000000 0.000000 0.046495 0.000000
# 6 0.000000 0.000000 0.000000 0.000000 0.000000 0.038193
#
#
# Mechanical properties :
#
#
# Convention : Reuss Voigt Hill
#
# Bulk Modulus (GPa) = 24.81164 36.67525 30.74344
# Shear Modulus (GPa) = 25.52969 28.27326 26.90147
#
# Velocity S-wave (km/s) = 3.65962 3.85124 3.75665
# Velocity P-wave (km/s) = 5.55636 6.24627 5.91139
#
# Compressibility (1/GPa) = 0.04030367
#
# Stress axis : x y z
#
# Youngs Moduli (GPa) = 49.47581 107.71953 42.46553
#
# Poissons Ratio (x) = 0.55397 -0.10263
# Poissons Ratio (y) = 0.25444 0.15475
# Poissons Ratio (z) = -0.11957 0.39253
#
# Static dielectric constant tensor:
#      x y z
#    x 1.692620 0.000000 0.000000 
#    y 0.000000 1.706000 0.000000 
#    z 0.000000 0.000000 1.650600 
# 
# From -- ./inp_files/3782.got.cif
#   From: 2010.05.17/outbox.cif.g08.bks.cpg/sg57_2_cif.got.tgz:3782.got - 2010.06.03 13:58:18.
