data_PCOD9436558
_publ_section_title
;
Structure prediction by ZEFSAII (Michael W. Deem and Ramdas Pophale) SiO2 
 PCOD9436558
Probable space group: P B C M
;
_chemical_formula_sum "Si O2"
_cell_formula_units_Z 64
_cell_length_a 22.074679
_cell_length_b 20.206217
_cell_length_c 9.009112
_cell_angle_alpha 90.000000
_cell_angle_beta 90.000000
_cell_angle_gamma 90.000000
_cell_volume 4018.476156
_symmetry_space_group_name_H-M "P B C M"
_symmetry_group_IT_number 57
_symmetry_cell_setting 'orthorhombic'
loop_
_space_group_symop_operation_xyz
x,y,z
-x,-y,1/2+z
x,1/2-y,-z
-x,1/2+y,1/2-z
-x,-y,-z
x,y,1/2-z
-x,1/2+y,z
x,1/2-y,1/2+z
loop_
_atom_site_type_symbol
_atom_site_label
_atom_site_fract_x
_atom_site_fract_y
_atom_site_fract_z
Si Si1 0.086959 0.968487 0.417192
Si Si2 0.809787 0.954969 0.073916
Si Si3 0.549599 0.953325 0.572487
Si Si4 0.133621 0.177780 0.429704
Si Si5 0.542200 0.686117 0.916594
Si Si6 0.010899 0.394403 0.582525
Si Si7 0.312137 0.048277 0.426098
Si Si8 0.313150 0.313224 0.082439
O O1 0.108917 0.956316 0.250000
O O2 0.045666 0.908641 0.476438
O O3 0.140717 0.991126 0.524228
O O4 0.045444 0.034724 0.411216
O O5 0.809849 0.946378 0.250000
O O6 0.827987 0.883984 0.997927
O O7 0.744739 0.979907 0.014987
O O8 0.545876 0.954378 0.750000
O O9 0.536741 0.879925 0.512060
O O10 0.619266 0.972335 0.532245
O O11 0.500000 0.000000 0.500000
O O12 0.145733 0.250000 0.500000
O O13 0.141616 0.178455 0.250000
O O14 0.063252 0.157310 0.461535
O O15 0.517860 0.677808 0.750000
O O16 0.614627 0.697287 0.901613
O O17 0.516607 0.750000 0.000000
O O18 0.990616 0.378803 0.750000
O O19 0.304520 0.040481 0.250000
O O20 0.308251 0.124957 0.474143
O O21 0.289289 0.323964 0.250000
O O22 0.286321 0.250000 0.000000
#
# Coordination Sequence:
#
# PCOD9436558 Si02
#       8
#     8   8   8   8   8   8   8   8
#     4   9  16  27  44  64  85 110 143 183 223 262
#     4  11  21  32  46  63  86 117 152 190 231 274
#     4  10  20  33  50  70  94 124 157 197 245 295
#     4  10  20  33  47  65  92 124 158 193 227 266
#     4   9  16  27  44  65  90 117 148 185 225 272
#     4   8  15  27  43  63  86 113 145 182 221 259
#     4  10  20  33  46  62  86 116 151 190 231 275
#     4   9  16  26  40  58  79 107 143 180 216 255
#
# _framework density 15.926436000000001
#
# number of rings (size 3 to 8) (size 9 to 14) (size 15 to 20)
#    0.000    2.500    0.000    4.125    0.000    8.500 
#    0.000    2.500    0.000    0.000    0.000    0.000 
#    0.000    1.000    0.000    7.000    0.000    5.000 
#
# Total GULP energy -356447.877759 kJ/mol
# GULP energy per Si atom -5569.498090 kJ/mol
# Density = 1.589019 g / cm^3
# Si number density = 15.926436 Si / 1000 Ang^3
#
#
#
# Elastic Constant Matrix: (Units=GPa)
#
#
# Indices 1 2 3 4 5 6 
#
# 1 88.4095 38.5427 54.9899 0.0000 0.0000 0.0000
# 2 38.5427 40.6644 30.4466 0.0000 0.0000 0.0000
# 3 54.9899 30.4466 99.5774 0.0000 0.0000 0.0000
# 4 0.0000 0.0000 0.0000 18.3972 0.0000 0.0000
# 5 0.0000 0.0000 0.0000 0.0000 19.2719 0.0000
# 6 0.0000 0.0000 0.0000 0.0000 0.0000 9.0848
#
#
#
# Elastic Compliance Matrix: (Units=1/GPa)
#
#
# Indices 1 2 3 4 5 6 
#
# 1 0.023265 -0.016122 -0.007918 0.000000 0.000000 0.000000
# 2 -0.016122 0.043066 -0.004264 0.000000 0.000000 0.000000
# 3 -0.007918 -0.004264 0.015719 0.000000 0.000000 0.000000
# 4 0.000000 0.000000 0.000000 0.054356 0.000000 0.000000
# 5 0.000000 0.000000 0.000000 0.000000 0.051889 0.000000
# 6 0.000000 0.000000 0.000000 0.000000 0.000000 0.110074
#
#
# Mechanical properties :
#
#
# Convention : Reuss Voigt Hill
#
# Bulk Modulus (GPa) = 39.30859 52.95664 46.13261
# Shear Modulus (GPa) = 13.75679 16.32892 15.04286
#
# Velocity S-wave (km/s) = 2.94219 3.20546 3.07664
# Velocity P-wave (km/s) = 6.02303 6.85733 6.45367
#
# Compressibility (1/GPa) = 0.02543973
#
# Stress axis : x y z
#
# Youngs Moduli (GPa) = 42.98394 23.22039 63.61807
#
# Poissons Ratio (x) = 0.37437 0.50372
# Poissons Ratio (y) = 0.69300 0.27129
# Poissons Ratio (z) = 0.34034 0.09902
#
# Static dielectric constant tensor:
#      x y z
#    x 1.573080 0.000000 0.000000 
#    y 0.000000 1.548760 0.000000 
#    z 0.000000 0.000000 1.553670 
# 
# From -- ./inp_files/8700.got.cif
#   From: 2010.05.17/outbox.cif.g08.bks.cpg/sg57_5_cif.got.tgz:8700.got - 2010.06.03 13:58:18.
