data_PCOD9436845
_publ_section_title
;
Structure prediction by ZEFSAII (Michael W. Deem and Ramdas Pophale) SiO2 
 PCOD9436845
Probable space group: P B C M
;
_chemical_formula_sum "Si O2"
_cell_formula_units_Z 64
_cell_length_a 18.796126
_cell_length_b 10.104670
_cell_length_c 14.357164
_cell_angle_alpha 90.000000
_cell_angle_beta 90.000000
_cell_angle_gamma 90.000000
_cell_volume 2726.836784
_symmetry_space_group_name_H-M "P B C M"
_symmetry_group_IT_number 57
_symmetry_cell_setting 'orthorhombic'
loop_
_space_group_symop_operation_xyz
x,y,z
-x,-y,1/2+z
x,1/2-y,-z
-x,1/2+y,1/2-z
-x,-y,-z
x,y,1/2-z
-x,1/2+y,z
x,1/2-y,1/2+z
loop_
_atom_site_type_symbol
_atom_site_label
_atom_site_fract_x
_atom_site_fract_y
_atom_site_fract_z
Si Si1 0.441007 0.582330 0.105034
Si Si2 0.326497 0.135066 0.862145
Si Si3 0.314614 0.078178 0.360540
Si Si4 0.163334 0.976511 0.363947
Si Si5 0.163968 0.087348 0.863452
Si Si6 0.111337 0.695795 0.363969
Si Si7 0.559150 0.382739 0.387702
Si Si8 0.947816 0.807176 0.636364
O O1 0.369906 0.492229 0.104027
O O2 0.439079 0.731004 0.146191
O O3 0.499446 0.484337 0.149073
O O4 0.456784 0.613093 0.997511
O O5 0.332676 0.127826 0.750000
O O6 0.349189 0.283125 0.893837
O O7 0.243582 0.128080 0.888159
O O8 0.305665 0.097867 0.250000
O O9 0.235834 0.045458 0.397177
O O10 0.365589 0.953901 0.373718
O O11 0.165800 0.977769 0.250000
O O12 0.153634 0.825749 0.393321
O O13 0.093757 0.059896 0.390139
O O14 0.162058 0.089742 0.750000
O O15 0.102236 0.186625 0.894542
O O16 0.146931 0.939841 0.894834
O O17 0.111229 0.694961 0.250000
O O18 0.029097 0.700664 0.393789
O O19 0.949432 0.803876 0.750000
#
# Coordination Sequence:
#
# PCOD9436845 Si02
#       8
#     8   8   8   8   8   8   8   8
#     4  10  22  40  61  83 106 134 171 215 261 310
#     4  10  20  34  53  78 111 147 178 213 260 313
#     4  10  20  34  53  78 111 147 178 213 260 313
#     4   9  16  26  39  62  97 135 173 212 256 304
#     4   9  16  26  39  62  97 135 173 212 256 304
#     4   9  16  22  36  60  90 133 178 214 255 305
#     4  10  22  40  61  83 106 134 171 215 261 310
#     4   9  14  24  38  56  90 135 176 212 253 305
#
# _framework density 23.470417999999999
#
# number of rings (size 3 to 8) (size 9 to 14) (size 15 to 20)
#    0.000    2.500    1.250    1.500    1.750    5.500 
#    0.000    0.000    0.000    0.000    0.000    0.000 
#    0.000    6.000    0.000    0.000    0.000    0.000 
#
# Total GULP energy -357648.783405 kJ/mol
# GULP energy per Si atom -5588.262241 kJ/mol
# Density = 2.341700 g / cm^3
# Si number density = 23.470418 Si / 1000 Ang^3
#
#
#
# Elastic Constant Matrix: (Units=GPa)
#
#
# Indices 1 2 3 4 5 6 
#
# 1 81.8217 51.5865 -12.5500 0.0000 0.0000 0.0000
# 2 51.5865 224.1359 5.6200 0.0000 0.0000 0.0000
# 3 -12.5500 5.6200 60.9363 0.0000 0.0000 0.0000
# 4 0.0000 0.0000 0.0000 -71.6076 0.0000 0.0000
# 5 0.0000 0.0000 0.0000 0.0000 10.0328 0.0000
# 6 0.0000 0.0000 0.0000 0.0000 0.0000 32.6689
#
#
#
# Elastic Compliance Matrix: (Units=1/GPa)
#
#
# Indices 1 2 3 4 5 6 
#
# 1 0.014971 -0.003531 0.003409 0.000000 0.000000 0.000000
# 2 -0.003531 0.005305 -0.001216 0.000000 0.000000 0.000000
# 3 0.003409 -0.001216 0.017225 0.000000 0.000000 0.000000
# 4 0.000000 0.000000 0.000000 -0.013965 0.000000 0.000000
# 5 0.000000 0.000000 0.000000 0.000000 0.099673 0.000000
# 6 0.000000 0.000000 0.000000 0.000000 0.000000 0.030610
#
#
# Mechanical properties :
#
#
# Convention : Reuss Voigt Hill
#
# Bulk Modulus (GPa) = 28.71654 50.68967 39.70310
# Shear Modulus (GPa) = 29.74352 15.70131 22.72242
#
# Velocity S-wave (km/s) = 3.56375 2.58928 3.11485
# Velocity P-wave (km/s) = 5.40328 5.53022 5.46712
#
# Compressibility (1/GPa) = 0.03482314
#
# Stress axis : x y z
#
# Youngs Moduli (GPa) = 66.79650 188.50873 58.05569
#
# Poissons Ratio (x) = 0.66565 -0.19791
# Poissons Ratio (y) = 0.23587 0.07062
# Poissons Ratio (z) = -0.22771 0.22932
#
# Static dielectric constant tensor:
#      x y z
#    x 1.824520 0.000000 0.000000 
#    y 0.000000 1.868480 0.000000 
#    z 0.000000 0.000000 1.960040 
# 
# From -- ./inp_files/25642.got.cif
#   From: 2010.05.17/outbox.cif.g08.bks.cpg/sg57_13_cif.got.tgz:25642.got - 2010.06.03 13:58:18.
