data_PCOD9436381
_publ_section_title
;
Structure prediction by ZEFSAII (Michael W. Deem and Ramdas Pophale) SiO2 
 PCOD9436381
Probable space group: P B C M
;
_chemical_formula_sum "Si O2"
_cell_formula_units_Z 64
_cell_length_a 12.871402
_cell_length_b 14.856278
_cell_length_c 17.059456
_cell_angle_alpha 90.000000
_cell_angle_beta 90.000000
_cell_angle_gamma 90.000000
_cell_volume 3262.128391
_symmetry_space_group_name_H-M "P B C M"
_symmetry_group_IT_number 57
_symmetry_cell_setting 'orthorhombic'
loop_
_space_group_symop_operation_xyz
x,y,z
-x,-y,1/2+z
x,1/2-y,-z
-x,1/2+y,1/2-z
-x,-y,-z
x,y,1/2-z
-x,1/2+y,z
x,1/2-y,1/2+z
loop_
_atom_site_type_symbol
_atom_site_label
_atom_site_fract_x
_atom_site_fract_y
_atom_site_fract_z
Si Si1 0.273452 0.983722 0.592065
Si Si2 0.880738 0.369771 0.343459
Si Si3 0.496939 0.716821 0.343233
Si Si4 0.273169 0.016985 0.094543
Si Si5 0.718713 0.269543 0.908178
Si Si6 0.499461 0.984540 0.593248
Si Si7 0.273680 0.280179 0.655417
Si Si8 0.117544 0.125672 0.655641
O O1 0.267811 0.876390 0.605387
O O2 0.386986 0.017028 0.622778
O O3 0.270276 0.002331 0.498902
O O4 0.179767 0.037105 0.630649
O O5 0.883555 0.364678 0.250000
O O6 0.817490 0.458226 0.368335
O O7 0.815097 0.285830 0.375150
O O8 0.999202 0.371689 0.373191
O O9 0.491883 0.701477 0.250000
O O10 0.390399 0.762107 0.370171
O O11 0.498330 0.621520 0.387955
O O12 0.610055 0.757664 0.361255
O O13 0.387995 0.984337 0.123390
O O14 0.263123 0.121750 0.116820
O O15 0.710753 0.250000 0.000000
O O16 0.500000 0.000000 0.500000
O O17 0.266508 0.291397 0.750000
O O18 0.185941 0.210924 0.628629
O O19 0.115390 0.128834 0.750000
#
# Coordination Sequence:
#
# PCOD9436381 Si02
#       8
#     8   8   8   8   8   8   8   8
#     4  10  21  39  61  88 120 158 192 244 307 358
#     4  11  24  41  62  87 117 160 212 251 292 355
#     4   9  18  34  60  89 116 155 204 245 297 371
#     4  10  19  37  60  92 120 152 196 245 301 358
#     4  11  22  41  60  88 125 159 190 252 311 361
#     4   8  17  33  57  87 125 153 187 237 303 367
#     4   9  19  39  60  85 123 158 194 248 302 353
#     4  10  24  43  59  85 120 159 209 252 291 355
#
# _framework density 19.619092999999999
#
# number of rings (size 3 to 8) (size 9 to 14) (size 15 to 20)
#    0.000    2.250    1.250    0.750    0.000    6.000 
#    9.000    3.750    0.000    0.000    0.000    0.000 
#    0.000    0.000    0.000    0.000    0.000    0.000 
#
# Total GULP energy -357011.422476 kJ/mol
# GULP energy per Si atom -5578.303476 kJ/mol
# Density = 1.957444 g / cm^3
# Si number density = 19.619093 Si / 1000 Ang^3
#
#
#
# Elastic Constant Matrix: (Units=GPa)
#
#
# Indices 1 2 3 4 5 6 
#
# 1 212.1309 76.0486 30.3409 0.0000 0.0000 0.0000
# 2 76.0486 113.4148 8.9164 0.0000 0.0000 0.0000
# 3 30.3409 8.9164 17.0757 0.0000 0.0000 0.0000
# 4 0.0000 0.0000 0.0000 12.7135 0.0000 0.0000
# 5 0.0000 0.0000 0.0000 0.0000 -4.2687 0.0000
# 6 0.0000 0.0000 0.0000 0.0000 0.0000 25.7562
#
#
#
# Elastic Compliance Matrix: (Units=1/GPa)
#
#
# Indices 1 2 3 4 5 6 
#
# 1 0.008007 -0.004432 -0.011913 0.000000 0.000000 0.000000
# 2 -0.004432 0.011648 0.001793 0.000000 0.000000 0.000000
# 3 -0.011913 0.001793 0.078794 0.000000 0.000000 0.000000
# 4 0.000000 0.000000 0.000000 0.078656 0.000000 0.000000
# 5 0.000000 0.000000 0.000000 0.000000 -0.234264 0.000000
# 6 0.000000 0.000000 0.000000 0.000000 0.000000 0.038826
#
#
# Mechanical properties :
#
#
# Convention : Reuss Voigt Hill
#
# Bulk Modulus (GPa) = 14.42060 63.69260 39.05660
# Shear Modulus (GPa) = 147.55624 21.99457 84.77540
#
# Velocity S-wave (km/s) = 8.68181 3.35189 6.58061
# Velocity P-wave (km/s) = 10.38579 6.89313 8.81419
#
# Compressibility (1/GPa) = 0.06934522
#
# Stress axis : x y z
#
# Youngs Moduli (GPa) = 124.89178 85.84966 12.69139
#
# Poissons Ratio (x) = 0.38052 0.15119
# Poissons Ratio (y) = 0.55357 -0.02276
# Poissons Ratio (z) = 1.48780 -0.15395
#
# Static dielectric constant tensor:
#      x y z
#    x 1.722230 0.000000 0.000000 
#    y 0.000000 1.705300 0.000000 
#    z 0.000000 0.000000 1.669800 
# 
# From -- ./inp_files/21989.got.cif
#   From: 2010.05.17/outbox.cif.g08.bks.cpg/sg57_11_cif.got.tgz:21989.got - 2010.06.03 13:58:18.
