data_PCOD9436438
_publ_section_title
;
Structure prediction by ZEFSAII (Michael W. Deem and Ramdas Pophale) SiO2 
 PCOD9436438
Probable space group: P B C M
;
_chemical_formula_sum "Si O2"
_cell_formula_units_Z 64
_cell_length_a 12.473112
_cell_length_b 15.716313
_cell_length_c 14.471953
_cell_angle_alpha 90.000000
_cell_angle_beta 90.000000
_cell_angle_gamma 90.000000
_cell_volume 2836.956227
_symmetry_space_group_name_H-M "P B C M"
_symmetry_group_IT_number 57
_symmetry_cell_setting 'orthorhombic'
loop_
_space_group_symop_operation_xyz
x,y,z
-x,-y,1/2+z
x,1/2-y,-z
-x,1/2+y,1/2-z
-x,-y,-z
x,y,1/2-z
-x,1/2+y,z
x,1/2-y,1/2+z
loop_
_atom_site_type_symbol
_atom_site_label
_atom_site_fract_x
_atom_site_fract_y
_atom_site_fract_z
Si Si1 0.233283 0.296004 0.597880
Si Si2 0.999970 0.549032 0.637857
Si Si3 0.540605 0.739522 0.890626
Si Si4 0.463947 0.951109 0.140159
Si Si5 0.387367 0.897731 0.642250
Si Si6 0.237836 0.486858 0.862029
Si Si7 0.995917 0.761773 0.355374
Si Si8 0.856218 0.389938 0.636075
O O1 0.222197 0.250000 0.500000
O O2 0.340102 0.259297 0.645379
O O3 0.250635 0.396158 0.589882
O O4 0.120516 0.281150 0.647053
O O5 0.987481 0.549805 0.750000
O O6 0.122489 0.525552 0.617142
O O7 0.981003 0.644580 0.602144
O O8 0.919433 0.475047 0.605881
O O9 0.507711 0.643252 0.872190
O O10 0.454335 0.810110 0.860491
O O11 0.547824 0.750000 0.000000
O O12 0.459918 0.967171 0.250000
O O13 0.540040 0.026123 0.101171
O O14 0.340601 0.958081 0.109916
O O15 0.370635 0.919057 0.750000
O O16 0.267031 0.889747 0.604315
O O17 0.239703 0.473146 0.750000
O O18 0.033330 0.776848 0.250000
O O19 0.079600 0.694115 0.395701
O O20 0.859423 0.388590 0.750000
#
# Coordination Sequence:
#
# PCOD9436438 Si02
#       8
#     8   8   8   8   8   8   8   8
#     4  11  23  40  58  85 118 157 203 247 294 352
#     4   9  18  32  56  89 115 145 189 234 293 353
#     4  11  25  42  58  84 120 164 200 239 300 364
#     4  10  22  38  64  94 116 150 201 252 295 346
#     4  10  21  38  60  89 121 152 196 255 301 344
#     4  10  19  38  64  88 117 154 200 252 299 350
#     4  10  20  35  60  86 114 155 195 240 297 355
#     4   9  18  33  54  84 120 148 182 241 301 349
#
# _framework density 22.55939
#
# number of rings (size 3 to 8) (size 9 to 14) (size 15 to 20)
#    0.000    2.000    2.500    0.750    3.500    2.000 
#    0.000    1.250    0.000    0.000    0.000    0.000 
#    0.000    0.000    0.000    0.000    0.000    0.000 
#
# Total GULP energy -357635.723588 kJ/mol
# GULP energy per Si atom -5588.058181 kJ/mol
# Density = 2.250804 g / cm^3
# Si number density = 22.559390 Si / 1000 Ang^3
#
#
#
# Elastic Constant Matrix: (Units=GPa)
#
#
# Indices 1 2 3 4 5 6 
#
# 1 149.1651 62.1349 13.7918 0.0000 0.0000 0.0000
# 2 62.1349 137.4480 -12.1408 0.0000 0.0000 0.0000
# 3 13.7918 -12.1408 43.5818 0.0000 0.0000 0.0000
# 4 0.0000 0.0000 0.0000 28.0773 0.0000 0.0000
# 5 0.0000 0.0000 0.0000 0.0000 2.9131 0.0000
# 6 0.0000 0.0000 0.0000 0.0000 0.0000 32.8462
#
#
#
# Elastic Compliance Matrix: (Units=1/GPa)
#
#
# Indices 1 2 3 4 5 6 
#
# 1 0.008902 -0.004381 -0.004038 0.000000 0.000000 0.000000
# 2 -0.004381 0.009615 0.004065 0.000000 0.000000 0.000000
# 3 -0.004038 0.004065 0.025355 0.000000 0.000000 0.000000
# 4 0.000000 0.000000 0.000000 0.035616 0.000000 0.000000
# 5 0.000000 0.000000 0.000000 0.000000 0.343277 0.000000
# 6 0.000000 0.000000 0.000000 0.000000 0.000000 0.030445
#
#
# Mechanical properties :
#
#
# Convention : Reuss Voigt Hill
#
# Bulk Modulus (GPa) = 28.43716 50.86298 39.65007
# Shear Modulus (GPa) = 10.55656 30.52793 20.54224
#
# Velocity S-wave (km/s) = 2.16555 3.68261 3.02086
# Velocity P-wave (km/s) = 4.34576 6.37788 5.45724
#
# Compressibility (1/GPa) = 0.03516526
#
# Stress axis : x y z
#
# Youngs Moduli (GPa) = 112.33175 104.00415 39.43928
#
# Poissons Ratio (x) = 0.45564 0.15924
# Poissons Ratio (y) = 0.49212 -0.16032
# Poissons Ratio (z) = 0.45355 -0.42277
#
# Static dielectric constant tensor:
#      x y z
#    x 1.827940 0.000000 0.000000 
#    y 0.000000 1.779380 0.000000 
#    z 0.000000 0.000000 1.913390 
# 
# From -- ./inp_files/22087.got.cif
#   From: 2010.05.17/outbox.cif.g08.bks.cpg/sg57_12_cif.got.tgz:22087.got - 2010.06.03 13:58:18.
