data_PCOD9436406
_publ_section_title
;
Structure prediction by ZEFSAII (Michael W. Deem and Ramdas Pophale) SiO2 
 PCOD9436406
Probable space group: P B C M
;
_chemical_formula_sum "Si O2"
_cell_formula_units_Z 64
_cell_length_a 10.124376
_cell_length_b 18.012300
_cell_length_c 14.433368
_cell_angle_alpha 90.000000
_cell_angle_beta 90.000000
_cell_angle_gamma 90.000000
_cell_volume 2632.116587
_symmetry_space_group_name_H-M "P B C M"
_symmetry_group_IT_number 57
_symmetry_cell_setting 'orthorhombic'
loop_
_space_group_symop_operation_xyz
x,y,z
-x,-y,1/2+z
x,1/2-y,-z
-x,1/2+y,1/2-z
-x,-y,-z
x,y,1/2-z
-x,1/2+y,z
x,1/2-y,1/2+z
loop_
_atom_site_type_symbol
_atom_site_label
_atom_site_fract_x
_atom_site_fract_y
_atom_site_fract_z
Si Si1 0.679234 0.724943 0.643780
Si Si2 0.853699 0.638687 0.361594
Si Si3 0.712908 0.486488 0.362964
Si Si4 0.106161 0.772750 0.893371
Si Si5 0.597233 0.212364 0.400557
Si Si6 0.781844 0.932217 0.364033
Si Si7 0.060832 0.890499 0.355595
Si Si8 0.564650 0.044229 0.363351
O O1 0.724507 0.720856 0.750000
O O2 0.762598 0.793329 0.602190
O O3 0.524826 0.744331 0.644756
O O4 0.710153 0.643761 0.605340
O O5 0.841535 0.636947 0.250000
O O6 0.795799 0.559594 0.391198
O O7 0.005376 0.659387 0.382139
O O8 0.702831 0.484236 0.250000
O O9 0.798142 0.415723 0.395245
O O10 0.562322 0.496115 0.392751
O O11 0.255195 0.784716 0.858501
O O12 0.045889 0.697694 0.851059
O O13 0.112728 0.750000 0.000000
O O14 0.606542 0.250000 0.500000
O O15 0.556633 0.126606 0.402197
O O16 0.782541 0.933710 0.250000
O O17 0.931487 0.926699 0.399123
O O18 0.697666 0.002869 0.392536
O O19 0.061482 0.918347 0.250000
O O20 0.563311 0.050827 0.250000
#
# Coordination Sequence:
#
# PCOD9436406 Si02
#       8
#     8   8   8   8   8   8   8   8
#     4  10  19  37  63  89 117 153 203 257 307 358
#     4  10  19  37  63  89 117 153 203 257 307 358
#     4   9  19  34  58  92 124 150 190 250 307 364
#     4  11  25  41  58  82 125 165 210 254 295 357
#     4  11  25  41  58  82 125 165 210 254 295 357
#     4   9  19  34  58  92 124 150 190 250 307 364
#     4  10  20  38  62  92 123 155 199 251 307 364
#     4  10  20  38  62  92 123 155 199 251 307 364
#
# _framework density 24.315034000000001
#
# number of rings (size 3 to 8) (size 9 to 14) (size 15 to 20)
#    0.000    2.000    2.500    0.750    3.500    2.500 
#    0.000    1.250    0.000    0.000    0.000    0.000 
#    0.000    0.000    0.000    0.000    0.000    0.000 
#
# Total GULP energy -357821.468198 kJ/mol
# GULP energy per Si atom -5590.960441 kJ/mol
# Density = 2.425969 g / cm^3
# Si number density = 24.315034 Si / 1000 Ang^3
#
#
#
# Elastic Constant Matrix: (Units=GPa)
#
#
# Indices 1 2 3 4 5 6 
#
# 1 135.6161 3.8268 3.1775 0.0000 0.0000 0.0000
# 2 3.8268 36.5675 5.2115 0.0000 0.0000 0.0000
# 3 3.1775 5.2115 54.7368 0.0000 0.0000 0.0000
# 4 0.0000 0.0000 0.0000 -44.1614 0.0000 0.0000
# 5 0.0000 0.0000 0.0000 0.0000 52.0089 0.0000
# 6 0.0000 0.0000 0.0000 0.0000 0.0000 45.8006
#
#
#
# Elastic Compliance Matrix: (Units=1/GPa)
#
#
# Indices 1 2 3 4 5 6 
#
# 1 0.007403 -0.000723 -0.000361 0.000000 0.000000 0.000000
# 2 -0.000723 0.027794 -0.002604 0.000000 0.000000 0.000000
# 3 -0.000361 -0.002604 0.018538 0.000000 0.000000 0.000000
# 4 0.000000 0.000000 0.000000 -0.022644 0.000000 0.000000
# 5 0.000000 0.000000 0.000000 0.000000 0.019227 0.000000
# 6 0.000000 0.000000 0.000000 0.000000 0.000000 0.021834
#
#
# Mechanical properties :
#
#
# Convention : Reuss Voigt Hill
#
# Bulk Modulus (GPa) = 21.57147 27.92802 24.74975
# Shear Modulus (GPa) = 52.64230 25.04324 38.84277
#
# Velocity S-wave (km/s) = 4.65801 3.21276 4.00118
# Velocity P-wave (km/s) = 6.14983 5.02726 5.61666
#
# Compressibility (1/GPa) = 0.04635753
#
# Stress axis : x y z
#
# Youngs Moduli (GPa) = 135.08733 35.97959 53.94282
#
# Poissons Ratio (x) = 0.02602 0.01947
# Poissons Ratio (y) = 0.09770 0.14048
# Poissons Ratio (z) = 0.04875 0.09370
#
# Static dielectric constant tensor:
#      x y z
#    x 1.941330 0.000000 0.000000 
#    y 0.000000 1.891420 0.000000 
#    z 0.000000 0.000000 1.853300 
# 
# From -- ./inp_files/24593.got.cif
#   From: 2010.05.17/outbox.cif.g08.bks.cpg/sg57_13_cif.got.tgz:24593.got - 2010.06.03 13:58:18.
