data_PCOD9436076
_publ_section_title
;
Structure prediction by ZEFSAII (Michael W. Deem and Ramdas Pophale) SiO2 
 PCOD9436076
Probable space group: P B C M
;
_chemical_formula_sum "Si O2"
_cell_formula_units_Z 48
_cell_length_a 14.983377
_cell_length_b 18.441439
_cell_length_c 8.503344
_cell_angle_alpha 90.000000
_cell_angle_beta 90.000000
_cell_angle_gamma 90.000000
_cell_volume 2349.601778
_symmetry_space_group_name_H-M "P B C M"
_symmetry_group_IT_number 57
_symmetry_cell_setting 'orthorhombic'
loop_
_space_group_symop_operation_xyz
x,y,z
-x,-y,1/2+z
x,1/2-y,-z
-x,1/2+y,1/2-z
-x,-y,-z
x,y,1/2-z
-x,1/2+y,z
x,1/2-y,1/2+z
loop_
_atom_site_type_symbol
_atom_site_label
_atom_site_fract_x
_atom_site_fract_y
_atom_site_fract_z
Si Si1 0.625884 0.560452 0.066216
Si Si2 0.930176 0.604045 0.434754
Si Si3 0.121598 0.553238 0.060978
Si Si4 0.517994 0.170553 0.934546
Si Si5 0.235257 0.328173 0.433860
Si Si6 0.678796 0.092375 0.435373
O O1 0.621863 0.542522 0.250000
O O2 0.542036 0.609319 0.017169
O O3 0.710970 0.610464 0.027083
O O4 0.636548 0.486668 0.969553
O O5 0.917517 0.619017 0.250000
O O6 0.896229 0.522585 0.473795
O O7 0.869011 0.657277 0.535135
O O8 0.035571 0.603170 0.470712
O O9 0.122895 0.538402 0.250000
O O10 0.217216 0.586256 0.018530
O O11 0.500211 0.168466 0.750000
O O12 0.496664 0.250000 0.000000
O O13 0.620219 0.150232 0.971337
O O14 0.260623 0.250000 0.500000
O O15 0.256073 0.333824 0.250000
O O16 0.673285 0.108172 0.250000
#
# Coordination Sequence:
#
# PCOD9436076 Si02
#       6
#     8   8   8   8   8   8
#     4  12  24  41  64  93 123 159 203 253 307 368
#     4  10  19  34  57  87 120 157 200 246 298 358
#     4   9  19  35  59  88 121 157 198 247 297 351
#     4  12  26  45  65  89 122 162 204 253 309 369
#     4  12  24  39  58  86 123 164 205 255 312 371
#     4  11  22  40  65  95 126 161 205 254 302 360
#
# _framework density 20.428995
#
# number of rings (size 3 to 8) (size 9 to 14) (size 15 to 20)
#    0.000    1.000    1.667    6.500    0.000    1.333 
#    0.000    0.833    0.000    0.000    0.000    0.000 
#    0.000    0.000    0.000    0.000    0.000    0.000 
#
# Total GULP energy -268556.188667 kJ/mol
# GULP energy per Si atom -5594.920597 kJ/mol
# Density = 2.038250 g / cm^3
# Si number density = 20.428995 Si / 1000 Ang^3
#
#
#
# Elastic Constant Matrix: (Units=GPa)
#
#
# Indices 1 2 3 4 5 6 
#
# 1 112.6817 6.2747 9.8682 0.0000 0.0000 0.0000
# 2 6.2747 29.4965 -12.1311 0.0000 0.0000 0.0000
# 3 9.8682 -12.1311 47.6060 0.0000 0.0000 0.0000
# 4 0.0000 0.0000 0.0000 31.0032 0.0000 0.0000
# 5 0.0000 0.0000 0.0000 0.0000 27.8434 0.0000
# 6 0.0000 0.0000 0.0000 0.0000 0.0000 -11.6313
#
#
#
# Elastic Compliance Matrix: (Units=1/GPa)
#
#
# Indices 1 2 3 4 5 6 
#
# 1 0.009284 -0.003090 -0.002712 0.000000 0.000000 0.000000
# 2 -0.003090 0.038900 0.010553 0.000000 0.000000 0.000000
# 3 -0.002712 0.010553 0.024257 0.000000 0.000000 0.000000
# 4 0.000000 0.000000 0.000000 0.032255 0.000000 0.000000
# 5 0.000000 0.000000 0.000000 0.000000 0.035915 0.000000
# 6 0.000000 0.000000 0.000000 0.000000 0.000000 -0.085975
#
#
# Mechanical properties :
#
#
# Convention : Reuss Voigt Hill
#
# Bulk Modulus (GPa) = 12.20362 21.97864 17.09113
# Shear Modulus (GPa) = 69.01406 21.82789 45.42098
#
# Velocity S-wave (km/s) = 5.81857 3.27230 4.72037
# Velocity P-wave (km/s) = 7.15036 5.00591 6.17199
#
# Compressibility (1/GPa) = 0.08194287
#
# Stress axis : x y z
#
# Youngs Moduli (GPa) = 107.71055 25.70698 41.22507
#
# Poissons Ratio (x) = 0.07944 0.11180
# Poissons Ratio (y) = 0.33286 -0.43506
# Poissons Ratio (z) = 0.29211 -0.27129
#
# Static dielectric constant tensor:
#      x y z
#    x 1.779140 0.000000 0.000000 
#    y 0.000000 1.668870 0.000000 
#    z 0.000000 0.000000 1.677820 
# 
# From -- ./inp_files/4535.got.cif
#   From: 2010.05.17/outbox.cif.g08.bks.cpg/sg57_3_cif.got.tgz:4535.got - 2010.06.03 13:58:18.
