data_PCOD9436512
_publ_section_title
;
Structure prediction by ZEFSAII (Michael W. Deem and Ramdas Pophale) SiO2 
 PCOD9436512
Probable space group: P B C M
;
_chemical_formula_sum "Si O2"
_cell_formula_units_Z 40
_cell_length_a 14.309768
_cell_length_b 18.709122
_cell_length_c 9.089769
_cell_angle_alpha 90.000000
_cell_angle_beta 90.000000
_cell_angle_gamma 90.000000
_cell_volume 2433.542001
_symmetry_space_group_name_H-M "P B C M"
_symmetry_group_IT_number 57
_symmetry_cell_setting 'orthorhombic'
loop_
_space_group_symop_operation_xyz
x,y,z
-x,-y,1/2+z
x,1/2-y,-z
-x,1/2+y,1/2-z
-x,-y,-z
x,y,1/2-z
-x,1/2+y,z
x,1/2-y,1/2+z
loop_
_atom_site_type_symbol
_atom_site_label
_atom_site_fract_x
_atom_site_fract_y
_atom_site_fract_z
Si Si1 0.773481 0.530512 0.582199
Si Si2 0.326740 0.679794 0.574621
Si Si3 0.595698 0.023040 0.924827
Si Si4 0.029873 0.075454 0.572480
Si Si5 0.857542 0.131041 0.419636
O O1 0.745119 0.546252 0.750000
O O2 0.683003 0.524253 0.481312
O O3 0.859530 0.582258 0.539842
O O4 0.820076 0.451216 0.582569
O O5 0.369453 0.750000 0.500000
O O6 0.323222 0.687576 0.750000
O O7 0.379694 0.605802 0.539083
O O8 0.222562 0.671144 0.509257
O O9 0.588251 0.017174 0.750000
O O10 0.500000 0.000000 0.000000
O O11 0.019164 0.072291 0.750000
O O12 0.957364 0.130757 0.500878
O O13 0.000000 0.000000 0.500000
O O14 0.864213 0.154662 0.250000
#
# Coordination Sequence:
#
# PCOD9436512 Si02
#       5
#     8   8   8   8   8
#     4   8  15  26  40  60  88 119 150 186 229 272
#     4  10  20  33  49  70  95 125 159 196 240 293
#     4  10  20  32  48  69  94 124 160 203 250 296
#     4   9  15  23  37  59  87 118 148 179 216 262
#     4   9  16  26  41  62  89 120 150 184 224 271
#
# _framework density 16.436947
#
# number of rings (size 3 to 8) (size 9 to 14) (size 15 to 20)
#    0.000    2.800    0.000    3.600    0.000    8.000 
#    0.000    0.000    0.000    0.000    0.000    1.400 
#    0.000    6.400    0.000    0.000    0.000    0.000 
#
# Total GULP energy -222694.045015 kJ/mol
# GULP energy per Si atom -5567.351125 kJ/mol
# Density = 1.639954 g / cm^3
# Si number density = 16.436947 Si / 1000 Ang^3
#
#
#
# Elastic Constant Matrix: (Units=GPa)
#
#
# Indices 1 2 3 4 5 6 
#
# 1 135.0505 40.7848 73.6756 0.0000 0.0000 0.0000
# 2 40.7848 42.3790 36.5175 0.0000 0.0000 0.0000
# 3 73.6756 36.5175 88.1893 0.0000 0.0000 0.0000
# 4 0.0000 0.0000 0.0000 17.4525 0.0000 0.0000
# 5 0.0000 0.0000 0.0000 0.0000 32.6969 0.0000
# 6 0.0000 0.0000 0.0000 0.0000 0.0000 9.6888
#
#
#
# Elastic Compliance Matrix: (Units=1/GPa)
#
#
# Indices 1 2 3 4 5 6 
#
# 1 0.014363 -0.005415 -0.009757 0.000000 0.000000 0.000000
# 2 -0.005415 0.038728 -0.011513 0.000000 0.000000 0.000000
# 3 -0.009757 -0.011513 0.024257 0.000000 0.000000 0.000000
# 4 0.000000 0.000000 0.000000 0.057298 0.000000 0.000000
# 5 0.000000 0.000000 0.000000 0.000000 0.030584 0.000000
# 6 0.000000 0.000000 0.000000 0.000000 0.000000 0.103212
#
#
# Mechanical properties :
#
#
# Convention : Reuss Voigt Hill
#
# Bulk Modulus (GPa) = 41.70240 63.06384 52.38312
# Shear Modulus (GPa) = 15.16048 19.61036 17.38542
#
# Velocity S-wave (km/s) = 3.04030 3.45783 3.25576
# Velocity P-wave (km/s) = 6.14417 7.37513 6.78761
#
# Compressibility (1/GPa) = 0.02397943
#
# Stress axis : x y z
#
# Youngs Moduli (GPa) = 69.62515 25.82083 41.22474
#
# Poissons Ratio (x) = 0.13983 0.40221
# Poissons Ratio (y) = 0.37704 0.47461
# Poissons Ratio (z) = 0.67930 0.29727
#
# Static dielectric constant tensor:
#      x y z
#    x 1.562360 0.000000 0.000000 
#    y 0.000000 1.593200 0.000000 
#    z 0.000000 0.000000 1.556680 
# 
# From -- ./inp_files/2900.got.cif
#   From: 2010.05.17/outbox.cif.g08.bks.cpg/sg57_2_cif.got.tgz:2900.got - 2010.06.03 13:58:18.
