data_PCOD9436802
_publ_section_title
;
Structure prediction by ZEFSAII (Michael W. Deem and Ramdas Pophale) SiO2 
 PCOD9436802
Probable space group: P B C M
;
_chemical_formula_sum "Si O2"
_cell_formula_units_Z 48
_cell_length_a 11.944194
_cell_length_b 26.430943
_cell_length_c 8.918929
_cell_angle_alpha 90.000000
_cell_angle_beta 90.000000
_cell_angle_gamma 90.000000
_cell_volume 2815.672982
_symmetry_space_group_name_H-M "P B C M"
_symmetry_group_IT_number 57
_symmetry_cell_setting 'orthorhombic'
loop_
_space_group_symop_operation_xyz
x,y,z
-x,-y,1/2+z
x,1/2-y,-z
-x,1/2+y,1/2-z
-x,-y,-z
x,y,1/2-z
-x,1/2+y,z
x,1/2-y,1/2+z
loop_
_atom_site_type_symbol
_atom_site_label
_atom_site_fract_x
_atom_site_fract_y
_atom_site_fract_z
Si Si1 0.484414 0.374298 0.574537
Si Si2 0.331025 0.540880 0.078631
Si Si3 0.671309 0.194974 0.570354
Si Si4 0.043721 0.052815 0.071499
Si Si5 0.153987 0.892029 0.073654
Si Si6 0.283815 0.426332 0.426210
O O1 0.471779 0.362435 0.750000
O O2 0.557919 0.425871 0.562920
O O3 0.560632 0.332206 0.494729
O O4 0.365746 0.385216 0.498584
O O5 0.288626 0.549319 0.250000
O O6 0.343171 0.481308 0.059667
O O7 0.240813 0.562824 0.963592
O O8 0.684545 0.250000 0.500000
O O9 0.663321 0.197647 0.750000
O O10 0.776856 0.158517 0.533497
O O11 0.046980 0.047351 0.250000
O O12 0.165069 0.067085 0.007170
O O13 0.955593 0.095707 0.021251
O O14 0.000000 0.000000 0.000000
O O15 0.127774 0.891429 0.250000
O O16 0.267029 0.416471 0.250000
#
# Coordination Sequence:
#
# PCOD9436802 Si02
#       6
#     8   8   8   8   8   8
#     4  10  20  34  52  78 109 142 181 224 272 324
#     4   9  18  31  49  73 106 146 182 219 263 315
#     4  10  21  38  61  86 109 138 177 226 281 330
#     4  12  23  35  52  76 109 150 190 226 268 321
#     4  10  20  34  54  80 109 142 183 227 271 321
#     4  11  21  33  50  75 109 149 187 221 265 319
#
# _framework density 17.047433999999999
#
# number of rings (size 3 to 8) (size 9 to 14) (size 15 to 20)
#    0.000    1.667    1.667    4.000    0.000    3.333 
#    0.000    0.000    0.000    1.000    0.000    4.667 
#    0.000    0.000    0.000    0.000    0.000    0.000 
#
# Total GULP energy -267975.161727 kJ/mol
# GULP energy per Si atom -5582.815869 kJ/mol
# Density = 1.700863 g / cm^3
# Si number density = 17.047434 Si / 1000 Ang^3
#
#
#
# Elastic Constant Matrix: (Units=GPa)
#
#
# Indices 1 2 3 4 5 6 
#
# 1 89.7630 46.5794 61.9801 0.0000 0.0000 0.0000
# 2 46.5794 90.5091 56.3305 0.0000 0.0000 0.0000
# 3 61.9801 56.3305 114.2373 0.0000 0.0000 0.0000
# 4 0.0000 0.0000 0.0000 25.7221 0.0000 0.0000
# 5 0.0000 0.0000 0.0000 0.0000 31.8038 0.0000
# 6 0.0000 0.0000 0.0000 0.0000 0.0000 12.4503
#
#
#
# Elastic Compliance Matrix: (Units=1/GPa)
#
#
# Indices 1 2 3 4 5 6 
#
# 1 0.019214 -0.004906 -0.008006 0.000000 0.000000 0.000000
# 2 -0.004906 0.017193 -0.005816 0.000000 0.000000 0.000000
# 3 -0.008006 -0.005816 0.015965 0.000000 0.000000 0.000000
# 4 0.000000 0.000000 0.000000 0.038877 0.000000 0.000000
# 5 0.000000 0.000000 0.000000 0.000000 0.031443 0.000000
# 6 0.000000 0.000000 0.000000 0.000000 0.000000 0.080319
#
#
# Mechanical properties :
#
#
# Convention : Reuss Voigt Hill
#
# Bulk Modulus (GPa) = 67.03764 69.36550 68.20157
# Shear Modulus (GPa) = 20.37167 22.63654 21.50410
#
# Velocity S-wave (km/s) = 3.46063 3.64793 3.55551
# Velocity P-wave (km/s) = 7.44160 7.64992 7.54648
#
# Compressibility (1/GPa) = 0.01491699
#
# Stress axis : x y z
#
# Youngs Moduli (GPa) = 52.04583 58.16236 62.63613
#
# Poissons Ratio (x) = 0.28533 0.50144
# Poissons Ratio (y) = 0.25532 0.36432
# Poissons Ratio (z) = 0.41666 0.33829
#
# Static dielectric constant tensor:
#      x y z
#    x 1.577370 0.000000 0.000000 
#    y 0.000000 1.561030 0.000000 
#    z 0.000000 0.000000 1.579030 
# 
# From -- ./inp_files/3192.got.cif
#   From: 2010.05.17/outbox.cif.g08.bks.cpg/sg57_2_cif.got.tgz:3192.got - 2010.06.03 13:58:18.
