data_PCOD9436308
_publ_section_title
;
Structure prediction by ZEFSAII (Michael W. Deem and Ramdas Pophale) SiO2 
 PCOD9436308
Probable space group: P B C M
;
_chemical_formula_sum "Si O2"
_cell_formula_units_Z 64
_cell_length_a 15.968859
_cell_length_b 11.361035
_cell_length_c 19.055352
_cell_angle_alpha 90.000000
_cell_angle_beta 90.000000
_cell_angle_gamma 90.000000
_cell_volume 3457.074667
_symmetry_space_group_name_H-M "P B C M"
_symmetry_group_IT_number 57
_symmetry_cell_setting 'orthorhombic'
loop_
_space_group_symop_operation_xyz
x,y,z
-x,-y,1/2+z
x,1/2-y,-z
-x,1/2+y,1/2-z
-x,-y,-z
x,y,1/2-z
-x,1/2+y,z
x,1/2-y,1/2+z
loop_
_atom_site_type_symbol
_atom_site_label
_atom_site_fract_x
_atom_site_fract_y
_atom_site_fract_z
Si Si1 0.333193 0.734887 0.583239
Si Si2 0.644956 0.912978 0.097081
Si Si3 0.049021 0.254984 0.834744
Si Si4 0.789794 0.718998 0.075246
Si Si5 0.236671 0.912392 0.831901
Si Si6 0.518605 0.724744 0.415882
Si Si7 0.948135 0.489480 0.664892
Si Si8 0.348463 0.031066 0.437109
O O1 0.320379 0.750000 0.500000
O O2 0.258791 0.796340 0.624652
O O3 0.422809 0.790726 0.604300
O O4 0.343610 0.596721 0.595234
O O5 0.714826 0.812537 0.083723
O O6 0.562011 0.840749 0.116571
O O7 0.687068 0.999205 0.152107
O O8 0.633666 0.975275 0.021178
O O9 0.048751 0.255193 0.750000
O O10 0.142295 0.272282 0.864417
O O11 0.022296 0.121245 0.857187
O O12 0.996551 0.370593 0.858278
O O13 0.740369 0.596150 0.071999
O O14 0.830265 0.750000 0.000000
O O15 0.230090 0.886268 0.750000
O O16 0.149444 0.972082 0.854889
O O17 0.519844 0.750000 0.500000
O O18 0.578041 0.612447 0.405553
O O19 0.952393 0.489740 0.750000
#
# Coordination Sequence:
#
# PCOD9436308 Si02
#       8
#     8   8   8   8   8   8   8   8
#     4  11  21  32  55  80 109 145 184 225 274 324
#     4   9  16  33  56  77 105 138 180 218 261 320
#     4  10  19  36  59  81 103 141 188 228 269 328
#     4   9  18  33  56  81 111 138 171 224 275 317
#     4  11  22  36  54  79 109 143 179 223 274 326
#     4   8  18  30  53  83 104 136 181 230 262 307
#     4   9  20  36  57  80 106 140 188 230 268 327
#     4   9  18  33  51  83 110 135 180 228 268 315
#
# _framework density 18.512761999999999
#
# number of rings (size 3 to 8) (size 9 to 14) (size 15 to 20)
#    0.000    2.500    2.500    1.500    1.750    2.500 
#    0.000    3.750    0.000    1.500    0.000    0.000 
#    0.000    0.000    0.000    0.000    0.000    0.000 
#
# Total GULP energy -356581.691300 kJ/mol
# GULP energy per Si atom -5571.588927 kJ/mol
# Density = 1.847063 g / cm^3
# Si number density = 18.512762 Si / 1000 Ang^3
#
#
#
# Elastic Constant Matrix: (Units=GPa)
#
#
# Indices 1 2 3 4 5 6 
#
# 1 51.7619 34.8550 9.9136 0.0000 0.0000 0.0000
# 2 34.8550 126.5248 13.7001 0.0000 0.0000 0.0000
# 3 9.9136 13.7001 18.8870 0.0000 0.0000 0.0000
# 4 0.0000 0.0000 0.0000 18.2349 0.0000 0.0000
# 5 0.0000 0.0000 0.0000 0.0000 16.3992 0.0000
# 6 0.0000 0.0000 0.0000 0.0000 0.0000 20.6910
#
#
#
# Elastic Compliance Matrix: (Units=1/GPa)
#
#
# Indices 1 2 3 4 5 6 
#
# 1 0.025004 -0.005933 -0.008821 0.000000 0.000000 0.000000
# 2 -0.005933 0.009985 -0.004129 0.000000 0.000000 0.000000
# 3 -0.008821 -0.004129 0.060571 0.000000 0.000000 0.000000
# 4 0.000000 0.000000 0.000000 0.054840 0.000000 0.000000
# 5 0.000000 0.000000 0.000000 0.000000 0.060979 0.000000
# 6 0.000000 0.000000 0.000000 0.000000 0.000000 0.048330
#
#
# Mechanical properties :
#
#
# Convention : Reuss Voigt Hill
#
# Bulk Modulus (GPa) = 17.30241 34.90123 26.10182
# Shear Modulus (GPa) = 15.78592 20.31203 18.04897
#
# Velocity S-wave (km/s) = 2.92328 3.31598 3.12580
# Velocity P-wave (km/s) = 4.55638 5.79262 5.21129
#
# Compressibility (1/GPa) = 0.05779540
#
# Stress axis : x y z
#
# Youngs Moduli (GPa) = 39.99425 100.14984 16.50951
#
# Poissons Ratio (x) = 0.59418 0.14562
# Poissons Ratio (y) = 0.23728 0.06816
# Poissons Ratio (z) = 0.35277 0.41350
#
# Static dielectric constant tensor:
#      x y z
#    x 1.634220 0.000000 0.000000 
#    y 0.000000 1.699440 0.000000 
#    z 0.000000 0.000000 1.618650 
# 
# From -- ./inp_files/22687.got.cif
#   From: 2010.05.17/outbox.cif.g08.bks.cpg/sg57_12_cif.got.tgz:22687.got - 2010.06.03 13:58:18.
