data_PCOD9436735
_publ_section_title
;
Structure prediction by ZEFSAII (Michael W. Deem and Ramdas Pophale) SiO2 
 PCOD9436735
Probable space group: P B C M
;
_chemical_formula_sum "Si O2"
_cell_formula_units_Z 44
_cell_length_a 12.736509
_cell_length_b 8.368370
_cell_length_c 15.590932
_cell_angle_alpha 90.000000
_cell_angle_beta 90.000000
_cell_angle_gamma 90.000000
_cell_volume 1661.741087
_symmetry_space_group_name_H-M "P B C M"
_symmetry_group_IT_number 57
_symmetry_cell_setting 'orthorhombic'
loop_
_space_group_symop_operation_xyz
x,y,z
-x,-y,1/2+z
x,1/2-y,-z
-x,1/2+y,1/2-z
-x,-y,-z
x,y,1/2-z
-x,1/2+y,z
x,1/2-y,1/2+z
loop_
_atom_site_type_symbol
_atom_site_label
_atom_site_fract_x
_atom_site_fract_y
_atom_site_fract_z
Si Si1 0.136344 0.168664 0.094260
Si Si2 0.450170 0.653528 0.657683
Si Si3 0.338122 0.152357 0.750000
Si Si4 0.067476 0.693518 0.598260
Si Si5 0.270171 0.595564 0.384931
Si Si6 0.345294 0.409943 0.951062
O O1 0.255810 0.130079 0.120790
O O2 0.046169 0.271502 0.139749
O O3 0.085974 0.993638 0.095365
O O4 0.152479 0.250000 0.000000
O O5 0.413852 0.584321 0.750000
O O6 0.569596 0.696739 0.676975
O O7 0.372950 0.799507 0.637929
O O8 0.435861 0.518332 0.587590
O O9 0.269848 0.056431 0.676159
O O10 0.056680 0.750000 0.500000
O O11 0.168156 0.793755 0.629421
O O12 0.285095 0.529041 0.481323
O O13 0.379240 0.250000 0.000000
#
# Coordination Sequence:
#
# PCOD9436735 Si02
#       6
#     8   8   4   8   8   8
#     4  10  20  33  60 108 142 182 228 283 352 413
#     4  10  23  47  72  98 134 190 231 300 373 427
#     4  10  26  44  72  94 128 182 236 296 368 426
#     4  11  19  34  65  99 145 183 226 288 345 426
#     4  12  22  44  72 101 135 186 240 290 366 429
#     4  11  24  40  69 110 142 179 242 296 341 436
#
# _framework density 26.478252000000001
#
# number of rings (size 3 to 8) (size 9 to 14) (size 15 to 20)
#    0.545    0.727    4.545    2.727    2.545    3.636 
#    1.636    0.909    2.000    0.000    0.000    0.000 
#    0.000    0.000    0.000    0.000    0.000    0.000 
#
# Total GULP energy -245150.128099 kJ/mol
# GULP energy per Si atom -5571.593820 kJ/mol
# Density = 2.641799 g / cm^3
# Si number density = 26.478252 Si / 1000 Ang^3
#
#
#
# Elastic Constant Matrix: (Units=GPa)
#
#
# Indices 1 2 3 4 5 6 
#
# 1 176.9519 38.8882 20.1281 0.0000 0.0000 0.0000
# 2 38.8882 110.9389 18.1957 0.0000 0.0000 0.0000
# 3 20.1281 18.1957 39.4074 0.0000 0.0000 0.0000
# 4 0.0000 0.0000 0.0000 -79.3271 0.0000 0.0000
# 5 0.0000 0.0000 0.0000 0.0000 -0.3108 0.0000
# 6 0.0000 0.0000 0.0000 0.0000 0.0000 63.4657
#
#
#
# Elastic Compliance Matrix: (Units=1/GPa)
#
#
# Indices 1 2 3 4 5 6 
#
# 1 0.006324 -0.001825 -0.002387 0.000000 0.000000 0.000000
# 2 -0.001825 0.010279 -0.003814 0.000000 0.000000 0.000000
# 3 -0.002387 -0.003814 0.028356 0.000000 0.000000 0.000000
# 4 0.000000 0.000000 0.000000 -0.012606 0.000000 0.000000
# 5 0.000000 0.000000 0.000000 0.000000 -3.217418 0.000000
# 6 0.000000 0.000000 0.000000 0.000000 0.000000 0.015757
#
#
# Mechanical properties :
#
#
# Convention : Reuss Voigt Hill
#
# Bulk Modulus (GPa) = 34.59429 53.52469 44.05949
# Shear Modulus (GPa) = -1.59052 13.43796 5.92372
#
# Velocity S-wave (km/s) = -0.77588 2.25524 1.49735
# Velocity P-wave (km/s) = 3.50583 5.20000 4.43457
#
# Compressibility (1/GPa) = 0.02890650
#
# Stress axis : x y z
#
# Youngs Moduli (GPa) = 158.12954 97.28252 35.26544
#
# Poissons Ratio (x) = 0.17756 0.08419
# Poissons Ratio (y) = 0.28862 0.13450
# Poissons Ratio (z) = 0.37750 0.37104
#
# Static dielectric constant tensor:
#      x y z
#    x 2.159470 0.000000 0.000000 
#    y 0.000000 2.068330 0.000000 
#    z 0.000000 0.000000 2.117360 
# 
# From -- ./inp_files/22347.got.cif
#   From: 2010.05.17/outbox.cif.g08.bks.cpg/sg57_12_cif.got.tgz:22347.got - 2010.06.03 13:58:18.
