data_PCOD9436839
_publ_section_title
;
Structure prediction by ZEFSAII (Michael W. Deem and Ramdas Pophale) SiO2 
 PCOD9436839
Probable space group: P B C M
;
_chemical_formula_sum "Si O2"
_cell_formula_units_Z 56
_cell_length_a 17.110153
_cell_length_b 22.101040
_cell_length_c 8.533136
_cell_angle_alpha 90.000000
_cell_angle_beta 90.000000
_cell_angle_gamma 90.000000
_cell_volume 3226.823945
_symmetry_space_group_name_H-M "P B C M"
_symmetry_group_IT_number 57
_symmetry_cell_setting 'orthorhombic'
loop_
_space_group_symop_operation_xyz
x,y,z
-x,-y,1/2+z
x,1/2-y,-z
-x,1/2+y,1/2-z
-x,-y,-z
x,y,1/2-z
-x,1/2+y,z
x,1/2-y,1/2+z
loop_
_atom_site_type_symbol
_atom_site_label
_atom_site_fract_x
_atom_site_fract_y
_atom_site_fract_z
Si Si1 0.480026 0.589612 0.562876
Si Si2 0.799123 0.375138 0.940374
Si Si3 0.955578 0.559976 0.437006
Si Si4 0.202146 0.014092 0.562565
Si Si5 0.625242 0.525633 0.063189
Si Si6 0.041356 0.816270 0.560561
Si Si7 0.363654 0.682655 0.061767
O O1 0.487524 0.586840 0.750000
O O2 0.419654 0.536104 0.513099
O O3 0.563725 0.576900 0.486523
O O4 0.439524 0.650533 0.507677
O O5 0.799287 0.375087 0.750000
O O6 0.811915 0.444400 0.989267
O O7 0.869787 0.332010 0.990784
O O8 0.714454 0.352560 0.991972
O O9 0.963452 0.558384 0.250000
O O10 0.865506 0.554087 0.486721
O O11 0.000000 0.500000 0.500000
O O12 0.991785 0.624435 0.490045
O O13 0.194557 0.016544 0.750000
O O14 0.290260 0.030488 0.514687
O O15 0.634602 0.524299 0.250000
O O16 0.017675 0.750000 0.500000
O O17 0.039245 0.814428 0.750000
O O18 0.366451 0.680945 0.250000
O O19 0.357595 0.750000 0.000000
#
# Coordination Sequence:
#
# PCOD9436839 Si02
#       7
#     8   8   8   8   8   8   8
#     4  10  20  34  53  78 107 142 183 222 268 324
#     4   9  18  33  52  77 111 147 181 223 274 326
#     4  11  22  37  57  83 114 148 189 236 285 339
#     4  11  20  35  57  82 114 147 184 231 282 332
#     4  10  20  34  54  81 109 139 178 223 274 326
#     4  10  21  38  56  79 111 148 189 233 279 334
#     4  11  21  34  52  76 111 150 186 226 271 325
#
# _framework density 17.354524999999999
#
# number of rings (size 3 to 8) (size 9 to 14) (size 15 to 20)
#    0.000    1.714    2.857    2.571    0.000    2.286 
#    0.000    0.714    0.000    0.857    0.000    4.000 
#    0.000    0.000    0.000    0.000    0.000    0.000 
#
# Total GULP energy -312589.888833 kJ/mol
# GULP energy per Si atom -5581.962301 kJ/mol
# Density = 1.731503 g / cm^3
# Si number density = 17.354525 Si / 1000 Ang^3
#
#
#
# Elastic Constant Matrix: (Units=GPa)
#
#
# Indices 1 2 3 4 5 6 
#
# 1 94.5871 47.7209 11.0550 0.0000 0.0000 0.0000
# 2 47.7209 103.4186 14.0368 0.0000 0.0000 0.0000
# 3 11.0550 14.0368 23.9560 0.0000 0.0000 0.0000
# 4 0.0000 0.0000 0.0000 25.4553 0.0000 0.0000
# 5 0.0000 0.0000 0.0000 0.0000 26.9744 0.0000
# 6 0.0000 0.0000 0.0000 0.0000 0.0000 25.4845
#
#
#
# Elastic Compliance Matrix: (Units=1/GPa)
#
#
# Indices 1 2 3 4 5 6 
#
# 1 0.013963 -0.006050 -0.002899 0.000000 0.000000 0.000000
# 2 -0.006050 0.013126 -0.004899 0.000000 0.000000 0.000000
# 3 -0.002899 -0.004899 0.045952 0.000000 0.000000 0.000000
# 4 0.000000 0.000000 0.000000 0.039285 0.000000 0.000000
# 5 0.000000 0.000000 0.000000 0.000000 0.037072 0.000000
# 6 0.000000 0.000000 0.000000 0.000000 0.000000 0.039240
#
#
# Mechanical properties :
#
#
# Convention : Reuss Voigt Hill
#
# Bulk Modulus (GPa) = 22.05306 40.84300 31.44803
# Shear Modulus (GPa) = 21.60314 25.52610 23.56462
#
# Velocity S-wave (km/s) = 3.53202 3.83934 3.68888
# Velocity P-wave (km/s) = 5.41927 6.57569 6.02529
#
# Compressibility (1/GPa) = 0.04534519
#
# Stress axis : x y z
#
# Youngs Moduli (GPa) = 71.61671 76.18511 21.76200
#
# Poissons Ratio (x) = 0.46089 0.06309
# Poissons Ratio (y) = 0.43326 0.10662
# Poissons Ratio (z) = 0.20761 0.37325
#
# Static dielectric constant tensor:
#      x y z
#    x 1.585690 0.000000 0.000000 
#    y 0.000000 1.568570 0.000000 
#    z 0.000000 0.000000 1.587200 
# 
# From -- ./inp_files/5156.got.cif
#   From: 2010.05.17/outbox.cif.g08.bks.cpg/sg57_3_cif.got.tgz:5156.got - 2010.06.03 13:58:18.
