data_PCOD9436721
_publ_section_title
;
Structure prediction by ZEFSAII (Michael W. Deem and Ramdas Pophale) SiO2 
 PCOD9436721
Probable space group: P B C M
;
_chemical_formula_sum "Si O2"
_cell_formula_units_Z 48
_cell_length_a 6.241920
_cell_length_b 18.119580
_cell_length_c 22.682827
_cell_angle_alpha 90.000000
_cell_angle_beta 90.000000
_cell_angle_gamma 90.000000
_cell_volume 2565.449709
_symmetry_space_group_name_H-M "P B C M"
_symmetry_group_IT_number 57
_symmetry_cell_setting 'orthorhombic'
loop_
_space_group_symop_operation_xyz
x,y,z
-x,-y,1/2+z
x,1/2-y,-z
-x,1/2+y,1/2-z
-x,-y,-z
x,y,1/2-z
-x,1/2+y,z
x,1/2-y,1/2+z
loop_
_atom_site_type_symbol
_atom_site_label
_atom_site_fract_x
_atom_site_fract_y
_atom_site_fract_z
Si Si1 0.594480 0.905178 0.519819
Si Si2 0.839922 0.482890 0.092110
Si Si3 0.785958 0.102459 0.394444
Si Si4 0.545926 0.988737 0.180264
Si Si5 0.084576 0.278605 0.934511
Si Si6 0.210461 0.376740 0.101478
O O1 0.362316 0.900369 0.547925
O O2 0.735130 0.839717 0.549987
O O3 0.622199 0.894186 0.450739
O O4 0.702506 0.982212 0.539229
O O5 0.680149 0.477081 0.147238
O O6 0.021283 0.544371 0.102622
O O7 0.978982 0.409803 0.082275
O O8 0.897457 0.182031 0.397202
O O9 0.638554 0.067755 0.342897
O O10 0.527635 0.987733 0.250000
O O11 0.702955 0.923220 0.156868
O O12 0.182431 0.210726 0.897924
O O13 0.013825 0.250000 0.000000
#
# Coordination Sequence:
#
# PCOD9436721 Si02
#       6
#     8   8   8   8   8   8
#     4   9  18  33  53  83 114 141 174 218 273 337
#     4   9  19  33  53  78 108 142 182 229 278 327
#     4   9  19  36  58  80 108 146 184 221 271 331
#     4  10  22  38  55  77 107 147 196 241 272 305
#     4   9  19  33  53  85 120 146 171 212 275 344
#     4  10  20  33  55  84 114 144 176 221 279 333
#
# _framework density 18.710170000000002
#
# number of rings (size 3 to 8) (size 9 to 14) (size 15 to 20)
#    0.000    2.667    0.000    0.500    0.000   17.333 
#    0.000    0.833    0.000   10.000    0.000    0.000 
#    0.000    0.000    0.000    0.000    0.000    0.000 
#
# Total GULP energy -267607.264727 kJ/mol
# GULP energy per Si atom -5575.151348 kJ/mol
# Density = 1.866758 g / cm^3
# Si number density = 18.710170 Si / 1000 Ang^3
#
#
#
# Elastic Constant Matrix: (Units=GPa)
#
#
# Indices 1 2 3 4 5 6 
#
# 1 75.0915 34.3560 27.0541 0.0000 0.0000 0.0000
# 2 34.3560 109.8438 43.0329 0.0000 0.0000 0.0000
# 3 27.0541 43.0329 96.6758 0.0000 0.0000 0.0000
# 4 0.0000 0.0000 0.0000 15.6494 0.0000 0.0000
# 5 0.0000 0.0000 0.0000 0.0000 12.2339 0.0000
# 6 0.0000 0.0000 0.0000 0.0000 0.0000 14.9638
#
#
#
# Elastic Compliance Matrix: (Units=1/GPa)
#
#
# Indices 1 2 3 4 5 6 
#
# 1 0.016121 -0.003967 -0.002746 0.000000 0.000000 0.000000
# 2 -0.003967 0.012003 -0.004233 0.000000 0.000000 0.000000
# 3 -0.002746 -0.004233 0.012996 0.000000 0.000000 0.000000
# 4 0.000000 0.000000 0.000000 0.063900 0.000000 0.000000
# 5 0.000000 0.000000 0.000000 0.000000 0.081740 0.000000
# 6 0.000000 0.000000 0.000000 0.000000 0.000000 0.066828
#
#
# Mechanical properties :
#
#
# Convention : Reuss Voigt Hill
#
# Bulk Modulus (GPa) = 52.00181 54.49968 53.25074
# Shear Modulus (GPa) = 17.73751 20.38063 19.05907
#
# Velocity S-wave (km/s) = 3.08232 3.30401 3.19509
# Velocity P-wave (km/s) = 6.36564 6.61414 6.49108
#
# Compressibility (1/GPa) = 0.01923010
#
# Stress axis : x y z
#
# Youngs Moduli (GPa) = 62.03040 83.31486 76.94487
#
# Poissons Ratio (x) = 0.33047 0.21127
# Poissons Ratio (y) = 0.24605 0.32568
# Poissons Ratio (z) = 0.17032 0.35265
#
# Static dielectric constant tensor:
#      x y z
#    x 1.688660 0.000000 0.000000 
#    y 0.000000 1.684190 0.000000 
#    z 0.000000 0.000000 1.628330 
# 
# From -- ./inp_files/23664.got.cif
#   From: 2010.05.17/outbox.cif.g08.bks.cpg/sg57_12_cif.got.tgz:23664.got - 2010.06.03 13:58:18.
