data_PCOD9436304
_publ_section_title
;
Structure prediction by ZEFSAII (Michael W. Deem and Ramdas Pophale) SiO2 
 PCOD9436304
Probable space group: P B C M
;
_chemical_formula_sum "Si O2"
_cell_formula_units_Z 64
_cell_length_a 9.056747
_cell_length_b 20.116093
_cell_length_c 19.001913
_cell_angle_alpha 90.000000
_cell_angle_beta 90.000000
_cell_angle_gamma 90.000000
_cell_volume 3461.889456
_symmetry_space_group_name_H-M "P B C M"
_symmetry_group_IT_number 57
_symmetry_cell_setting 'orthorhombic'
loop_
_space_group_symop_operation_xyz
x,y,z
-x,-y,1/2+z
x,1/2-y,-z
-x,1/2+y,1/2-z
-x,-y,-z
x,y,1/2-z
-x,1/2+y,z
x,1/2-y,1/2+z
loop_
_atom_site_type_symbol
_atom_site_label
_atom_site_fract_x
_atom_site_fract_y
_atom_site_fract_z
Si Si1 0.851120 0.875473 0.428286
Si Si2 0.547674 0.685397 0.949777
Si Si3 0.577323 0.061656 0.462092
Si Si4 0.362814 0.749332 0.168369
Si Si5 0.126299 0.370931 0.904354
Si Si6 0.904570 0.479447 0.568205
Si Si7 0.560248 0.884545 0.830495
Si Si8 0.068677 0.757196 0.082264
O O1 0.699603 0.837565 0.413448
O O2 0.837089 0.882075 0.513306
O O3 0.991191 0.829129 0.411322
O O4 0.864848 0.949447 0.397495
O O5 0.439308 0.701104 0.885996
O O6 0.570927 0.750000 0.000000
O O7 0.477158 0.627941 0.998254
O O8 0.753643 0.054577 0.458185
O O9 0.517209 0.064441 0.382892
O O10 0.500000 0.000000 0.500000
O O11 0.356777 0.769807 0.250000
O O12 0.461143 0.682263 0.165010
O O13 0.200615 0.742051 0.135372
O O14 0.274178 0.373634 0.859102
O O15 0.004098 0.427629 0.888065
O O16 0.054015 0.298531 0.902804
O O17 0.000000 0.500000 0.500000
O O18 0.564153 0.906067 0.750000
O O19 0.116669 0.750000 0.000000
#
# Coordination Sequence:
#
# PCOD9436304 Si02
#       8
#     8   8   8   8   8   8   8   8
#     4  10  19  36  59  92 123 156 208 261 312 379
#     4  12  21  37  68  95 123 163 216 265 319 380
#     4  12  22  40  67  97 127 168 216 275 325 389
#     4  11  24  39  58  92 130 165 214 273 332 388
#     4  10  19  36  58  90 122 157 209 261 319 374
#     4  10  21  35  58  92 128 159 203 263 322 382
#     4  11  23  41  64  94 130 170 219 273 334 396
#     4  10  21  34  62  91 122 162 208 270 316 381
#
# _framework density 18.487015
#
# number of rings (size 3 to 8) (size 9 to 14) (size 15 to 20)
#    0.000    1.250    3.750    3.750    5.250    0.500 
#    0.000    1.875    0.000    1.500    0.000    0.000 
#    0.000    0.000    0.000    0.000    0.000    0.000 
#
# Total GULP energy -357186.313279 kJ/mol
# GULP energy per Si atom -5581.036145 kJ/mol
# Density = 1.844494 g / cm^3
# Si number density = 18.487015 Si / 1000 Ang^3
#
#
#
# Elastic Constant Matrix: (Units=GPa)
#
#
# Indices 1 2 3 4 5 6 
#
# 1 107.4543 19.8489 41.5771 0.0000 0.0000 0.0000
# 2 19.8489 91.1988 21.6106 0.0000 0.0000 0.0000
# 3 41.5771 21.6106 89.5104 0.0000 0.0000 0.0000
# 4 0.0000 0.0000 0.0000 15.8659 0.0000 0.0000
# 5 0.0000 0.0000 0.0000 0.0000 12.0200 0.0000
# 6 0.0000 0.0000 0.0000 0.0000 0.0000 29.5385
#
#
#
# Elastic Compliance Matrix: (Units=1/GPa)
#
#
# Indices 1 2 3 4 5 6 
#
# 1 0.011491 -0.001311 -0.005021 0.000000 0.000000 0.000000
# 2 -0.001311 0.011780 -0.002235 0.000000 0.000000 0.000000
# 3 -0.005021 -0.002235 0.014044 0.000000 0.000000 0.000000
# 4 0.000000 0.000000 0.000000 0.063028 0.000000 0.000000
# 5 0.000000 0.000000 0.000000 0.000000 0.083195 0.000000
# 6 0.000000 0.000000 0.000000 0.000000 0.000000 0.033854
#
#
# Mechanical properties :
#
#
# Convention : Reuss Voigt Hill
#
# Bulk Modulus (GPa) = 49.55287 50.47076 50.01182
# Shear Modulus (GPa) = 20.72504 25.15999 22.94252
#
# Velocity S-wave (km/s) = 3.35186 3.69311 3.52661
# Velocity P-wave (km/s) = 6.46856 6.74873 6.61013
#
# Compressibility (1/GPa) = 0.02018046
#
# Stress axis : x y z
#
# Youngs Moduli (GPa) = 87.02245 84.88933 71.20606
#
# Poissons Ratio (x) = 0.11131 0.35753
# Poissons Ratio (y) = 0.11411 0.15915
# Poissons Ratio (z) = 0.43695 0.18973
#
# Static dielectric constant tensor:
#      x y z
#    x 1.696700 0.000000 0.000000 
#    y 0.000000 1.625470 0.000000 
#    z 0.000000 0.000000 1.628850 
# 
# From -- ./inp_files/21418.got.cif
#   From: 2010.05.17/outbox.cif.g08.bks.cpg/sg57_11_cif.got.tgz:21418.got - 2010.06.03 13:58:18.
