data_PCOD9436978
_publ_section_title
;
Structure prediction by ZEFSAII (Michael W. Deem and Ramdas Pophale) SiO2 
 PCOD9436978
Probable space group: P B C M
;
_chemical_formula_sum "Si O2"
_cell_formula_units_Z 48
_cell_length_a 15.198462
_cell_length_b 18.648486
_cell_length_c 9.094212
_cell_angle_alpha 90.000000
_cell_angle_beta 90.000000
_cell_angle_gamma 90.000000
_cell_volume 2577.557100
_symmetry_space_group_name_H-M "P B C M"
_symmetry_group_IT_number 57
_symmetry_cell_setting 'orthorhombic'
loop_
_space_group_symop_operation_xyz
x,y,z
-x,-y,1/2+z
x,1/2-y,-z
-x,1/2+y,1/2-z
-x,-y,-z
x,y,1/2-z
-x,1/2+y,z
x,1/2-y,1/2+z
loop_
_atom_site_type_symbol
_atom_site_label
_atom_site_fract_x
_atom_site_fract_y
_atom_site_fract_z
Si Si1 0.850493 0.546271 0.075660
Si Si2 0.656249 0.110282 0.573791
Si Si3 0.645129 0.556277 0.423123
Si Si4 0.977612 0.676021 0.426608
Si Si5 0.159773 0.606630 0.074152
Si Si6 0.471295 0.175854 0.574483
O O1 0.863458 0.531402 0.250000
O O2 0.749208 0.570448 0.057766
O O3 0.916571 0.608905 0.029976
O O4 0.861485 0.472771 0.987141
O O5 0.670320 0.112228 0.750000
O O6 0.747110 0.129233 0.494688
O O7 0.572937 0.158706 0.535712
O O8 0.632880 0.027410 0.536614
O O9 0.623772 0.564307 0.250000
O O10 0.587183 0.610266 0.516544
O O11 0.949823 0.750000 0.500000
O O12 0.971963 0.682284 0.250000
O O13 0.078253 0.657289 0.466348
O O14 0.166647 0.604073 0.250000
O O15 0.443656 0.250000 0.500000
O O16 0.464812 0.180848 0.750000
#
# Coordination Sequence:
#
# PCOD9436978 Si02
#       6
#     8   8   8   8   8   8
#     4   9  19  37  58  80 108 140 176 219 265 315
#     4   9  20  38  58  79 105 140 178 218 267 316
#     4   9  18  35  58  81 105 135 174 221 267 312
#     4  10  22  37  53  78 111 145 180 218 263 315
#     4  10  20  34  56  84 108 136 178 223 265 312
#     4  11  23  37  54  78 109 144 178 215 264 318
#
# _framework density 18.622284000000001
#
# number of rings (size 3 to 8) (size 9 to 14) (size 15 to 20)
#    0.000    2.333    0.000    3.000    0.000    7.333 
#    0.000    5.000    0.000    0.000    0.000    0.000 
#    0.000    0.000    0.000    0.000    0.000    0.000 
#
# Total GULP energy -268024.694200 kJ/mol
# GULP energy per Si atom -5583.847796 kJ/mol
# Density = 1.857990 g / cm^3
# Si number density = 18.622284 Si / 1000 Ang^3
#
#
#
# Elastic Constant Matrix: (Units=GPa)
#
#
# Indices 1 2 3 4 5 6 
#
# 1 28.2967 10.4749 14.8602 0.0000 0.0000 0.0000
# 2 10.4749 17.5797 8.4185 0.0000 0.0000 0.0000
# 3 14.8602 8.4185 20.8831 0.0000 0.0000 0.0000
# 4 0.0000 0.0000 0.0000 25.8461 0.0000 0.0000
# 5 0.0000 0.0000 0.0000 0.0000 28.6012 0.0000
# 6 0.0000 0.0000 0.0000 0.0000 0.0000 -0.4791
#
#
#
# Elastic Compliance Matrix: (Units=1/GPa)
#
#
# Indices 1 2 3 4 5 6 
#
# 1 0.061332 -0.019388 -0.035827 0.000000 0.000000 0.000000
# 2 -0.019388 0.076621 -0.017091 0.000000 0.000000 0.000000
# 3 -0.035827 -0.017091 0.080270 0.000000 0.000000 0.000000
# 4 0.000000 0.000000 0.000000 0.038691 0.000000 0.000000
# 5 0.000000 0.000000 0.000000 0.000000 0.034964 0.000000
# 6 0.000000 0.000000 0.000000 0.000000 0.000000 -2.087252
#
#
# Mechanical properties :
#
#
# Convention : Reuss Voigt Hill
#
# Bulk Modulus (GPa) = 13.58525 14.91852 14.25189
# Shear Modulus (GPa) = -3.07461 12.99403 4.95971
#
# Velocity S-wave (km/s) = -1.28632 2.64439 1.63374
# Velocity P-wave (km/s) = 2.25939 4.16561 3.35090
#
# Compressibility (1/GPa) = 0.07360925
#
# Stress axis : x y z
#
# Youngs Moduli (GPa) = 16.30474 13.05124 12.45794
#
# Poissons Ratio (x) = 0.25304 0.44634
# Poissons Ratio (y) = 0.31612 0.21292
# Poissons Ratio (z) = 0.58416 0.22306
#
# Static dielectric constant tensor:
#      x y z
#    x 1.641840 0.000000 0.000000 
#    y 0.000000 1.612360 0.000000 
#    z 0.000000 0.000000 1.621320 
# 
# From -- ./inp_files/4541.got.cif
#   From: 2010.05.17/outbox.cif.g08.bks.cpg/sg57_3_cif.got.tgz:4541.got - 2010.06.03 13:58:18.
