data_PCOD9436648
_publ_section_title
;
Structure prediction by ZEFSAII (Michael W. Deem and Ramdas Pophale) SiO2 
 PCOD9436648
Probable space group: P B C M
;
_chemical_formula_sum "Si O2"
_cell_formula_units_Z 56
_cell_length_a 17.342353
_cell_length_b 19.909486
_cell_length_c 8.844144
_cell_angle_alpha 90.000000
_cell_angle_beta 90.000000
_cell_angle_gamma 90.000000
_cell_volume 3053.682464
_symmetry_space_group_name_H-M "P B C M"
_symmetry_group_IT_number 57
_symmetry_cell_setting 'orthorhombic'
loop_
_space_group_symop_operation_xyz
x,y,z
-x,-y,1/2+z
x,1/2-y,-z
-x,1/2+y,1/2-z
-x,-y,-z
x,y,1/2-z
-x,1/2+y,z
x,1/2-y,1/2+z
loop_
_atom_site_type_symbol
_atom_site_label
_atom_site_fract_x
_atom_site_fract_y
_atom_site_fract_z
Si Si1 0.714495 0.533289 0.077732
Si Si2 0.203923 0.913544 0.569638
Si Si3 0.442074 0.948503 0.079754
Si Si4 0.342397 0.825366 0.433636
Si Si5 0.091651 0.318711 0.568777
Si Si6 0.270879 0.180838 0.430893
Si Si7 0.971803 0.069605 0.067463
O O1 0.746775 0.538589 0.250000
O O2 0.637342 0.490089 0.085818
O O3 0.694949 0.608609 0.025487
O O4 0.771048 0.489346 0.975597
O O5 0.210519 0.904459 0.750000
O O6 0.263532 0.861987 0.490164
O O7 0.114489 0.907727 0.522923
O O8 0.471067 0.937022 0.250000
O O9 0.413130 0.875709 0.018338
O O10 0.500000 0.000000 0.000000
O O11 0.348422 0.750000 0.500000
O O12 0.341862 0.823635 0.250000
O O13 0.062172 0.250000 0.500000
O O14 0.090918 0.315564 0.750000
O O15 0.180890 0.326177 0.523046
O O16 0.036197 0.377486 0.519108
O O17 0.301744 0.250000 0.500000
O O18 0.275850 0.187424 0.250000
O O19 0.971398 0.065101 0.250000
O O20 0.000000 0.000000 0.000000
#
# Coordination Sequence:
#
# PCOD9436648 Si02
#       7
#     8   8   8   8   8   8   8
#     4   9  18  34  53  73  99 133 169 205 251 309
#     4  10  20  33  51  77 104 133 174 223 268 315
#     4   9  19  35  56  81 108 137 170 206 251 307
#     4  10  21  38  59  83 110 143 181 221 267 320
#     4   9  18  32  47  65  91 125 162 201 246 296
#     4   9  17  30  49  69  93 126 164 205 248 294
#     4  10  21  34  49  72 101 133 174 219 265 315
#
# _framework density 18.338514
#
# number of rings (size 3 to 8) (size 9 to 14) (size 15 to 20)
#    0.000    2.571    0.000    2.571    0.000    6.857 
#    0.000    5.000    0.000    3.429    0.000    0.000 
#    0.000    0.000    0.000    0.000    0.000    0.000 
#
# Total GULP energy -311868.822999 kJ/mol
# GULP energy per Si atom -5569.086125 kJ/mol
# Density = 1.829677 g / cm^3
# Si number density = 18.338514 Si / 1000 Ang^3
#
#
#
# Elastic Constant Matrix: (Units=GPa)
#
#
# Indices 1 2 3 4 5 6 
#
# 1 27.1194 14.9385 12.7809 0.0000 0.0000 0.0000
# 2 14.9385 154.5402 24.5177 0.0000 0.0000 0.0000
# 3 12.7809 24.5177 26.1612 0.0000 0.0000 0.0000
# 4 0.0000 0.0000 0.0000 34.6444 0.0000 0.0000
# 5 0.0000 0.0000 0.0000 0.0000 20.1554 0.0000
# 6 0.0000 0.0000 0.0000 0.0000 0.0000 23.8658
#
#
#
# Elastic Compliance Matrix: (Units=1/GPa)
#
#
# Indices 1 2 3 4 5 6 
#
# 1 0.048057 -0.001081 -0.022464 0.000000 0.000000 0.000000
# 2 -0.001081 0.007625 -0.006618 0.000000 0.000000 0.000000
# 3 -0.022464 -0.006618 0.055401 0.000000 0.000000 0.000000
# 4 0.000000 0.000000 0.000000 0.028865 0.000000 0.000000
# 5 0.000000 0.000000 0.000000 0.000000 0.049614 0.000000
# 6 0.000000 0.000000 0.000000 0.000000 0.000000 0.041901
#
#
# Mechanical properties :
#
#
# Convention : Reuss Voigt Hill
#
# Bulk Modulus (GPa) = 19.70208 34.69945 27.20077
# Shear Modulus (GPa) = 16.19646 26.10539 21.15093
#
# Velocity S-wave (km/s) = 2.97508 3.77706 3.39980
# Velocity P-wave (km/s) = 4.75062 6.16314 5.50239
#
# Compressibility (1/GPa) = 0.05075606
#
# Stress axis : x y z
#
# Youngs Moduli (GPa) = 20.80876 131.14304 18.05007
#
# Poissons Ratio (x) = 0.14182 0.40548
# Poissons Ratio (y) = 0.02250 0.11945
# Poissons Ratio (z) = 0.46746 0.86789
#
# Static dielectric constant tensor:
#      x y z
#    x 1.640140 0.000000 0.000000 
#    y 0.000000 1.633370 0.000000 
#    z 0.000000 0.000000 1.642820 
# 
# From -- ./inp_files/7039.got.cif
#   From: 2010.05.17/outbox.cif.g08.bks.cpg/sg57_4_cif.got.tgz:7039.got - 2010.06.03 13:58:18.
