data_PCOD9436829
_publ_section_title
;
Structure prediction by ZEFSAII (Michael W. Deem and Ramdas Pophale) SiO2 
 PCOD9436829
Probable space group: P B C M
;
_chemical_formula_sum "Si O2"
_cell_formula_units_Z 64
_cell_length_a 21.811249
_cell_length_b 19.005720
_cell_length_c 9.087039
_cell_angle_alpha 90.000000
_cell_angle_beta 90.000000
_cell_angle_gamma 90.000000
_cell_volume 3766.927438
_symmetry_space_group_name_H-M "P B C M"
_symmetry_group_IT_number 57
_symmetry_cell_setting 'orthorhombic'
loop_
_space_group_symop_operation_xyz
x,y,z
-x,-y,1/2+z
x,1/2-y,-z
-x,1/2+y,1/2-z
-x,-y,-z
x,y,1/2-z
-x,1/2+y,z
x,1/2-y,1/2+z
loop_
_atom_site_type_symbol
_atom_site_label
_atom_site_fract_x
_atom_site_fract_y
_atom_site_fract_z
Si Si1 0.937656 0.525473 0.573996
Si Si2 0.110570 0.180483 0.575211
Si Si3 0.511279 0.923858 0.072710
Si Si4 0.181279 0.974657 0.417372
Si Si5 0.591088 0.326200 0.927047
Si Si6 0.701766 0.069393 0.423931
Si Si7 0.653008 0.911862 0.075984
Si Si8 0.231182 0.364617 0.582745
O O1 0.940722 0.519466 0.750000
O O2 0.923661 0.607512 0.537316
O O3 0.880168 0.481040 0.512440
O O4 0.000000 0.500000 0.500000
O O5 0.083718 0.250000 0.500000
O O6 0.110555 0.188130 0.750000
O O7 0.180039 0.171968 0.516577
O O8 0.503377 0.928167 0.250000
O O9 0.581581 0.901312 0.043641
O O10 0.464074 0.869949 0.999969
O O11 0.500000 0.000000 0.000000
O O12 0.167299 0.954291 0.250000
O O13 0.235059 0.928094 0.487185
O O14 0.209596 0.053649 0.415017
O O15 0.583243 0.322378 0.750000
O O16 0.653497 0.369561 0.956846
O O17 0.593867 0.250000 0.000000
O O18 0.715680 0.070277 0.250000
O O19 0.668873 0.994153 0.453693
O O20 0.663376 0.900360 0.250000
O O21 0.701032 0.865469 0.984988
O O22 0.229908 0.337968 0.750000
#
# Coordination Sequence:
#
# PCOD9436829 Si02
#       8
#     8   8   8   8   8   8   8   8
#     4  10  20  34  54  81 113 148 183 221 266 312
#     4  10  20  34  53  77 107 144 181 220 265 316
#     4  11  21  35  55  79 106 140 182 230 277 332
#     4   9  17  29  49  78 106 132 168 211 256 304
#     4  11  23  39  55  77 106 141 180 227 284 340
#     4   9  17  32  52  74 102 133 169 214 266 318
#     4   9  17  31  50  74 102 132 170 217 265 314
#     4   9  17  29  47  74 103 132 167 210 256 306
#
# _framework density 16.989972999999999
#
# number of rings (size 3 to 8) (size 9 to 14) (size 15 to 20)
#    0.000    2.250    1.250    2.250    0.000    6.500 
#    0.000    0.625    0.000    3.750    0.000    5.250 
#    0.000    0.000    0.000    0.000    0.000    0.000 
#
# Total GULP energy -357019.493973 kJ/mol
# GULP energy per Si atom -5578.429593 kJ/mol
# Density = 1.695130 g / cm^3
# Si number density = 16.989973 Si / 1000 Ang^3
#
#
#
# Elastic Constant Matrix: (Units=GPa)
#
#
# Indices 1 2 3 4 5 6 
#
# 1 138.7700 51.9011 77.2042 0.0000 0.0000 0.0000
# 2 51.9011 79.8172 52.4850 0.0000 0.0000 0.0000
# 3 77.2042 52.4850 89.1600 0.0000 0.0000 0.0000
# 4 0.0000 0.0000 0.0000 24.8515 0.0000 0.0000
# 5 0.0000 0.0000 0.0000 0.0000 33.8150 0.0000
# 6 0.0000 0.0000 0.0000 0.0000 0.0000 14.0599
#
#
#
# Elastic Compliance Matrix: (Units=1/GPa)
#
#
# Indices 1 2 3 4 5 6 
#
# 1 0.014071 -0.001856 -0.011092 0.000000 0.000000 0.000000
# 2 -0.001856 0.020686 -0.010570 0.000000 0.000000 0.000000
# 3 -0.011092 -0.010570 0.027042 0.000000 0.000000 0.000000
# 4 0.000000 0.000000 0.000000 0.040239 0.000000 0.000000
# 5 0.000000 0.000000 0.000000 0.000000 0.029573 0.000000
# 6 0.000000 0.000000 0.000000 0.000000 0.000000 0.071124
#
#
# Mechanical properties :
#
#
# Convention : Reuss Voigt Hill
#
# Bulk Modulus (GPa) = 67.73202 74.54754 71.13978
# Shear Modulus (GPa) = 19.63158 22.95573 21.29365
#
# Velocity S-wave (km/s) = 3.40292 3.67977 3.54405
# Velocity P-wave (km/s) = 7.44260 7.87571 7.66222
#
# Compressibility (1/GPa) = 0.01476407
#
# Stress axis : x y z
#
# Youngs Moduli (GPa) = 71.06694 48.34219 36.97954
#
# Poissons Ratio (x) = 0.08974 0.41016
# Poissons Ratio (y) = 0.13192 0.39086
# Poissons Ratio (z) = 0.78825 0.51095
#
# Static dielectric constant tensor:
#      x y z
#    x 1.555600 0.000000 0.000000 
#    y 0.000000 1.576370 0.000000 
#    z 0.000000 0.000000 1.573500 
# 
# From -- ./inp_files/8472.got.cif
#   From: 2010.05.17/outbox.cif.g08.bks.cpg/sg57_5_cif.got.tgz:8472.got - 2010.06.03 13:58:18.
