data_PCOD9436865
_publ_section_title
;
Structure prediction by ZEFSAII (Michael W. Deem and Ramdas Pophale) SiO2 
 PCOD9436865
Probable space group: P B C M
;
_chemical_formula_sum "Si O2"
_cell_formula_units_Z 48
_cell_length_a 31.652998
_cell_length_b 9.559000
_cell_length_c 8.716362
_cell_angle_alpha 90.000000
_cell_angle_beta 90.000000
_cell_angle_gamma 90.000000
_cell_volume 2637.318435
_symmetry_space_group_name_H-M "P B C M"
_symmetry_group_IT_number 57
_symmetry_cell_setting 'orthorhombic'
loop_
_space_group_symop_operation_xyz
x,y,z
-x,-y,1/2+z
x,1/2-y,-z
-x,1/2+y,1/2-z
-x,-y,-z
x,y,1/2-z
-x,1/2+y,z
x,1/2-y,1/2+z
loop_
_atom_site_type_symbol
_atom_site_label
_atom_site_fract_x
_atom_site_fract_y
_atom_site_fract_z
Si Si1 0.209774 0.904168 0.932975
Si Si2 0.888664 0.094534 0.066403
Si Si3 0.537342 0.593206 0.566249
Si Si4 0.038042 0.093480 0.433697
Si Si5 0.282890 0.093464 0.432606
Si Si6 0.630798 0.907702 0.433740
O O1 0.215820 0.903844 0.750000
O O2 0.160598 0.939422 0.963470
O O3 0.216887 0.750000 0.000000
O O4 0.242657 0.008177 0.010117
O O5 0.895437 0.096223 0.250000
O O6 0.896990 0.250000 0.000000
O O7 0.919236 0.983021 0.988185
O O8 0.534440 0.750000 0.500000
O O9 0.500000 0.500000 0.500000
O O10 0.534384 0.600183 0.750000
O O11 0.584312 0.533807 0.528256
O O12 0.035669 0.250000 0.500000
O O13 0.035682 0.097732 0.250000
O O14 0.000000 0.000000 0.500000
O O15 0.280124 0.250000 0.500000
O O16 0.284338 0.100126 0.250000
O O17 0.326952 0.027952 0.494432
O O18 0.629650 0.750000 0.500000
O O19 0.635253 0.902992 0.250000
#
# Coordination Sequence:
#
# PCOD9436865 Si02
#       6
#     8   8   8   8   8   8
#     4  10  21  38  59  83 114 149 185 226 275 331
#     4  10  21  39  62  87 115 150 189 229 276 329
#     4  10  20  34  54  78 106 139 176 220 269 324
#     4  12  25  42  63  88 119 153 191 234 280 330
#     4  11  21  34  55  81 109 142 182 227 272 321
#     4   9  17  31  51  75 103 137 177 220 269 323
#
# _framework density 18.200303999999999
#
# number of rings (size 3 to 8) (size 9 to 14) (size 15 to 20)
#    0.000    1.667    0.000    6.500    0.000    4.667 
#    0.000    0.833    0.000    4.000    0.000    0.000 
#    0.000    0.000    0.000    0.000    0.000    0.000 
#
# Total GULP energy -268056.163116 kJ/mol
# GULP energy per Si atom -5584.503398 kJ/mol
# Density = 1.815888 g / cm^3
# Si number density = 18.200304 Si / 1000 Ang^3
#
#
#
# Elastic Constant Matrix: (Units=GPa)
#
#
# Indices 1 2 3 4 5 6 
#
# 1 154.5618 95.4762 94.6964 0.0000 0.0000 0.0000
# 2 95.4762 96.6906 63.2469 0.0000 0.0000 0.0000
# 3 94.6964 63.2469 145.6251 0.0000 0.0000 0.0000
# 4 0.0000 0.0000 0.0000 32.6377 0.0000 0.0000
# 5 0.0000 0.0000 0.0000 0.0000 3.7813 0.0000
# 6 0.0000 0.0000 0.0000 0.0000 0.0000 38.6080
#
#
#
# Elastic Compliance Matrix: (Units=1/GPa)
#
#
# Indices 1 2 3 4 5 6 
#
# 1 0.019876 -0.015605 -0.006147 0.000000 0.000000 0.000000
# 2 -0.015605 0.026699 -0.001448 0.000000 0.000000 0.000000
# 3 -0.006147 -0.001448 0.011493 0.000000 0.000000 0.000000
# 4 0.000000 0.000000 0.000000 0.030639 0.000000 0.000000
# 5 0.000000 0.000000 0.000000 0.000000 0.264458 0.000000
# 6 0.000000 0.000000 0.000000 0.000000 0.000000 0.025901
#
#
# Mechanical properties :
#
#
# Convention : Reuss Voigt Hill
#
# Bulk Modulus (GPa) = 85.71193 100.41292 93.06242
# Shear Modulus (GPa) = 11.64535 24.56928 18.10731
#
# Velocity S-wave (km/s) = 2.53226 3.67814 3.15761
# Velocity P-wave (km/s) = 7.46630 8.56324 8.03351
#
# Compressibility (1/GPa) = 0.01166699
#
# Stress axis : x y z
#
# Youngs Moduli (GPa) = 50.31232 37.45520 87.00843
#
# Poissons Ratio (x) = 0.58450 0.53486
# Poissons Ratio (y) = 0.78514 0.12597
# Poissons Ratio (z) = 0.30928 0.05423
#
# Static dielectric constant tensor:
#      x y z
#    x 1.656160 0.000000 0.000000 
#    y 0.000000 1.581430 0.000000 
#    z 0.000000 0.000000 1.604210 
# 
# From -- ./inp_files/9922.got.cif
#   From: 2010.05.17/outbox.cif.g08.bks.cpg/sg57_5_cif.got.tgz:9922.got - 2010.06.03 13:58:18.
