data_PCOD9436747
_publ_section_title
;
Structure prediction by ZEFSAII (Michael W. Deem and Ramdas Pophale) SiO2 
 PCOD9436747
Probable space group: P B C M
;
_chemical_formula_sum "Si O2"
_cell_formula_units_Z 64
_cell_length_a 16.206277
_cell_length_b 24.826099
_cell_length_c 8.957701
_cell_angle_alpha 90.000000
_cell_angle_beta 90.000000
_cell_angle_gamma 90.000000
_cell_volume 3604.029213
_symmetry_space_group_name_H-M "P B C M"
_symmetry_group_IT_number 57
_symmetry_cell_setting 'orthorhombic'
loop_
_space_group_symop_operation_xyz
x,y,z
-x,-y,1/2+z
x,1/2-y,-z
-x,1/2+y,1/2-z
-x,-y,-z
x,y,1/2-z
-x,1/2+y,z
x,1/2-y,1/2+z
loop_
_atom_site_type_symbol
_atom_site_label
_atom_site_fract_x
_atom_site_fract_y
_atom_site_fract_z
Si Si1 0.111368 0.383342 0.571849
Si Si2 0.376005 0.101075 0.577010
Si Si3 0.248028 0.307243 0.424565
Si Si4 0.782252 0.527539 0.929722
Si Si5 0.786896 0.193609 0.926013
Si Si6 0.984400 0.307073 0.426626
Si Si7 0.713598 0.413208 0.930074
Si Si8 0.527902 0.055994 0.427479
O O1 0.107138 0.384813 0.750000
O O2 0.180456 0.341491 0.513748
O O3 0.143493 0.440527 0.508316
O O4 0.028576 0.357887 0.503056
O O5 0.397312 0.089519 0.750000
O O6 0.331897 0.158548 0.568582
O O7 0.304167 0.058236 0.533758
O O8 0.456636 0.096745 0.477744
O O9 0.256591 0.250000 0.500000
O O10 0.223949 0.303422 0.250000
O O11 0.791950 0.532559 0.750000
O O12 0.769695 0.465172 0.969703
O O13 0.770383 0.195302 0.750000
O O14 0.885936 0.189131 0.947040
O O15 0.760559 0.250000 0.000000
O O16 0.744814 0.141726 0.998407
O O17 0.011741 0.250000 0.500000
O O18 0.002716 0.305933 0.250000
O O19 0.715436 0.408624 0.750000
O O20 0.619458 0.426605 0.975217
O O21 0.529482 0.049964 0.250000
O O22 0.500000 0.000000 0.500000
#
# Coordination Sequence:
#
# PCOD9436747 Si02
#       8
#     8   8   8   8   8   8   8   8
#     4  11  21  32  51  81 112 143 185 227 270 322
#     4   9  18  34  52  75 107 142 180 222 270 317
#     4  10  20  34  51  72 106 146 183 222 270 324
#     4   9  18  35  54  76 112 150 181 219 273 325
#     4  10  22  40  63  87 110 141 183 229 277 329
#     4  10  20  36  57  81 109 142 183 230 278 325
#     4  10  21  38  59  83 113 147 182 224 278 330
#     4  11  21  34  55  83 111 141 180 224 269 321
#
# _framework density 17.757902999999999
#
# number of rings (size 3 to 8) (size 9 to 14) (size 15 to 20)
#    0.000    2.000    1.250    3.750    0.000    5.500 
#    0.000    1.250    0.000    1.500    0.000    0.000 
#    0.000    0.000    0.000    0.000    0.000    0.000 
#
# Total GULP energy -357225.097446 kJ/mol
# GULP energy per Si atom -5581.642148 kJ/mol
# Density = 1.771749 g / cm^3
# Si number density = 17.757903 Si / 1000 Ang^3
#
#
#
# Elastic Constant Matrix: (Units=GPa)
#
#
# Indices 1 2 3 4 5 6 
#
# 1 55.5190 50.7156 46.4228 0.0000 0.0000 0.0000
# 2 50.7156 142.6821 58.0897 0.0000 0.0000 0.0000
# 3 46.4228 58.0897 85.5050 0.0000 0.0000 0.0000
# 4 0.0000 0.0000 0.0000 34.6336 0.0000 0.0000
# 5 0.0000 0.0000 0.0000 0.0000 28.4163 0.0000
# 6 0.0000 0.0000 0.0000 0.0000 0.0000 19.7535
#
#
#
# Elastic Compliance Matrix: (Units=1/GPa)
#
#
# Indices 1 2 3 4 5 6 
#
# 1 0.037381 -0.006945 -0.015577 0.000000 0.000000 0.000000
# 2 -0.006945 0.010979 -0.003688 0.000000 0.000000 0.000000
# 3 -0.015577 -0.003688 0.022658 0.000000 0.000000 0.000000
# 4 0.000000 0.000000 0.000000 0.028874 0.000000 0.000000
# 5 0.000000 0.000000 0.000000 0.000000 0.035191 0.000000
# 6 0.000000 0.000000 0.000000 0.000000 0.000000 0.050624
#
#
# Mechanical properties :
#
#
# Convention : Reuss Voigt Hill
#
# Bulk Modulus (GPa) = 53.77013 66.01803 59.89408
# Shear Modulus (GPa) = 20.46464 25.12588 22.79526
#
# Velocity S-wave (km/s) = 3.39842 3.76561 3.58672
# Velocity P-wave (km/s) = 6.76345 7.49426 7.13821
#
# Compressibility (1/GPa) = 0.01859768
#
# Stress axis : x y z
#
# Youngs Moduli (GPa) = 26.75185 91.08604 44.13534
#
# Poissons Ratio (x) = 0.63260 0.68748
# Poissons Ratio (y) = 0.18579 0.16277
# Poissons Ratio (z) = 0.41670 0.33592
#
# Static dielectric constant tensor:
#      x y z
#    x 1.611440 0.000000 0.000000 
#    y 0.000000 1.616520 0.000000 
#    z 0.000000 0.000000 1.596660 
# 
# From -- ./inp_files/5591.got.cif
#   From: 2010.05.17/outbox.cif.g08.bks.cpg/sg57_3_cif.got.tgz:5591.got - 2010.06.03 13:58:18.
