data_PCOD9436581
_publ_section_title
;
Structure prediction by ZEFSAII (Michael W. Deem and Ramdas Pophale) SiO2 
 PCOD9436581
Probable space group: P B C M
;
_chemical_formula_sum "Si O2"
_cell_formula_units_Z 64
_cell_length_a 16.936381
_cell_length_b 24.546564
_cell_length_c 8.812625
_cell_angle_alpha 90.000000
_cell_angle_beta 90.000000
_cell_angle_gamma 90.000000
_cell_volume 3663.672240
_symmetry_space_group_name_H-M "P B C M"
_symmetry_group_IT_number 57
_symmetry_cell_setting 'orthorhombic'
loop_
_space_group_symop_operation_xyz
x,y,z
-x,-y,1/2+z
x,1/2-y,-z
-x,1/2+y,1/2-z
-x,-y,-z
x,y,1/2-z
-x,1/2+y,z
x,1/2-y,1/2+z
loop_
_atom_site_type_symbol
_atom_site_label
_atom_site_fract_x
_atom_site_fract_y
_atom_site_fract_z
Si Si1 0.769531 0.810402 0.567589
Si Si2 0.714875 0.125953 0.429921
Si Si3 0.877616 0.190416 0.430405
Si Si4 0.568603 0.188891 0.930921
Si Si5 0.592614 0.810766 0.931642
Si Si6 0.965436 0.408600 0.430846
Si Si7 0.195355 0.528159 0.932224
Si Si8 0.865059 0.914458 0.566870
O O1 0.780454 0.750000 0.500000
O O2 0.774806 0.805348 0.750000
O O3 0.680520 0.831938 0.534015
O O4 0.831247 0.856129 0.515727
O O5 0.700199 0.125500 0.250000
O O6 0.791341 0.164207 0.459142
O O7 0.640781 0.151652 0.515535
O O8 0.740732 0.066347 0.487475
O O9 0.881379 0.250000 0.500000
O O10 0.890050 0.191786 0.250000
O O11 0.940668 0.150504 0.507002
O O12 0.565939 0.193515 0.750000
O O13 0.578461 0.250000 0.000000
O O14 0.485704 0.164907 0.993291
O O15 0.582674 0.809133 0.750000
O O16 0.594693 0.750000 0.000000
O O17 0.972511 0.407880 0.250000
O O18 0.891387 0.447352 0.470438
O O19 0.048037 0.425012 0.503360
O O20 0.205218 0.532958 0.750000
O O21 0.191899 0.464770 0.974825
O O22 0.869409 0.913857 0.750000
#
# Coordination Sequence:
#
# PCOD9436581 Si02
#       8
#     8   8   8   8   8   8   8   8
#     4   9  19  34  53  76 102 131 161 199 248 298
#     4  10  20  33  50  73 101 132 167 207 248 292
#     4  10  20  33  49  69  97 133 166 200 245 295
#     4  11  20  30  48  75 105 135 167 201 241 290
#     4   9  16  29  48  71  99 129 162 199 241 289
#     4  10  20  33  50  73  98 128 167 209 251 295
#     4   9  19  35  53  72  98 131 167 209 254 298
#     4  10  20  35  54  75  99 129 166 208 254 300
#
# _framework density 17.468812
#
# number of rings (size 3 to 8) (size 9 to 14) (size 15 to 20)
#    0.000    2.250    0.000    4.125    0.000    5.000 
#    0.000    1.250    0.000    0.750    0.000    0.000 
#    0.000    0.000    0.000    0.000    0.000    0.000 
#
# Total GULP energy -356962.461464 kJ/mol
# GULP energy per Si atom -5577.538460 kJ/mol
# Density = 1.742905 g / cm^3
# Si number density = 17.468812 Si / 1000 Ang^3
#
#
#
# Elastic Constant Matrix: (Units=GPa)
#
#
# Indices 1 2 3 4 5 6 
#
# 1 49.3591 9.9147 22.4982 0.0000 0.0000 0.0000
# 2 9.9147 78.0295 19.4026 0.0000 0.0000 0.0000
# 3 22.4982 19.4026 44.6730 0.0000 0.0000 0.0000
# 4 0.0000 0.0000 0.0000 21.5163 0.0000 0.0000
# 5 0.0000 0.0000 0.0000 0.0000 24.8984 0.0000
# 6 0.0000 0.0000 0.0000 0.0000 0.0000 1.1833
#
#
#
# Elastic Compliance Matrix: (Units=1/GPa)
#
#
# Indices 1 2 3 4 5 6 
#
# 1 0.026296 -0.000054 -0.013220 0.000000 0.000000 0.000000
# 2 -0.000054 0.014367 -0.006213 0.000000 0.000000 0.000000
# 3 -0.013220 -0.006213 0.031741 0.000000 0.000000 0.000000
# 4 0.000000 0.000000 0.000000 0.046476 0.000000 0.000000
# 5 0.000000 0.000000 0.000000 0.000000 0.040163 0.000000
# 6 0.000000 0.000000 0.000000 0.000000 0.000000 0.845097
#
#
# Mechanical properties :
#
#
# Convention : Reuss Voigt Hill
#
# Bulk Modulus (GPa) = 29.91223 30.63250 30.27236
# Shear Modulus (GPa) = 4.74267 17.53600 11.13934
#
# Velocity S-wave (km/s) = 1.64949 3.17179 2.52795
# Velocity P-wave (km/s) = 4.55940 5.56662 5.08800
#
# Compressibility (1/GPa) = 0.03343114
#
# Stress axis : x y z
#
# Youngs Moduli (GPa) = 38.02835 69.60188 31.50495
#
# Poissons Ratio (x) = 0.00377 0.41649
# Poissons Ratio (y) = 0.00206 0.19574
# Poissons Ratio (z) = 0.50273 0.43243
#
# Static dielectric constant tensor:
#      x y z
#    x 1.610760 0.000000 0.000000 
#    y 0.000000 1.402170 0.000000 
#    z 0.000000 0.000000 1.586140 
# 
# From -- ./inp_files/7441.got.cif
#   From: 2010.05.17/outbox.cif.g08.bks.cpg/sg57_4_cif.got.tgz:7441.got - 2010.06.03 13:58:18.
