data_PCOD9436243
_publ_section_title
;
Structure prediction by ZEFSAII (Michael W. Deem and Ramdas Pophale) SiO2 
 PCOD9436243
Probable space group: P B C M
;
_chemical_formula_sum "Si O2"
_cell_formula_units_Z 40
_cell_length_a 9.548923
_cell_length_b 24.405568
_cell_length_c 8.748239
_cell_angle_alpha 90.000000
_cell_angle_beta 90.000000
_cell_angle_gamma 90.000000
_cell_volume 2038.749888
_symmetry_space_group_name_H-M "P B C M"
_symmetry_group_IT_number 57
_symmetry_cell_setting 'orthorhombic'
loop_
_space_group_symop_operation_xyz
x,y,z
-x,-y,1/2+z
x,1/2-y,-z
-x,1/2+y,1/2-z
-x,-y,-z
x,y,1/2-z
-x,1/2+y,z
x,1/2-y,1/2+z
loop_
_atom_site_type_symbol
_atom_site_label
_atom_site_fract_x
_atom_site_fract_y
_atom_site_fract_z
Si Si1 0.791133 0.855775 0.070501
Si Si2 0.941261 0.307519 0.568462
Si Si3 0.775839 0.410184 0.067922
Si Si4 0.230030 0.477755 0.070601
Si Si5 0.535221 0.909012 0.932394
O O1 0.781063 0.842749 0.250000
O O2 0.847730 0.919104 0.059226
O O3 0.638251 0.860787 0.993947
O O4 0.898934 0.817367 0.984993
O O5 0.891214 0.250000 0.500000
O O6 0.932133 0.306812 0.750000
O O7 0.854994 0.358366 0.501710
O O8 0.783850 0.409112 0.250000
O O9 0.831947 0.468544 0.005709
O O10 0.614923 0.407379 0.010901
O O11 0.255185 0.488159 0.250000
O O12 0.375077 0.461987 0.985800
O O13 0.522735 0.907722 0.750000
#
# Coordination Sequence:
#
# PCOD9436243 Si02
#       5
#     8   8   8   8   8
#     4   9  20  39  62  88 120 156 198 242 292 352
#     4  12  26  45  65  85 115 156 202 250 302 355
#     4  12  23  37  60  90 126 162 199 245 299 357
#     4   9  19  35  59  91 126 160 197 241 296 357
#     4  10  19  35  59  91 125 159 196 238 293 352
#
# _framework density 19.619865999999998
#
# number of rings (size 3 to 8) (size 9 to 14) (size 15 to 20)
#    1.200    0.400    0.000    6.600    0.000    0.800 
#    0.000    1.000    0.000    0.000    0.000    0.000 
#    0.000    0.000    0.000    0.000    0.000    0.000 
#
# Total GULP energy -223181.744272 kJ/mol
# GULP energy per Si atom -5579.543607 kJ/mol
# Density = 1.957521 g / cm^3
# Si number density = 19.619866 Si / 1000 Ang^3
#
#
#
# Elastic Constant Matrix: (Units=GPa)
#
#
# Indices 1 2 3 4 5 6 
#
# 1 34.3123 12.9446 14.1988 0.0000 0.0000 0.0000
# 2 12.9446 66.6291 44.9479 0.0000 0.0000 0.0000
# 3 14.1988 44.9479 188.9863 0.0000 0.0000 0.0000
# 4 0.0000 0.0000 0.0000 30.8723 0.0000 0.0000
# 5 0.0000 0.0000 0.0000 0.0000 30.8323 0.0000
# 6 0.0000 0.0000 0.0000 0.0000 0.0000 16.6337
#
#
#
# Elastic Compliance Matrix: (Units=1/GPa)
#
#
# Indices 1 2 3 4 5 6 
#
# 1 0.031636 -0.005411 -0.001090 0.000000 0.000000 0.000000
# 2 -0.005411 0.018802 -0.004065 0.000000 0.000000 0.000000
# 3 -0.001090 -0.004065 0.006340 0.000000 0.000000 0.000000
# 4 0.000000 0.000000 0.000000 0.032392 0.000000 0.000000
# 5 0.000000 0.000000 0.000000 0.000000 0.032434 0.000000
# 6 0.000000 0.000000 0.000000 0.000000 0.000000 0.060119
#
#
# Mechanical properties :
#
#
# Convention : Reuss Voigt Hill
#
# Bulk Modulus (GPa) = 28.05344 48.23447 38.14395
# Shear Modulus (GPa) = 23.28424 30.19007 26.73715
#
# Velocity S-wave (km/s) = 3.44869 3.92695 3.69556
# Velocity P-wave (km/s) = 5.49431 6.72303 6.13948
#
# Compressibility (1/GPa) = 0.03564625
#
# Stress axis : x y z
#
# Youngs Moduli (GPa) = 31.60906 53.18535 157.72471
#
# Poissons Ratio (x) = 0.28779 0.17191
# Poissons Ratio (y) = 0.17104 0.64120
# Poissons Ratio (z) = 0.03445 0.21622
#
# Static dielectric constant tensor:
#      x y z
#    x 1.708940 0.000000 0.000000 
#    y 0.000000 1.711650 0.000000 
#    z 0.000000 0.000000 1.639180 
# 
# From -- ./inp_files/1730.got.cif
#   From: 2010.05.17/outbox.cif.g08.bks.cpg/sg57_1_cif.got.tgz:1730.got - 2010.06.03 13:58:18.
