data_PCOD9436332
_publ_section_title
;
Structure prediction by ZEFSAII (Michael W. Deem and Ramdas Pophale) SiO2 
 PCOD9436332
Probable space group: P B C M
;
_chemical_formula_sum "Si O2"
_cell_formula_units_Z 44
_cell_length_a 9.242152
_cell_length_b 17.375395
_cell_length_c 14.674003
_cell_angle_alpha 90.000000
_cell_angle_beta 90.000000
_cell_angle_gamma 90.000000
_cell_volume 2356.440057
_symmetry_space_group_name_H-M "P B C M"
_symmetry_group_IT_number 57
_symmetry_cell_setting 'orthorhombic'
loop_
_space_group_symop_operation_xyz
x,y,z
-x,-y,1/2+z
x,1/2-y,-z
-x,1/2+y,1/2-z
-x,-y,-z
x,y,1/2-z
-x,1/2+y,z
x,1/2-y,1/2+z
loop_
_atom_site_type_symbol
_atom_site_label
_atom_site_fract_x
_atom_site_fract_y
_atom_site_fract_z
Si Si1 0.921814 0.245183 0.891394
Si Si2 0.289111 0.440357 0.250000
Si Si3 0.364318 0.258989 0.250000
Si Si4 0.585881 0.215298 0.598595
Si Si5 0.014056 0.617451 0.750000
Si Si6 0.517510 0.033017 0.898913
Si Si7 0.922489 0.843631 0.750000
Si Si8 0.255103 0.495189 0.750000
O O1 0.750350 0.235384 0.874658
O O2 0.993313 0.172376 0.839118
O O3 0.984933 0.318699 0.838243
O O4 0.946996 0.250000 0.000000
O O5 0.319917 0.348589 0.250000
O O6 0.370593 0.472841 0.160974
O O7 0.116779 0.443239 0.250000
O O8 0.467984 0.247425 0.335769
O O9 0.223318 0.207561 0.250000
O O10 0.563197 0.250000 0.500000
O O11 0.561377 0.123332 0.598220
O O12 0.167593 0.575007 0.750000
O O13 0.641792 0.992323 0.838559
O O14 0.500000 0.000000 0.000000
O O15 0.863846 0.929162 0.750000
#
# Coordination Sequence:
#
# PCOD9436332 Si02
#       8
#     8   4   4   8   4   8   4   4
#     4  10  21  40  63  88 120 159 208 248 297 363
#     4   9  20  39  62  84 116 163 202 241 307 364
#     4  10  19  36  60  86 116 150 202 253 301 342
#     4  10  21  38  64  88 113 163 205 246 299 363
#     4  11  19  43  62  87 122 166 198 243 313 377
#     4  10  22  41  62  90 125 159 200 255 309 371
#     4  11  24  38  59  93 121 156 199 268 291 364
#     4  11  24  42  61  86 127 167 193 249 328 355
#
# _framework density 18.672234
#
# number of rings (size 3 to 8) (size 9 to 14) (size 15 to 20)
#    0.000    1.818    3.636    1.636    2.545    2.182 
#    6.545    1.818    0.000    0.000    0.000    0.000 
#    0.000    0.000    0.000    0.000    0.000    0.000 
#
# Total GULP energy -245524.389930 kJ/mol
# GULP energy per Si atom -5580.099771 kJ/mol
# Density = 1.862973 g / cm^3
# Si number density = 18.672234 Si / 1000 Ang^3
#
#
#
# Elastic Constant Matrix: (Units=GPa)
#
#
# Indices 1 2 3 4 5 6 
#
# 1 107.8503 13.7955 61.7009 0.0000 0.0000 0.0000
# 2 13.7955 42.3467 26.0902 0.0000 0.0000 0.0000
# 3 61.7009 26.0902 134.5665 0.0000 0.0000 0.0000
# 4 0.0000 0.0000 0.0000 24.7219 0.0000 0.0000
# 5 0.0000 0.0000 0.0000 0.0000 15.7531 0.0000
# 6 0.0000 0.0000 0.0000 0.0000 0.0000 25.6661
#
#
#
# Elastic Compliance Matrix: (Units=1/GPa)
#
#
# Indices 1 2 3 4 5 6 
#
# 1 0.012583 -0.000618 -0.005650 0.000000 0.000000 0.000000
# 2 -0.000618 0.026848 -0.004922 0.000000 0.000000 0.000000
# 3 -0.005650 -0.004922 0.010976 0.000000 0.000000 0.000000
# 4 0.000000 0.000000 0.000000 0.040450 0.000000 0.000000
# 5 0.000000 0.000000 0.000000 0.000000 0.063480 0.000000
# 6 0.000000 0.000000 0.000000 0.000000 0.000000 0.038962
#
#
# Mechanical properties :
#
#
# Convention : Reuss Voigt Hill
#
# Bulk Modulus (GPa) = 35.67903 54.21517 44.94710
# Shear Modulus (GPa) = 22.22001 25.44001 23.83001
#
# Velocity S-wave (km/s) = 3.45338 3.69514 3.57631
# Velocity P-wave (km/s) = 5.92036 6.87777 6.41695
#
# Compressibility (1/GPa) = 0.02802767
#
# Stress axis : x y z
#
# Youngs Moduli (GPa) = 79.46937 37.24608 91.10727
#
# Poissons Ratio (x) = 0.02304 0.51474
# Poissons Ratio (y) = 0.04915 0.44842
# Poissons Ratio (z) = 0.44899 0.18332
#
# Static dielectric constant tensor:
#      x y z
#    x 1.654070 0.000000 0.000000 
#    y 0.000000 1.646580 0.000000 
#    z 0.000000 0.000000 1.606800 
# 
# From -- ./inp_files/16268.got.cif
#   From: 2010.05.17/outbox.cif.g08.bks.cpg/sg57_9_cif.got.tgz:16268.got - 2010.06.03 13:58:18.
