data_PCOD9436936
_publ_section_title
;
Structure prediction by ZEFSAII (Michael W. Deem and Ramdas Pophale) SiO2 
 PCOD9436936
Probable space group: P B C M
;
_chemical_formula_sum "Si O2"
_cell_formula_units_Z 40
_cell_length_a 10.735065
_cell_length_b 13.727032
_cell_length_c 14.058720
_cell_angle_alpha 90.000000
_cell_angle_beta 90.000000
_cell_angle_gamma 90.000000
_cell_volume 2071.701144
_symmetry_space_group_name_H-M "P B C M"
_symmetry_group_IT_number 57
_symmetry_cell_setting 'orthorhombic'
loop_
_space_group_symop_operation_xyz
x,y,z
-x,-y,1/2+z
x,1/2-y,-z
-x,1/2+y,1/2-z
-x,-y,-z
x,y,1/2-z
-x,1/2+y,z
x,1/2-y,1/2+z
loop_
_atom_site_type_symbol
_atom_site_label
_atom_site_fract_x
_atom_site_fract_y
_atom_site_fract_z
Si Si1 0.632015 0.904462 0.137602
Si Si2 0.859777 0.060295 0.951943
Si Si3 0.267791 0.613589 0.361870
Si Si4 0.369311 0.673116 0.635768
Si Si5 0.885180 0.858902 0.034051
O O1 0.635463 0.885712 0.250000
O O2 0.504497 0.859290 0.098586
O O3 0.758199 0.862576 0.093485
O O4 0.640574 0.021360 0.124716
O O5 0.739388 0.103070 0.901195
O O6 0.988440 0.105136 0.914351
O O7 0.842191 0.094235 0.062685
O O8 0.865851 0.943464 0.954630
O O9 0.230524 0.615013 0.250000
O O10 0.332687 0.715580 0.386191
O O11 0.372728 0.665539 0.750000
O O12 0.905862 0.750000 0.000000
#
# Coordination Sequence:
#
# PCOD9436936 Si02
#       5
#     8   8   8   8   8
#     4   9  20  36  53  78 109 139 176 220 265 314
#     4  10  21  37  56  79 107 140 180 220 258 315
#     4   9  18  34  56  78 105 142 179 217 263 313
#     4  10  20  34  55  82 109 141 180 218 260 315
#     4  10  21  36  54  79 108 137 175 219 269 316
#
# _framework density 19.307803
#
# number of rings (size 3 to 8) (size 9 to 14) (size 15 to 20)
#    0.000    2.400    0.000    1.800    0.000    7.200 
#    0.000    7.000    0.000    0.000    0.000    1.400 
#    0.000    0.000    0.000    0.000    0.000    0.000 
#
# Total GULP energy -223038.143231 kJ/mol
# GULP energy per Si atom -5575.953581 kJ/mol
# Density = 1.926386 g / cm^3
# Si number density = 19.307803 Si / 1000 Ang^3
#
#
#
# Elastic Constant Matrix: (Units=GPa)
#
#
# Indices 1 2 3 4 5 6 
#
# 1 139.4528 49.8292 13.2251 0.0000 0.0000 0.0000
# 2 49.8292 124.1599 17.5232 0.0000 0.0000 0.0000
# 3 13.2251 17.5232 24.3827 0.0000 0.0000 0.0000
# 4 0.0000 0.0000 0.0000 5.1254 0.0000 0.0000
# 5 0.0000 0.0000 0.0000 0.0000-2366.5503 0.0000
# 6 0.0000 0.0000 0.0000 0.0000 0.0000 23.2668
#
#
#
# Elastic Compliance Matrix: (Units=1/GPa)
#
#
# Indices 1 2 3 4 5 6 
#
# 1 0.008496 -0.003071 -0.002401 0.000000 0.000000 0.000000
# 2 -0.003071 0.010073 -0.005574 0.000000 0.000000 0.000000
# 3 -0.002401 -0.005574 0.046321 0.000000 0.000000 0.000000
# 4 0.000000 0.000000 0.000000 0.195109 0.000000 0.000000
# 5 0.000000 0.000000 0.000000 0.000000 -0.000423 0.000000
# 6 0.000000 0.000000 0.000000 0.000000 0.000000 0.042980
#
#
# Mechanical properties :
#
#
# Convention : Reuss Voigt Hill
#
# Bulk Modulus (GPa) = 23.36536 49.90559 36.63548
# Shear Modulus (GPa) = 14.75304 -453.80379 -219.52538
#
# Velocity S-wave (km/s) = 2.76723 -15.34753 -10.67448
# Velocity P-wave (km/s) = 4.72629 16.97524 11.52868
#
# Compressibility (1/GPa) = 0.04279839
#
# Stress axis : x y z
#
# Youngs Moduli (GPa) = 117.70447 99.27363 21.58852
#
# Poissons Ratio (x) = 0.30484 0.05184
# Poissons Ratio (y) = 0.36144 0.12033
# Poissons Ratio (z) = 0.28264 0.55333
#
# Static dielectric constant tensor:
#      x y z
#    x 1.672270 0.000000 0.000000 
#    y 0.000000 1.675740 0.000000 
#    z 0.000000 0.000000 1.697420 
# 
# From -- ./inp_files/15878.got.cif
#   From: 2010.05.17/outbox.cif.g08.bks.cpg/sg57_8_cif.got.tgz:15878.got - 2010.06.03 13:58:18.
