data_PCOD9436095
_publ_section_title
;
Structure prediction by ZEFSAII (Michael W. Deem and Ramdas Pophale) SiO2 
 PCOD9436095
Probable space group: P B C M
;
_chemical_formula_sum "Si O2"
_cell_formula_units_Z 56
_cell_length_a 16.193281
_cell_length_b 11.935862
_cell_length_c 15.311638
_cell_angle_alpha 90.000000
_cell_angle_beta 90.000000
_cell_angle_gamma 90.000000
_cell_volume 2959.445142
_symmetry_space_group_name_H-M "P B C M"
_symmetry_group_IT_number 57
_symmetry_cell_setting 'orthorhombic'
loop_
_space_group_symop_operation_xyz
x,y,z
-x,-y,1/2+z
x,1/2-y,-z
-x,1/2+y,1/2-z
-x,-y,-z
x,y,1/2-z
-x,1/2+y,z
x,1/2-y,1/2+z
loop_
_atom_site_type_symbol
_atom_site_label
_atom_site_fract_x
_atom_site_fract_y
_atom_site_fract_z
Si Si1 0.370222 0.991900 0.465125
Si Si2 0.168649 0.232317 0.855503
Si Si3 0.517064 0.847853 0.427135
Si Si4 0.910113 0.998038 0.145967
Si Si5 0.654976 0.789407 0.650541
Si Si6 0.803800 0.383119 0.501536
Si Si7 0.893995 0.978266 0.853968
O O1 0.426438 0.048447 0.540184
O O2 0.350633 0.097307 0.403868
O O3 0.427331 0.901562 0.414254
O O4 0.287579 0.936378 0.500932
O O5 0.164256 0.229970 0.750000
O O6 0.264549 0.221465 0.882088
O O7 0.136814 0.354549 0.881423
O O8 0.114593 0.127438 0.884087
O O9 0.508577 0.750000 0.500000
O O10 0.572345 0.784115 0.356220
O O11 0.892172 0.010777 0.250000
O O12 0.007499 0.015918 0.134511
O O13 0.856048 0.078805 0.085872
O O14 0.670646 0.820135 0.750000
O O15 0.798418 0.250000 0.500000
O O16 0.849544 0.432105 0.415607
O O17 0.876300 0.994098 0.750000
#
# Coordination Sequence:
#
# PCOD9436095 Si02
#       7
#     8   8   8   8   8   8   8
#     4  10  20  37  56  81 116 154 195 242 299 360
#     4   9  18  36  62  87 114 153 202 252 304 361
#     4   9  19  35  58  80 108 149 191 240 297 349
#     4  10  23  41  62  88 120 159 208 264 315 364
#     4  10  19  34  58  87 114 147 196 246 299 360
#     4  12  25  38  59  90 124 164 207 246 308 384
#     4  10  22  41  62  87 120 159 202 257 315 372
#
# _framework density 18.922466
#
# number of rings (size 3 to 8) (size 9 to 14) (size 15 to 20)
#    0.000    2.000    1.429    1.714    2.000    1.714 
#    0.000    0.000    0.000   10.286    0.000    0.000 
#    0.000    0.000    0.000    0.000    0.000    0.000 
#
# Total GULP energy -312404.390058 kJ/mol
# GULP energy per Si atom -5578.649822 kJ/mol
# Density = 1.887940 g / cm^3
# Si number density = 18.922466 Si / 1000 Ang^3
#
#
#
# Elastic Constant Matrix: (Units=GPa)
#
#
# Indices 1 2 3 4 5 6 
#
# 1 100.2783 30.3656 23.3327 0.0000 0.0000 0.0000
# 2 30.3656 97.9286 16.1901 0.0000 0.0000 0.0000
# 3 23.3327 16.1901 44.3359 0.0000 0.0000 0.0000
# 4 0.0000 0.0000 0.0000 17.4951 0.0000 0.0000
# 5 0.0000 0.0000 0.0000 0.0000 9.5982 0.0000
# 6 0.0000 0.0000 0.0000 0.0000 0.0000 39.7640
#
#
#
# Elastic Compliance Matrix: (Units=1/GPa)
#
#
# Indices 1 2 3 4 5 6 
#
# 1 0.012075 -0.002867 -0.005308 0.000000 0.000000 0.000000
# 2 -0.002867 0.011548 -0.002708 0.000000 0.000000 0.000000
# 3 -0.005308 -0.002708 0.026338 0.000000 0.000000 0.000000
# 4 0.000000 0.000000 0.000000 0.057159 0.000000 0.000000
# 5 0.000000 0.000000 0.000000 0.000000 0.104187 0.000000
# 6 0.000000 0.000000 0.000000 0.000000 0.000000 0.025148
#
#
# Mechanical properties :
#
#
# Convention : Reuss Voigt Hill
#
# Bulk Modulus (GPa) = 35.46756 42.47995 38.97375
# Shear Modulus (GPa) = 18.68324 24.88176 21.78250
#
# Velocity S-wave (km/s) = 3.14563 3.63013 3.39653
# Velocity P-wave (km/s) = 5.65488 6.32998 6.00193
#
# Compressibility (1/GPa) = 0.02819478
#
# Stress axis : x y z
#
# Youngs Moduli (GPa) = 82.81277 86.59353 37.96859
#
# Poissons Ratio (x) = 0.24824 0.20154
# Poissons Ratio (y) = 0.23741 0.10283
# Poissons Ratio (z) = 0.43958 0.23453
#
# Static dielectric constant tensor:
#      x y z
#    x 1.669770 0.000000 0.000000 
#    y 0.000000 1.636400 0.000000 
#    z 0.000000 0.000000 1.663850 
# 
# From -- ./inp_files/18511.got.cif
#   From: 2010.05.17/outbox.cif.g08.bks.cpg/sg57_10_cif.got.tgz:18511.got - 2010.06.03 13:58:18.
