data_PCOD9436130
_publ_section_title
;
Structure prediction by ZEFSAII (Michael W. Deem and Ramdas Pophale) SiO2 
 PCOD9436130
Probable space group: P B C M
;
_chemical_formula_sum "Si O2"
_cell_formula_units_Z 64
_cell_length_a 11.420676
_cell_length_b 11.448855
_cell_length_c 24.407613
_cell_angle_alpha 90.000000
_cell_angle_beta 90.000000
_cell_angle_gamma 90.000000
_cell_volume 3191.384818
_symmetry_space_group_name_H-M "P B C M"
_symmetry_group_IT_number 57
_symmetry_cell_setting 'orthorhombic'
loop_
_space_group_symop_operation_xyz
x,y,z
-x,-y,1/2+z
x,1/2-y,-z
-x,1/2+y,1/2-z
-x,-y,-z
x,y,1/2-z
-x,1/2+y,z
x,1/2-y,1/2+z
loop_
_atom_site_type_symbol
_atom_site_label
_atom_site_fract_x
_atom_site_fract_y
_atom_site_fract_z
Si Si1 0.771993 0.307771 0.108769
Si Si2 0.706633 0.964726 0.030910
Si Si3 0.251015 0.346880 0.810503
Si Si4 0.085634 0.649930 0.046890
Si Si5 0.830060 0.569587 0.425590
Si Si6 0.393998 0.316736 0.126815
Si Si7 0.553571 0.316500 0.552332
Si Si8 0.396062 0.915837 0.311380
O O1 0.875645 0.215317 0.102887
O O2 0.816557 0.432485 0.087782
O O3 0.670292 0.256167 0.069488
O O4 0.706874 0.331783 0.165731
O O5 0.685335 0.874798 0.080022
O O6 0.822568 0.044769 0.038910
O O7 0.598464 0.055796 0.036018
O O8 0.729462 0.908175 0.971358
O O9 0.194107 0.346911 0.750000
O O10 0.180671 0.366812 0.866954
O O11 0.319965 0.227864 0.822051
O O12 0.341541 0.455439 0.810543
O O13 0.954692 0.603219 0.049428
O O14 0.096188 0.750000 0.000000
O O15 0.463523 0.205679 0.101292
O O16 0.495130 0.403643 0.147670
O O17 0.503371 0.250000 0.500000
O O18 0.430309 0.882758 0.250000
#
# Coordination Sequence:
#
# PCOD9436130 Si02
#       8
#     8   8   8   8   8   8   8   8
#     4   9  18  37  55  82 115 157 191 242 289 351
#     4  11  22  37  56  91 125 155 193 234 298 370
#     4  10  23  41  56  79 115 152 199 255 292 341
#     4  11  22  37  61  85 123 157 191 245 303 358
#     4  11  22  36  60  85 111 158 204 236 300 360
#     4  11  23  33  59  89 121 152 193 246 293 354
#     4  10  19  35  53  81 127 162 180 226 297 361
#     4   9  19  39  62  81 110 162 208 234 292 365
#
# _framework density 20.053988
#
# number of rings (size 3 to 8) (size 9 to 14) (size 15 to 20)
#    0.000    1.750    2.500    2.250    3.500    0.500 
#    0.000    0.625    0.000    7.500    0.000    0.000 
#    0.000    0.000    0.000    0.000    0.000    0.000 
#
# Total GULP energy -357037.646950 kJ/mol
# GULP energy per Si atom -5578.713234 kJ/mol
# Density = 2.000834 g / cm^3
# Si number density = 20.053988 Si / 1000 Ang^3
#
#
#
# Elastic Constant Matrix: (Units=GPa)
#
#
# Indices 1 2 3 4 5 6 
#
# 1 67.5966 35.1902 38.5986 0.0000 0.0000 0.0000
# 2 35.1902 53.2746 28.5925 0.0000 0.0000 0.0000
# 3 38.5986 28.5925 122.2288 0.0000 0.0000 0.0000
# 4 0.0000 0.0000 0.0000 19.0657 0.0000 0.0000
# 5 0.0000 0.0000 0.0000 0.0000 20.0158 0.0000
# 6 0.0000 0.0000 0.0000 0.0000 0.0000 24.3359
#
#
#
# Elastic Compliance Matrix: (Units=1/GPa)
#
#
# Indices 1 2 3 4 5 6 
#
# 1 0.024560 -0.013792 -0.004530 0.000000 0.000000 0.000000
# 2 -0.013792 0.029211 -0.002478 0.000000 0.000000 0.000000
# 3 -0.004530 -0.002478 0.010191 0.000000 0.000000 0.000000
# 4 0.000000 0.000000 0.000000 0.052450 0.000000 0.000000
# 5 0.000000 0.000000 0.000000 0.000000 0.049961 0.000000
# 6 0.000000 0.000000 0.000000 0.000000 0.000000 0.041092
#
#
# Mechanical properties :
#
#
# Convention : Reuss Voigt Hill
#
# Bulk Modulus (GPa) = 44.71555 49.76249 47.23902
# Shear Modulus (GPa) = 19.49184 22.06472 20.77828
#
# Velocity S-wave (km/s) = 3.12102 3.32062 3.22237
# Velocity P-wave (km/s) = 5.94422 6.29048 6.11980
#
# Compressibility (1/GPa) = 0.02236358
#
# Stress axis : x y z
#
# Youngs Moduli (GPa) = 40.71654 34.23401 98.12227
#
# Poissons Ratio (x) = 0.47216 0.44445
# Poissons Ratio (y) = 0.56156 0.24312
# Poissons Ratio (z) = 0.18443 0.08482
#
# Static dielectric constant tensor:
#      x y z
#    x 1.712270 0.000000 0.000000 
#    y 0.000000 1.730420 0.000000 
#    z 0.000000 0.000000 1.743070 
# 
# From -- ./inp_files/27261.got.cif
#   From: 2010.05.17/outbox.cif.g08.bks.cpg/sg57_14_cif.got.tgz:27261.got - 2010.06.03 13:58:18.
