data_PCOD9436079
_publ_section_title
;
Structure prediction by ZEFSAII (Michael W. Deem and Ramdas Pophale) SiO2 
 PCOD9436079
Probable space group: P B C M
;
_chemical_formula_sum "Si O2"
_cell_formula_units_Z 56
_cell_length_a 8.833440
_cell_length_b 22.664152
_cell_length_c 14.357616
_cell_angle_alpha 90.000000
_cell_angle_beta 90.000000
_cell_angle_gamma 90.000000
_cell_volume 2874.429567
_symmetry_space_group_name_H-M "P B C M"
_symmetry_group_IT_number 57
_symmetry_cell_setting 'orthorhombic'
loop_
_space_group_symop_operation_xyz
x,y,z
-x,-y,1/2+z
x,1/2-y,-z
-x,1/2+y,1/2-z
-x,-y,-z
x,y,1/2-z
-x,1/2+y,z
x,1/2-y,1/2+z
loop_
_atom_site_type_symbol
_atom_site_label
_atom_site_fract_x
_atom_site_fract_y
_atom_site_fract_z
Si Si1 0.448198 0.846227 0.859673
Si Si2 0.028522 0.264311 0.641911
Si Si3 0.228800 0.377516 0.644461
Si Si4 0.443237 0.794601 0.360721
Si Si5 0.228083 0.150322 0.861563
Si Si6 0.806120 0.338577 0.507449
Si Si7 0.951185 0.933249 0.484483
O O1 0.430735 0.856094 0.750000
O O2 0.601612 0.876621 0.892181
O O3 0.464095 0.775627 0.873123
O O4 0.305441 0.866729 0.916693
O O5 0.970279 0.260172 0.750000
O O6 0.907294 0.292944 0.570650
O O7 0.166283 0.310757 0.644116
O O8 0.105789 0.202331 0.613775
O O9 0.229573 0.398374 0.750000
O O10 0.116948 0.414068 0.582920
O O11 0.413488 0.805018 0.250000
O O12 0.601947 0.827154 0.385470
O O13 0.303408 0.812779 0.426936
O O14 0.223119 0.144948 0.750000
O O15 0.174325 0.090083 0.910649
O O16 0.907224 0.390462 0.465908
O O17 0.000000 0.000000 0.500000
#
# Coordination Sequence:
#
# PCOD9436079 Si02
#       7
#     8   8   8   8   8   8   8
#     4  10  19  34  57  92 126 149 177 232 305 375
#     4   9  18  35  59  91 120 148 186 232 295 370
#     4   9  18  37  63  85 116 154 191 237 296 362
#     4  10  21  37  59  92 129 155 186 235 301 376
#     4  10  21  40  63  85 118 161 200 242 297 364
#     4  11  23  35  58  90 122 154 189 242 306 348
#     4  11  26  42  57  81 116 162 215 256 287 337
#
# _framework density 19.482126000000001
#
# number of rings (size 3 to 8) (size 9 to 14) (size 15 to 20)
#    0.000    2.000    1.429    1.714    4.000    3.429 
#    0.000    2.857    0.000    3.429    0.000    0.000 
#    0.000    0.000    0.000    0.000    0.000    0.000 
#
# Total GULP energy -312497.931802 kJ/mol
# GULP energy per Si atom -5580.320211 kJ/mol
# Density = 1.943778 g / cm^3
# Si number density = 19.482126 Si / 1000 Ang^3
#
#
#
# Elastic Constant Matrix: (Units=GPa)
#
#
# Indices 1 2 3 4 5 6 
#
# 1 90.0182 23.9019 26.5934 0.0000 0.0000 0.0000
# 2 23.9019 50.4379 21.9496 0.0000 0.0000 0.0000
# 3 26.5934 21.9496 60.9183 0.0000 0.0000 0.0000
# 4 0.0000 0.0000 0.0000 11.7517 0.0000 0.0000
# 5 0.0000 0.0000 0.0000 0.0000 37.2978 0.0000
# 6 0.0000 0.0000 0.0000 0.0000 0.0000 11.9010
#
#
#
# Elastic Compliance Matrix: (Units=1/GPa)
#
#
# Indices 1 2 3 4 5 6 
#
# 1 0.013589 -0.004576 -0.004284 0.000000 0.000000 0.000000
# 2 -0.004576 0.025054 -0.007030 0.000000 0.000000 0.000000
# 3 -0.004284 -0.007030 0.020818 0.000000 0.000000 0.000000
# 4 0.000000 0.000000 0.000000 0.085094 0.000000 0.000000
# 5 0.000000 0.000000 0.000000 0.000000 0.026811 0.000000
# 6 0.000000 0.000000 0.000000 0.000000 0.000000 0.084026
#
#
# Mechanical properties :
#
#
# Convention : Reuss Voigt Hill
#
# Bulk Modulus (GPa) = 36.12271 38.47383 37.29827
# Shear Modulus (GPa) = 16.86915 20.78541 18.82728
#
# Velocity S-wave (km/s) = 2.94577 3.26988 3.11205
# Velocity P-wave (km/s) = 5.49107 5.83501 5.66565
#
# Compressibility (1/GPa) = 0.02768342
#
# Stress axis : x y z
#
# Youngs Moduli (GPa) = 73.58737 39.91394 48.03461
#
# Poissons Ratio (x) = 0.18263 0.20576
# Poissons Ratio (y) = 0.33671 0.33767
# Poissons Ratio (z) = 0.31522 0.28059
#
# Static dielectric constant tensor:
#      x y z
#    x 1.712720 0.000000 0.000000 
#    y 0.000000 1.672630 0.000000 
#    z 0.000000 0.000000 1.729940 
# 
# From -- ./inp_files/16746.got.cif
#   From: 2010.05.17/outbox.cif.g08.bks.cpg/sg57_9_cif.got.tgz:16746.got - 2010.06.03 13:58:18.
