data_PCOD9436803
_publ_section_title
;
Structure prediction by ZEFSAII (Michael W. Deem and Ramdas Pophale) SiO2 
 PCOD9436803
Probable space group: P B C M
;
_chemical_formula_sum "Si O2"
_cell_formula_units_Z 48
_cell_length_a 12.122588
_cell_length_b 26.149522
_cell_length_c 8.504468
_cell_angle_alpha 90.000000
_cell_angle_beta 90.000000
_cell_angle_gamma 90.000000
_cell_volume 2695.915349
_symmetry_space_group_name_H-M "P B C M"
_symmetry_group_IT_number 57
_symmetry_cell_setting 'orthorhombic'
loop_
_space_group_symop_operation_xyz
x,y,z
-x,-y,1/2+z
x,1/2-y,-z
-x,1/2+y,1/2-z
-x,-y,-z
x,y,1/2-z
-x,1/2+y,z
x,1/2-y,1/2+z
loop_
_atom_site_type_symbol
_atom_site_label
_atom_site_fract_x
_atom_site_fract_y
_atom_site_fract_z
Si Si1 0.501933 0.558311 0.061180
Si Si2 0.735260 0.402494 0.941820
Si Si3 0.123951 0.001046 0.560271
Si Si4 0.130978 0.193176 0.438543
Si Si5 0.267566 0.098507 0.938567
Si Si6 0.877345 0.193390 0.060208
O O1 0.502088 0.556550 0.250000
O O2 0.390137 0.587028 0.008767
O O3 0.500000 0.500000 0.000000
O O4 0.610957 0.586778 0.002415
O O5 0.735694 0.401773 0.750000
O O6 0.809177 0.450838 0.991364
O O7 0.793026 0.350193 0.994988
O O8 0.122490 0.000908 0.750000
O O9 0.188693 0.051772 0.508421
O O10 0.000000 0.000000 0.500000
O O11 0.156081 0.250000 0.500000
O O12 0.134885 0.192950 0.250000
O O13 0.214069 0.151045 0.503678
O O14 0.003988 0.181250 0.487580
O O15 0.271391 0.098102 0.750000
O O16 0.875594 0.194173 0.250000
O O17 0.850514 0.250000 0.000000
#
# Coordination Sequence:
#
# PCOD9436803 Si02
#       6
#     8   8   8   8   8   8
#     4  11  21  37  58  79 109 149 192 232 282 338
#     4   9  18  35  55  76 107 146 181 223 277 330
#     4  10  20  34  52  78 110 141 178 227 281 337
#     4  10  20  36  59  85 113 147 185 226 277 335
#     4  11  22  37  56  81 113 146 187 234 280 335
#     4   9  18  34  57  81 110 143 180 222 274 332
#
# _framework density 17.804713
#
# number of rings (size 3 to 8) (size 9 to 14) (size 15 to 20)
#    0.000    2.000    1.667    2.500    0.000    3.333 
#    0.000    3.333    0.000    2.000    0.000    0.000 
#    0.000    0.000    0.000    0.000    0.000    0.000 
#
# Total GULP energy -268005.707675 kJ/mol
# GULP energy per Si atom -5583.452243 kJ/mol
# Density = 1.776419 g / cm^3
# Si number density = 17.804713 Si / 1000 Ang^3
#
#
#
# Elastic Constant Matrix: (Units=GPa)
#
#
# Indices 1 2 3 4 5 6 
#
# 1 193.5218 123.5021 35.1406 0.0000 0.0000 0.0000
# 2 123.5021 163.5410 32.8664 0.0000 0.0000 0.0000
# 3 35.1406 32.8664 30.1528 0.0000 0.0000 0.0000
# 4 0.0000 0.0000 0.0000 29.1416 0.0000 0.0000
# 5 0.0000 0.0000 0.0000 0.0000 27.1453 0.0000
# 6 0.0000 0.0000 0.0000 0.0000 0.0000 21.7738
#
#
#
# Elastic Compliance Matrix: (Units=1/GPa)
#
#
# Indices 1 2 3 4 5 6 
#
# 1 0.010446 -0.006968 -0.004578 0.000000 0.000000 0.000000
# 2 -0.006968 0.012478 -0.005480 0.000000 0.000000 0.000000
# 3 -0.004578 -0.005480 0.044473 0.000000 0.000000 0.000000
# 4 0.000000 0.000000 0.000000 0.034315 0.000000 0.000000
# 5 0.000000 0.000000 0.000000 0.000000 0.036839 0.000000
# 6 0.000000 0.000000 0.000000 0.000000 0.000000 0.045927
#
#
# Mechanical properties :
#
#
# Convention : Reuss Voigt Hill
#
# Bulk Modulus (GPa) = 29.99060 85.58154 57.78607
# Shear Modulus (GPa) = 21.77258 28.65924 25.21591
#
# Velocity S-wave (km/s) = 3.50073 4.01639 3.76739
# Velocity P-wave (km/s) = 5.76376 8.34743 7.17288
#
# Compressibility (1/GPa) = 0.03334378
#
# Stress axis : x y z
#
# Youngs Moduli (GPa) = 95.73264 80.13899 22.48532
#
# Poissons Ratio (x) = 0.55843 0.10294
# Poissons Ratio (y) = 0.66709 0.12323
# Poissons Ratio (z) = 0.43829 0.43919
#
# Static dielectric constant tensor:
#      x y z
#    x 1.591820 0.000000 0.000000 
#    y 0.000000 1.582810 0.000000 
#    z 0.000000 0.000000 1.608440 
# 
# From -- ./inp_files/3086.got.cif
#   From: 2010.05.17/outbox.cif.g08.bks.cpg/sg57_2_cif.got.tgz:3086.got - 2010.06.03 13:58:18.
