data_PCOD9436667
_publ_section_title
;
Structure prediction by ZEFSAII (Michael W. Deem and Ramdas Pophale) SiO2 
 PCOD9436667
Probable space group: P B C M
;
_chemical_formula_sum "Si O2"
_cell_formula_units_Z 64
_cell_length_a 17.143242
_cell_length_b 22.297799
_cell_length_c 8.000788
_cell_angle_alpha 90.000000
_cell_angle_beta 90.000000
_cell_angle_gamma 90.000000
_cell_volume 3058.353733
_symmetry_space_group_name_H-M "P B C M"
_symmetry_group_IT_number 57
_symmetry_cell_setting 'orthorhombic'
loop_
_space_group_symop_operation_xyz
x,y,z
-x,-y,1/2+z
x,1/2-y,-z
-x,1/2+y,1/2-z
-x,-y,-z
x,y,1/2-z
-x,1/2+y,z
x,1/2-y,1/2+z
loop_
_atom_site_type_symbol
_atom_site_label
_atom_site_fract_x
_atom_site_fract_y
_atom_site_fract_z
Si Si1 0.050706 0.819352 0.547957
Si Si2 0.701849 0.687440 0.051879
Si Si3 0.382072 0.616218 0.050741
Si Si4 0.219657 0.435089 0.547517
Si Si5 0.456408 0.363356 0.447024
Si Si6 0.379414 0.485271 0.051605
Si Si7 0.228500 0.681639 0.451567
Si Si8 0.957367 0.561585 0.451881
O O1 0.030394 0.750000 0.500000
O O2 0.050057 0.820294 0.750000
O O3 0.140177 0.831554 0.489806
O O4 0.997269 0.875557 0.490359
O O5 0.695038 0.684498 0.250000
O O6 0.752742 0.631237 0.995743
O O7 0.738012 0.750000 0.000000
O O8 0.615399 0.680782 0.978172
O O9 0.372304 0.610456 0.250000
O O10 0.400904 0.549977 0.980788
O O11 0.300613 0.641951 0.984316
O O12 0.460171 0.653972 0.020479
O O13 0.221960 0.439157 0.750000
O O14 0.286975 0.477533 0.477022
O O15 0.131928 0.444565 0.489830
O O16 0.467022 0.369111 0.250000
O O17 0.424158 0.427261 0.519559
O O18 0.394167 0.484670 0.250000
O O19 0.244978 0.750000 0.500000
O O20 0.227115 0.676852 0.250000
O O21 0.956419 0.565015 0.250000
O O22 0.000000 0.500000 0.500000
#
# Coordination Sequence:
#
# PCOD9436667 Si02
#       8
#     8   8   8   8   8   8   8   8
#     4   9  19  37  59  81 110 148 188 230 278 334
#     4  10  20  36  57  78 107 144 181 224 273 324
#     4  10  20  33  52  76 103 139 181 223 272 322
#     4   9  20  37  54  79 112 142 175 221 272 324
#     4  10  20  34  51  77 108 138 179 224 271 325
#     4   9  19  34  54  77 104 140 181 220 265 328
#     4   9  19  35  53  74 101 135 176 219 264 317
#     4  10  22  38  58  87 120 151 187 233 286 341
#
# _framework density 20.926290999999999
#
# number of rings (size 3 to 8) (size 9 to 14) (size 15 to 20)
#    0.000    2.500    0.000    1.125    1.750    4.000 
#    0.000    1.250    0.000    0.000    0.000    0.000 
#    0.000    0.000    0.000    0.000    0.000    0.000 
#
# Total GULP energy -356962.962109 kJ/mol
# GULP energy per Si atom -5577.546283 kJ/mol
# Density = 2.087866 g / cm^3
# Si number density = 20.926291 Si / 1000 Ang^3
#
#
#
# Elastic Constant Matrix: (Units=GPa)
#
#
# Indices 1 2 3 4 5 6 
#
# 1 101.9681 28.8084 -2.5926 0.0000 0.0000 0.0000
# 2 28.8084 57.8462 -1.2943 0.0000 0.0000 0.0000
# 3 -2.5926 -1.2943 14.2535 0.0000 0.0000 0.0000
# 4 0.0000 0.0000 0.0000 24.7448 0.0000 0.0000
# 5 0.0000 0.0000 0.0000 0.0000 19.3663 0.0000
# 6 0.0000 0.0000 0.0000 0.0000 0.0000 6.7955
#
#
#
# Elastic Compliance Matrix: (Units=1/GPa)
#
#
# Indices 1 2 3 4 5 6 
#
# 1 0.011448 -0.005666 0.001568 0.000000 0.000000 0.000000
# 2 -0.005666 0.020127 0.000797 0.000000 0.000000 0.000000
# 3 0.001568 0.000797 0.070516 0.000000 0.000000 0.000000
# 4 0.000000 0.000000 0.000000 0.040412 0.000000 0.000000
# 5 0.000000 0.000000 0.000000 0.000000 0.051636 0.000000
# 6 0.000000 0.000000 0.000000 0.000000 0.000000 0.147156
#
#
# Mechanical properties :
#
#
# Convention : Reuss Voigt Hill
#
# Bulk Modulus (GPa) = 10.47254 24.87897 17.67576
# Shear Modulus (GPa) = 13.16735 20.12442 16.64589
#
# Velocity S-wave (km/s) = 2.51116 3.10446 2.82344
# Velocity P-wave (km/s) = 3.66377 4.97644 4.36968
#
# Compressibility (1/GPa) = 0.09548779
#
# Stress axis : x y z
#
# Youngs Moduli (GPa) = 87.35424 49.68490 14.18121
#
# Poissons Ratio (x) = 0.28152 -0.02223
# Poissons Ratio (y) = 0.49495 -0.01130
# Poissons Ratio (z) = -0.13695 -0.03960
#
# Static dielectric constant tensor:
#      x y z
#    x 1.752840 0.000000 0.000000 
#    y 0.000000 1.775930 0.000000 
#    z 0.000000 0.000000 1.748310 
# 
# From -- ./inp_files/5710.got.cif
#   From: 2010.05.17/outbox.cif.g08.bks.cpg/sg57_3_cif.got.tgz:5710.got - 2010.06.03 13:58:18.
