data_PCOD9436789
_publ_section_title
;
Structure prediction by ZEFSAII (Michael W. Deem and Ramdas Pophale) SiO2 
 PCOD9436789
Probable space group: P B C M
;
_chemical_formula_sum "Si O2"
_cell_formula_units_Z 40
_cell_length_a 15.275412
_cell_length_b 13.080925
_cell_length_c 9.189522
_cell_angle_alpha 90.000000
_cell_angle_beta 90.000000
_cell_angle_gamma 90.000000
_cell_volume 1836.218295
_symmetry_space_group_name_H-M "P B C M"
_symmetry_group_IT_number 57
_symmetry_cell_setting 'orthorhombic'
loop_
_space_group_symop_operation_xyz
x,y,z
-x,-y,1/2+z
x,1/2-y,-z
-x,1/2+y,1/2-z
-x,-y,-z
x,y,1/2-z
-x,1/2+y,z
x,1/2-y,1/2+z
loop_
_atom_site_type_symbol
_atom_site_label
_atom_site_fract_x
_atom_site_fract_y
_atom_site_fract_z
Si Si1 0.199506 0.582879 0.075230
Si Si2 0.969928 0.398023 0.082503
Si Si3 0.167144 0.346636 0.414601
Si Si4 0.566292 0.856310 0.078147
Si Si5 0.629073 0.060977 0.921320
O O1 0.199088 0.591567 0.250000
O O2 0.188873 0.461496 0.034831
O O3 0.114660 0.636831 0.006801
O O4 0.290570 0.614461 0.003566
O O5 0.944487 0.417655 0.250000
O O6 0.061051 0.337324 0.087316
O O7 0.000000 0.500000 0.000000
O O8 0.202936 0.250000 0.500000
O O9 0.198536 0.340563 0.250000
O O10 0.587433 0.855284 0.250000
O O11 0.462014 0.878188 0.065160
O O12 0.586480 0.750000 0.000000
O O13 0.612418 0.951568 0.998535
O O14 0.648332 0.048107 0.750000
#
# Coordination Sequence:
#
# PCOD9436789 Si02
#       5
#     8   8   8   8   8
#     4  10  20  34  52  76 104 136 175 218 264 317
#     4   9  17  31  49  70  96 129 169 209 252 304
#     4   9  19  32  48  72 101 133 171 214 260 311
#     4  10  21  38  60  84 111 144 182 224 274 333
#     4  10  21  37  58  84 112 144 182 226 276 329
#
# _framework density 21.783902000000001
#
# number of rings (size 3 to 8) (size 9 to 14) (size 15 to 20)
#    0.000    2.400    0.000    3.600    0.000    8.000 
#    0.000    3.000    0.000    0.000    0.000    0.000 
#    0.000    0.000    0.000    0.000    0.000    0.000 
#
# Total GULP energy -223340.258533 kJ/mol
# GULP energy per Si atom -5583.506463 kJ/mol
# Density = 2.173432 g / cm^3
# Si number density = 21.783902 Si / 1000 Ang^3
#
#
#
# Elastic Constant Matrix: (Units=GPa)
#
#
# Indices 1 2 3 4 5 6 
#
# 1 155.6526 -1.4468 49.6765 0.0000 0.0000 0.0000
# 2 -1.4468 76.0509 31.4370 0.0000 0.0000 0.0000
# 3 49.6765 31.4370 121.4212 0.0000 0.0000 0.0000
# 4 0.0000 0.0000 0.0000 22.8635 0.0000 0.0000
# 5 0.0000 0.0000 0.0000 0.0000 24.3811 0.0000
# 6 0.0000 0.0000 0.0000 0.0000 0.0000 -3.9653
#
#
#
# Elastic Compliance Matrix: (Units=1/GPa)
#
#
# Indices 1 2 3 4 5 6 
#
# 1 0.007558 0.001592 -0.003504 0.000000 0.000000 0.000000
# 2 0.001592 0.015061 -0.004551 0.000000 0.000000 0.000000
# 3 -0.003504 -0.004551 0.010848 0.000000 0.000000 0.000000
# 4 0.000000 0.000000 0.000000 0.043738 0.000000 0.000000
# 5 0.000000 0.000000 0.000000 0.000000 0.041015 0.000000
# 6 0.000000 0.000000 0.000000 0.000000 0.000000 -0.252187
#
#
# Mechanical properties :
#
#
# Convention : Reuss Voigt Hill
#
# Bulk Modulus (GPa) = 48.68424 56.93978 52.81201
# Shear Modulus (GPa) = -43.78485 26.88638 -8.44923
#
# Velocity S-wave (km/s) = -4.48813 3.51697 -1.97157
# Velocity P-wave (km/s) = 2.11198 6.53356 4.37189
#
# Compressibility (1/GPa) = 0.02054053
#
# Stress axis : x y z
#
# Youngs Moduli (GPa) = 132.31395 66.39870 92.18500
#
# Poissons Ratio (x) = -0.10573 0.32305
# Poissons Ratio (y) = -0.21069 0.41951
# Poissons Ratio (z) = 0.46368 0.30217
#
# Static dielectric constant tensor:
#      x y z
#    x 1.809410 0.000000 0.000000 
#    y 0.000000 1.769740 0.000000 
#    z 0.000000 0.000000 1.738650 
# 
# From -- ./inp_files/4267.got.cif
#   From: 2010.05.17/outbox.cif.g08.bks.cpg/sg57_3_cif.got.tgz:4267.got - 2010.06.03 13:58:18.
