data_PCOD9436625
_publ_section_title
;
Structure prediction by ZEFSAII (Michael W. Deem and Ramdas Pophale) SiO2 
 PCOD9436625
Probable space group: P B C M
;
_chemical_formula_sum "Si O2"
_cell_formula_units_Z 48
_cell_length_a 7.542787
_cell_length_b 32.390567
_cell_length_c 9.350006
_cell_angle_alpha 90.000000
_cell_angle_beta 90.000000
_cell_angle_gamma 90.000000
_cell_volume 2284.348097
_symmetry_space_group_name_H-M "P B C M"
_symmetry_group_IT_number 57
_symmetry_cell_setting 'orthorhombic'
loop_
_space_group_symop_operation_xyz
x,y,z
-x,-y,1/2+z
x,1/2-y,-z
-x,1/2+y,1/2-z
-x,-y,-z
x,y,1/2-z
-x,1/2+y,z
x,1/2-y,1/2+z
loop_
_atom_site_type_symbol
_atom_site_label
_atom_site_fract_x
_atom_site_fract_y
_atom_site_fract_z
Si Si1 0.208782 0.788524 0.909403
Si Si2 0.304956 0.451942 0.580511
Si Si3 0.712253 0.628036 0.913178
Si Si4 0.680142 0.457781 0.420844
Si Si5 0.715573 0.131224 0.589779
Si Si6 0.214693 0.289159 0.588140
O O1 0.282363 0.788058 0.750000
O O2 0.996912 0.783316 0.900787
O O3 0.279528 0.750000 0.000000
O O4 0.239936 0.832295 0.983500
O O5 0.302832 0.443201 0.750000
O O6 0.227321 0.413661 0.492603
O O7 0.507594 0.456151 0.522613
O O8 0.227977 0.497976 0.556110
O O9 0.777371 0.630115 0.750000
O O10 0.497793 0.626905 0.907869
O O11 0.757709 0.668696 0.002072
O O12 0.628696 0.457090 0.250000
O O13 0.782332 0.414896 0.446427
O O14 0.775147 0.142420 0.750000
O O15 0.286241 0.250000 0.500000
O O16 0.284921 0.291414 0.750000
#
# Coordination Sequence:
#
# PCOD9436625 Si02
#       6
#     8   8   8   8   8   8
#     4  10  21  36  54  74  96 126 164 202 243 294
#     4   9  15  25  44  69  98 131 164 200 241 286
#     4  10  20  33  50  75 104 132 164 203 246 290
#     4   8  15  27  43  67  99 132 164 198 240 290
#     4   9  18  32  50  74 103 131 161 199 242 287
#     4  10  21  37  55  74  96 126 164 203 245 295
#
# _framework density 21.012560000000001
#
# number of rings (size 3 to 8) (size 9 to 14) (size 15 to 20)
#    0.000    2.667    0.000    3.000    0.000    6.667 
#    0.000    0.000    0.000    1.000    0.000    0.000 
#    0.000    0.000    0.000    0.000    0.000    0.000 
#
# Total GULP energy -267718.896362 kJ/mol
# GULP energy per Si atom -5577.477008 kJ/mol
# Density = 2.096473 g / cm^3
# Si number density = 21.012560 Si / 1000 Ang^3
#
#
#
# Elastic Constant Matrix: (Units=GPa)
#
#
# Indices 1 2 3 4 5 6 
#
# 1 41.6125 -0.4915 9.3047 0.0000 0.0000 0.0000
# 2 -0.4915 223.4232 137.8933 0.0000 0.0000 0.0000
# 3 9.3047 137.8933 180.4009 0.0000 0.0000 0.0000
# 4 0.0000 0.0000 0.0000 40.0296 0.0000 0.0000
# 5 0.0000 0.0000 0.0000 0.0000 13.0877 0.0000
# 6 0.0000 0.0000 0.0000 0.0000 0.0000 34.5573
#
#
#
# Elastic Compliance Matrix: (Units=1/GPa)
#
#
# Indices 1 2 3 4 5 6 
#
# 1 0.024605 0.001585 -0.002481 0.000000 0.000000 0.000000
# 2 0.001585 0.008575 -0.006636 0.000000 0.000000 0.000000
# 3 -0.002481 -0.006636 0.010744 0.000000 0.000000 0.000000
# 4 0.000000 0.000000 0.000000 0.024982 0.000000 0.000000
# 5 0.000000 0.000000 0.000000 0.000000 0.076408 0.000000
# 6 0.000000 0.000000 0.000000 0.000000 0.000000 0.028937
#
#
# Mechanical properties :
#
#
# Convention : Reuss Voigt Hill
#
# Bulk Modulus (GPa) = 34.65026 82.09439 58.37233
# Shear Modulus (GPa) = 25.13396 37.45026 31.29211
#
# Velocity S-wave (km/s) = 3.46228 4.22629 3.86321
# Velocity P-wave (km/s) = 5.70168 7.93532 6.90936
#
# Compressibility (1/GPa) = 0.02885981
#
# Stress axis : x y z
#
# Youngs Moduli (GPa) = 40.64271 116.61578 93.07676
#
# Poissons Ratio (x) = -0.18486 0.23090
# Poissons Ratio (y) = -0.06443 0.61769
# Poissons Ratio (z) = 0.10082 0.77391
#
# Static dielectric constant tensor:
#      x y z
#    x 1.784800 0.000000 0.000000 
#    y 0.000000 1.776560 0.000000 
#    z 0.000000 0.000000 1.739840 
# 
# From -- ./inp_files/2003.got.cif
#   From: 2010.05.17/outbox.cif.g08.bks.cpg/sg57_2_cif.got.tgz:2003.got - 2010.06.03 13:58:18.
