data_PCOD9436124
_publ_section_title
;
Structure prediction by ZEFSAII (Michael W. Deem and Ramdas Pophale) SiO2 
 PCOD9436124
Probable space group: P B C M
;
_chemical_formula_sum "Si O2"
_cell_formula_units_Z 64
_cell_length_a 9.327965
_cell_length_b 19.830909
_cell_length_c 17.998799
_cell_angle_alpha 90.000000
_cell_angle_beta 90.000000
_cell_angle_gamma 90.000000
_cell_volume 3329.454288
_symmetry_space_group_name_H-M "P B C M"
_symmetry_group_IT_number 57
_symmetry_cell_setting 'orthorhombic'
loop_
_space_group_symop_operation_xyz
x,y,z
-x,-y,1/2+z
x,1/2-y,-z
-x,1/2+y,1/2-z
-x,-y,-z
x,y,1/2-z
-x,1/2+y,z
x,1/2-y,1/2+z
loop_
_atom_site_type_symbol
_atom_site_label
_atom_site_fract_x
_atom_site_fract_y
_atom_site_fract_z
Si Si1 0.860813 0.511128 0.050013
Si Si2 0.260860 0.273122 0.573080
Si Si3 0.376195 0.588721 0.601236
Si Si4 0.055069 0.371412 0.660301
Si Si5 0.532956 0.269540 0.339977
Si Si6 0.607990 0.596219 0.477763
Si Si7 0.509211 0.463585 0.666942
Si Si8 0.269188 0.856896 0.838477
O O1 0.776439 0.445707 0.082367
O O2 0.903343 0.559402 0.118863
O O3 0.745699 0.552650 0.999412
O O4 0.000000 0.500000 0.000000
O O5 0.170901 0.250000 0.500000
O O6 0.160782 0.313911 0.629590
O O7 0.374846 0.231128 0.622359
O O8 0.359329 0.325905 0.527487
O O9 0.381727 0.664375 0.631823
O O10 0.469072 0.583587 0.525990
O O11 0.469878 0.541417 0.656750
O O12 0.062165 0.377108 0.750000
O O13 0.893110 0.353316 0.635002
O O14 0.520850 0.269937 0.250000
O O15 0.621415 0.201889 0.363490
O O16 0.586507 0.572356 0.393807
O O17 0.472939 0.441994 0.750000
O O18 0.664656 0.431701 0.650029
O O19 0.260937 0.847564 0.750000
#
# Coordination Sequence:
#
# PCOD9436124 Si02
#       8
#     8   8   8   8   8   8   8   8
#     4  10  23  38  60  89 123 162 203 257 317 375
#     4  11  21  39  59  91 123 159 202 253 312 378
#     4  11  23  38  58  92 129 155 198 261 323 374
#     4  10  23  42  64  88 119 165 218 258 301 378
#     4  11  22  39  65  92 123 160 206 262 321 369
#     4  10  21  37  59  84 118 156 200 252 297 370
#     4  10  19  34  61  89 114 154 205 255 304 362
#     4   9  20  38  62  89 116 156 210 255 295 366
#
# _framework density 19.222369
#
# number of rings (size 3 to 8) (size 9 to 14) (size 15 to 20)
#    0.000    1.750    2.500    2.250    3.500    5.000 
#    4.500    0.000    0.000    0.000    0.000    0.000 
#    0.000    0.000    0.000    0.000    0.000    0.000 
#
# Total GULP energy -356306.501113 kJ/mol
# GULP energy per Si atom -5567.289080 kJ/mol
# Density = 1.917862 g / cm^3
# Si number density = 19.222369 Si / 1000 Ang^3
#
#
#
# Elastic Constant Matrix: (Units=GPa)
#
#
# Indices 1 2 3 4 5 6 
#
# 1 106.3701 32.5915 41.1805 0.0000 0.0000 0.0000
# 2 32.5915 64.9708 17.5020 0.0000 0.0000 0.0000
# 3 41.1805 17.5020 98.5832 0.0000 0.0000 0.0000
# 4 0.0000 0.0000 0.0000 19.8083 0.0000 0.0000
# 5 0.0000 0.0000 0.0000 0.0000 27.4645 0.0000
# 6 0.0000 0.0000 0.0000 0.0000 0.0000 22.7279
#
#
#
# Elastic Compliance Matrix: (Units=1/GPa)
#
#
# Indices 1 2 3 4 5 6 
#
# 1 0.012684 -0.005183 -0.004378 0.000000 0.000000 0.000000
# 2 -0.005183 0.018283 -0.001081 0.000000 0.000000 0.000000
# 3 -0.004378 -0.001081 0.012164 0.000000 0.000000 0.000000
# 4 0.000000 0.000000 0.000000 0.050484 0.000000 0.000000
# 5 0.000000 0.000000 0.000000 0.000000 0.036411 0.000000
# 6 0.000000 0.000000 0.000000 0.000000 0.000000 0.043999
#
#
# Mechanical properties :
#
#
# Convention : Reuss Voigt Hill
#
# Bulk Modulus (GPa) = 45.77299 50.27469 48.02384
# Shear Modulus (GPa) = 24.68014 25.91015 25.29515
#
# Velocity S-wave (km/s) = 3.58708 3.67538 3.63150
# Velocity P-wave (km/s) = 6.40471 6.64998 6.52850
#
# Compressibility (1/GPa) = 0.02184695
#
# Stress axis : x y z
#
# Youngs Moduli (GPa) = 78.83717 54.69611 82.20654
#
# Poissons Ratio (x) = 0.28352 0.35993
# Poissons Ratio (y) = 0.40865 0.08883
# Poissons Ratio (z) = 0.34517 0.05910
#
# Static dielectric constant tensor:
#      x y z
#    x 1.694020 0.000000 0.000000 
#    y 0.000000 1.817250 0.000000 
#    z 0.000000 0.000000 1.707580 
# 
# From -- ./inp_files/21401.got.cif
#   From: 2010.05.17/outbox.cif.g08.bks.cpg/sg57_11_cif.got.tgz:21401.got - 2010.06.03 13:58:18.
