data_PCOD9436590
_publ_section_title
;
Structure prediction by ZEFSAII (Michael W. Deem and Ramdas Pophale) SiO2 
 PCOD9436590
Probable space group: P B C M
;
_chemical_formula_sum "Si O2"
_cell_formula_units_Z 56
_cell_length_a 21.379216
_cell_length_b 14.933335
_cell_length_c 8.866920
_cell_angle_alpha 90.000000
_cell_angle_beta 90.000000
_cell_angle_gamma 90.000000
_cell_volume 2830.879432
_symmetry_space_group_name_H-M "P B C M"
_symmetry_group_IT_number 57
_symmetry_cell_setting 'orthorhombic'
loop_
_space_group_symop_operation_xyz
x,y,z
-x,-y,1/2+z
x,1/2-y,-z
-x,1/2+y,1/2-z
-x,-y,-z
x,y,1/2-z
-x,1/2+y,z
x,1/2-y,1/2+z
loop_
_atom_site_type_symbol
_atom_site_label
_atom_site_fract_x
_atom_site_fract_y
_atom_site_fract_z
Si Si1 0.651600 0.105424 0.579148
Si Si2 0.767906 0.027561 0.070470
Si Si3 0.090127 0.520481 0.069257
Si Si4 0.024917 0.350499 0.931398
Si Si5 0.591833 0.908427 0.580222
Si Si6 0.276697 0.158632 0.068695
Si Si7 0.520357 0.339317 0.429193
O O1 0.663164 0.138196 0.750000
O O2 0.716172 0.096865 0.490882
O O3 0.590800 0.151961 0.507877
O O4 0.624305 0.004877 0.590065
O O5 0.760835 0.020049 0.250000
O O6 0.839463 0.050689 0.034311
O O7 0.754550 0.930518 0.997105
O O8 0.085001 0.506723 0.250000
O O9 0.040387 0.598207 0.028455
O O10 0.074281 0.425165 0.991181
O O11 0.029314 0.343565 0.750000
O O12 0.029849 0.250000 0.000000
O O13 0.572461 0.882348 0.750000
O O14 0.649586 0.848018 0.526802
O O15 0.531521 0.910734 0.475896
O O16 0.272617 0.158180 0.250000
O O17 0.250256 0.250000 0.000000
O O18 0.492506 0.250000 0.500000
O O19 0.525705 0.337221 0.250000
#
# Coordination Sequence:
#
# PCOD9436590 Si02
#       7
#     8   8   8   8   8   8   8
#     4   9  20  37  53  72  99 131 169 211 256 310
#     4  10  20  35  56  78 103 138 177 217 260 308
#     4   9  20  38  58  84 116 148 185 225 266 316
#     4  10  20  36  60  88 118 150 183 222 267 315
#     4   9  18  33  52  72  95 125 164 212 263 316
#     4  10  20  33  49  73 105 138 175 218 266 321
#     4  11  22  34  50  72  98 128 165 212 263 312
#
# _framework density 19.781838
#
# number of rings (size 3 to 8) (size 9 to 14) (size 15 to 20)
#    0.000    2.286    0.000    3.429    0.000    7.429 
#    0.000    0.714    0.000    3.429    0.000    0.000 
#    0.000    0.000    0.000    0.000    0.000    0.000 
#
# Total GULP energy -312097.980373 kJ/mol
# GULP energy per Si atom -5573.178221 kJ/mol
# Density = 1.973681 g / cm^3
# Si number density = 19.781838 Si / 1000 Ang^3
#
#
#
# Elastic Constant Matrix: (Units=GPa)
#
#
# Indices 1 2 3 4 5 6 
#
# 1 105.3110 -7.1398 38.8519 0.0000 0.0000 0.0000
# 2 -7.1398 33.2620 0.2568 0.0000 0.0000 0.0000
# 3 38.8519 0.2568 36.9778 0.0000 0.0000 0.0000
# 4 0.0000 0.0000 0.0000 17.9861 0.0000 0.0000
# 5 0.0000 0.0000 0.0000 0.0000 56.6383 0.0000
# 6 0.0000 0.0000 0.0000 0.0000 0.0000 16.0440
#
#
#
# Elastic Compliance Matrix: (Units=1/GPa)
#
#
# Indices 1 2 3 4 5 6 
#
# 1 0.015914 0.003545 -0.016745 0.000000 0.000000 0.000000
# 2 0.003545 0.030856 -0.003939 0.000000 0.000000 0.000000
# 3 -0.016745 -0.003939 0.044664 0.000000 0.000000 0.000000
# 4 0.000000 0.000000 0.000000 0.055599 0.000000 0.000000
# 5 0.000000 0.000000 0.000000 0.000000 0.017656 0.000000
# 6 0.000000 0.000000 0.000000 0.000000 0.000000 0.062328
#
#
# Mechanical properties :
#
#
# Convention : Reuss Voigt Hill
#
# Bulk Modulus (GPa) = 17.49599 26.60985 22.05292
# Shear Modulus (GPa) = 17.83514 27.70581 22.77047
#
# Velocity S-wave (km/s) = 3.00591 3.74648 3.39644
# Velocity P-wave (km/s) = 4.57285 5.67412 5.15299
#
# Compressibility (1/GPa) = 0.05715595
#
# Stress axis : x y z
#
# Youngs Moduli (GPa) = 62.83940 32.40889 22.38942
#
# Poissons Ratio (x) = -0.11489 0.37490
# Poissons Ratio (y) = -0.22278 0.08819
# Poissons Ratio (z) = 1.05223 0.12766
#
# Static dielectric constant tensor:
#      x y z
#    x 1.724820 0.000000 0.000000 
#    y 0.000000 1.769490 0.000000 
#    z 0.000000 0.000000 1.688900 
# 
# From -- ./inp_files/8165.got.cif
#   From: 2010.05.17/outbox.cif.g08.bks.cpg/sg57_5_cif.got.tgz:8165.got - 2010.06.03 13:58:18.
