data_PCOD9436486
_publ_section_title
;
Structure prediction by ZEFSAII (Michael W. Deem and Ramdas Pophale) SiO2 
 PCOD9436486
Probable space group: P B C M
;
_chemical_formula_sum "Si O2"
_cell_formula_units_Z 56
_cell_length_a 20.656386
_cell_length_b 14.043635
_cell_length_c 8.774642
_cell_angle_alpha 90.000000
_cell_angle_beta 90.000000
_cell_angle_gamma 90.000000
_cell_volume 2545.442438
_symmetry_space_group_name_H-M "P B C M"
_symmetry_group_IT_number 57
_symmetry_cell_setting 'orthorhombic'
loop_
_space_group_symop_operation_xyz
x,y,z
-x,-y,1/2+z
x,1/2-y,-z
-x,1/2+y,1/2-z
-x,-y,-z
x,y,1/2-z
-x,1/2+y,z
x,1/2-y,1/2+z
loop_
_atom_site_type_symbol
_atom_site_label
_atom_site_fract_x
_atom_site_fract_y
_atom_site_fract_z
Si Si1 0.422998 0.107781 0.922300
Si Si2 0.843943 0.938883 0.433311
Si Si3 0.447077 0.879795 0.580058
Si Si4 0.118168 0.845494 0.568915
Si Si5 0.316571 0.652778 0.573124
Si Si6 0.014075 0.396089 0.066540
Si Si7 0.290095 0.061936 0.067211
O O1 0.425020 0.145672 0.750000
O O2 0.438828 0.994399 0.913153
O O3 0.480795 0.144847 0.027978
O O4 0.351706 0.114438 0.993941
O O5 0.835994 0.938602 0.250000
O O6 0.855352 0.050414 0.480715
O O7 0.779504 0.901677 0.513214
O O8 0.909975 0.881006 0.467893
O O9 0.432266 0.843424 0.750000
O O10 0.393635 0.848910 0.458652
O O11 0.148806 0.750000 0.500000
O O12 0.123003 0.842117 0.750000
O O13 0.043185 0.842580 0.518101
O O14 0.292020 0.750000 0.500000
O O15 0.301898 0.655300 0.750000
O O16 0.293338 0.549656 0.513456
O O17 0.005882 0.391859 0.250000
O O18 0.000000 0.500000 0.000000
O O19 0.296145 0.063488 0.250000
#
# Coordination Sequence:
#
# PCOD9436486 Si02
#       7
#     8   8   8   8   8   8   8
#     4   9  16  27  44  64  87 113 143 184 228 267
#     4   9  19  33  48  68  96 129 162 196 239 288
#     4   9  16  27  44  64  85 111 145 186 228 267
#     4  10  20  33  50  73  99 128 162 201 243 288
#     4  10  20  32  44  62  89 122 158 192 230 275
#     4   9  17  31  50  71  95 124 159 200 243 287
#     4  10  20  31  45  66  92 123 158 193 229 274
#
# _framework density 22.000105000000001
#
# number of rings (size 3 to 8) (size 9 to 14) (size 15 to 20)
#    0.000    2.571    0.000    3.429    0.000    9.143 
#    0.000    2.857    0.000    0.000    0.000    1.000 
#    0.000    4.571    0.000    0.000    0.000    0.000 
#
# Total GULP energy -312418.376412 kJ/mol
# GULP energy per Si atom -5578.899579 kJ/mol
# Density = 2.195003 g / cm^3
# Si number density = 22.000105 Si / 1000 Ang^3
#
#
#
# Elastic Constant Matrix: (Units=GPa)
#
#
# Indices 1 2 3 4 5 6 
#
# 1 146.0697 -17.7585 13.5752 0.0000 0.0000 0.0000
# 2 -17.7585 25.9373 -11.0099 0.0000 0.0000 0.0000
# 3 13.5752 -11.0099 34.5927 0.0000 0.0000 0.0000
# 4 0.0000 0.0000 0.0000 14.2942 0.0000 0.0000
# 5 0.0000 0.0000 0.0000 0.0000 23.0602 0.0000
# 6 0.0000 0.0000 0.0000 0.0000 0.0000 -6.8684
#
#
#
# Elastic Compliance Matrix: (Units=1/GPa)
#
#
# Indices 1 2 3 4 5 6 
#
# 1 0.007536 0.004514 -0.001521 0.000000 0.000000 0.000000
# 2 0.004514 0.047281 0.013277 0.000000 0.000000 0.000000
# 3 -0.001521 0.013277 0.033730 0.000000 0.000000 0.000000
# 4 0.000000 0.000000 0.000000 0.069958 0.000000 0.000000
# 5 0.000000 0.000000 0.000000 0.000000 0.043365 0.000000
# 6 0.000000 0.000000 0.000000 0.000000 0.000000 -0.145595
#
#
# Mechanical properties :
#
#
# Convention : Reuss Voigt Hill
#
# Bulk Modulus (GPa) = 8.25844 19.57924 13.91884
# Shear Modulus (GPa) = 78.00595 20.88341 49.44468
#
# Velocity S-wave (km/s) = 5.96104 3.08432 4.74590
# Velocity P-wave (km/s) = 7.15127 4.64790 6.03091
#
# Compressibility (1/GPa) = 0.12108824
#
# Stress axis : x y z
#
# Youngs Moduli (GPa) = 132.69279 21.15009 29.64707
#
# Poissons Ratio (x) = -0.09548 0.04508
# Poissons Ratio (y) = -0.59902 -0.39361
# Poissons Ratio (z) = 0.20178 -0.28080
#
# Static dielectric constant tensor:
#      x y z
#    x 1.808810 0.000000 0.000000 
#    y 0.000000 1.842680 0.000000 
#    z 0.000000 0.000000 1.749020 
# 
# From -- ./inp_files/7006.got.cif
#   From: 2010.05.17/outbox.cif.g08.bks.cpg/sg57_4_cif.got.tgz:7006.got - 2010.06.03 13:58:18.
