data_PCOD9436703
_publ_section_title
;
Structure prediction by ZEFSAII (Michael W. Deem and Ramdas Pophale) SiO2 
 PCOD9436703
Probable space group: P B C M
;
_chemical_formula_sum "Si O2"
_cell_formula_units_Z 64
_cell_length_a 12.838399
_cell_length_b 14.558974
_cell_length_c 19.251343
_cell_angle_alpha 90.000000
_cell_angle_beta 90.000000
_cell_angle_gamma 90.000000
_cell_volume 3598.343932
_symmetry_space_group_name_H-M "P B C M"
_symmetry_group_IT_number 57
_symmetry_cell_setting 'orthorhombic'
loop_
_space_group_symop_operation_xyz
x,y,z
-x,-y,1/2+z
x,1/2-y,-z
-x,1/2+y,1/2-z
-x,-y,-z
x,y,1/2-z
-x,1/2+y,z
x,1/2-y,1/2+z
loop_
_atom_site_type_symbol
_atom_site_label
_atom_site_fract_x
_atom_site_fract_y
_atom_site_fract_z
Si Si1 0.774742 0.351284 0.002562
Si Si2 0.086558 0.828866 0.362162
Si Si3 0.382638 0.483272 0.022600
Si Si4 0.094226 0.464032 0.825789
Si Si5 0.287258 0.031114 0.828501
Si Si6 0.128668 0.870810 0.645092
Si Si7 0.852349 0.826627 0.093278
Si Si8 0.782614 0.628596 0.448465
O O1 0.842593 0.351306 0.071467
O O2 0.725083 0.250000 0.000000
O O3 0.689147 0.429659 0.997154
O O4 0.852606 0.363274 0.937627
O O5 0.129116 0.734517 0.329205
O O6 0.969046 0.805120 0.384688
O O7 0.082799 0.926032 0.324026
O O8 0.366582 0.469281 0.105830
O O9 0.500000 0.500000 0.000000
O O10 0.329368 0.401403 0.978084
O O11 0.131929 0.431965 0.750000
O O12 0.170761 0.433763 0.887563
O O13 0.980943 0.419029 0.838820
O O14 0.327476 0.045643 0.750000
O O15 0.204837 0.110021 0.850653
O O16 0.221921 0.935971 0.829441
O O17 0.790725 0.732406 0.079197
O O18 0.852775 0.877896 0.018587
#
# Coordination Sequence:
#
# PCOD9436703 Si02
#       8
#     8   8   8   8   8   8   8   8
#     4   9  19  34  57  86 110 143 192 247 282 331
#     4  11  20  32  53  82 118 156 193 224 275 345
#     4  10  21  41  65  85 106 147 198 250 298 331
#     4  12  23  32  48  78 118 162 190 225 281 344
#     4  10  21  38  58  85 116 147 187 236 289 344
#     4  10  20  33  53  81 114 156 192 225 275 344
#     4  10  20  33  59  86 114 151 184 225 282 343
#     4  10  21  38  54  83 113 146 194 241 282 341
#
# _framework density 17.785959999999999
#
# number of rings (size 3 to 8) (size 9 to 14) (size 15 to 20)
#    0.000    1.750    3.750    1.125    3.500    2.500 
#    4.500    0.625    0.000    0.000    0.000    0.000 
#    0.000    0.000    0.000    0.000    0.000    0.000 
#
# Total GULP energy -356838.150190 kJ/mol
# GULP energy per Si atom -5575.596097 kJ/mol
# Density = 1.774548 g / cm^3
# Si number density = 17.785960 Si / 1000 Ang^3
#
#
#
# Elastic Constant Matrix: (Units=GPa)
#
#
# Indices 1 2 3 4 5 6 
#
# 1 80.9632 25.9905 50.8028 0.0000 0.0000 0.0000
# 2 25.9905 109.4358 43.8997 0.0000 0.0000 0.0000
# 3 50.8028 43.8997 127.4603 0.0000 0.0000 0.0000
# 4 0.0000 0.0000 0.0000 -24.5815 0.0000 0.0000
# 5 0.0000 0.0000 0.0000 0.0000 3.1295 0.0000
# 6 0.0000 0.0000 0.0000 0.0000 0.0000 15.3567
#
#
#
# Elastic Compliance Matrix: (Units=1/GPa)
#
#
# Indices 1 2 3 4 5 6 
#
# 1 0.016681 -0.001502 -0.006131 0.000000 0.000000 0.000000
# 2 -0.001502 0.010738 -0.003100 0.000000 0.000000 0.000000
# 3 -0.006131 -0.003100 0.011357 0.000000 0.000000 0.000000
# 4 0.000000 0.000000 0.000000 -0.040681 0.000000 0.000000
# 5 0.000000 0.000000 0.000000 0.000000 0.319535 0.000000
# 6 0.000000 0.000000 0.000000 0.000000 0.000000 0.065118
#
#
# Mechanical properties :
#
#
# Convention : Reuss Voigt Hill
#
# Bulk Modulus (GPa) = 57.77116 62.13836 59.95476
# Shear Modulus (GPa) = 12.19560 11.92535 12.06047
#
# Velocity S-wave (km/s) = 2.62140 2.59220 2.60684
# Velocity P-wave (km/s) = 6.45865 6.63113 6.54546
#
# Compressibility (1/GPa) = 0.01730967
#
# Stress axis : x y z
#
# Youngs Moduli (GPa) = 59.94956 93.12789 88.05204
#
# Poissons Ratio (x) = 0.13989 0.53986
# Poissons Ratio (y) = 0.09005 0.27293
# Poissons Ratio (z) = 0.36756 0.28866
#
# Static dielectric constant tensor:
#      x y z
#    x 1.549890 0.000000 0.000000 
#    y 0.000000 1.663650 0.000000 
#    z 0.000000 0.000000 1.626370 
# 
# From -- ./inp_files/22077.got.cif
#   From: 2010.05.17/outbox.cif.g08.bks.cpg/sg57_12_cif.got.tgz:22077.got - 2010.06.03 13:58:18.
