data_PCOD9436062
_publ_section_title
;
Structure prediction by ZEFSAII (Michael W. Deem and Ramdas Pophale) SiO2 
 PCOD9436062
Probable space group: P B C M
;
_chemical_formula_sum "Si O2"
_cell_formula_units_Z 48
_cell_length_a 32.300531
_cell_length_b 9.222407
_cell_length_c 8.528288
_cell_angle_alpha 90.000000
_cell_angle_beta 90.000000
_cell_angle_gamma 90.000000
_cell_volume 2540.480141
_symmetry_space_group_name_H-M "P B C M"
_symmetry_group_IT_number 57
_symmetry_cell_setting 'orthorhombic'
loop_
_space_group_symop_operation_xyz
x,y,z
-x,-y,1/2+z
x,1/2-y,-z
-x,1/2+y,1/2-z
-x,-y,-z
x,y,1/2-z
-x,1/2+y,z
x,1/2-y,1/2+z
loop_
_atom_site_type_symbol
_atom_site_label
_atom_site_fract_x
_atom_site_fract_y
_atom_site_fract_z
Si Si1 0.289021 0.914819 0.938845
Si Si2 0.119107 0.413465 0.937134
Si Si3 0.620885 0.085239 0.439644
Si Si4 0.960235 0.413731 0.562718
Si Si5 0.539556 0.912887 0.061531
Si Si6 0.801822 0.415773 0.560791
O O1 0.288929 0.913608 0.750000
O O2 0.333787 0.975418 0.989416
O O3 0.244032 0.973945 0.986897
O O4 0.289250 0.750000 0.000000
O O5 0.116742 0.412821 0.750000
O O6 0.116865 0.250000 0.000000
O O7 0.080971 0.505692 0.004560
O O8 0.161611 0.488426 0.991581
O O9 0.616953 0.250000 0.500000
O O10 0.620275 0.089646 0.250000
O O11 0.581946 0.990839 0.492244
O O12 0.960876 0.250000 0.500000
O O13 0.961009 0.412046 0.750000
O O14 0.000000 0.500000 0.500000
O O15 0.538856 0.912921 0.250000
O O16 0.538088 0.750000 0.000000
O O17 0.500000 0.000000 0.000000
O O18 0.805517 0.250000 0.500000
O O19 0.804574 0.414496 0.750000
#
# Coordination Sequence:
#
# PCOD9436062 Si02
#       6
#     8   8   8   8   8   8
#     4   8  15  29  51  78 109 142 181 225 273 326
#     4  12  25  42  61  85 117 155 196 240 288 340
#     4   9  18  33  54  80 108 141 179 224 273 328
#     4  12  25  44  67  94 124 157 195 237 285 338
#     4  11  23  38  56  78 107 141 181 225 275 330
#     4  10  19  34  57  85 115 150 190 235 281 332
#
# _framework density 18.894065999999999
#
# number of rings (size 3 to 8) (size 9 to 14) (size 15 to 20)
#    0.000    1.667    0.000    5.500    0.000    3.333 
#    0.000    0.833    0.000    2.000    0.000    0.000 
#    0.000    0.000    0.000    0.000    0.000    0.000 
#
# Total GULP energy -268030.805478 kJ/mol
# GULP energy per Si atom -5583.975114 kJ/mol
# Density = 1.885106 g / cm^3
# Si number density = 18.894066 Si / 1000 Ang^3
#
#
#
# Elastic Constant Matrix: (Units=GPa)
#
#
# Indices 1 2 3 4 5 6 
#
# 1 238.0696 108.1750 64.0275 0.0000 0.0000 0.0000
# 2 108.1750 134.8535 46.4855 0.0000 0.0000 0.0000
# 3 64.0275 46.4855 105.8857 0.0000 0.0000 0.0000
# 4 0.0000 0.0000 0.0000 32.5549 0.0000 0.0000
# 5 0.0000 0.0000 0.0000 0.0000 26.0693 0.0000
# 6 0.0000 0.0000 0.0000 0.0000 0.0000 33.6378
#
#
#
# Elastic Compliance Matrix: (Units=1/GPa)
#
#
# Indices 1 2 3 4 5 6 
#
# 1 0.006976 -0.004881 -0.002076 0.000000 0.000000 0.000000
# 2 -0.004881 0.012152 -0.002384 0.000000 0.000000 0.000000
# 3 -0.002076 -0.002384 0.011746 0.000000 0.000000 0.000000
# 4 0.000000 0.000000 0.000000 0.030717 0.000000 0.000000
# 5 0.000000 0.000000 0.000000 0.000000 0.038359 0.000000
# 6 0.000000 0.000000 0.000000 0.000000 0.000000 0.029728
#
#
# Mechanical properties :
#
#
# Convention : Reuss Voigt Hill
#
# Bulk Modulus (GPa) = 82.00751 101.79833 91.90292
# Shear Modulus (GPa) = 32.80301 35.79380 34.29840
#
# Velocity S-wave (km/s) = 4.17124 4.35725 4.26526
# Velocity P-wave (km/s) = 8.16683 8.90559 8.54420
#
# Compressibility (1/GPa) = 0.01219400
#
# Stress axis : x y z
#
# Youngs Moduli (GPa) = 143.33929 82.28893 85.13614
#
# Poissons Ratio (x) = 0.40163 0.17673
# Poissons Ratio (y) = 0.69960 0.20294
# Poissons Ratio (z) = 0.29755 0.19616
#
# Static dielectric constant tensor:
#      x y z
#    x 1.689310 0.000000 0.000000 
#    y 0.000000 1.598670 0.000000 
#    z 0.000000 0.000000 1.642300 
# 
# From -- ./inp_files/9952.got.cif
#   From: 2010.05.17/outbox.cif.g08.bks.cpg/sg57_5_cif.got.tgz:9952.got - 2010.06.03 13:58:18.
