data_PCOD9436836
_publ_section_title
;
Structure prediction by ZEFSAII (Michael W. Deem and Ramdas Pophale) SiO2 
 PCOD9436836
Probable space group: P B C M
;
_chemical_formula_sum "Si O2"
_cell_formula_units_Z 48
_cell_length_a 31.902262
_cell_length_b 9.546800
_cell_length_c 8.811615
_cell_angle_alpha 90.000000
_cell_angle_beta 90.000000
_cell_angle_gamma 90.000000
_cell_volume 2683.705248
_symmetry_space_group_name_H-M "P B C M"
_symmetry_group_IT_number 57
_symmetry_cell_setting 'orthorhombic'
loop_
_space_group_symop_operation_xyz
x,y,z
-x,-y,1/2+z
x,1/2-y,-z
-x,1/2+y,1/2-z
-x,-y,-z
x,y,1/2-z
-x,1/2+y,z
x,1/2-y,1/2+z
loop_
_atom_site_type_symbol
_atom_site_label
_atom_site_fract_x
_atom_site_fract_y
_atom_site_fract_z
Si Si1 0.204419 0.405010 0.931989
Si Si2 0.370513 0.593338 0.068414
Si Si3 0.536612 0.093791 0.431889
Si Si4 0.964170 0.403887 0.568887
Si Si5 0.868427 0.094403 0.431851
Si Si6 0.714993 0.406270 0.068451
O O1 0.201209 0.397342 0.750000
O O2 0.245763 0.495920 0.969991
O O3 0.207032 0.250000 0.000000
O O4 0.164677 0.487779 0.998202
O O5 0.365988 0.900402 0.750000
O O6 0.328506 0.530991 0.996287
O O7 0.371628 0.750000 0.000000
O O8 0.416665 0.533988 0.032935
O O9 0.534002 0.250000 0.500000
O O10 0.532994 0.101873 0.250000
O O11 0.500000 0.000000 0.500000
O O12 0.968807 0.250000 0.500000
O O13 0.968225 0.398660 0.750000
O O14 0.916403 0.449847 0.533497
O O15 0.000000 0.500000 0.500000
O O16 0.862054 0.250000 0.500000
O O17 0.863642 0.101315 0.250000
O O18 0.711850 0.393441 0.250000
O O19 0.720748 0.250000 0.000000
#
# Coordination Sequence:
#
# PCOD9436836 Si02
#       6
#     8   8   8   8   8   8
#     4  11  24  39  56  80 110 144 180 221 271 322
#     4   9  17  30  51  77 103 134 173 216 261 310
#     4  10  20  34  53  78 107 140 178 220 266 316
#     4  10  21  37  58  84 113 146 183 224 270 319
#     4  10  21  38  60  84 110 143 184 226 267 316
#     4  10  20  34  55  81 105 135 175 217 263 315
#
# _framework density 17.885719999999999
#
# number of rings (size 3 to 8) (size 9 to 14) (size 15 to 20)
#    0.000    2.000    0.000    4.500    0.000    8.667 
#    0.000    0.833    0.000    2.000    0.000    0.000 
#    0.000    0.000    0.000    0.000    0.000    0.000 
#
# Total GULP energy -267890.173530 kJ/mol
# GULP energy per Si atom -5581.045282 kJ/mol
# Density = 1.784501 g / cm^3
# Si number density = 17.885720 Si / 1000 Ang^3
#
#
#
# Elastic Constant Matrix: (Units=GPa)
#
#
# Indices 1 2 3 4 5 6 
#
# 1 212.1252 101.4679 91.1073 0.0000 0.0000 0.0000
# 2 101.4679 87.2159 50.0916 0.0000 0.0000 0.0000
# 3 91.1073 50.0916 83.4105 0.0000 0.0000 0.0000
# 4 0.0000 0.0000 0.0000 31.4402 0.0000 0.0000
# 5 0.0000 0.0000 0.0000 0.0000 30.3202 0.0000
# 6 0.0000 0.0000 0.0000 0.0000 0.0000 28.9030
#
#
#
# Elastic Compliance Matrix: (Units=1/GPa)
#
#
# Indices 1 2 3 4 5 6 
#
# 1 0.013450 -0.011006 -0.008081 0.000000 0.000000 0.000000
# 2 -0.011006 0.026510 -0.003898 0.000000 0.000000 0.000000
# 3 -0.008081 -0.003898 0.023157 0.000000 0.000000 0.000000
# 4 0.000000 0.000000 0.000000 0.031806 0.000000 0.000000
# 5 0.000000 0.000000 0.000000 0.000000 0.032981 0.000000
# 6 0.000000 0.000000 0.000000 0.000000 0.000000 0.034599
#
#
# Mechanical properties :
#
#
# Convention : Reuss Voigt Hill
#
# Bulk Modulus (GPa) = 58.32659 96.45391 77.39025
# Shear Modulus (GPa) = 23.34393 27.47166 25.40780
#
# Velocity S-wave (km/s) = 3.61663 3.92338 3.77312
# Velocity P-wave (km/s) = 7.07966 8.63532 7.89590
#
# Compressibility (1/GPa) = 0.01714484
#
# Stress axis : x y z
#
# Youngs Moduli (GPa) = 74.35072 37.72226 43.18395
#
# Poissons Ratio (x) = 0.41518 0.34897
# Poissons Ratio (y) = 0.81833 0.16834
# Poissons Ratio (z) = 0.60084 0.14705
#
# Static dielectric constant tensor:
#      x y z
#    x 1.642370 0.000000 0.000000 
#    y 0.000000 1.566950 0.000000 
#    z 0.000000 0.000000 1.596160 
# 
# From -- ./inp_files/9913.got.cif
#   From: 2010.05.17/outbox.cif.g08.bks.cpg/sg57_5_cif.got.tgz:9913.got - 2010.06.03 13:58:18.
