data_PCOD9436354
_publ_section_title
;
Structure prediction by ZEFSAII (Michael W. Deem and Ramdas Pophale) SiO2 
 PCOD9436354
Probable space group: P B C M
;
_chemical_formula_sum "Si O2"
_cell_formula_units_Z 60
_cell_length_a 17.336881
_cell_length_b 18.977471
_cell_length_c 9.616247
_cell_angle_alpha 90.000000
_cell_angle_beta 90.000000
_cell_angle_gamma 90.000000
_cell_volume 3163.842930
_symmetry_space_group_name_H-M "P B C M"
_symmetry_group_IT_number 57
_symmetry_cell_setting 'orthorhombic'
loop_
_space_group_symop_operation_xyz
x,y,z
-x,-y,1/2+z
x,1/2-y,-z
-x,1/2+y,1/2-z
-x,-y,-z
x,y,1/2-z
-x,1/2+y,z
x,1/2-y,1/2+z
loop_
_atom_site_type_symbol
_atom_site_label
_atom_site_fract_x
_atom_site_fract_y
_atom_site_fract_z
Si Si1 0.571101 0.240254 0.750000
Si Si2 0.450076 0.858444 0.991635
Si Si3 0.907805 0.927814 0.914075
Si Si4 0.392847 0.178461 0.912996
Si Si5 0.788483 0.322082 0.085201
Si Si6 0.944146 0.091979 0.910641
Si Si7 0.309349 0.565058 0.413392
Si Si8 0.239384 0.089305 0.909678
O O1 0.581625 0.180186 0.628332
O O2 0.558604 0.301513 0.630325
O O3 0.540145 0.870521 0.024805
O O4 0.398803 0.925175 0.951056
O O5 0.908002 0.914741 0.750000
O O6 0.911233 0.012922 0.936234
O O7 0.831094 0.899343 0.986753
O O8 0.984330 0.897794 0.986937
O O9 0.413227 0.193185 0.750000
O O10 0.309023 0.144447 0.921286
O O11 0.395315 0.250000 0.000000
O O12 0.770814 0.312849 0.250000
O O13 0.875774 0.351991 0.073845
O O14 0.779562 0.250000 0.000000
O O15 0.736267 0.380330 0.010027
O O16 0.970916 0.093053 0.750000
O O17 0.298018 0.582836 0.250000
O O18 0.276649 0.487247 0.435345
O O19 0.210838 0.090422 0.750000
#
# Coordination Sequence:
#
# PCOD9436354 Si02
#       8
#     4   8   8   8   8   8   8   8
#     4  10  20  34  58  84 110 148 202 252 280 348
#     4  11  20  36  58  83 112 153 203 241 293 344
#     4  10  19  36  62  90 114 149 191 236 285 348
#     4  11  22  40  64  86 112 149 198 246 301 357
#     4  11  24  38  58  87 124 160 200 243 292 344
#     4   9  19  37  60  85 115 151 193 234 284 343
#     4  11  24  38  57  83 121 158 199 241 294 353
#     4  10  23  41  59  87 122 154 191 244 299 354
#
# _framework density 18.964279999999999
#
# number of rings (size 3 to 8) (size 9 to 14) (size 15 to 20)
#    0.000    1.600    4.000    0.800    2.800    2.667 
#    0.000    0.667    0.000    0.000    0.000    0.000 
#    0.000    0.000    0.000    0.000    0.000    0.000 
#
# Total GULP energy -334038.663541 kJ/mol
# GULP energy per Si atom -5567.311059 kJ/mol
# Density = 1.892112 g / cm^3
# Si number density = 18.964280 Si / 1000 Ang^3
#
#
#
# Elastic Constant Matrix: (Units=GPa)
#
#
# Indices 1 2 3 4 5 6 
#
# 1 91.4019 14.6087 54.2214 0.0000 0.0000 0.0000
# 2 14.6087 31.5661 25.9834 0.0000 0.0000 0.0000
# 3 54.2214 25.9834 135.6446 0.0000 0.0000 0.0000
# 4 0.0000 0.0000 0.0000 18.8042 0.0000 0.0000
# 5 0.0000 0.0000 0.0000 0.0000 35.1381 0.0000
# 6 0.0000 0.0000 0.0000 0.0000 0.0000 3.1506
#
#
#
# Elastic Compliance Matrix: (Units=1/GPa)
#
#
# Indices 1 2 3 4 5 6 
#
# 1 0.014481 -0.002300 -0.005348 0.000000 0.000000 0.000000
# 2 -0.002300 0.037975 -0.006355 0.000000 0.000000 0.000000
# 3 -0.005348 -0.006355 0.010727 0.000000 0.000000 0.000000
# 4 0.000000 0.000000 0.000000 0.053180 0.000000 0.000000
# 5 0.000000 0.000000 0.000000 0.000000 0.028459 0.000000
# 6 0.000000 0.000000 0.000000 0.000000 0.000000 0.317403
#
#
# Mechanical properties :
#
#
# Convention : Reuss Voigt Hill
#
# Bulk Modulus (GPa) = 28.42698 49.80439 39.11568
# Shear Modulus (GPa) = 9.96104 22.33851 16.14978
#
# Velocity S-wave (km/s) = 2.29433 3.43582 2.92137
# Velocity P-wave (km/s) = 4.69477 6.48529 5.66127
#
# Compressibility (1/GPa) = 0.03517785
#
# Stress axis : x y z
#
# Youngs Moduli (GPa) = 69.05740 26.33316 93.22034
#
# Poissons Ratio (x) = 0.06055 0.49853
# Poissons Ratio (y) = 0.15880 0.59242
# Poissons Ratio (z) = 0.36931 0.16735
#
# Static dielectric constant tensor:
#      x y z
#    x 1.709700 0.000000 0.000000 
#    y 0.000000 1.630530 0.000000 
#    z 0.000000 0.000000 1.638590 
# 
# From -- ./inp_files/6916.got.cif
#   From: 2010.05.17/outbox.cif.g08.bks.cpg/sg57_4_cif.got.tgz:6916.got - 2010.06.03 13:58:18.
