data_PCOD9436075
_publ_section_title
;
Structure prediction by ZEFSAII (Michael W. Deem and Ramdas Pophale) SiO2 
 PCOD9436075
Probable space group: P B C M
;
_chemical_formula_sum "Si O2"
_cell_formula_units_Z 64
_cell_length_a 11.817629
_cell_length_b 15.872366
_cell_length_c 17.184564
_cell_angle_alpha 90.000000
_cell_angle_beta 90.000000
_cell_angle_gamma 90.000000
_cell_volume 3223.372815
_symmetry_space_group_name_H-M "P B C M"
_symmetry_group_IT_number 57
_symmetry_cell_setting 'orthorhombic'
loop_
_space_group_symop_operation_xyz
x,y,z
-x,-y,1/2+z
x,1/2-y,-z
-x,1/2+y,1/2-z
-x,-y,-z
x,y,1/2-z
-x,1/2+y,z
x,1/2-y,1/2+z
loop_
_atom_site_type_symbol
_atom_site_label
_atom_site_fract_x
_atom_site_fract_y
_atom_site_fract_z
Si Si1 0.216322 0.323285 0.551593
Si Si2 0.814044 0.095558 0.340251
Si Si3 0.608261 0.216637 0.343967
Si Si4 0.983249 0.714944 0.336492
Si Si5 0.093343 0.609484 0.838885
Si Si6 0.652459 0.405562 0.154852
Si Si7 0.404950 0.407867 0.655851
Si Si8 0.902603 0.539039 0.554460
O O1 0.272571 0.250000 0.500000
O O2 0.111623 0.282411 0.598606
O O3 0.297052 0.368333 0.613177
O O4 0.164063 0.392152 0.494267
O O5 0.790613 0.069906 0.250000
O O6 0.725694 0.168989 0.360968
O O7 0.941705 0.131412 0.342804
O O8 0.814515 0.023535 0.404553
O O9 0.601315 0.222163 0.250000
O O10 0.606238 0.314003 0.372095
O O11 0.509499 0.152045 0.367782
O O12 0.931715 0.719427 0.250000
O O13 0.073582 0.790396 0.341472
O O14 0.095390 0.580484 0.750000
O O15 0.216277 0.587065 0.872691
O O16 0.980549 0.575742 0.877441
O O17 0.655592 0.401716 0.250000
O O18 0.588054 0.492370 0.134949
O O19 0.393488 0.404018 0.750000
O O20 0.000000 0.500000 0.500000
#
# Coordination Sequence:
#
# PCOD9436075 Si02
#       8
#     8   8   8   8   8   8   8   8
#     4  12  24  41  57  81 129 168 198 245 309 373
#     4  10  20  37  61  91 120 152 201 257 306 357
#     4   9  18  38  66  92 119 152 203 268 309 344
#     4  10  19  35  60  85 114 156 202 249 302 363
#     4  10  19  34  57  87 119 156 205 251 294 360
#     4   9  17  33  61  93 118 149 199 258 306 350
#     4  10  22  41  66  92 118 158 213 258 305 366
#     4  12  23  35  55  85 127 166 196 241 309 370
#
# _framework density 19.854977999999999
#
# number of rings (size 3 to 8) (size 9 to 14) (size 15 to 20)
#    0.000    1.750    3.750    1.500    0.000    0.000 
#    2.250    0.625    2.750    0.000    0.000    0.000 
#    0.000    0.000    0.000    0.000    0.000    0.000 
#
# Total GULP energy -356831.490747 kJ/mol
# GULP energy per Si atom -5575.492043 kJ/mol
# Density = 1.980979 g / cm^3
# Si number density = 19.854978 Si / 1000 Ang^3
#
#
#
# Elastic Constant Matrix: (Units=GPa)
#
#
# Indices 1 2 3 4 5 6 
#
# 1 72.1152 45.0247 16.5158 0.0000 0.0000 0.0000
# 2 45.0247 113.2531 34.7863 0.0000 0.0000 0.0000
# 3 16.5158 34.7863 37.4017 0.0000 0.0000 0.0000
# 4 0.0000 0.0000 0.0000 15.5470 0.0000 0.0000
# 5 0.0000 0.0000 0.0000 0.0000 4.5007 0.0000
# 6 0.0000 0.0000 0.0000 0.0000 0.0000 19.4450
#
#
#
# Elastic Compliance Matrix: (Units=1/GPa)
#
#
# Indices 1 2 3 4 5 6 
#
# 1 0.018537 -0.006797 -0.001864 0.000000 0.000000 0.000000
# 2 -0.006797 0.014853 -0.010813 0.000000 0.000000 0.000000
# 3 -0.001864 -0.010813 0.037617 0.000000 0.000000 0.000000
# 4 0.000000 0.000000 0.000000 0.064321 0.000000 0.000000
# 5 0.000000 0.000000 0.000000 0.000000 0.222188 0.000000
# 6 0.000000 0.000000 0.000000 0.000000 0.000000 0.051427
#
#
# Mechanical properties :
#
#
# Convention : Reuss Voigt Hill
#
# Bulk Modulus (GPa) = 31.19238 46.15817 38.67528
# Shear Modulus (GPa) = 10.90326 16.32808 13.61567
#
# Velocity S-wave (km/s) = 2.34593 2.87081 2.62153
# Velocity P-wave (km/s) = 4.80438 5.85549 5.35578
#
# Compressibility (1/GPa) = 0.03205911
#
# Stress axis : x y z
#
# Youngs Moduli (GPa) = 53.94514 67.32461 26.58383
#
# Poissons Ratio (x) = 0.45762 0.04955
# Poissons Ratio (y) = 0.36668 0.28746
# Poissons Ratio (z) = 0.10054 0.72800
#
# Static dielectric constant tensor:
#      x y z
#    x 1.706480 0.000000 0.000000 
#    y 0.000000 1.825190 0.000000 
#    z 0.000000 0.000000 1.833970 
# 
# From -- ./inp_files/22043.got.cif
#   From: 2010.05.17/outbox.cif.g08.bks.cpg/sg57_12_cif.got.tgz:22043.got - 2010.06.03 13:58:18.
