data_PCOD9436793
_publ_section_title
;
Structure prediction by ZEFSAII (Michael W. Deem and Ramdas Pophale) SiO2 
 PCOD9436793
Probable space group: P B C M
;
_chemical_formula_sum "Si O2"
_cell_formula_units_Z 64
_cell_length_a 20.327971
_cell_length_b 20.756811
_cell_length_c 8.595324
_cell_angle_alpha 90.000000
_cell_angle_beta 90.000000
_cell_angle_gamma 90.000000
_cell_volume 3626.744118
_symmetry_space_group_name_H-M "P B C M"
_symmetry_group_IT_number 57
_symmetry_cell_setting 'orthorhombic'
loop_
_space_group_symop_operation_xyz
x,y,z
-x,-y,1/2+z
x,1/2-y,-z
-x,1/2+y,1/2-z
-x,-y,-z
x,y,1/2-z
-x,1/2+y,z
x,1/2-y,1/2+z
loop_
_atom_site_type_symbol
_atom_site_label
_atom_site_fract_x
_atom_site_fract_y
_atom_site_fract_z
Si Si1 0.422074 0.320927 0.436647
Si Si2 0.174460 0.073612 0.564503
Si Si3 0.675865 0.428042 0.061161
Si Si4 0.173511 0.931636 0.061796
Si Si5 0.320902 0.425350 0.936962
Si Si6 0.071867 0.679835 0.937074
Si Si7 0.074628 0.320504 0.564231
Si Si8 0.573785 0.320656 0.437957
O O1 0.405207 0.250000 0.500000
O O2 0.418529 0.320505 0.250000
O O3 0.373077 0.374013 0.502993
O O4 0.498032 0.334181 0.483206
O O5 0.173201 0.076802 0.750000
O O6 0.248193 0.087221 0.503565
O O7 0.124149 0.125155 0.494775
O O8 0.157337 0.001250 0.508906
O O9 0.674156 0.426399 0.250000
O O10 0.751437 0.414820 0.015312
O O11 0.660329 0.501534 0.015049
O O12 0.623918 0.375337 0.005258
O O13 0.172489 0.937750 0.250000
O O14 0.122707 0.875976 0.017016
O O15 0.317420 0.423435 0.750000
O O16 0.068644 0.682471 0.750000
O O17 0.092208 0.750000 0.000000
O O18 0.999062 0.666541 0.002275
O O19 0.093844 0.250000 0.500000
O O20 0.073727 0.318488 0.750000
O O21 0.591428 0.250000 0.500000
O O22 0.575910 0.319045 0.250000
#
# Coordination Sequence:
#
# PCOD9436793 Si02
#       8
#     8   8   8   8   8   8   8   8
#     4  10  20  34  52  76 105 137 175 217 261 309
#     4  11  22  37  57  81 108 137 174 219 265 314
#     4   8  16  33  54  75 103 139 174 212 260 309
#     4   9  19  36  56  78 108 145 181 218 263 314
#     4  10  20  36  56  77 104 138 174 213 262 316
#     4  10  20  35  55  80 110 143 180 221 265 312
#     4  11  22  38  58  80 108 140 176 217 263 315
#     4   9  18  33  52  75 105 139 175 216 260 308
#
# _framework density 17.646681999999998
#
# number of rings (size 3 to 8) (size 9 to 14) (size 15 to 20)
#    0.000    2.250    0.000    4.875    0.000    3.500 
#    0.000    5.625    0.000    0.000    0.000    0.000 
#    0.000    0.000    0.000    0.000    0.000    0.000 
#
# Total GULP energy -357224.429954 kJ/mol
# GULP energy per Si atom -5581.631718 kJ/mol
# Density = 1.760652 g / cm^3
# Si number density = 17.646682 Si / 1000 Ang^3
#
#
#
# Elastic Constant Matrix: (Units=GPa)
#
#
# Indices 1 2 3 4 5 6 
#
# 1 125.9781 141.1975 47.5050 0.0000 0.0000 0.0000
# 2 141.1975 182.9725 55.7364 0.0000 0.0000 0.0000
# 3 47.5050 55.7364 71.2076 0.0000 0.0000 0.0000
# 4 0.0000 0.0000 0.0000 30.3869 0.0000 0.0000
# 5 0.0000 0.0000 0.0000 0.0000 15.2786 0.0000
# 6 0.0000 0.0000 0.0000 0.0000 0.0000 45.8581
#
#
#
# Elastic Compliance Matrix: (Units=1/GPa)
#
#
# Indices 1 2 3 4 5 6 
#
# 1 0.060076 -0.044844 -0.004979 0.000000 0.000000 0.000000
# 2 -0.044844 0.040650 -0.001901 0.000000 0.000000 0.000000
# 3 -0.004979 -0.001901 0.018853 0.000000 0.000000 0.000000
# 4 0.000000 0.000000 0.000000 0.032909 0.000000 0.000000
# 5 0.000000 0.000000 0.000000 0.000000 0.065451 0.000000
# 6 0.000000 0.000000 0.000000 0.000000 0.000000 0.021806
#
#
# Mechanical properties :
#
#
# Convention : Reuss Voigt Hill
#
# Bulk Modulus (GPa) = 61.98673 96.55953 79.27313
# Shear Modulus (GPa) = 14.34437 27.35269 20.84853
#
# Velocity S-wave (km/s) = 2.85417 3.94130 3.44094
# Velocity P-wave (km/s) = 6.78709 8.69188 7.79786
#
# Compressibility (1/GPa) = 0.01613249
#
# Stress axis : x y z
#
# Youngs Moduli (GPa) = 16.64547 24.60047 53.04265
#
# Poissons Ratio (x) = 1.10317 0.26407
# Poissons Ratio (y) = 0.74644 0.10083
# Poissons Ratio (z) = 0.08287 0.04677
#
# Static dielectric constant tensor:
#      x y z
#    x 1.584870 0.000000 0.000000 
#    y 0.000000 1.577660 0.000000 
#    z 0.000000 0.000000 1.594270 
# 
# From -- ./inp_files/7227.got.cif
#   From: 2010.05.17/outbox.cif.g08.bks.cpg/sg57_4_cif.got.tgz:7227.got - 2010.06.03 13:58:18.
