data_PCOD9436149
_publ_section_title
;
Structure prediction by ZEFSAII (Michael W. Deem and Ramdas Pophale) SiO2 
 PCOD9436149
Probable space group: P B C M
;
_chemical_formula_sum "Si O2"
_cell_formula_units_Z 56
_cell_length_a 17.245028
_cell_length_b 21.977725
_cell_length_c 8.565163
_cell_angle_alpha 90.000000
_cell_angle_beta 90.000000
_cell_angle_gamma 90.000000
_cell_volume 3246.252305
_symmetry_space_group_name_H-M "P B C M"
_symmetry_group_IT_number 57
_symmetry_cell_setting 'orthorhombic'
loop_
_space_group_symop_operation_xyz
x,y,z
-x,-y,1/2+z
x,1/2-y,-z
-x,1/2+y,1/2-z
-x,-y,-z
x,y,1/2-z
-x,1/2+y,z
x,1/2-y,1/2+z
loop_
_atom_site_type_symbol
_atom_site_label
_atom_site_fract_x
_atom_site_fract_y
_atom_site_fract_z
Si Si1 0.477141 0.590145 0.563478
Si Si2 0.800144 0.375622 0.939658
Si Si3 0.957771 0.561536 0.561809
Si Si4 0.206832 0.014507 0.561926
Si Si5 0.622158 0.527736 0.436405
Si Si6 0.040996 0.816873 0.562140
Si Si7 0.360987 0.682605 0.062863
O O1 0.480824 0.588612 0.750000
O O2 0.562154 0.578323 0.495753
O O3 0.419461 0.535272 0.510379
O O4 0.436908 0.650607 0.503713
O O5 0.800743 0.375476 0.750000
O O6 0.811225 0.445241 0.990403
O O7 0.870580 0.332528 0.989501
O O8 0.716181 0.352949 0.991306
O O9 0.964106 0.561496 0.750000
O O10 0.866948 0.555084 0.517714
O O11 0.000000 0.500000 0.500000
O O12 0.992709 0.624412 0.496397
O O13 0.211330 0.013983 0.750000
O O14 0.290941 0.032676 0.499119
O O15 0.624182 0.527617 0.250000
O O16 0.018270 0.750000 0.500000
O O17 0.037963 0.815755 0.750000
O O18 0.362842 0.681371 0.250000
O O19 0.354868 0.750000 0.000000
#
# Coordination Sequence:
#
# PCOD9436149 Si02
#       7
#     8   8   8   8   8   8   8
#     4  10  20  34  52  76 106 141 179 217 263 319
#     4   9  18  33  53  78 111 149 184 224 274 330
#     4  11  22  37  58  84 114 151 192 237 288 340
#     4  10  19  35  56  80 112 147 183 227 281 333
#     4  10  20  33  53  81 107 136 176 222 271 319
#     4  11  22  39  58  82 114 152 195 238 286 343
#     4  11  21  34  52  75 109 147 184 222 266 320
#
# _framework density 17.250661999999998
#
# number of rings (size 3 to 8) (size 9 to 14) (size 15 to 20)
#    0.000    1.714    2.857    2.571    0.000    2.286 
#    0.000    2.143    0.000    0.857    0.000    2.000 
#    0.000    0.000    0.000    0.000    0.000    0.000 
#
# Total GULP energy -312526.325432 kJ/mol
# GULP energy per Si atom -5580.827240 kJ/mol
# Density = 1.721140 g / cm^3
# Si number density = 17.250662 Si / 1000 Ang^3
#
#
#
# Elastic Constant Matrix: (Units=GPa)
#
#
# Indices 1 2 3 4 5 6 
#
# 1 122.7098 53.6853 31.4647 0.0000 0.0000 0.0000
# 2 53.6853 103.2608 21.2279 0.0000 0.0000 0.0000
# 3 31.4647 21.2279 35.0091 0.0000 0.0000 0.0000
# 4 0.0000 0.0000 0.0000 26.7176 0.0000 0.0000
# 5 0.0000 0.0000 0.0000 0.0000 24.6993 0.0000
# 6 0.0000 0.0000 0.0000 0.0000 0.0000 25.9006
#
#
#
# Elastic Compliance Matrix: (Units=1/GPa)
#
#
# Indices 1 2 3 4 5 6 
#
# 1 0.012318 -0.004716 -0.008211 0.000000 0.000000 0.000000
# 2 -0.004716 0.012869 -0.003564 0.000000 0.000000 0.000000
# 3 -0.008211 -0.003564 0.038105 0.000000 0.000000 0.000000
# 4 0.000000 0.000000 0.000000 0.037428 0.000000 0.000000
# 5 0.000000 0.000000 0.000000 0.000000 0.040487 0.000000
# 6 0.000000 0.000000 0.000000 0.000000 0.000000 0.038609
#
#
# Mechanical properties :
#
#
# Convention : Reuss Voigt Hill
#
# Bulk Modulus (GPa) = 32.99404 52.63728 42.81566
# Shear Modulus (GPa) = 22.43121 25.77030 24.10075
#
# Velocity S-wave (km/s) = 3.60989 3.86926 3.74182
# Velocity P-wave (km/s) = 6.04507 7.10922 6.59863
#
# Compressibility (1/GPa) = 0.03030850
#
# Stress axis : x y z
#
# Youngs Moduli (GPa) = 81.18116 77.70676 26.24300
#
# Poissons Ratio (x) = 0.36648 0.21549
# Poissons Ratio (y) = 0.38286 0.09354
# Poissons Ratio (z) = 0.66661 0.27698
#
# Static dielectric constant tensor:
#      x y z
#    x 1.585990 0.000000 0.000000 
#    y 0.000000 1.566500 0.000000 
#    z 0.000000 0.000000 1.587080 
# 
# From -- ./inp_files/5194.got.cif
#   From: 2010.05.17/outbox.cif.g08.bks.cpg/sg57_3_cif.got.tgz:5194.got - 2010.06.03 13:58:18.
