data_PCOD9436088
_publ_section_title
;
Structure prediction by ZEFSAII (Michael W. Deem and Ramdas Pophale) SiO2 
 PCOD9436088
Probable space group: P B C M
;
_chemical_formula_sum "Si O2"
_cell_formula_units_Z 64
_cell_length_a 21.994937
_cell_length_b 17.879661
_cell_length_c 8.916761
_cell_angle_alpha 90.000000
_cell_angle_beta 90.000000
_cell_angle_gamma 90.000000
_cell_volume 3506.623418
_symmetry_space_group_name_H-M "P B C M"
_symmetry_group_IT_number 57
_symmetry_cell_setting 'orthorhombic'
loop_
_space_group_symop_operation_xyz
x,y,z
-x,-y,1/2+z
x,1/2-y,-z
-x,1/2+y,1/2-z
-x,-y,-z
x,y,1/2-z
-x,1/2+y,z
x,1/2-y,1/2+z
loop_
_atom_site_type_symbol
_atom_site_label
_atom_site_fract_x
_atom_site_fract_y
_atom_site_fract_z
Si Si1 0.393342 0.425312 0.069944
Si Si2 0.756620 0.389027 0.071972
Si Si3 0.935146 0.016918 0.071011
Si Si4 0.718008 0.667719 0.430595
Si Si5 0.182150 0.048055 0.428522
Si Si6 0.371538 0.899912 0.571170
Si Si7 0.499205 0.330405 0.929991
Si Si8 0.875143 0.174427 0.071374
O O1 0.393970 0.416473 0.250000
O O2 0.385065 0.513039 0.035669
O O3 0.338019 0.378580 0.999236
O O4 0.454664 0.392097 0.999737
O O5 0.760211 0.378030 0.250000
O O6 0.775945 0.475237 0.038431
O O7 0.689078 0.375375 0.013515
O O8 0.807475 0.339692 0.991160
O O9 0.938587 0.012019 0.250000
O O10 0.913593 0.100912 0.029957
O O11 0.881406 0.963294 0.011975
O O12 0.000000 0.000000 0.000000
O O13 0.719083 0.750000 0.500000
O O14 0.711819 0.670881 0.250000
O O15 0.779212 0.621306 0.466905
O O16 0.170875 0.047753 0.250000
O O17 0.361003 0.894903 0.750000
O O18 0.431255 0.852163 0.534439
O O19 0.492083 0.328749 0.750000
O O20 0.483986 0.250000 0.000000
O O21 0.873345 0.180429 0.250000
O O22 0.900094 0.250000 0.000000
#
# Coordination Sequence:
#
# PCOD9436088 Si02
#       8
#     8   8   8   8   8   8   8   8
#     4  11  22  38  60  83 108 144 188 237 289 343
#     4  10  19  34  58  85 113 148 185 230 284 337
#     4  10  21  37  61  89 118 154 196 237 281 333
#     4  11  22  37  57  85 116 149 188 235 287 342
#     4   9  19  36  57  82 114 148 187 230 276 332
#     4  10  22  38  58  83 111 145 188 236 285 343
#     4  11  24  41  57  77 108 145 186 235 288 345
#     4  10  21  37  58  87 120 155 194 238 284 335
#
# _framework density 18.251176000000001
#
# number of rings (size 3 to 8) (size 9 to 14) (size 15 to 20)
#    0.000    1.750    1.250    3.000    0.000    5.000 
#    0.000    1.875    0.000    0.000    0.000    0.000 
#    0.000    0.000    0.000    0.000    0.000    0.000 
#
# Total GULP energy -357625.800282 kJ/mol
# GULP energy per Si atom -5587.903129 kJ/mol
# Density = 1.820964 g / cm^3
# Si number density = 18.251176 Si / 1000 Ang^3
#
#
#
# Elastic Constant Matrix: (Units=GPa)
#
#
# Indices 1 2 3 4 5 6 
#
# 1 110.0752 7.4037 39.9571 0.0000 0.0000 0.0000
# 2 7.4037 47.2292 20.8925 0.0000 0.0000 0.0000
# 3 39.9571 20.8925 45.0555 0.0000 0.0000 0.0000
# 4 0.0000 0.0000 0.0000 24.2255 0.0000 0.0000
# 5 0.0000 0.0000 0.0000 0.0000 36.6670 0.0000
# 6 0.0000 0.0000 0.0000 0.0000 0.0000 13.5166
#
#
#
# Elastic Compliance Matrix: (Units=1/GPa)
#
#
# Indices 1 2 3 4 5 6 
#
# 1 0.014017 0.004154 -0.014357 0.000000 0.000000 0.000000
# 2 0.004154 0.027868 -0.016606 0.000000 0.000000 0.000000
# 3 -0.014357 -0.016606 0.042627 0.000000 0.000000 0.000000
# 4 0.000000 0.000000 0.000000 0.041279 0.000000 0.000000
# 5 0.000000 0.000000 0.000000 0.000000 0.027272 0.000000
# 6 0.000000 0.000000 0.000000 0.000000 0.000000 0.073983
#
#
# Mechanical properties :
#
#
# Convention : Reuss Voigt Hill
#
# Bulk Modulus (GPa) = 32.36906 37.65181 35.01044
# Shear Modulus (GPa) = 17.18426 23.82225 20.50326
#
# Velocity S-wave (km/s) = 3.07179 3.61674 3.35534
# Velocity P-wave (km/s) = 5.50954 6.17379 5.85109
#
# Compressibility (1/GPa) = 0.03089370
#
# Stress axis : x y z
#
# Youngs Moduli (GPa) = 71.34301 35.88309 23.45908
#
# Poissons Ratio (x) = -0.14905 0.33680
# Poissons Ratio (y) = -0.29633 0.38957
# Poissons Ratio (z) = 1.02425 0.59589
#
# Static dielectric constant tensor:
#      x y z
#    x 1.599440 0.000000 0.000000 
#    y 0.000000 1.622700 0.000000 
#    z 0.000000 0.000000 1.606180 
# 
# From -- ./inp_files/8414.got.cif
#   From: 2010.05.17/outbox.cif.g08.bks.cpg/sg57_5_cif.got.tgz:8414.got - 2010.06.03 13:58:18.
