data_PCOD9436382
_publ_section_title
;
Structure prediction by ZEFSAII (Michael W. Deem and Ramdas Pophale) SiO2 
 PCOD9436382
Probable space group: P B C M
;
_chemical_formula_sum "Si O2"
_cell_formula_units_Z 48
_cell_length_a 15.345965
_cell_length_b 10.727310
_cell_length_c 15.689459
_cell_angle_alpha 90.000000
_cell_angle_beta 90.000000
_cell_angle_gamma 90.000000
_cell_volume 2582.813235
_symmetry_space_group_name_H-M "P B C M"
_symmetry_group_IT_number 57
_symmetry_cell_setting 'orthorhombic'
loop_
_space_group_symop_operation_xyz
x,y,z
-x,-y,1/2+z
x,1/2-y,-z
-x,1/2+y,1/2-z
-x,-y,-z
x,y,1/2-z
-x,1/2+y,z
x,1/2-y,1/2+z
loop_
_atom_site_type_symbol
_atom_site_label
_atom_site_fract_x
_atom_site_fract_y
_atom_site_fract_z
Si Si1 0.895551 0.623025 0.053960
Si Si2 0.748195 0.228090 0.348697
Si Si3 0.546732 0.991616 0.906862
Si Si4 0.557317 0.266032 0.900898
Si Si5 0.909834 0.373522 0.940631
Si Si6 0.262969 0.479629 0.850207
O O1 0.895586 0.501199 0.992667
O O2 0.886509 0.750000 0.000000
O O3 0.815999 0.605442 0.118378
O O4 0.991951 0.623234 0.095908
O O5 0.728660 0.208448 0.250000
O O6 0.659257 0.200486 0.398431
O O7 0.830453 0.148164 0.376874
O O8 0.765688 0.375675 0.360956
O O9 0.497697 0.877800 0.862170
O O10 0.649739 0.962210 0.906263
O O11 0.542377 0.128068 0.863824
O O12 0.500000 0.000000 0.000000
O O13 0.532408 0.250000 0.000000
O O14 0.907482 0.250000 0.000000
O O15 0.282950 0.461056 0.750000
#
# Coordination Sequence:
#
# PCOD9436382 Si02
#       6
#     8   8   8   8   8   8
#     4  10  22  36  59  88 112 147 191 240 286 341
#     4  10  20  34  58  84 110 150 194 234 283 342
#     4   9  19  33  55  81 106 145 190 230 277 337
#     4   9  18  33  54  79 105 141 184 235 274 332
#     4  10  19  37  61  83 110 145 192 238 280 341
#     4  10  21  38  58  83 119 158 190 233 296 351
#
# _framework density 18.584385999999999
#
# number of rings (size 3 to 8) (size 9 to 14) (size 15 to 20)
#    0.000    2.333    1.667    0.500    4.667    3.333 
#    0.000    0.833    0.000    0.000    0.000    0.000 
#    0.000    0.000    0.000    0.000    0.000    0.000 
#
# Total GULP energy -267370.143197 kJ/mol
# GULP energy per Si atom -5570.211317 kJ/mol
# Density = 1.854209 g / cm^3
# Si number density = 18.584386 Si / 1000 Ang^3
#
#
#
# Elastic Constant Matrix: (Units=GPa)
#
#
# Indices 1 2 3 4 5 6 
#
# 1 111.6345 50.7193 29.4818 0.0000 0.0000 0.0000
# 2 50.7193 103.3577 10.1415 0.0000 0.0000 0.0000
# 3 29.4818 10.1415 31.4490 0.0000 0.0000 0.0000
# 4 0.0000 0.0000 0.0000 13.7293 0.0000 0.0000
# 5 0.0000 0.0000 0.0000 0.0000 -17.1143 0.0000
# 6 0.0000 0.0000 0.0000 0.0000 0.0000 37.7534
#
#
#
# Elastic Compliance Matrix: (Units=1/GPa)
#
#
# Indices 1 2 3 4 5 6 
#
# 1 0.014919 -0.006143 -0.012005 0.000000 0.000000 0.000000
# 2 -0.006143 0.012521 0.001721 0.000000 0.000000 0.000000
# 3 -0.012005 0.001721 0.042497 0.000000 0.000000 0.000000
# 4 0.000000 0.000000 0.000000 0.072837 0.000000 0.000000
# 5 0.000000 0.000000 0.000000 0.000000 -0.058431 0.000000
# 6 0.000000 0.000000 0.000000 0.000000 0.000000 0.026488
#
#
# Mechanical properties :
#
#
# Convention : Reuss Voigt Hill
#
# Bulk Modulus (GPa) = 26.96673 47.45848 37.21260
# Shear Modulus (GPa) = 32.04198 17.28025 24.66112
#
# Velocity S-wave (km/s) = 4.15677 3.05261 3.64673
# Velocity P-wave (km/s) = 6.13028 6.16578 6.14805
#
# Compressibility (1/GPa) = 0.03708274
#
# Stress axis : x y z
#
# Youngs Moduli (GPa) = 67.02729 79.86700 23.53134
#
# Poissons Ratio (x) = 0.49064 0.28249
# Poissons Ratio (y) = 0.41176 -0.04050
# Poissons Ratio (z) = 0.80466 -0.13747
#
# Static dielectric constant tensor:
#      x y z
#    x 1.649850 0.000000 0.000000 
#    y 0.000000 1.688040 0.000000 
#    z 0.000000 0.000000 1.643590 
# 
# From -- ./inp_files/18372.got.cif
#   From: 2010.05.17/outbox.cif.g08.bks.cpg/sg57_10_cif.got.tgz:18372.got - 2010.06.03 13:58:18.
