data_PCOD9436222
_publ_section_title
;
Structure prediction by ZEFSAII (Michael W. Deem and Ramdas Pophale) SiO2 
 PCOD9436222
Probable space group: P B C M
;
_chemical_formula_sum "Si O2"
_cell_formula_units_Z 40
_cell_length_a 15.275932
_cell_length_b 4.978405
_cell_length_c 21.744007
_cell_angle_alpha 90.000000
_cell_angle_beta 90.000000
_cell_angle_gamma 90.000000
_cell_volume 1653.626867
_symmetry_space_group_name_H-M "P B C M"
_symmetry_group_IT_number 57
_symmetry_cell_setting 'orthorhombic'
loop_
_space_group_symop_operation_xyz
x,y,z
-x,-y,1/2+z
x,1/2-y,-z
-x,1/2+y,1/2-z
-x,-y,-z
x,y,1/2-z
-x,1/2+y,z
x,1/2-y,1/2+z
loop_
_atom_site_type_symbol
_atom_site_label
_atom_site_fract_x
_atom_site_fract_y
_atom_site_fract_z
Si Si1 0.822153 0.513881 0.617243
Si Si2 0.817685 0.750000 0.000000
Si Si3 0.055315 0.908694 0.177257
Si Si4 0.679827 0.342887 0.062107
Si Si5 0.314178 0.168333 0.181253
Si Si6 0.560350 0.012398 0.250000
O O1 0.870317 0.620561 0.556130
O O2 0.868249 0.253399 0.644347
O O3 0.729823 0.413823 0.588359
O O4 0.783733 0.725905 0.666056
O O5 0.755845 0.965129 0.965729
O O6 0.069676 0.888670 0.250000
O O7 0.970837 0.714934 0.163411
O O8 0.648872 0.498599 0.123583
O O9 0.627661 0.250000 0.000000
O O10 0.309157 0.035804 0.250000
O O11 0.379011 0.419279 0.193513
O O12 0.478867 0.805807 0.250000
#
# Coordination Sequence:
#
# PCOD9436222 Si02
#       6
#     8   4   8   8   8   4
#     4  10  19  35  59  82 114 151 211 253 297 373
#     4   8  18  34  52  86 110 150 194 262 310 342
#     4  10  23  39  54  80 119 161 194 252 320 362
#     4   9  18  34  59  86 122 154 205 266 303 356
#     4   9  21  33  60  93 115 161 209 248 309 359
#     4  10  24  42  60  92 140 162 190 254 320 374
#
# _framework density 24.189252
#
# number of rings (size 3 to 8) (size 9 to 14) (size 15 to 20)
#    0.600    2.000    0.000    0.600    8.400    1.600 
#    0.000    1.000    0.000    1.200    0.000    0.000 
#    0.000    0.000    0.000    0.000    0.000    0.000 
#
# Total GULP energy -222876.248835 kJ/mol
# GULP energy per Si atom -5571.906221 kJ/mol
# Density = 2.413420 g / cm^3
# Si number density = 24.189252 Si / 1000 Ang^3
#
#
#
# Elastic Constant Matrix: (Units=GPa)
#
#
# Indices 1 2 3 4 5 6 
#
# 1 43.6498 -16.6781 17.2516 0.0000 0.0000 0.0000
# 2 -16.6781 58.1853 18.4866 0.0000 0.0000 0.0000
# 3 17.2516 18.4866 169.1464 0.0000 0.0000 0.0000
# 4 0.0000 0.0000 0.0000 33.2447 0.0000 0.0000
# 5 0.0000 0.0000 0.0000 0.0000 8.5768 0.0000
# 6 0.0000 0.0000 0.0000 0.0000 0.0000 29.3970
#
#
#
# Elastic Compliance Matrix: (Units=1/GPa)
#
#
# Indices 1 2 3 4 5 6 
#
# 1 0.027968 0.009244 -0.003863 0.000000 0.000000 0.000000
# 2 0.009244 0.020860 -0.003223 0.000000 0.000000 0.000000
# 3 -0.003863 -0.003223 0.006658 0.000000 0.000000 0.000000
# 4 0.000000 0.000000 0.000000 0.030080 0.000000 0.000000
# 5 0.000000 0.000000 0.000000 0.000000 0.116594 0.000000
# 6 0.000000 0.000000 0.000000 0.000000 0.000000 0.034017
#
#
# Mechanical properties :
#
#
# Convention : Reuss Voigt Hill
#
# Bulk Modulus (GPa) = 16.72135 34.34464 25.53299
# Shear Modulus (GPa) = 19.85739 31.03846 25.44793
#
# Velocity S-wave (km/s) = 2.86828 3.58600 3.24703
# Velocity P-wave (km/s) = 4.23049 5.60133 4.96347
#
# Compressibility (1/GPa) = 0.05980378
#
# Stress axis : x y z
#
# Youngs Moduli (GPa) = 35.75464 47.93844 150.18986
#
# Poissons Ratio (x) = -0.44315 0.58017
# Poissons Ratio (y) = -0.33052 0.48402
# Poissons Ratio (z) = 0.13812 0.15449
#
# Static dielectric constant tensor:
#      x y z
#    x 2.025330 0.000000 0.000000 
#    y 0.000000 2.059150 0.000000 
#    z 0.000000 0.000000 2.101030 
# 
# From -- ./inp_files/25536.got.cif
#   From: 2010.05.17/outbox.cif.g08.bks.cpg/sg57_13_cif.got.tgz:25536.got - 2010.06.03 13:58:18.
