data_PCOD9436342
_publ_section_title
;
Structure prediction by ZEFSAII (Michael W. Deem and Ramdas Pophale) SiO2 
 PCOD9436342
Probable space group: P B C M
;
_chemical_formula_sum "Si O2"
_cell_formula_units_Z 24
_cell_length_a 9.512986
_cell_length_b 8.632915
_cell_length_c 15.444277
_cell_angle_alpha 90.000000
_cell_angle_beta 90.000000
_cell_angle_gamma 90.000000
_cell_volume 1268.358153
_symmetry_space_group_name_H-M "P B C M"
_symmetry_group_IT_number 57
_symmetry_cell_setting 'orthorhombic'
loop_
_space_group_symop_operation_xyz
x,y,z
-x,-y,1/2+z
x,1/2-y,-z
-x,1/2+y,1/2-z
-x,-y,-z
x,y,1/2-z
-x,1/2+y,z
x,1/2-y,1/2+z
loop_
_atom_site_type_symbol
_atom_site_label
_atom_site_fract_x
_atom_site_fract_y
_atom_site_fract_z
Si Si1 0.656091 0.934468 0.992740
Si Si2 0.158538 0.900946 0.347822
Si Si3 0.089133 0.937408 0.583883
O O1 0.729164 0.003329 0.905579
O O2 0.654338 0.750000 0.000000
O O3 0.500000 0.000000 0.000000
O O4 0.757984 0.990889 0.070007
O O5 0.208042 0.868729 0.250000
O O6 0.117458 0.742795 0.398233
O O7 0.014529 0.998841 0.343657
O O8 0.000000 0.000000 0.500000
#
# Coordination Sequence:
#
# PCOD9436342 Si02
#       3
#     8   8   8
#     4  11  22  40  62  83 115 159 202 243 298 373
#     4  11  22  38  60  91 122 153 199 256 301 346
#     4  10  19  36  61  86 118 158 198 239 296 367
#
# _framework density 18.922101999999999
#
# number of rings (size 3 to 8) (size 9 to 14) (size 15 to 20)
#    0.000    1.333    0.000   11.000    0.000    0.000 
#    0.000   10.000    0.000    0.000    0.000    0.000 
#    0.000    0.000    0.000    0.000    0.000    0.000 
#
# Total GULP energy -133666.855021 kJ/mol
# GULP energy per Si atom -5569.452293 kJ/mol
# Density = 1.887903 g / cm^3
# Si number density = 18.922102 Si / 1000 Ang^3
#
#
#
# Elastic Constant Matrix: (Units=GPa)
#
#
# Indices 1 2 3 4 5 6 
#
# 1 175.7200 80.2606 41.0781 0.0000 0.0000 0.0000
# 2 80.2606 211.4727 55.6839 0.0000 0.0000 0.0000
# 3 41.0781 55.6839 126.6833 0.0000 0.0000 0.0000
# 4 0.0000 0.0000 0.0000 14.4770 0.0000 0.0000
# 5 0.0000 0.0000 0.0000 0.0000 -0.9690 0.0000
# 6 0.0000 0.0000 0.0000 0.0000 0.0000 36.6244
#
#
#
# Elastic Compliance Matrix: (Units=1/GPa)
#
#
# Indices 1 2 3 4 5 6 
#
# 1 0.007057 -0.002347 -0.001256 0.000000 0.000000 0.000000
# 2 -0.002347 0.006129 -0.001933 0.000000 0.000000 0.000000
# 3 -0.001256 -0.001933 0.009151 0.000000 0.000000 0.000000
# 4 0.000000 0.000000 0.000000 0.069075 0.000000 0.000000
# 5 0.000000 0.000000 0.000000 0.000000 -1.031957 0.000000
# 6 0.000000 0.000000 0.000000 0.000000 0.000000 0.027304
#
#
# Mechanical properties :
#
#
# Convention : Reuss Voigt Hill
#
# Bulk Modulus (GPa) = 88.78651 96.43569 92.61110
# Shear Modulus (GPa) = -5.56536 32.48336 13.45900
#
# Velocity S-wave (km/s) = -1.71685 4.14779 2.66989
# Velocity P-wave (km/s) = 6.56459 8.60314 7.65206
#
# Compressibility (1/GPa) = 0.01126297
#
# Stress axis : x y z
#
# Youngs Moduli (GPa) = 141.70769 163.17031 109.28249
#
# Poissons Ratio (x) = 0.38303 0.13730
# Poissons Ratio (y) = 0.33265 0.21120
# Poissons Ratio (z) = 0.17804 0.31535
#
# Static dielectric constant tensor:
#      x y z
#    x 1.640400 0.000000 0.000000 
#    y 0.000000 1.686000 0.000000 
#    z 0.000000 0.000000 1.770850 
# 
# From -- ./inp_files/15357.got.cif
#   From: 2010.05.17/outbox.cif.g08.bks.cpg/sg57_8_cif.got.tgz:15357.got - 2010.06.03 13:58:18.
