data_PCOD9436939
_publ_section_title
;
Structure prediction by ZEFSAII (Michael W. Deem and Ramdas Pophale) SiO2 
 PCOD9436939
Probable space group: P B C M
;
_chemical_formula_sum "Si O2"
_cell_formula_units_Z 64
_cell_length_a 14.580757
_cell_length_b 25.901846
_cell_length_c 8.992662
_cell_angle_alpha 90.000000
_cell_angle_beta 90.000000
_cell_angle_gamma 90.000000
_cell_volume 3396.245370
_symmetry_space_group_name_H-M "P B C M"
_symmetry_group_IT_number 57
_symmetry_cell_setting 'orthorhombic'
loop_
_space_group_symop_operation_xyz
x,y,z
-x,-y,1/2+z
x,1/2-y,-z
-x,1/2+y,1/2-z
-x,-y,-z
x,y,1/2-z
-x,1/2+y,z
x,1/2-y,1/2+z
loop_
_atom_site_type_symbol
_atom_site_label
_atom_site_fract_x
_atom_site_fract_y
_atom_site_fract_z
Si Si1 0.415822 0.305303 0.927466
Si Si2 0.879138 0.102689 0.071863
Si Si3 0.204307 0.195185 0.071719
Si Si4 0.766638 0.194368 0.571619
Si Si5 0.217415 0.494076 0.427739
Si Si6 0.906930 0.593793 0.070879
Si Si7 0.595092 0.483200 0.073601
Si Si8 0.579120 0.137895 0.926087
O O1 0.421645 0.301360 0.750000
O O2 0.310211 0.317334 0.968243
O O3 0.438451 0.250000 0.000000
O O4 0.488173 0.346416 0.986757
O O5 0.873056 0.111272 0.250000
O O6 0.822743 0.050837 0.036251
O O7 0.985610 0.093812 0.034064
O O8 0.836905 0.151575 0.988466
O O9 0.200391 0.200562 0.250000
O O10 0.138524 0.148435 0.028150
O O11 0.180239 0.250000 0.000000
O O12 0.783140 0.250000 0.500000
O O13 0.771680 0.197379 0.750000
O O14 0.664756 0.173863 0.530605
O O15 0.223667 0.489494 0.250000
O O16 0.148493 0.451684 0.492301
O O17 0.317574 0.489410 0.500211
O O18 0.898028 0.588021 0.250000
O O19 0.593324 0.493030 0.250000
O O20 0.604722 0.421648 0.049228
O O21 0.500000 0.500000 0.000000
O O22 0.562565 0.144780 0.750000
#
# Coordination Sequence:
#
# PCOD9436939 Si02
#       8
#     8   8   8   8   8   8   8   8
#     4  10  20  34  55  82 112 150 192 236 286 348
#     4  10  22  41  63  89 122 159 204 257 310 364
#     4   9  20  38  58  84 117 154 194 239 298 354
#     4  11  23  40  62  89 122 162 206 254 314 372
#     4  11  23  40  63  93 123 160 206 250 303 365
#     4  10  22  40  63  90 121 159 203 254 308 365
#     4  11  24  42  62  90 125 161 200 246 303 363
#     4  10  22  39  59  85 117 155 197 244 298 360
#
# _framework density 18.844339000000002
#
# number of rings (size 3 to 8) (size 9 to 14) (size 15 to 20)
#    0.000    1.750    1.250    2.250    1.750    5.500 
#    0.000    1.250    0.000    0.000    0.000    0.000 
#    0.000    0.000    0.000    0.000    0.000    0.000 
#
# Total GULP energy -357694.168288 kJ/mol
# GULP energy per Si atom -5588.971379 kJ/mol
# Density = 1.880145 g / cm^3
# Si number density = 18.844339 Si / 1000 Ang^3
#
#
#
# Elastic Constant Matrix: (Units=GPa)
#
#
# Indices 1 2 3 4 5 6 
#
# 1 130.9902 66.2672 53.5275 0.0000 0.0000 0.0000
# 2 66.2672 103.1930 52.8096 0.0000 0.0000 0.0000
# 3 53.5275 52.8096 42.3585 0.0000 0.0000 0.0000
# 4 0.0000 0.0000 0.0000 33.4998 0.0000 0.0000
# 5 0.0000 0.0000 0.0000 0.0000 27.4181 0.0000
# 6 0.0000 0.0000 0.0000 0.0000 0.0000 9.9415
#
#
#
# Elastic Compliance Matrix: (Units=1/GPa)
#
#
# Indices 1 2 3 4 5 6 
#
# 1 0.015787 0.000197 -0.020196 0.000000 0.000000 0.000000
# 2 0.000197 0.026773 -0.033629 0.000000 0.000000 0.000000
# 3 -0.020196 -0.033629 0.091055 0.000000 0.000000 0.000000
# 4 0.000000 0.000000 0.000000 0.029851 0.000000 0.000000
# 5 0.000000 0.000000 0.000000 0.000000 0.036472 0.000000
# 6 0.000000 0.000000 0.000000 0.000000 0.000000 0.100588
#
#
# Mechanical properties :
#
#
# Convention : Reuss Voigt Hill
#
# Bulk Modulus (GPa) = 37.93458 69.08336 53.50897
# Shear Modulus (GPa) = 12.00282 21.10105 16.55194
#
# Velocity S-wave (km/s) = 2.52652 3.34991 2.96691
# Velocity P-wave (km/s) = 5.35586 7.19042 6.33985
#
# Compressibility (1/GPa) = 0.02636117
#
# Stress axis : x y z
#
# Youngs Moduli (GPa) = 63.34273 37.35039 10.98234
#
# Poissons Ratio (x) = -0.00737 0.22180
# Poissons Ratio (y) = -0.01251 0.36932
# Poissons Ratio (z) = 1.27927 1.25605
#
# Static dielectric constant tensor:
#      x y z
#    x 1.634340 0.000000 0.000000 
#    y 0.000000 1.631460 0.000000 
#    z 0.000000 0.000000 1.626730 
# 
# From -- ./inp_files/5615.got.cif
#   From: 2010.05.17/outbox.cif.g08.bks.cpg/sg57_3_cif.got.tgz:5615.got - 2010.06.03 13:58:18.
