data_PCOD9436531
_publ_section_title
;
Structure prediction by ZEFSAII (Michael W. Deem and Ramdas Pophale) SiO2 
 PCOD9436531
Probable space group: P B C M
;
_chemical_formula_sum "Si O2"
_cell_formula_units_Z 48
_cell_length_a 15.251065
_cell_length_b 5.998840
_cell_length_c 26.904934
_cell_angle_alpha 90.000000
_cell_angle_beta 90.000000
_cell_angle_gamma 90.000000
_cell_volume 2461.497402
_symmetry_space_group_name_H-M "P B C M"
_symmetry_group_IT_number 57
_symmetry_cell_setting 'orthorhombic'
loop_
_space_group_symop_operation_xyz
x,y,z
-x,-y,1/2+z
x,1/2-y,-z
-x,1/2+y,1/2-z
-x,-y,-z
x,y,1/2-z
-x,1/2+y,z
x,1/2-y,1/2+z
loop_
_atom_site_type_symbol
_atom_site_label
_atom_site_fract_x
_atom_site_fract_y
_atom_site_fract_z
Si Si1 0.561825 0.240767 0.597624
Si Si2 0.628811 0.628972 0.948405
Si Si3 0.211847 0.707548 0.694186
Si Si4 0.309617 0.134247 0.138668
Si Si5 0.392753 0.518139 0.195325
Si Si6 0.034031 0.575475 0.190206
O O1 0.469701 0.189863 0.571660
O O2 0.620155 0.365245 0.556042
O O3 0.621516 0.040317 0.616099
O O4 0.552672 0.389836 0.648363
O O5 0.700148 0.697967 0.907223
O O6 0.642725 0.750000 0.000000
O O7 0.190858 0.627056 0.750000
O O8 0.226113 0.497376 0.658600
O O9 0.137035 0.881689 0.679956
O O10 0.305514 0.829964 0.696004
O O11 0.356929 0.272921 0.182329
O O12 0.434706 0.527575 0.250000
O O13 0.020179 0.570262 0.250000
O O14 0.006359 0.321656 0.173479
#
# Coordination Sequence:
#
# PCOD9436531 Si02
#       6
#     8   8   8   8   8   8
#     4  10  20  33  50  72  94 124 172 218 265 322
#     4  11  21  34  54  73  94 126 168 223 283 325
#     4   9  18  32  51  70  99 140 173 208 256 308
#     4  10  20  32  50  69  97 130 172 214 258 321
#     4   9  19  34  49  67  94 135 176 210 254 306
#     4   9  18  30  48  78 108 137 178 220 261 314
#
# _framework density 19.500323999999999
#
# number of rings (size 3 to 8) (size 9 to 14) (size 15 to 20)
#    0.000    2.333    1.667    1.000    2.333    0.667 
#    0.000    4.167    0.000    0.000    0.000    0.000 
#    0.000    1.333    0.000    1.000    0.000    0.000 
#
# Total GULP energy -267206.928266 kJ/mol
# GULP energy per Si atom -5566.811006 kJ/mol
# Density = 1.945594 g / cm^3
# Si number density = 19.500324 Si / 1000 Ang^3
#
#
#
# Elastic Constant Matrix: (Units=GPa)
#
#
# Indices 1 2 3 4 5 6 
#
# 1 29.2045 -5.2305 3.5152 0.0000 0.0000 0.0000
# 2 -5.2305 62.8885 -0.4498 0.0000 0.0000 0.0000
# 3 3.5152 -0.4498 63.7775 0.0000 0.0000 0.0000
# 4 0.0000 0.0000 0.0000 23.2324 0.0000 0.0000
# 5 0.0000 0.0000 0.0000 0.0000 7.4002 0.0000
# 6 0.0000 0.0000 0.0000 0.0000 0.0000 21.4899
#
#
#
# Elastic Compliance Matrix: (Units=1/GPa)
#
#
# Indices 1 2 3 4 5 6 
#
# 1 0.034990 0.002896 -0.001908 0.000000 0.000000 0.000000
# 2 0.002896 0.016142 -0.000046 0.000000 0.000000 0.000000
# 3 -0.001908 -0.000046 0.015784 0.000000 0.000000 0.000000
# 4 0.000000 0.000000 0.000000 0.043043 0.000000 0.000000
# 5 0.000000 0.000000 0.000000 0.000000 0.135131 0.000000
# 6 0.000000 0.000000 0.000000 0.000000 0.000000 0.046534
#
#
# Mechanical properties :
#
#
# Convention : Reuss Voigt Hill
#
# Bulk Modulus (GPa) = 14.53467 16.83780 15.68624
# Shear Modulus (GPa) = 15.99122 20.96021 18.47571
#
# Velocity S-wave (km/s) = 2.86676 3.28207 3.08142
# Velocity P-wave (km/s) = 4.29272 4.79750 4.55211
#
# Compressibility (1/GPa) = 0.06880100
#
# Stress axis : x y z
#
# Youngs Moduli (GPa) = 28.57986 61.95120 63.35384
#
# Poissons Ratio (x) = -0.17944 0.12088
# Poissons Ratio (y) = -0.08278 0.00290
# Poissons Ratio (z) = 0.05453 0.00284
#
# Static dielectric constant tensor:
#      x y z
#    x 1.682590 0.000000 0.000000 
#    y 0.000000 1.911650 0.000000 
#    z 0.000000 0.000000 1.707990 
# 
# From -- ./inp_files/28820.got.cif
#   From: 2010.05.17/outbox.cif.g08.bks.cpg/sg57_15_cif.got.tgz:28820.got - 2010.06.03 13:58:18.
