data_PCOD9436527
_publ_section_title
;
Structure prediction by ZEFSAII (Michael W. Deem and Ramdas Pophale) SiO2 
 PCOD9436527
Probable space group: P B C M
;
_chemical_formula_sum "Si O2"
_cell_formula_units_Z 44
_cell_length_a 27.848942
_cell_length_b 9.048116
_cell_length_c 9.242580
_cell_angle_alpha 90.000000
_cell_angle_beta 90.000000
_cell_angle_gamma 90.000000
_cell_volume 2328.949539
_symmetry_space_group_name_H-M "P B C M"
_symmetry_group_IT_number 57
_symmetry_cell_setting 'orthorhombic'
loop_
_space_group_symop_operation_xyz
x,y,z
-x,-y,1/2+z
x,1/2-y,-z
-x,1/2+y,1/2-z
-x,-y,-z
x,y,1/2-z
-x,1/2+y,z
x,1/2-y,1/2+z
loop_
_atom_site_type_symbol
_atom_site_label
_atom_site_fract_x
_atom_site_fract_y
_atom_site_fract_z
Si Si1 0.041658 0.590957 0.423071
Si Si2 0.503309 0.250000 0.000000
Si Si3 0.653199 0.091958 0.580023
Si Si4 0.569605 0.509479 0.596742
Si Si5 0.148692 0.911093 0.577231
Si Si6 0.240414 0.588438 0.576455
O O1 0.041746 0.750000 0.500000
O O2 0.033975 0.604728 0.250000
O O3 0.095359 0.523666 0.443324
O O4 0.000000 0.500000 0.500000
O O5 0.467901 0.357428 0.086473
O O6 0.538007 0.139258 0.085208
O O7 0.649028 0.250000 0.500000
O O8 0.649835 0.119485 0.750000
O O9 0.706195 0.025448 0.551199
O O10 0.609098 0.992813 0.527740
O O11 0.595539 0.512348 0.750000
O O12 0.146025 0.750000 0.500000
O O13 0.156761 0.895793 0.750000
O O14 0.194407 0.986003 0.499759
O O15 0.243177 0.750000 0.500000
O O16 0.233132 0.601340 0.750000
#
# Coordination Sequence:
#
# PCOD9436527 Si02
#       6
#     8   4   8   8   8   8
#     4  10  20  33  50  75 107 142 180 221 267 316
#     4  10  24  38  56  82 108 134 174 212 254 308
#     4  10  20  32  49  75 106 136 171 213 257 308
#     4  11  22  38  58  80 106 139 173 211 258 306
#     4   9  16  26  43  68  98 132 170 213 258 308
#     4   9  16  26  42  67  98 131 165 208 259 305
#
# _framework density 18.892636
#
# number of rings (size 3 to 8) (size 9 to 14) (size 15 to 20)
#    0.000    2.182    0.909    3.818    0.000    8.000 
#    0.000    0.000    0.000    0.000    2.364    0.000 
#    0.000    0.000    0.000    0.000    0.000    0.000 
#
# Total GULP energy -245053.152666 kJ/mol
# GULP energy per Si atom -5569.389833 kJ/mol
# Density = 1.884964 g / cm^3
# Si number density = 18.892636 Si / 1000 Ang^3
#
#
#
# Elastic Constant Matrix: (Units=GPa)
#
#
# Indices 1 2 3 4 5 6 
#
# 1 168.4738 24.2469 70.9219 0.0000 0.0000 0.0000
# 2 24.2469 34.1458 13.6942 0.0000 0.0000 0.0000
# 3 70.9219 13.6942 124.8161 0.0000 0.0000 0.0000
# 4 0.0000 0.0000 0.0000 1.5081 0.0000 0.0000
# 5 0.0000 0.0000 0.0000 0.0000 13.9798 0.0000
# 6 0.0000 0.0000 0.0000 0.0000 0.0000 14.6023
#
#
#
# Elastic Compliance Matrix: (Units=1/GPa)
#
#
# Indices 1 2 3 4 5 6 
#
# 1 0.008342 -0.004208 -0.004279 0.000000 0.000000 0.000000
# 2 -0.004208 0.032757 -0.001203 0.000000 0.000000 0.000000
# 3 -0.004279 -0.001203 0.010575 0.000000 0.000000 0.000000
# 4 0.000000 0.000000 0.000000 0.663064 0.000000 0.000000
# 5 0.000000 0.000000 0.000000 0.000000 0.071532 0.000000
# 6 0.000000 0.000000 0.000000 0.000000 0.000000 0.068483
#
#
# Mechanical properties :
#
#
# Convention : Reuss Voigt Hill
#
# Bulk Modulus (GPa) = 30.96442 60.57352 45.76897
# Shear Modulus (GPa) = 5.65038 20.58955 13.11997
#
# Velocity S-wave (km/s) = 1.73126 3.30482 2.63810
# Velocity P-wave (km/s) = 4.51903 6.83330 5.79291
#
# Compressibility (1/GPa) = 0.03229513
#
# Stress axis : x y z
#
# Youngs Moduli (GPa) = 119.86968 30.52807 94.56367
#
# Poissons Ratio (x) = 0.12846 0.40460
# Poissons Ratio (y) = 0.50441 0.11375
# Poissons Ratio (z) = 0.51287 0.03672
#
# Static dielectric constant tensor:
#      x y z
#    x 1.724150 0.000000 0.000000 
#    y 0.000000 1.656480 0.000000 
#    z 0.000000 0.000000 1.668080 
# 
# From -- ./inp_files/9854.got.cif
#   From: 2010.05.17/outbox.cif.g08.bks.cpg/sg57_5_cif.got.tgz:9854.got - 2010.06.03 13:58:18.
