data_PCOD9436876
_publ_section_title
;
Structure prediction by ZEFSAII (Michael W. Deem and Ramdas Pophale) SiO2 
 PCOD9436876
Probable space group: P B C M
;
_chemical_formula_sum "Si O2"
_cell_formula_units_Z 48
_cell_length_a 32.167811
_cell_length_b 9.196997
_cell_length_c 8.654820
_cell_angle_alpha 90.000000
_cell_angle_beta 90.000000
_cell_angle_gamma 90.000000
_cell_volume 2560.504794
_symmetry_space_group_name_H-M "P B C M"
_symmetry_group_IT_number 57
_symmetry_cell_setting 'orthorhombic'
loop_
_space_group_symop_operation_xyz
x,y,z
-x,-y,1/2+z
x,1/2-y,-z
-x,1/2+y,1/2-z
-x,-y,-z
x,y,1/2-z
-x,1/2+y,z
x,1/2-y,1/2+z
loop_
_atom_site_type_symbol
_atom_site_label
_atom_site_fract_x
_atom_site_fract_y
_atom_site_fract_z
Si Si1 0.539521 0.086833 0.063994
Si Si2 0.869918 0.585228 0.935460
Si Si3 0.377676 0.412600 0.063912
Si Si4 0.038838 0.413056 0.434891
Si Si5 0.294930 0.587278 0.063915
Si Si6 0.783744 0.585329 0.434544
O O1 0.537769 0.090533 0.250000
O O2 0.581605 0.003061 0.016268
O O3 0.539659 0.250000 0.000000
O O4 0.500000 0.000000 0.000000
O O5 0.865662 0.588450 0.750000
O O6 0.915419 0.522409 0.975356
O O7 0.871235 0.750000 0.000000
O O8 0.828112 0.521734 0.008764
O O9 0.377780 0.405348 0.250000
O O10 0.335774 0.496152 0.016402
O O11 0.378728 0.250000 0.000000
O O12 0.037163 0.250000 0.500000
O O13 0.036561 0.407726 0.250000
O O14 0.000000 0.500000 0.500000
O O15 0.293034 0.590181 0.250000
O O16 0.297826 0.750000 0.000000
O O17 0.254207 0.508419 0.998427
O O18 0.780216 0.750000 0.500000
O O19 0.783011 0.591421 0.250000
#
# Coordination Sequence:
#
# PCOD9436876 Si02
#       6
#     8   8   8   8   8   8
#     4  11  23  40  61  89 121 157 197 240 288 340
#     4   9  17  31  52  78 106 140 181 226 273 327
#     4  10  23  40  61  87 116 150 192 237 283 334
#     4  10  20  34  54  79 109 143 182 226 275 328
#     4  11  23  40  59  83 114 149 186 229 280 336
#     4  11  21  35  57  84 111 143 182 228 275 327
#
# _framework density 18.746303999999999
#
# number of rings (size 3 to 8) (size 9 to 14) (size 15 to 20)
#    0.000    1.667    0.000    6.000    0.000    7.333 
#    0.000    0.833    0.000    4.000    0.000    0.000 
#    0.000    0.000    0.000    0.000    0.000    0.000 
#
# Total GULP energy -268116.162603 kJ/mol
# GULP energy per Si atom -5585.753388 kJ/mol
# Density = 1.870364 g / cm^3
# Si number density = 18.746304 Si / 1000 Ang^3
#
#
#
# Elastic Constant Matrix: (Units=GPa)
#
#
# Indices 1 2 3 4 5 6 
#
# 1 235.6202 103.0072 72.0640 0.0000 0.0000 0.0000
# 2 103.0072 129.0410 43.4765 0.0000 0.0000 0.0000
# 3 72.0640 43.4765 89.4546 0.0000 0.0000 0.0000
# 4 0.0000 0.0000 0.0000 34.5198 0.0000 0.0000
# 5 0.0000 0.0000 0.0000 0.0000 30.4905 0.0000
# 6 0.0000 0.0000 0.0000 0.0000 0.0000 34.2091
#
#
#
# Elastic Compliance Matrix: (Units=1/GPa)
#
#
# Indices 1 2 3 4 5 6 
#
# 1 0.007422 -0.004676 -0.003707 0.000000 0.000000 0.000000
# 2 -0.004676 0.012213 -0.002169 0.000000 0.000000 0.000000
# 3 -0.003707 -0.002169 0.015219 0.000000 0.000000 0.000000
# 4 0.000000 0.000000 0.000000 0.028969 0.000000 0.000000
# 5 0.000000 0.000000 0.000000 0.000000 0.032797 0.000000
# 6 0.000000 0.000000 0.000000 0.000000 0.000000 0.029232
#
#
# Mechanical properties :
#
#
# Convention : Reuss Voigt Hill
#
# Bulk Modulus (GPa) = 72.72068 99.02347 85.87208
# Shear Modulus (GPa) = 32.99522 35.54842 34.27182
#
# Velocity S-wave (km/s) = 4.19990 4.35936 4.28037
# Velocity P-wave (km/s) = 7.89905 8.84739 8.38664
#
# Compressibility (1/GPa) = 0.01375125
#
# Stress axis : x y z
#
# Youngs Moduli (GPa) = 134.73728 81.88276 65.70787
#
# Poissons Ratio (x) = 0.38286 0.24355
# Poissons Ratio (y) = 0.62999 0.14251
# Poissons Ratio (z) = 0.49941 0.17759
#
# Static dielectric constant tensor:
#      x y z
#    x 1.673470 0.000000 0.000000 
#    y 0.000000 1.611680 0.000000 
#    z 0.000000 0.000000 1.630490 
# 
# From -- ./inp_files/9964.got.cif
#   From: 2010.05.17/outbox.cif.g08.bks.cpg/sg57_5_cif.got.tgz:9964.got - 2010.06.03 13:58:18.
