data_PCOD9436704
_publ_section_title
;
Structure prediction by ZEFSAII (Michael W. Deem and Ramdas Pophale) SiO2 
 PCOD9436704
Probable space group: P B C M
;
_chemical_formula_sum "Si O2"
_cell_formula_units_Z 64
_cell_length_a 21.237648
_cell_length_b 16.881737
_cell_length_c 7.743749
_cell_angle_alpha 90.000000
_cell_angle_beta 90.000000
_cell_angle_gamma 90.000000
_cell_volume 2776.353846
_symmetry_space_group_name_H-M "P B C M"
_symmetry_group_IT_number 57
_symmetry_cell_setting 'orthorhombic'
loop_
_space_group_symop_operation_xyz
x,y,z
-x,-y,1/2+z
x,1/2-y,-z
-x,1/2+y,1/2-z
-x,-y,-z
x,y,1/2-z
-x,1/2+y,z
x,1/2-y,1/2+z
loop_
_atom_site_type_symbol
_atom_site_label
_atom_site_fract_x
_atom_site_fract_y
_atom_site_fract_z
Si Si1 0.301208 0.620269 0.451798
Si Si2 0.038785 0.340270 0.955601
Si Si3 0.939360 0.052146 0.939424
Si Si4 0.294495 0.064121 0.040183
Si Si5 0.173447 0.342781 0.957381
Si Si6 0.838013 0.161074 0.548996
Si Si7 0.563088 0.108529 0.046660
Si Si8 0.430907 0.078107 0.459865
O O1 0.301833 0.640278 0.250000
O O2 0.295415 0.525535 0.474265
O O3 0.237061 0.655318 0.524870
O O4 0.370772 0.641029 0.527000
O O5 0.028266 0.350002 0.750000
O O6 0.105652 0.378653 0.012201
O O7 0.049948 0.250000 0.000000
O O8 0.978305 0.366096 0.059587
O O9 0.923610 0.020406 0.750000
O O10 0.875628 0.084721 0.030254
O O11 0.000000 0.000000 0.000000
O O12 0.292098 0.060226 0.250000
O O13 0.233269 0.109775 0.976620
O O14 0.360797 0.105504 0.992629
O O15 0.172379 0.347734 0.750000
O O16 0.179804 0.250000 0.000000
O O17 0.857894 0.250000 0.500000
O O18 0.850807 0.152475 0.750000
O O19 0.563531 0.127695 0.250000
O O20 0.492695 0.125659 0.977890
O O21 0.566181 0.012682 0.026352
O O22 0.434336 0.074497 0.250000
#
# Coordination Sequence:
#
# PCOD9436704 Si02
#       8
#     8   8   8   8   8   8   8   8
#     4  10  20  33  53  82 111 142 180 227 275 324
#     4  10  20  36  57  80 108 143 182 223 267 319
#     4  11  25  42  62  88 115 144 178 223 272 325
#     4   9  17  30  49  75 108 144 184 229 278 327
#     4   9  19  33  50  73 103 139 177 218 262 315
#     4  11  25  44  64  85 113 148 186 227 274 330
#     4   8  14  25  42  69 103 135 175 222 269 319
#     4   8  13  23  42  67  98 139 178 219 271 323
#
# _framework density 23.051815999999999
#
# number of rings (size 3 to 8) (size 9 to 14) (size 15 to 20)
#    0.000    2.500    0.000    1.875    1.750    4.500 
#    0.000    0.000    0.000    0.750    0.000    1.750 
#    0.000    0.000    0.000    0.000    0.000    0.000 
#
# Total GULP energy -356387.698421 kJ/mol
# GULP energy per Si atom -5568.557788 kJ/mol
# Density = 2.299935 g / cm^3
# Si number density = 23.051816 Si / 1000 Ang^3
#
#
#
# Elastic Constant Matrix: (Units=GPa)
#
#
# Indices 1 2 3 4 5 6 
#
# 1 146.2082 15.7446 9.5871 0.0000 0.0000 0.0000
# 2 15.7446 30.1596 -0.3896 0.0000 0.0000 0.0000
# 3 9.5871 -0.3896 48.8071 0.0000 0.0000 0.0000
# 4 0.0000 0.0000 0.0000 19.2960 0.0000 0.0000
# 5 0.0000 0.0000 0.0000 0.0000 26.4387 0.0000
# 6 0.0000 0.0000 0.0000 0.0000 0.0000 13.8839
#
#
#
# Elastic Compliance Matrix: (Units=1/GPa)
#
#
# Indices 1 2 3 4 5 6 
#
# 1 0.007352 -0.003857 -0.001475 0.000000 0.000000 0.000000
# 2 -0.003857 0.035184 0.001038 0.000000 0.000000 0.000000
# 3 -0.001475 0.001038 0.020787 0.000000 0.000000 0.000000
# 4 0.000000 0.000000 0.000000 0.051824 0.000000 0.000000
# 5 0.000000 0.000000 0.000000 0.000000 0.037823 0.000000
# 6 0.000000 0.000000 0.000000 0.000000 0.000000 0.072026
#
#
# Mechanical properties :
#
#
# Convention : Reuss Voigt Hill
#
# Bulk Modulus (GPa) = 18.26962 30.56211 24.41586
# Shear Modulus (GPa) = 19.85486 25.27257 22.56371
#
# Velocity S-wave (km/s) = 2.93800 3.31469 3.13201
# Velocity P-wave (km/s) = 4.41042 5.28549 4.86766
#
# Compressibility (1/GPa) = 0.05473567
#
# Stress axis : x y z
#
# Youngs Moduli (GPa) = 136.02477 28.42213 48.10739
#
# Poissons Ratio (x) = 0.10962 0.07095
# Poissons Ratio (y) = 0.52463 -0.04996
# Poissons Ratio (z) = 0.20062 -0.02951
#
# Static dielectric constant tensor:
#      x y z
#    x 2.010580 0.000000 0.000000 
#    y 0.000000 1.972020 0.000000 
#    z 0.000000 0.000000 1.902590 
# 
# From -- ./inp_files/8492.got.cif
#   From: 2010.05.17/outbox.cif.g08.bks.cpg/sg57_5_cif.got.tgz:8492.got - 2010.06.03 13:58:18.
