data_PCOD9436440
_publ_section_title
;
Structure prediction by ZEFSAII (Michael W. Deem and Ramdas Pophale) SiO2 
 PCOD9436440
Probable space group: P B C M
;
_chemical_formula_sum "Si O2"
_cell_formula_units_Z 48
_cell_length_a 18.633971
_cell_length_b 8.442347
_cell_length_c 14.960669
_cell_angle_alpha 90.000000
_cell_angle_beta 90.000000
_cell_angle_gamma 90.000000
_cell_volume 2353.529403
_symmetry_space_group_name_H-M "P B C M"
_symmetry_group_IT_number 57
_symmetry_cell_setting 'orthorhombic'
loop_
_space_group_symop_operation_xyz
x,y,z
-x,-y,1/2+z
x,1/2-y,-z
-x,1/2+y,1/2-z
-x,-y,-z
x,y,1/2-z
-x,1/2+y,z
x,1/2-y,1/2+z
loop_
_atom_site_type_symbol
_atom_site_label
_atom_site_fract_x
_atom_site_fract_y
_atom_site_fract_z
Si Si1 0.177110 0.201393 0.095525
Si Si2 0.589590 0.875481 0.250000
Si Si3 0.804956 0.178878 0.903579
Si Si4 0.571856 0.004305 0.750000
Si Si5 0.927907 0.677847 0.250000
Si Si6 0.350801 0.858415 0.073850
Si Si7 0.328468 0.125885 0.568015
Si Si8 0.088784 0.796701 0.250000
O O1 0.117664 0.243394 0.167255
O O2 0.253767 0.292777 0.100048
O O3 0.189190 0.012462 0.102157
O O4 0.147684 0.250000 0.000000
O O5 0.511696 0.953565 0.250000
O O6 0.584241 0.684053 0.250000
O O7 0.629280 0.918788 0.157310
O O8 0.721430 0.218815 0.884870
O O9 0.862137 0.246009 0.834480
O O10 0.821315 0.250000 0.000000
O O11 0.605786 0.074506 0.657942
O O12 0.921846 0.487084 0.250000
O O13 0.010645 0.722120 0.250000
O O14 0.391678 0.750000 0.000000
O O15 0.318976 0.986077 0.003195
O O16 0.367081 0.250000 0.500000
#
# Coordination Sequence:
#
# PCOD9436440 Si02
#       8
#     8   4   8   4   4   8   8   4
#     4  10  19  38  64  89 114 153 210 253 298 361
#     4  12  27  41  66  94 134 170 212 258 317 383
#     4  10  20  38  64  89 117 155 201 256 307 356
#     4  12  27  45  62  96 132 173 209 259 320 383
#     4  10  23  39  58  86 124 165 197 249 306 369
#     4  11  24  43  70  95 128 164 213 270 320 370
#     4  11  21  43  68  95 120 164 217 264 314 369
#     4  10  23  41  58  86 126 164 200 242 311 369
#
# _framework density 20.394901000000001
#
# number of rings (size 3 to 8) (size 9 to 14) (size 15 to 20)
#    0.000    1.333    5.000    1.000    2.333    4.667 
#    0.000    4.167    0.000    0.000    0.000    0.000 
#    0.000    0.000    0.000    0.000    0.000    0.000 
#
# Total GULP energy -267576.224707 kJ/mol
# GULP energy per Si atom -5574.504681 kJ/mol
# Density = 2.034848 g / cm^3
# Si number density = 20.394901 Si / 1000 Ang^3
#
#
#
# Elastic Constant Matrix: (Units=GPa)
#
#
# Indices 1 2 3 4 5 6 
#
# 1 127.2479 9.4392 94.2337 0.0000 0.0000 0.0000
# 2 9.4392 19.8981 -0.4650 0.0000 0.0000 0.0000
# 3 94.2337 -0.4650 146.4357 0.0000 0.0000 0.0000
# 4 0.0000 0.0000 0.0000 31.1929 0.0000 0.0000
# 5 0.0000 0.0000 0.0000 0.0000 81.0994 0.0000
# 6 0.0000 0.0000 0.0000 0.0000 0.0000 26.9363
#
#
#
# Elastic Compliance Matrix: (Units=1/GPa)
#
#
# Indices 1 2 3 4 5 6 
#
# 1 0.016171 -0.007915 -0.010431 0.000000 0.000000 0.000000
# 2 -0.007915 0.054134 0.005265 0.000000 0.000000 0.000000
# 3 -0.010431 0.005265 0.013558 0.000000 0.000000 0.000000
# 4 0.000000 0.000000 0.000000 0.032059 0.000000 0.000000
# 5 0.000000 0.000000 0.000000 0.000000 0.012331 0.000000
# 6 0.000000 0.000000 0.000000 0.000000 0.000000 0.037125
#
#
# Mechanical properties :
#
#
# Convention : Reuss Voigt Hill
#
# Bulk Modulus (GPa) = 17.33068 55.55527 36.44297
# Shear Modulus (GPa) = 23.72234 40.53728 32.12981
#
# Velocity S-wave (km/s) = 3.41420 4.46311 3.97342
# Velocity P-wave (km/s) = 4.90493 7.33880 6.24165
#
# Compressibility (1/GPa) = 0.05770114
#
# Stress axis : x y z
#
# Youngs Moduli (GPa) = 61.84052 18.47276 73.75559
#
# Poissons Ratio (x) = 0.14621 0.76936
# Poissons Ratio (y) = 0.48945 -0.38833
# Poissons Ratio (z) = 0.64507 -0.09726
#
# Static dielectric constant tensor:
#      x y z
#    x 1.698040 0.000000 0.000000 
#    y 0.000000 1.909730 0.000000 
#    z 0.000000 0.000000 1.553530 
# 
# From -- ./inp_files/19045.got.cif
#   From: 2010.05.17/outbox.cif.g08.bks.cpg/sg57_10_cif.got.tgz:19045.got - 2010.06.03 13:58:18.
