data_PCOD9436375
_publ_section_title
;
Structure prediction by ZEFSAII (Michael W. Deem and Ramdas Pophale) SiO2 
 PCOD9436375
Probable space group: P B C M
;
_chemical_formula_sum "Si O2"
_cell_formula_units_Z 60
_cell_length_a 15.313363
_cell_length_b 7.731621
_cell_length_c 23.650311
_cell_angle_alpha 90.000000
_cell_angle_beta 90.000000
_cell_angle_gamma 90.000000
_cell_volume 2800.128685
_symmetry_space_group_name_H-M "P B C M"
_symmetry_group_IT_number 57
_symmetry_cell_setting 'orthorhombic'
loop_
_space_group_symop_operation_xyz
x,y,z
-x,-y,1/2+z
x,1/2-y,-z
-x,1/2+y,1/2-z
-x,-y,-z
x,y,1/2-z
-x,1/2+y,z
x,1/2-y,1/2+z
loop_
_atom_site_type_symbol
_atom_site_label
_atom_site_fract_x
_atom_site_fract_y
_atom_site_fract_z
Si Si1 0.126683 0.881186 0.814659
Si Si2 0.606908 0.477353 0.315252
Si Si3 0.540222 0.346703 0.880033
Si Si4 0.704001 0.957934 0.988860
Si Si5 0.774788 0.896876 0.629591
Si Si6 0.941729 0.723301 0.184571
Si Si7 0.500000 0.000000 0.000000
Si Si8 0.724408 0.496696 0.611280
O O1 0.144722 0.830061 0.750000
O O2 0.094776 0.081734 0.815315
O O3 0.215086 0.876286 0.850243
O O4 0.041265 0.781549 0.836282
O O5 0.591967 0.430121 0.250000
O O6 0.538159 0.621555 0.336178
O O7 0.706423 0.532170 0.324796
O O8 0.583607 0.329709 0.360368
O O9 0.621073 0.480064 0.876861
O O10 0.506463 0.359680 0.944188
O O11 0.742730 0.040991 0.045524
O O12 0.702448 0.750000 0.000000
O O13 0.754114 0.985354 0.930450
O O14 0.603977 0.016568 0.988454
O O15 0.749428 0.694976 0.622216
O O16 0.874054 0.894138 0.650150
O O17 0.943986 0.663016 0.250000
#
# Coordination Sequence:
#
# PCOD9436375 Si02
#       8
#     8   8   8   8   8   8   4   8
#     4   9  18  33  55  79 107 142 185 232 286 342
#     4  12  25  39  55  83 119 154 191 233 290 349
#     4  11  24  38  58  83 114 154 193 240 286 335
#     4   9  18  32  55  81 108 141 187 234 279 332
#     4  10  19  37  58  82 113 150 189 234 290 340
#     4   9  18  33  55  80 106 144 188 233 282 345
#     4  10  20  34  58  82 106 146 200 240 274 328
#     4   9  20  37  57  83 111 146 189 237 286 340
#
# _framework density 21.427586999999999
#
# number of rings (size 3 to 8) (size 9 to 14) (size 15 to 20)
#    0.000    2.133    1.333    1.600    3.733    2.667 
#    0.000    2.000    0.000    0.000    0.000    0.000 
#    0.000    0.000    0.000    0.000    0.000    0.000 
#
# Total GULP energy -334175.552941 kJ/mol
# GULP energy per Si atom -5569.592549 kJ/mol
# Density = 2.137882 g / cm^3
# Si number density = 21.427587 Si / 1000 Ang^3
#
#
#
# Elastic Constant Matrix: (Units=GPa)
#
#
# Indices 1 2 3 4 5 6 
#
# 1 55.9139 18.8075 27.5588 0.0000 0.0000 0.0000
# 2 18.8075 23.3377 15.3243 0.0000 0.0000 0.0000
# 3 27.5588 15.3243 94.4914 0.0000 0.0000 0.0000
# 4 0.0000 0.0000 0.0000 19.8290 0.0000 0.0000
# 5 0.0000 0.0000 0.0000 0.0000 28.8757 0.0000
# 6 0.0000 0.0000 0.0000 0.0000 0.0000 19.4018
#
#
#
# Elastic Compliance Matrix: (Units=1/GPa)
#
#
# Indices 1 2 3 4 5 6 
#
# 1 0.026304 -0.018086 -0.004738 0.000000 0.000000 0.000000
# 2 -0.018086 0.060392 -0.004519 0.000000 0.000000 0.000000
# 3 -0.004738 -0.004519 0.012698 0.000000 0.000000 0.000000
# 4 0.000000 0.000000 0.000000 0.050431 0.000000 0.000000
# 5 0.000000 0.000000 0.000000 0.000000 0.034631 0.000000
# 6 0.000000 0.000000 0.000000 0.000000 0.000000 0.051542
#
#
# Mechanical properties :
#
#
# Convention : Reuss Voigt Hill
#
# Bulk Modulus (GPa) = 22.36853 33.01382 27.69117
# Shear Modulus (GPa) = 16.36192 21.09145 18.72669
#
# Velocity S-wave (km/s) = 2.76631 3.14078 2.95948
# Velocity P-wave (km/s) = 4.54589 5.34727 4.96278
#
# Compressibility (1/GPa) = 0.04470567
#
# Stress axis : x y z
#
# Youngs Moduli (GPa) = 38.01742 16.55846 78.75333
#
# Poissons Ratio (x) = 0.29948 0.37317
# Poissons Ratio (y) = 0.68760 0.35591
# Poissons Ratio (z) = 0.18014 0.07483
#
# Static dielectric constant tensor:
#      x y z
#    x 1.776880 0.000000 0.000000 
#    y 0.000000 1.879720 0.000000 
#    z 0.000000 0.000000 1.778610 
# 
# From -- ./inp_files/27429.got.cif
#   From: 2010.05.17/outbox.cif.g08.bks.cpg/sg57_14_cif.got.tgz:27429.got - 2010.06.03 13:58:18.
