data_PCOD9436022
_publ_section_title
;
Structure prediction by ZEFSAII (Michael W. Deem and Ramdas Pophale) SiO2 
 PCOD9436022
Probable space group: P B C M
;
_chemical_formula_sum "Si O2"
_cell_formula_units_Z 64
_cell_length_a 24.643558
_cell_length_b 14.432889
_cell_length_c 8.992709
_cell_angle_alpha 90.000000
_cell_angle_beta 90.000000
_cell_angle_gamma 90.000000
_cell_volume 3198.506388
_symmetry_space_group_name_H-M "P B C M"
_symmetry_group_IT_number 57
_symmetry_cell_setting 'orthorhombic'
loop_
_space_group_symop_operation_xyz
x,y,z
-x,-y,1/2+z
x,1/2-y,-z
-x,1/2+y,1/2-z
-x,-y,-z
x,y,1/2-z
-x,1/2+y,z
x,1/2-y,1/2+z
loop_
_atom_site_type_symbol
_atom_site_label
_atom_site_fract_x
_atom_site_fract_y
_atom_site_fract_z
Si Si1 0.977846 0.093006 0.076241
Si Si2 0.128401 0.555152 0.928996
Si Si3 0.350533 0.851569 0.928942
Si Si4 0.761834 0.040495 0.071550
Si Si5 0.383001 0.166686 0.082014
Si Si6 0.258724 0.155329 0.429557
Si Si7 0.556183 0.027141 0.578198
Si Si8 0.096899 0.156313 0.422250
O O1 0.965383 0.077916 0.250000
O O2 0.031127 0.156401 0.069063
O O3 0.922567 0.114126 0.989521
O O4 0.000000 0.000000 0.000000
O O5 0.130302 0.557993 0.750000
O O6 0.116444 0.446316 0.973918
O O7 0.184798 0.587256 0.001213
O O8 0.354431 0.846272 0.750000
O O9 0.295563 0.909850 0.965446
O O10 0.345889 0.750000 0.000000
O O11 0.404414 0.901220 0.993860
O O12 0.765963 0.035840 0.250000
O O13 0.763346 0.938469 0.999322
O O14 0.376915 0.198565 0.250000
O O15 0.322268 0.153455 0.023787
O O16 0.411829 0.069602 0.078333
O O17 0.412613 0.250000 0.000000
O O18 0.236699 0.250000 0.500000
O O19 0.253869 0.154429 0.250000
O O20 0.547651 0.056574 0.750000
O O21 0.500000 0.000000 0.500000
O O22 0.116187 0.250000 0.500000
O O23 0.112939 0.161162 0.250000
#
# Coordination Sequence:
#
# PCOD9436022 Si02
#       8
#     8   8   8   8   8   8   8   8
#     4   9  17  32  52  76 106 142 188 237 287 346
#     4  10  21  36  55  81 112 150 195 243 296 354
#     4  11  25  45  69  94 122 161 209 258 312 370
#     4  11  23  39  61  89 120 159 205 254 308 366
#     4   9  19  34  56  84 116 152 190 233 286 345
#     4  10  19  34  56  84 116 153 195 239 291 354
#     4  11  23  41  64  94 128 163 203 250 304 360
#     4   9  19  33  52  80 112 147 187 233 288 350
#
# _framework density 20.009340000000002
#
# number of rings (size 3 to 8) (size 9 to 14) (size 15 to 20)
#    0.000    2.000    1.250    3.000    0.000    7.000 
#    0.000    3.125    0.000    0.000    0.000    0.000 
#    0.000    0.000    0.000    0.000    0.000    0.000 
#
# Total GULP energy -356924.185794 kJ/mol
# GULP energy per Si atom -5576.940403 kJ/mol
# Density = 1.996380 g / cm^3
# Si number density = 20.009340 Si / 1000 Ang^3
#
#
#
# Elastic Constant Matrix: (Units=GPa)
#
#
# Indices 1 2 3 4 5 6 
#
# 1 149.0401 24.8439 55.8339 0.0000 0.0000 0.0000
# 2 24.8439 58.4052 39.1703 0.0000 0.0000 0.0000
# 3 55.8339 39.1703 86.7096 0.0000 0.0000 0.0000
# 4 0.0000 0.0000 0.0000 30.6188 0.0000 0.0000
# 5 0.0000 0.0000 0.0000 0.0000 20.0054 0.0000
# 6 0.0000 0.0000 0.0000 0.0000 0.0000 -0.2625
#
#
#
# Elastic Compliance Matrix: (Units=1/GPa)
#
#
# Indices 1 2 3 4 5 6 
#
# 1 0.008843 0.000082 -0.005731 0.000000 0.000000 0.000000
# 2 0.000082 0.024565 -0.011150 0.000000 0.000000 0.000000
# 3 -0.005731 -0.011150 0.020260 0.000000 0.000000 0.000000
# 4 0.000000 0.000000 0.000000 0.032660 0.000000 0.000000
# 5 0.000000 0.000000 0.000000 0.000000 0.049986 0.000000
# 6 0.000000 0.000000 0.000000 0.000000 0.000000 -3.808927
#
#
# Mechanical properties :
#
#
# Convention : Reuss Voigt Hill
#
# Bulk Modulus (GPa) = 49.82588 59.31678 54.57133
# Shear Modulus (GPa) = -1.37653 21.69279 10.15813
#
# Velocity S-wave (km/s) = -0.83032 3.29619 2.25560
# Velocity P-wave (km/s) = 4.90266 6.64796 5.84087
#
# Compressibility (1/GPa) = 0.02006989
#
# Stress axis : x y z
#
# Youngs Moduli (GPa) = 113.08406 40.70912 49.35823
#
# Poissons Ratio (x) = -0.00335 0.28289
# Poissons Ratio (y) = -0.00930 0.55033
# Poissons Ratio (z) = 0.64812 0.45390
#
# Static dielectric constant tensor:
#      x y z
#    x 1.741960 0.000000 0.000000 
#    y 0.000000 1.725530 0.000000 
#    z 0.000000 0.000000 1.689520 
# 
# From -- ./inp_files/9470.got.cif
#   From: 2010.05.17/outbox.cif.g08.bks.cpg/sg57_5_cif.got.tgz:9470.got - 2010.06.03 13:58:18.
