data_PCOD9436740
_publ_section_title
;
Structure prediction by ZEFSAII (Michael W. Deem and Ramdas Pophale) SiO2 
 PCOD9436740
Probable space group: P B C M
;
_chemical_formula_sum "Si O2"
_cell_formula_units_Z 40
_cell_length_a 14.512338
_cell_length_b 18.301763
_cell_length_c 8.938179
_cell_angle_alpha 90.000000
_cell_angle_beta 90.000000
_cell_angle_gamma 90.000000
_cell_volume 2373.992594
_symmetry_space_group_name_H-M "P B C M"
_symmetry_group_IT_number 57
_symmetry_cell_setting 'orthorhombic'
loop_
_space_group_symop_operation_xyz
x,y,z
-x,-y,1/2+z
x,1/2-y,-z
-x,1/2+y,1/2-z
-x,-y,-z
x,y,1/2-z
-x,1/2+y,z
x,1/2-y,1/2+z
loop_
_atom_site_type_symbol
_atom_site_label
_atom_site_fract_x
_atom_site_fract_y
_atom_site_fract_z
Si Si1 0.036269 0.575464 0.071577
Si Si2 0.214521 0.962393 0.421498
Si Si3 0.849064 0.866992 0.577981
Si Si4 0.668039 0.824892 0.427094
Si Si5 0.404065 0.474668 0.931081
O O1 0.035865 0.567853 0.250000
O O2 0.956752 0.634495 0.034803
O O3 0.140285 0.583776 0.013975
O O4 0.000000 0.500000 0.000000
O O5 0.213140 0.937260 0.250000
O O6 0.179321 0.046921 0.421565
O O7 0.319905 0.970512 0.473846
O O8 0.836513 0.841178 0.750000
O O9 0.776806 0.830570 0.467502
O O10 0.633120 0.750000 0.500000
O O11 0.654443 0.826234 0.250000
O O12 0.621940 0.895211 0.504327
O O13 0.406437 0.471852 0.750000
O O14 0.500000 0.500000 0.000000
#
# Coordination Sequence:
#
# PCOD9436740 Si02
#       5
#     8   8   8   8   8
#     4   9  15  22  36  58  86 117 147 178 215 261
#     4   8  15  26  40  60  89 119 149 188 231 274
#     4   8  15  27  40  60  90 120 150 187 226 271
#     4  11  21  33  50  71  96 128 162 200 246 299
#     4  10  20  34  50  71  98 128 164 209 256 301
#
# _framework density 16.849252
#
# number of rings (size 3 to 8) (size 9 to 14) (size 15 to 20)
#    0.000    2.800    0.000    5.400    0.000    8.800 
#    0.000    0.000    0.000    0.000    0.000    1.400 
#    0.000    3.200    0.000    0.000    0.000    0.000 
#
# Total GULP energy -222669.144149 kJ/mol
# GULP energy per Si atom -5566.728604 kJ/mol
# Density = 1.681090 g / cm^3
# Si number density = 16.849252 Si / 1000 Ang^3
#
#
#
# Elastic Constant Matrix: (Units=GPa)
#
#
# Indices 1 2 3 4 5 6 
#
# 1 148.6997 31.1131 50.1987 0.0000 0.0000 0.0000
# 2 31.1131 36.1749 25.4972 0.0000 0.0000 0.0000
# 3 50.1987 25.4972 75.9201 0.0000 0.0000 0.0000
# 4 0.0000 0.0000 0.0000 16.7968 0.0000 0.0000
# 5 0.0000 0.0000 0.0000 0.0000 31.0087 0.0000
# 6 0.0000 0.0000 0.0000 0.0000 0.0000 8.7014
#
#
#
# Elastic Compliance Matrix: (Units=1/GPa)
#
#
# Indices 1 2 3 4 5 6 
#
# 1 0.009246 -0.004773 -0.004511 0.000000 0.000000 0.000000
# 2 -0.004773 0.038681 -0.009834 0.000000 0.000000 0.000000
# 3 -0.004511 -0.009834 0.019457 0.000000 0.000000 0.000000
# 4 0.000000 0.000000 0.000000 0.059535 0.000000 0.000000
# 5 0.000000 0.000000 0.000000 0.000000 0.032249 0.000000
# 6 0.000000 0.000000 0.000000 0.000000 0.000000 0.114923
#
#
# Mechanical properties :
#
#
# Convention : Reuss Voigt Hill
#
# Bulk Modulus (GPa) = 34.30873 52.71254 43.51063
# Shear Modulus (GPa) = 15.52581 21.56709 18.54645
#
# Velocity S-wave (km/s) = 3.03884 3.58159 3.32132
# Velocity P-wave (km/s) = 5.72006 6.96107 6.37085
#
# Compressibility (1/GPa) = 0.02914710
#
# Stress axis : x y z
#
# Youngs Moduli (GPa) = 108.14955 25.85281 51.39531
#
# Poissons Ratio (x) = 0.12341 0.23183
# Poissons Ratio (y) = 0.51624 0.50544
# Poissons Ratio (z) = 0.48783 0.25425
#
# Static dielectric constant tensor:
#      x y z
#    x 1.630390 0.000000 0.000000 
#    y 0.000000 1.574550 0.000000 
#    z 0.000000 0.000000 1.560190 
# 
# From -- ./inp_files/4396.got.cif
#   From: 2010.05.17/outbox.cif.g08.bks.cpg/sg57_3_cif.got.tgz:4396.got - 2010.06.03 13:58:18.
