data_PCOD9436880
_publ_section_title
;
Structure prediction by ZEFSAII (Michael W. Deem and Ramdas Pophale) SiO2 
 PCOD9436880
Probable space group: P B C M
;
_chemical_formula_sum "Si O2"
_cell_formula_units_Z 40
_cell_length_a 26.793613
_cell_length_b 9.171296
_cell_length_c 8.595463
_cell_angle_alpha 90.000000
_cell_angle_beta 90.000000
_cell_angle_gamma 90.000000
_cell_volume 2112.181653
_symmetry_space_group_name_H-M "P B C M"
_symmetry_group_IT_number 57
_symmetry_cell_setting 'orthorhombic'
loop_
_space_group_symop_operation_xyz
x,y,z
-x,-y,1/2+z
x,1/2-y,-z
-x,1/2+y,1/2-z
-x,-y,-z
x,y,1/2-z
-x,1/2+y,z
x,1/2-y,1/2+z
loop_
_atom_site_type_symbol
_atom_site_label
_atom_site_fract_x
_atom_site_fract_y
_atom_site_fract_z
Si Si1 0.643958 0.585906 0.436398
Si Si2 0.739406 0.416006 0.564032
Si Si3 0.451963 0.914322 0.936552
Si Si4 0.047104 0.913999 0.436073
Si Si5 0.156460 0.584106 0.936926
O O1 0.641474 0.750000 0.500000
O O2 0.641985 0.586364 0.250000
O O3 0.694648 0.509607 0.493838
O O4 0.597471 0.495071 0.503107
O O5 0.735695 0.250000 0.500000
O O6 0.736459 0.412262 0.750000
O O7 0.793300 0.478501 0.511436
O O8 0.452565 0.913239 0.750000
O O9 0.452709 0.750000 0.000000
O O10 0.500000 0.000000 0.000000
O O11 0.045032 0.750000 0.500000
O O12 0.044901 0.909579 0.250000
O O13 0.101892 0.978764 0.478296
O O14 0.000000 0.000000 0.500000
O O15 0.161599 0.585785 0.750000
O O16 0.154754 0.750000 0.000000
#
# Coordination Sequence:
#
# PCOD9436880 Si02
#       5
#     8   8   8   8   8
#     4  12  25  43  63  88 121 158 196 240 290 345
#     4  11  21  36  59  87 115 149 190 237 286 340
#     4  12  25  44  67  95 126 161 201 244 291 342
#     4  10  20  34  54  79 110 145 186 232 284 340
#     4   9  17  31  52  79 108 143 185 233 283 339
#
# _framework density 18.937764000000001
#
# number of rings (size 3 to 8) (size 9 to 14) (size 15 to 20)
#    0.000    1.200    0.000    9.000    0.000    2.400 
#    0.000    1.000    0.000    4.800    0.000    0.000 
#    0.000    0.000    0.000    0.000    0.000    0.000 
#
# Total GULP energy -223550.586562 kJ/mol
# GULP energy per Si atom -5588.764664 kJ/mol
# Density = 1.889466 g / cm^3
# Si number density = 18.937764 Si / 1000 Ang^3
#
#
#
# Elastic Constant Matrix: (Units=GPa)
#
#
# Indices 1 2 3 4 5 6 
#
# 1 227.9994 92.7405 91.1546 0.0000 0.0000 0.0000
# 2 92.7405 110.9877 58.3046 0.0000 0.0000 0.0000
# 3 91.1546 58.3046 187.3007 0.0000 0.0000 0.0000
# 4 0.0000 0.0000 0.0000 32.8530 0.0000 0.0000
# 5 0.0000 0.0000 0.0000 0.0000 37.9100 0.0000
# 6 0.0000 0.0000 0.0000 0.0000 0.0000 33.2523
#
#
#
# Elastic Compliance Matrix: (Units=1/GPa)
#
#
# Indices 1 2 3 4 5 6 
#
# 1 0.007194 -0.004987 -0.001948 0.000000 0.000000 0.000000
# 2 -0.004987 0.014229 -0.002002 0.000000 0.000000 0.000000
# 3 -0.001948 -0.002002 0.006911 0.000000 0.000000 0.000000
# 4 0.000000 0.000000 0.000000 0.030439 0.000000 0.000000
# 5 0.000000 0.000000 0.000000 0.000000 0.026378 0.000000
# 6 0.000000 0.000000 0.000000 0.000000 0.000000 0.030073
#
#
# Mechanical properties :
#
#
# Convention : Reuss Voigt Hill
#
# Bulk Modulus (GPa) = 95.62616 112.29856 103.96236
# Shear Modulus (GPa) = 36.60723 39.74227 38.17475
#
# Velocity S-wave (km/s) = 4.40139 4.58599 4.49464
# Velocity P-wave (km/s) = 8.74267 9.35250 9.05272
#
# Compressibility (1/GPa) = 0.01045739
#
# Stress axis : x y z
#
# Youngs Moduli (GPa) = 139.01222 70.27806 144.70692
#
# Poissons Ratio (x) = 0.35050 0.28195
# Poissons Ratio (y) = 0.69330 0.28973
# Poissons Ratio (z) = 0.27086 0.14071
#
# Static dielectric constant tensor:
#      x y z
#    x 1.683480 0.000000 0.000000 
#    y 0.000000 1.627210 0.000000 
#    z 0.000000 0.000000 1.630770 
# 
# From -- ./inp_files/8883.got.cif
#   From: 2010.05.17/outbox.cif.g08.bks.cpg/sg57_5_cif.got.tgz:8883.got - 2010.06.03 13:58:18.
