data_PCOD9436954
_publ_section_title
;
Structure prediction by ZEFSAII (Michael W. Deem and Ramdas Pophale) SiO2 
 PCOD9436954
Probable space group: P B C M
;
_chemical_formula_sum "Si O2"
_cell_formula_units_Z 40
_cell_length_a 5.138064
_cell_length_b 19.743071
_cell_length_c 17.816234
_cell_angle_alpha 90.000000
_cell_angle_beta 90.000000
_cell_angle_gamma 90.000000
_cell_volume 1807.299486
_symmetry_space_group_name_H-M "P B C M"
_symmetry_group_IT_number 57
_symmetry_cell_setting 'orthorhombic'
loop_
_space_group_symop_operation_xyz
x,y,z
-x,-y,1/2+z
x,1/2-y,-z
-x,1/2+y,1/2-z
-x,-y,-z
x,y,1/2-z
-x,1/2+y,z
x,1/2-y,1/2+z
loop_
_atom_site_type_symbol
_atom_site_label
_atom_site_fract_x
_atom_site_fract_y
_atom_site_fract_z
Si Si1 0.081868 0.460897 0.165677
Si Si2 0.424793 0.450658 0.867695
Si Si3 0.926671 0.294211 0.571428
Si Si4 0.586408 0.702658 0.166482
Si Si5 0.133873 0.426857 0.005594
O O1 0.097380 0.432425 0.250000
O O2 0.300961 0.519181 0.156812
O O3 0.144095 0.412712 0.094436
O O4 0.799949 0.495778 0.154296
O O5 0.368668 0.378535 0.830797
O O6 0.397722 0.435603 0.957210
O O7 0.856369 0.250000 0.500000
O O8 0.698453 0.290294 0.631618
O O9 0.194514 0.270481 0.610043
O O10 0.978066 0.369440 0.539102
O O11 0.606478 0.730980 0.250000
O O12 0.000000 0.500000 0.000000
#
# Coordination Sequence:
#
# PCOD9436954 Si02
#       5
#     8   8   8   8   8
#     4  11  20  32  51  82 118 151 186 237 291 345
#     4  10  20  34  55  84 117 148 189 241 292 338
#     4  11  24  41  61  87 122 158 193 239 295 355
#     4  11  21  38  63  90 114 151 201 250 290 338
#     4   9  20  37  59  83 112 152 193 231 285 348
#
# _framework density 22.132470999999999
#
# number of rings (size 3 to 8) (size 9 to 14) (size 15 to 20)
#    0.000    1.600    0.000    7.200    0.000    4.800 
#    0.000    2.000    0.000    0.000    0.000    0.000 
#    0.000    0.000    0.000    0.000    0.000    0.000 
#
# Total GULP energy -223473.796993 kJ/mol
# GULP energy per Si atom -5586.844925 kJ/mol
# Density = 2.208210 g / cm^3
# Si number density = 22.132471 Si / 1000 Ang^3
#
#
#
# Elastic Constant Matrix: (Units=GPa)
#
#
# Indices 1 2 3 4 5 6 
#
# 1 65.3145 1.2553 27.9791 0.0000 0.0000 0.0000
# 2 1.2553 27.6147 -2.4678 0.0000 0.0000 0.0000
# 3 27.9791 -2.4678 155.8822 0.0000 0.0000 0.0000
# 4 0.0000 0.0000 0.0000 11.9335 0.0000 0.0000
# 5 0.0000 0.0000 0.0000 0.0000 26.7313 0.0000
# 6 0.0000 0.0000 0.0000 0.0000 0.0000 6.1152
#
#
#
# Elastic Compliance Matrix: (Units=1/GPa)
#
#
# Indices 1 2 3 4 5 6 
#
# 1 0.016615 -0.001023 -0.002998 0.000000 0.000000 0.000000
# 2 -0.001023 0.036327 0.000759 0.000000 0.000000 0.000000
# 3 -0.002998 0.000759 0.006965 0.000000 0.000000 0.000000
# 4 0.000000 0.000000 0.000000 0.083798 0.000000 0.000000
# 5 0.000000 0.000000 0.000000 0.000000 0.037409 0.000000
# 6 0.000000 0.000000 0.000000 0.000000 0.000000 0.163528
#
#
# Mechanical properties :
#
#
# Convention : Reuss Voigt Hill
#
# Bulk Modulus (GPa) = 18.73317 33.59385 26.16351
# Shear Modulus (GPa) = 13.55156 23.75896 18.65526
#
# Velocity S-wave (km/s) = 2.47714 3.27997 2.90641
# Velocity P-wave (km/s) = 4.08217 5.43652 4.80728
#
# Compressibility (1/GPa) = 0.05338124
#
# Stress axis : x y z
#
# Youngs Moduli (GPa) = 60.18794 27.52777 143.56919
#
# Poissons Ratio (x) = 0.02817 0.43047
# Poissons Ratio (y) = 0.06159 -0.10893
# Poissons Ratio (z) = 0.18046 -0.02089
#
# Static dielectric constant tensor:
#      x y z
#    x 1.785950 0.000000 0.000000 
#    y 0.000000 1.806540 0.000000 
#    z 0.000000 0.000000 1.895860 
# 
# From -- ./inp_files/20120.got.cif
#   From: 2010.05.17/outbox.cif.g08.bks.cpg/sg57_11_cif.got.tgz:20120.got - 2010.06.03 13:58:18.
