data_PCOD9436887
_publ_section_title
;
Structure prediction by ZEFSAII (Michael W. Deem and Ramdas Pophale) SiO2 
 PCOD9436887
Probable space group: P B C M
;
_chemical_formula_sum "Si O2"
_cell_formula_units_Z 32
_cell_length_a 10.944972
_cell_length_b 9.162878
_cell_length_c 13.585518
_cell_angle_alpha 90.000000
_cell_angle_beta 90.000000
_cell_angle_gamma 90.000000
_cell_volume 1362.456864
_symmetry_space_group_name_H-M "P B C M"
_symmetry_group_IT_number 57
_symmetry_cell_setting 'orthorhombic'
loop_
_space_group_symop_operation_xyz
x,y,z
-x,-y,1/2+z
x,1/2-y,-z
-x,1/2+y,1/2-z
-x,-y,-z
x,y,1/2-z
-x,1/2+y,z
x,1/2-y,1/2+z
loop_
_atom_site_type_symbol
_atom_site_label
_atom_site_fract_x
_atom_site_fract_y
_atom_site_fract_z
Si Si1 0.827762 0.166775 0.129997
Si Si2 0.637709 0.978310 0.466270
Si Si3 0.258233 0.293400 0.862836
Si Si4 0.015293 0.390716 0.366660
O O1 0.817246 0.161768 0.250000
O O2 0.888959 0.319189 0.100541
O O3 0.700603 0.118755 0.082530
O O4 0.924662 0.040342 0.098561
O O5 0.654971 0.844737 0.388873
O O6 0.710705 0.919551 0.561293
O O7 0.500000 0.000000 0.500000
O O8 0.271278 0.337685 0.750000
O O9 0.122205 0.229946 0.878180
O O10 0.999095 0.413339 0.250000
#
# Coordination Sequence:
#
# PCOD9436887 Si02
#       4
#     8   8   8   8
#     4   9  17  32  55  84 118 150 187 241 293 344
#     4  10  20  34  54  80 109 148 195 231 275 344
#     4   9  19  36  55  76 108 146 182 232 292 342
#     4   8  15  30  53  80 109 144 184 227 287 347
#
# _framework density 23.486979000000002
#
# number of rings (size 3 to 8) (size 9 to 14) (size 15 to 20)
#    0.000    3.000    0.000    2.250    0.000    3.000 
#    0.000    5.000    0.000    3.000    0.000    0.000 
#    0.000    0.000    0.000    0.000    0.000    0.000 
#
# Total GULP energy -178986.943857 kJ/mol
# GULP energy per Si atom -5593.341996 kJ/mol
# Density = 2.343352 g / cm^3
# Si number density = 23.486979 Si / 1000 Ang^3
#
#
#
# Elastic Constant Matrix: (Units=GPa)
#
#
# Indices 1 2 3 4 5 6 
#
# 1 108.9848 67.1988 17.5410 0.0000 0.0000 0.0000
# 2 67.1988 54.1156 43.8744 0.0000 0.0000 0.0000
# 3 17.5410 43.8744 130.4264 0.0000 0.0000 0.0000
# 4 0.0000 0.0000 0.0000 38.1338 0.0000 0.0000
# 5 0.0000 0.0000 0.0000 0.0000 31.6767 0.0000
# 6 0.0000 0.0000 0.0000 0.0000 0.0000 29.0130
#
#
#
# Elastic Compliance Matrix: (Units=1/GPa)
#
#
# Indices 1 2 3 4 5 6 
#
# 1 0.089659 -0.139645 0.034917 0.000000 0.000000 0.000000
# 2 -0.139645 0.242906 -0.062931 0.000000 0.000000 0.000000
# 3 0.034917 -0.062931 0.024141 0.000000 0.000000 0.000000
# 4 0.000000 0.000000 0.000000 0.026223 0.000000 0.000000
# 5 0.000000 0.000000 0.000000 0.000000 0.031569 0.000000
# 6 0.000000 0.000000 0.000000 0.000000 0.000000 0.034467
#
#
# Mechanical properties :
#
#
# Convention : Reuss Voigt Hill
#
# Bulk Modulus (GPa) = 46.75300 61.19504 53.97402
# Shear Modulus (GPa) = 6.31781 30.75888 18.53835
#
# Velocity S-wave (km/s) = 1.64188 3.62278 2.81250
# Velocity P-wave (km/s) = 4.85216 6.60385 5.79458
#
# Compressibility (1/GPa) = 0.02138900
#
# Stress axis : x y z
#
# Youngs Moduli (GPa) = 11.15335 4.11681 41.42390
#
# Poissons Ratio (x) = 0.57489 -1.44640
# Poissons Ratio (y) = 1.55751 2.60685
# Poissons Ratio (z) = -0.38944 0.25908
#
# Static dielectric constant tensor:
#      x y z
#    x 1.861770 0.000000 0.000000 
#    y 0.000000 1.611460 0.000000 
#    z 0.000000 0.000000 1.920580 
# 
# From -- ./inp_files/15514.got.cif
#   From: 2010.05.17/outbox.cif.g08.bks.cpg/sg57_8_cif.got.tgz:15514.got - 2010.06.03 13:58:18.
