data_PCOD9436270
_publ_section_title
;
Structure prediction by ZEFSAII (Michael W. Deem and Ramdas Pophale) SiO2 
 PCOD9436270
Probable space group: P B C M
;
_chemical_formula_sum "Si O2"
_cell_formula_units_Z 48
_cell_length_a 14.441907
_cell_length_b 8.353714
_cell_length_c 17.604906
_cell_angle_alpha 90.000000
_cell_angle_beta 90.000000
_cell_angle_gamma 90.000000
_cell_volume 2123.918545
_symmetry_space_group_name_H-M "P B C M"
_symmetry_group_IT_number 57
_symmetry_cell_setting 'orthorhombic'
loop_
_space_group_symop_operation_xyz
x,y,z
-x,-y,1/2+z
x,1/2-y,-z
-x,1/2+y,1/2-z
-x,-y,-z
x,y,1/2-z
-x,1/2+y,z
x,1/2-y,1/2+z
loop_
_atom_site_type_symbol
_atom_site_label
_atom_site_fract_x
_atom_site_fract_y
_atom_site_fract_z
Si Si1 0.292632 0.003366 0.562263
Si Si2 0.204984 0.733220 0.834590
Si Si3 0.458274 0.288675 0.090349
Si Si4 0.358507 0.531756 0.611739
Si Si5 0.038096 0.993835 0.160893
Si Si6 0.111047 0.304569 0.082526
O O1 0.389353 0.060832 0.597887
O O2 0.217657 0.144727 0.573254
O O3 0.246969 0.853146 0.603849
O O4 0.315657 0.974375 0.473771
O O5 0.201905 0.805469 0.750000
O O6 0.275337 0.583390 0.835146
O O7 0.105768 0.657588 0.853150
O O8 0.560044 0.336800 0.115786
O O9 0.408601 0.136403 0.126989
O O10 0.464062 0.250000 0.000000
O O11 0.017031 0.000411 0.250000
O O12 0.946259 0.955726 0.113530
O O13 0.090490 0.154534 0.136438
O O14 0.076894 0.250000 0.000000
#
# Coordination Sequence:
#
# PCOD9436270 Si02
#       6
#     8   8   8   8   8   8
#     4  11  22  38  63  92 123 158 202 255 311 368
#     4  11  24  41  60  87 123 164 208 252 303 367
#     4  10  19  35  62  92 119 155 200 246 305 374
#     4  11  21  39  64  91 122 159 203 253 307 367
#     4  11  25  44  65  89 126 173 210 249 314 387
#     4  12  24  41  66  97 125 155 208 269 315 361
#
# _framework density 22.599737999999999
#
# number of rings (size 3 to 8) (size 9 to 14) (size 15 to 20)
#    0.000    1.000    0.000   10.000    0.000    4.000 
#    0.000    4.167    0.000    0.000    0.000    0.000 
#    0.000    0.000    0.000    0.000    0.000    0.000 
#
# Total GULP energy -268672.372880 kJ/mol
# GULP energy per Si atom -5597.341102 kJ/mol
# Density = 2.254830 g / cm^3
# Si number density = 22.599738 Si / 1000 Ang^3
#
#
#
# Elastic Constant Matrix: (Units=GPa)
#
#
# Indices 1 2 3 4 5 6 
#
# 1 119.2961 10.2997 30.7814 0.0000 0.0000 0.0000
# 2 10.2997 72.2274 11.4027 0.0000 0.0000 0.0000
# 3 30.7814 11.4027 39.6058 0.0000 0.0000 0.0000
# 4 0.0000 0.0000 0.0000 15.8723 0.0000 0.0000
# 5 0.0000 0.0000 0.0000 0.0000 225.8770 0.0000
# 6 0.0000 0.0000 0.0000 0.0000 0.0000 36.0128
#
#
#
# Elastic Compliance Matrix: (Units=1/GPa)
#
#
# Indices 1 2 3 4 5 6 
#
# 1 0.010488 -0.000219 -0.008089 0.000000 0.000000 0.000000
# 2 -0.000219 0.014509 -0.004007 0.000000 0.000000 0.000000
# 3 -0.008089 -0.004007 0.032689 0.000000 0.000000 0.000000
# 4 0.000000 0.000000 0.000000 0.063003 0.000000 0.000000
# 5 0.000000 0.000000 0.000000 0.000000 0.004427 0.000000
# 6 0.000000 0.000000 0.000000 0.000000 0.000000 0.027768
#
#
# Mechanical properties :
#
#
# Convention : Reuss Voigt Hill
#
# Bulk Modulus (GPa) = 30.25050 37.34411 33.79730
# Shear Modulus (GPa) = 26.52062 67.46211 46.99136
#
# Velocity S-wave (km/s) = 3.42934 5.46952 4.56487
# Velocity P-wave (km/s) = 5.39397 7.51316 6.53997
#
# Compressibility (1/GPa) = 0.03305730
#
# Stress axis : x y z
#
# Youngs Moduli (GPa) = 95.34290 68.92283 30.59136
#
# Poissons Ratio (x) = 0.01507 0.24744
# Poissons Ratio (y) = 0.02085 0.12259
# Poissons Ratio (z) = 0.77119 0.27619
#
# Static dielectric constant tensor:
#      x y z
#    x 1.802860 0.000000 0.000000 
#    y 0.000000 1.900160 0.000000 
#    z 0.000000 0.000000 1.792080 
# 
# From -- ./inp_files/22470.got.cif
#   From: 2010.05.17/outbox.cif.g08.bks.cpg/sg57_12_cif.got.tgz:22470.got - 2010.06.03 13:58:18.
