data_PCOD9436783
_publ_section_title
;
Structure prediction by ZEFSAII (Michael W. Deem and Ramdas Pophale) SiO2 
 PCOD9436783
Probable space group: P B C M
;
_chemical_formula_sum "Si O2"
_cell_formula_units_Z 40
_cell_length_a 16.571917
_cell_length_b 13.233803
_cell_length_c 7.593672
_cell_angle_alpha 90.000000
_cell_angle_beta 90.000000
_cell_angle_gamma 90.000000
_cell_volume 1665.364295
_symmetry_space_group_name_H-M "P B C M"
_symmetry_group_IT_number 57
_symmetry_cell_setting 'orthorhombic'
loop_
_space_group_symop_operation_xyz
x,y,z
-x,-y,1/2+z
x,1/2-y,-z
-x,1/2+y,1/2-z
-x,-y,-z
x,y,1/2-z
-x,1/2+y,z
x,1/2-y,1/2+z
loop_
_atom_site_type_symbol
_atom_site_label
_atom_site_fract_x
_atom_site_fract_y
_atom_site_fract_z
Si Si1 0.710763 0.563510 0.545208
Si Si2 0.460522 0.131566 0.960893
Si Si3 0.056908 0.861489 0.460347
Si Si4 0.883264 0.919995 0.455321
Si Si5 0.637693 0.132006 0.540078
O O1 0.709573 0.594523 0.750000
O O2 0.625579 0.597206 0.464115
O O3 0.794993 0.601364 0.466559
O O4 0.704606 0.442019 0.536493
O O5 0.460685 0.115340 0.750000
O O6 0.548644 0.096079 0.027845
O O7 0.463712 0.250000 0.000000
O O8 0.089281 0.750000 0.500000
O O9 0.055726 0.874925 0.250000
O O10 0.102273 0.959169 0.534108
O O11 0.964285 0.869937 0.530114
O O12 0.880163 0.891379 0.250000
O O13 0.648546 0.250000 0.500000
O O14 0.638630 0.121437 0.750000
#
# Coordination Sequence:
#
# PCOD9436783 Si02
#       5
#     8   8   8   8   8
#     4  10  20  35  54  77 106 136 169 214 261 301
#     4   9  19  34  52  75 104 138 175 214 255 302
#     4  10  20  36  58  80 104 135 169 207 254 307
#     4   9  20  37  55  78 106 135 170 210 253 306
#     4  10  20  34  52  75 103 138 178 215 255 303
#
# _framework density 24.01877
#
# number of rings (size 3 to 8) (size 9 to 14) (size 15 to 20)
#    0.000    2.400    0.000    1.800    0.000    4.800 
#    0.000    0.000    0.000    0.000    0.000    0.000 
#    0.000    0.000    0.000    0.000    0.000    0.000 
#
# Total GULP energy -223315.079220 kJ/mol
# GULP energy per Si atom -5582.876980 kJ/mol
# Density = 2.396410 g / cm^3
# Si number density = 24.018770 Si / 1000 Ang^3
#
#
#
# Elastic Constant Matrix: (Units=GPa)
#
#
# Indices 1 2 3 4 5 6 
#
# 1 96.5680 -17.4201 2.3009 0.0000 0.0000 0.0000
# 2 -17.4201 23.9630 -15.1721 0.0000 0.0000 0.0000
# 3 2.3009 -15.1721 77.0097 0.0000 0.0000 0.0000
# 4 0.0000 0.0000 0.0000 18.8773 0.0000 0.0000
# 5 0.0000 0.0000 0.0000 0.0000 6.6969 0.0000
# 6 0.0000 0.0000 0.0000 0.0000 0.0000 3.3308
#
#
#
# Elastic Compliance Matrix: (Units=1/GPa)
#
#
# Indices 1 2 3 4 5 6 
#
# 1 0.012081 0.009773 0.001564 0.000000 0.000000 0.000000
# 2 0.009773 0.055584 0.010659 0.000000 0.000000 0.000000
# 3 0.001564 0.010659 0.015039 0.000000 0.000000 0.000000
# 4 0.000000 0.000000 0.000000 0.052974 0.000000 0.000000
# 5 0.000000 0.000000 0.000000 0.000000 0.149323 0.000000
# 6 0.000000 0.000000 0.000000 0.000000 0.000000 0.300224
#
#
# Mechanical properties :
#
#
# Convention : Reuss Voigt Hill
#
# Bulk Modulus (GPa) = 7.89287 15.21758 11.55522
# Shear Modulus (GPa) = 8.56951 20.96981 14.76966
#
# Velocity S-wave (km/s) = 1.89092 2.95796 2.48245
# Velocity P-wave (km/s) = 2.83914 4.24447 3.61083
#
# Compressibility (1/GPa) = 0.12669661
#
# Stress axis : x y z
#
# Youngs Moduli (GPa) = 82.77400 17.99073 66.49552
#
# Poissons Ratio (x) = -0.17582 -0.10403
# Poissons Ratio (y) = -0.80895 -0.70877
# Poissons Ratio (z) = -0.12950 -0.19176
#
# Static dielectric constant tensor:
#      x y z
#    x 1.974130 0.000000 0.000000 
#    y 0.000000 1.900000 0.000000 
#    z 0.000000 0.000000 1.877080 
# 
# From -- ./inp_files/4263.got.cif
#   From: 2010.05.17/outbox.cif.g08.bks.cpg/sg57_3_cif.got.tgz:4263.got - 2010.06.03 13:58:18.
