data_PCOD9436041
_publ_section_title
;
Structure prediction by ZEFSAII (Michael W. Deem and Ramdas Pophale) SiO2 
 PCOD9436041
Probable space group: P B C M
;
_chemical_formula_sum "Si O2"
_cell_formula_units_Z 64
_cell_length_a 13.457988
_cell_length_b 13.894349
_cell_length_c 14.035562
_cell_angle_alpha 90.000000
_cell_angle_beta 90.000000
_cell_angle_gamma 90.000000
_cell_volume 2624.509487
_symmetry_space_group_name_H-M "P B C M"
_symmetry_group_IT_number 57
_symmetry_cell_setting 'orthorhombic'
loop_
_space_group_symop_operation_xyz
x,y,z
-x,-y,1/2+z
x,1/2-y,-z
-x,1/2+y,1/2-z
-x,-y,-z
x,y,1/2-z
-x,1/2+y,z
x,1/2-y,1/2+z
loop_
_atom_site_type_symbol
_atom_site_label
_atom_site_fract_x
_atom_site_fract_y
_atom_site_fract_z
Si Si1 0.739939 0.919635 0.633731
Si Si2 0.959573 0.640289 0.858493
Si Si3 0.127627 0.779679 0.896670
Si Si4 0.970240 0.559319 0.367076
Si Si5 0.615880 0.973275 0.133959
Si Si6 0.604080 0.098405 0.633784
Si Si7 0.250412 0.293539 0.133779
Si Si8 0.653753 0.186928 0.356703
O O1 0.735323 0.919837 0.750000
O O2 0.855150 0.933645 0.607127
O O3 0.708806 0.811260 0.602874
O O4 0.676242 0.011556 0.601673
O O5 0.929602 0.621339 0.750000
O O6 0.865696 0.699302 0.895748
O O7 0.066522 0.690712 0.855202
O O8 0.978628 0.537737 0.902403
O O9 0.226694 0.814625 0.847630
O O10 0.040695 0.856929 0.902626
O O11 0.162121 0.750000 0.000000
O O12 0.972594 0.564412 0.250000
O O13 0.625078 0.978910 0.250000
O O14 0.625436 0.083739 0.098916
O O15 0.507840 0.931735 0.111045
O O16 0.695560 0.892191 0.103449
O O17 0.613847 0.100958 0.750000
O O18 0.627394 0.207698 0.601837
O O19 0.257439 0.290687 0.250000
O O20 0.608049 0.186978 0.250000
#
# Coordination Sequence:
#
# PCOD9436041 Si02
#       8
#     8   8   8   8   8   8   8   8
#     4   9  16  27  46  74 106 136 172 219 271 326
#     4  10  19  34  57  81 108 145 188 230 277 335
#     4  12  24  36  53  80 116 152 187 228 277 336
#     4  10  19  34  57  81 108 145 188 230 277 335
#     4   9  18  30  50  81 110 139 174 224 283 326
#     4   9  18  30  50  81 110 139 174 224 283 326
#     4   9  16  27  46  74 106 136 172 219 271 326
#     4  10  20  36  55  78 112 146 185 228 273 340
#
# _framework density 24.38551
#
# number of rings (size 3 to 8) (size 9 to 14) (size 15 to 20)
#    0.000    2.250    1.250    2.625    1.750    4.500 
#    0.000    0.000    0.000    0.750    0.000    1.750 
#    0.000    0.000    0.000    0.000    0.000    0.000 
#
# Total GULP energy -357621.444606 kJ/mol
# GULP energy per Si atom -5587.835072 kJ/mol
# Density = 2.433001 g / cm^3
# Si number density = 24.385510 Si / 1000 Ang^3
#
#
#
# Elastic Constant Matrix: (Units=GPa)
#
#
# Indices 1 2 3 4 5 6 
#
# 1 106.0468 66.7613 10.1200 0.0000 0.0000 0.0000
# 2 66.7613 195.7218 38.8936 0.0000 0.0000 0.0000
# 3 10.1200 38.8936 62.5062 0.0000 0.0000 0.0000
# 4 0.0000 0.0000 0.0000 24.7337 0.0000 0.0000
# 5 0.0000 0.0000 0.0000 0.0000 4.7538 0.0000
# 6 0.0000 0.0000 0.0000 0.0000 0.0000 35.7353
#
#
#
# Elastic Compliance Matrix: (Units=1/GPa)
#
#
# Indices 1 2 3 4 5 6 
#
# 1 0.012035 -0.004242 0.000691 0.000000 0.000000 0.000000
# 2 -0.004242 0.007326 -0.003871 0.000000 0.000000 0.000000
# 3 0.000691 -0.003871 0.018295 0.000000 0.000000 0.000000
# 4 0.000000 0.000000 0.000000 0.040431 0.000000 0.000000
# 5 0.000000 0.000000 0.000000 0.000000 0.210358 0.000000
# 6 0.000000 0.000000 0.000000 0.000000 0.000000 0.027984
#
#
# Mechanical properties :
#
#
# Convention : Reuss Voigt Hill
#
# Bulk Modulus (GPa) = 43.83911 66.20275 55.02093
# Shear Modulus (GPa) = 14.75465 29.61123 22.18294
#
# Velocity S-wave (km/s) = 2.46246 3.48846 3.01936
# Velocity P-wave (km/s) = 5.10896 6.59038 5.89638
#
# Compressibility (1/GPa) = 0.02281068
#
# Stress axis : x y z
#
# Youngs Moduli (GPa) = 83.09355 136.50507 54.65843
#
# Poissons Ratio (x) = 0.57911 -0.03779
# Poissons Ratio (y) = 0.35252 0.21161
# Poissons Ratio (z) = -0.05745 0.52848
#
# Static dielectric constant tensor:
#      x y z
#    x 1.845400 0.000000 0.000000 
#    y 0.000000 1.563560 0.000000 
#    z 0.000000 0.000000 2.024520 
# 
# From -- ./inp_files/22099.got.cif
#   From: 2010.05.17/outbox.cif.g08.bks.cpg/sg57_12_cif.got.tgz:22099.got - 2010.06.03 13:58:18.
