data_PCOD9436203
_publ_section_title
;
Structure prediction by ZEFSAII (Michael W. Deem and Ramdas Pophale) SiO2 
 PCOD9436203
Probable space group: P B C M
;
_chemical_formula_sum "Si O2"
_cell_formula_units_Z 64
_cell_length_a 24.267478
_cell_length_b 15.076268
_cell_length_c 8.998934
_cell_angle_alpha 90.000000
_cell_angle_beta 90.000000
_cell_angle_gamma 90.000000
_cell_volume 3292.377008
_symmetry_space_group_name_H-M "P B C M"
_symmetry_group_IT_number 57
_symmetry_cell_setting 'orthorhombic'
loop_
_space_group_symop_operation_xyz
x,y,z
-x,-y,1/2+z
x,1/2-y,-z
-x,1/2+y,1/2-z
-x,-y,-z
x,y,1/2-z
-x,1/2+y,z
x,1/2-y,1/2+z
loop_
_atom_site_type_symbol
_atom_site_label
_atom_site_fract_x
_atom_site_fract_y
_atom_site_fract_z
Si Si1 0.610977 0.164546 0.083470
Si Si2 0.252532 0.030955 0.427849
Si Si3 0.870630 0.969281 0.572008
Si Si4 0.652200 0.847628 0.070338
Si Si5 0.039387 0.344864 0.072705
Si Si6 0.559338 0.516546 0.929592
Si Si7 0.088740 0.843400 0.427211
Si Si8 0.256783 0.660466 0.080135
O O1 0.589088 0.168009 0.250000
O O2 0.676852 0.170902 0.089410
O O3 0.595005 0.069053 0.021617
O O4 0.588913 0.250000 0.000000
O O5 0.261832 0.030413 0.250000
O O6 0.298751 0.089489 0.508878
O O7 0.190624 0.066499 0.457124
O O8 0.250660 0.930152 0.488360
O O9 0.879837 0.966179 0.750000
O O10 0.875334 0.072494 0.526145
O O11 0.918300 0.915416 0.491857
O O12 0.655911 0.843449 0.250000
O O13 0.594464 0.896331 0.029568
O O14 0.655790 0.750000 0.000000
O O15 0.044235 0.339712 0.250000
O O16 0.975348 0.365096 0.036951
O O17 0.051760 0.250000 0.000000
O O18 0.554976 0.517889 0.750000
O O19 0.500000 0.500000 0.000000
O O20 0.102682 0.750000 0.500000
O O21 0.093108 0.833459 0.250000
O O22 0.235978 0.653019 0.250000
O O23 0.235708 0.750000 0.000000
#
# Coordination Sequence:
#
# PCOD9436203 Si02
#       8
#     8   8   8   8   8   8   8   8
#     4   9  18  34  55  82 113 145 181 224 275 332
#     4  11  23  39  60  87 118 158 202 246 299 354
#     4  10  22  38  56  83 119 152 193 247 296 349
#     4  11  24  45  67  89 120 159 203 250 297 352
#     4  10  20  35  58  84 111 149 195 241 296 354
#     4  10  22  40  61  88 122 154 191 239 291 345
#     4   9  19  36  57  83 116 153 192 239 293 353
#     4  10  19  35  58  84 115 150 189 236 287 345
#
# _framework density 19.438842999999999
#
# number of rings (size 3 to 8) (size 9 to 14) (size 15 to 20)
#    0.000    2.000    1.250    1.875    0.000    5.500 
#    0.000    3.750    0.000    0.000    0.000    0.000 
#    0.000    0.000    0.000    0.000    0.000    0.000 
#
# Total GULP energy -357176.916842 kJ/mol
# GULP energy per Si atom -5580.889326 kJ/mol
# Density = 1.939460 g / cm^3
# Si number density = 19.438843 Si / 1000 Ang^3
#
#
#
# Elastic Constant Matrix: (Units=GPa)
#
#
# Indices 1 2 3 4 5 6 
#
# 1 100.7714 57.0016 44.7347 0.0000 0.0000 0.0000
# 2 57.0016 128.2604 45.4294 0.0000 0.0000 0.0000
# 3 44.7347 45.4294 54.7216 0.0000 0.0000 0.0000
# 4 0.0000 0.0000 0.0000 38.3534 0.0000 0.0000
# 5 0.0000 0.0000 0.0000 0.0000 11.9199 0.0000
# 6 0.0000 0.0000 0.0000 0.0000 0.0000 -2.0132
#
#
#
# Elastic Compliance Matrix: (Units=1/GPa)
#
#
# Indices 1 2 3 4 5 6 
#
# 1 0.016710 -0.003666 -0.010617 0.000000 0.000000 0.000000
# 2 -0.003666 0.011848 -0.006840 0.000000 0.000000 0.000000
# 3 -0.010617 -0.006840 0.032632 0.000000 0.000000 0.000000
# 4 0.000000 0.000000 0.000000 0.026073 0.000000 0.000000
# 5 0.000000 0.000000 0.000000 0.000000 0.083894 0.000000
# 6 0.000000 0.000000 0.000000 0.000000 0.000000 -0.496729
#
#
# Mechanical properties :
#
#
# Convention : Reuss Voigt Hill
#
# Bulk Modulus (GPa) = 52.78340 64.23162 58.50751
# Shear Modulus (GPa) = -18.04985 18.75786 0.35400
#
# Velocity S-wave (km/s) = -3.05051 3.10976 0.42721
# Velocity P-wave (km/s) = 3.84773 6.78298 5.51425
#
# Compressibility (1/GPa) = 0.01894535
#
# Stress axis : x y z
#
# Youngs Moduli (GPa) = 59.84349 84.39984 30.64466
#
# Poissons Ratio (x) = 0.30939 0.32536
# Poissons Ratio (y) = 0.21937 0.20960
# Poissons Ratio (z) = 0.63537 0.57726
#
# Static dielectric constant tensor:
#      x y z
#    x 1.688530 0.000000 0.000000 
#    y 0.000000 1.675490 0.000000 
#    z 0.000000 0.000000 1.666350 
# 
# From -- ./inp_files/9286.got.cif
#   From: 2010.05.17/outbox.cif.g08.bks.cpg/sg57_5_cif.got.tgz:9286.got - 2010.06.03 13:58:18.
