data_PCOD9436687
_publ_section_title
;
Structure prediction by ZEFSAII (Michael W. Deem and Ramdas Pophale) SiO2 
 PCOD9436687
Probable space group: P B C M
;
_chemical_formula_sum "Si O2"
_cell_formula_units_Z 64
_cell_length_a 20.521778
_cell_length_b 20.453700
_cell_length_c 8.769327
_cell_angle_alpha 90.000000
_cell_angle_beta 90.000000
_cell_angle_gamma 90.000000
_cell_volume 3680.892480
_symmetry_space_group_name_H-M "P B C M"
_symmetry_group_IT_number 57
_symmetry_cell_setting 'orthorhombic'
loop_
_space_group_symop_operation_xyz
x,y,z
-x,-y,1/2+z
x,1/2-y,-z
-x,1/2+y,1/2-z
-x,-y,-z
x,y,1/2-z
-x,1/2+y,z
x,1/2-y,1/2+z
loop_
_atom_site_type_symbol
_atom_site_label
_atom_site_fract_x
_atom_site_fract_y
_atom_site_fract_z
Si Si1 0.941953 0.679002 0.932662
Si Si2 0.672918 0.454310 0.567844
Si Si3 0.189645 0.935027 0.433685
Si Si4 0.433200 0.321284 0.433376
Si Si5 0.697658 0.893931 0.067648
Si Si6 0.473256 0.568120 0.433862
Si Si7 0.165096 0.415772 0.932355
Si Si8 0.907122 0.320712 0.433936
O O1 0.937902 0.681459 0.750000
O O2 0.017447 0.666151 0.976244
O O3 0.924240 0.750000 0.000000
O O4 0.894036 0.623970 0.995518
O O5 0.679395 0.447712 0.750000
O O6 0.736815 0.424691 0.490662
O O7 0.673758 0.532102 0.533301
O O8 0.602953 0.426085 0.522354
O O9 0.189800 0.935181 0.250000
O O10 0.140471 0.878610 0.485972
O O11 0.167780 0.008022 0.482899
O O12 0.445575 0.250000 0.500000
O O13 0.437533 0.321454 0.250000
O O14 0.360193 0.345157 0.475417
O O15 0.483744 0.373422 0.500571
O O16 0.708064 0.889761 0.250000
O O17 0.766130 0.884805 0.984152
O O18 0.500000 0.500000 0.500000
O O19 0.477091 0.566304 0.250000
O O20 0.160098 0.414096 0.750000
O O21 0.888899 0.250000 0.500000
O O22 0.904295 0.317485 0.250000
#
# Coordination Sequence:
#
# PCOD9436687 Si02
#       8
#     8   8   8   8   8   8   8   8
#     4  10  20  35  54  75 103 141 180 223 269 320
#     4   9  18  34  55  81 108 137 178 222 264 319
#     4   9  19  35  54  80 111 141 175 222 271 321
#     4  11  23  39  56  81 113 147 185 231 279 330
#     4   9  18  35  54  74 106 143 179 219 266 321
#     4  11  21  36  59  85 111 145 186 229 274 328
#     4  10  20  33  52  80 111 142 178 219 266 320
#     4   9  19  36  56  78 105 138 181 224 270 324
#
# _framework density 17.387087999999999
#
# number of rings (size 3 to 8) (size 9 to 14) (size 15 to 20)
#    0.000    2.250    1.250    1.500    0.000    4.500 
#    0.000    1.875    0.000    1.500    0.000    0.000 
#    0.000    0.000    0.000    0.000    0.000    0.000 
#
# Total GULP energy -357145.085505 kJ/mol
# GULP energy per Si atom -5580.391961 kJ/mol
# Density = 1.734751 g / cm^3
# Si number density = 17.387088 Si / 1000 Ang^3
#
#
#
# Elastic Constant Matrix: (Units=GPa)
#
#
# Indices 1 2 3 4 5 6 
#
# 1 141.5248 100.7844 44.2311 0.0000 0.0000 0.0000
# 2 100.7844 127.6178 40.5741 0.0000 0.0000 0.0000
# 3 44.2311 40.5741 36.9286 0.0000 0.0000 0.0000
# 4 0.0000 0.0000 0.0000 27.5243 0.0000 0.0000
# 5 0.0000 0.0000 0.0000 0.0000 30.0333 0.0000
# 6 0.0000 0.0000 0.0000 0.0000 0.0000 30.4881
#
#
#
# Elastic Compliance Matrix: (Units=1/GPa)
#
#
# Indices 1 2 3 4 5 6 
#
# 1 0.017937 -0.011273 -0.009098 0.000000 0.000000 0.000000
# 2 -0.011273 0.019127 -0.007513 0.000000 0.000000 0.000000
# 3 -0.009098 -0.007513 0.046232 0.000000 0.000000 0.000000
# 4 0.000000 0.000000 0.000000 0.036332 0.000000 0.000000
# 5 0.000000 0.000000 0.000000 0.000000 0.033296 0.000000
# 6 0.000000 0.000000 0.000000 0.000000 0.000000 0.032800
#
#
# Mechanical properties :
#
#
# Convention : Reuss Voigt Hill
#
# Bulk Modulus (GPa) = 36.32804 75.25006 55.78905
# Shear Modulus (GPa) = 19.94654 25.64124 22.79389
#
# Velocity S-wave (km/s) = 3.39072 3.84439 3.62466
# Velocity P-wave (km/s) = 6.02232 7.94223 7.04795
#
# Compressibility (1/GPa) = 0.02752695
#
# Stress axis : x y z
#
# Youngs Moduli (GPa) = 55.74938 52.28087 21.63005
#
# Poissons Ratio (x) = 0.58937 0.19680
# Poissons Ratio (y) = 0.62847 0.16251
# Poissons Ratio (z) = 0.50723 0.39281
#
# Static dielectric constant tensor:
#      x y z
#    x 1.581210 0.000000 0.000000 
#    y 0.000000 1.571040 0.000000 
#    z 0.000000 0.000000 1.586060 
# 
# From -- ./inp_files/7255.got.cif
#   From: 2010.05.17/outbox.cif.g08.bks.cpg/sg57_4_cif.got.tgz:7255.got - 2010.06.03 13:58:18.
