data_PCOD9436645
_publ_section_title
;
Structure prediction by ZEFSAII (Michael W. Deem and Ramdas Pophale) SiO2 
 PCOD9436645
Probable space group: P B C M
;
_chemical_formula_sum "Si O2"
_cell_formula_units_Z 64
_cell_length_a 21.952358
_cell_length_b 19.143912
_cell_length_c 8.880061
_cell_angle_alpha 90.000000
_cell_angle_beta 90.000000
_cell_angle_gamma 90.000000
_cell_volume 3731.881242
_symmetry_space_group_name_H-M "P B C M"
_symmetry_group_IT_number 57
_symmetry_cell_setting 'orthorhombic'
loop_
_space_group_symop_operation_xyz
x,y,z
-x,-y,1/2+z
x,1/2-y,-z
-x,1/2+y,1/2-z
-x,-y,-z
x,y,1/2-z
-x,1/2+y,z
x,1/2-y,1/2+z
loop_
_atom_site_type_symbol
_atom_site_label
_atom_site_fract_x
_atom_site_fract_y
_atom_site_fract_z
Si Si1 0.987395 0.576445 0.430240
Si Si2 0.609707 0.678994 0.428290
Si Si3 0.729878 0.634375 0.577927
Si Si4 0.191183 0.925144 0.931353
Si Si5 0.141855 0.081935 0.569128
Si Si6 0.680305 0.475022 0.577705
Si Si7 0.907923 0.326909 0.430256
Si Si8 0.437841 0.027484 0.070270
O O1 0.993445 0.573639 0.250000
O O2 0.919400 0.597545 0.480034
O O3 0.000000 0.500000 0.500000
O O4 0.036196 0.629251 0.500192
O O5 0.585132 0.750000 0.500000
O O6 0.604648 0.682900 0.250000
O O7 0.680652 0.671606 0.474661
O O8 0.577252 0.607237 0.480035
O O9 0.725772 0.660793 0.750000
O O10 0.800251 0.630589 0.529949
O O11 0.708454 0.553329 0.581421
O O12 0.187791 0.914781 0.750000
O O13 0.262562 0.928574 0.974043
O O14 0.161346 0.001402 0.961267
O O15 0.152763 0.867654 0.017906
O O16 0.132327 0.087346 0.750000
O O17 0.664714 0.456350 0.750000
O O18 0.619583 0.480482 0.480685
O O19 0.908113 0.250000 0.500000
O O20 0.912379 0.324719 0.250000
O O21 0.441961 0.027461 0.250000
O O22 0.500000 0.000000 0.000000
#
# Coordination Sequence:
#
# PCOD9436645 Si02
#       8
#     8   8   8   8   8   8   8   8
#     4  12  23  36  55  80 108 141 184 231 277 332
#     4  10  20  33  51  76 106 142 182 223 265 317
#     4   8  15  29  49  74 103 135 167 207 256 307
#     4   9  17  32  55  80 106 135 171 217 266 320
#     4   9  17  31  53  79 106 135 173 219 266 316
#     4   8  15  29  51  78 106 136 167 207 258 306
#     4  12  25  40  57  78 106 142 180 228 285 339
#     4  10  20  33  52  80 112 146 184 226 268 316
#
# _framework density 17.149526999999999
#
# number of rings (size 3 to 8) (size 9 to 14) (size 15 to 20)
#    0.000    2.250    1.250    4.500    0.000    2.500 
#    0.000    3.125    0.000    3.750    0.000    3.500 
#    0.000    0.000    0.000    0.000    0.000    0.000 
#
# Total GULP energy -356960.053990 kJ/mol
# GULP energy per Si atom -5577.500844 kJ/mol
# Density = 1.711049 g / cm^3
# Si number density = 17.149527 Si / 1000 Ang^3
#
#
#
# Elastic Constant Matrix: (Units=GPa)
#
#
# Indices 1 2 3 4 5 6 
#
# 1 142.3498 55.5346 63.5940 0.0000 0.0000 0.0000
# 2 55.5346 87.7526 47.8559 0.0000 0.0000 0.0000
# 3 63.5940 47.8559 83.1993 0.0000 0.0000 0.0000
# 4 0.0000 0.0000 0.0000 23.0817 0.0000 0.0000
# 5 0.0000 0.0000 0.0000 0.0000 31.9734 0.0000
# 6 0.0000 0.0000 0.0000 0.0000 0.0000 15.1846
#
#
#
# Elastic Compliance Matrix: (Units=1/GPa)
#
#
# Indices 1 2 3 4 5 6 
#
# 1 0.011393 -0.003586 -0.006646 0.000000 0.000000 0.000000
# 2 -0.003586 0.017733 -0.007459 0.000000 0.000000 0.000000
# 3 -0.006646 -0.007459 0.021389 0.000000 0.000000 0.000000
# 4 0.000000 0.000000 0.000000 0.043324 0.000000 0.000000
# 5 0.000000 0.000000 0.000000 0.000000 0.031276 0.000000
# 6 0.000000 0.000000 0.000000 0.000000 0.000000 0.065856
#
#
# Mechanical properties :
#
#
# Convention : Reuss Voigt Hill
#
# Bulk Modulus (GPa) = 66.07605 71.91896 68.99751
# Shear Modulus (GPa) = 21.60792 23.80242 22.70517
#
# Velocity S-wave (km/s) = 3.55346 3.72954 3.64256
# Velocity P-wave (km/s) = 7.44642 7.78289 7.61651
#
# Compressibility (1/GPa) = 0.01513408
#
# Stress axis : x y z
#
# Youngs Moduli (GPa) = 87.77514 56.39308 46.75226
#
# Poissons Ratio (x) = 0.20221 0.31070
# Poissons Ratio (y) = 0.31474 0.34872
# Poissons Ratio (z) = 0.58332 0.42063
#
# Static dielectric constant tensor:
#      x y z
#    x 1.585700 0.000000 0.000000 
#    y 0.000000 1.582810 0.000000 
#    z 0.000000 0.000000 1.575790 
# 
# From -- ./inp_files/8471.got.cif
#   From: 2010.05.17/outbox.cif.g08.bks.cpg/sg57_5_cif.got.tgz:8471.got - 2010.06.03 13:58:18.
