data_PCOD9436455
_publ_section_title
;
Structure prediction by ZEFSAII (Michael W. Deem and Ramdas Pophale) SiO2 
 PCOD9436455
Probable space group: P B C M
;
_chemical_formula_sum "Si O2"
_cell_formula_units_Z 32
_cell_length_a 7.228497
_cell_length_b 14.410575
_cell_length_c 17.335925
_cell_angle_alpha 90.000000
_cell_angle_beta 90.000000
_cell_angle_gamma 90.000000
_cell_volume 1805.827800
_symmetry_space_group_name_H-M "P B C M"
_symmetry_group_IT_number 57
_symmetry_cell_setting 'orthorhombic'
loop_
_space_group_symop_operation_xyz
x,y,z
-x,-y,1/2+z
x,1/2-y,-z
-x,1/2+y,1/2-z
-x,-y,-z
x,y,1/2-z
-x,1/2+y,z
x,1/2-y,1/2+z
loop_
_atom_site_type_symbol
_atom_site_label
_atom_site_fract_x
_atom_site_fract_y
_atom_site_fract_z
Si Si1 0.296663 0.880396 0.659712
Si Si2 0.865868 0.953824 0.436931
Si Si3 0.015684 0.756723 0.089087
Si Si4 0.632046 0.837432 0.950766
O O1 0.330937 0.889846 0.750000
O O2 0.484395 0.868649 0.611267
O O3 0.164574 0.791971 0.642739
O O4 0.194279 0.970008 0.624411
O O5 0.964532 0.864200 0.398929
O O6 0.693941 0.914141 0.486868
O O7 0.000000 0.000000 0.500000
O O8 0.822874 0.699099 0.088253
O O9 0.082649 0.750000 0.000000
O O10 0.558974 0.750000 0.000000
#
# Coordination Sequence:
#
# PCOD9436455 Si02
#       4
#     8   8   8   8
#     4  12  23  36  59  91 124 152 188 249 307 338
#     4  10  19  39  66  86 109 159 207 238 277 353
#     4   9  19  39  62  84 110 154 200 238 283 351
#     4   9  20  38  63  84 112 156 202 236 278 358
#
# _framework density 17.720406000000001
#
# number of rings (size 3 to 8) (size 9 to 14) (size 15 to 20)
#    0.000    2.500    5.000    1.500    0.000    2.000 
#    0.000    3.750    0.000    0.000    0.000    0.000 
#    0.000    0.000    0.000    0.000    0.000    0.000 
#
# Total GULP energy -178469.069484 kJ/mol
# GULP energy per Si atom -5577.158421 kJ/mol
# Density = 1.768007 g / cm^3
# Si number density = 17.720406 Si / 1000 Ang^3
#
#
#
# Elastic Constant Matrix: (Units=GPa)
#
#
# Indices 1 2 3 4 5 6 
#
# 1 55.2077 39.5711 43.9560 0.0000 0.0000 0.0000
# 2 39.5711 107.7702 57.4147 0.0000 0.0000 0.0000
# 3 43.9560 57.4147 115.9362 0.0000 0.0000 0.0000
# 4 0.0000 0.0000 0.0000 22.1000 0.0000 0.0000
# 5 0.0000 0.0000 0.0000 0.0000 0.4144 0.0000
# 6 0.0000 0.0000 0.0000 0.0000 0.0000 9.6508
#
#
#
# Elastic Compliance Matrix: (Units=1/GPa)
#
#
# Indices 1 2 3 4 5 6 
#
# 1 0.028946 -0.006495 -0.007758 0.000000 0.000000 0.000000
# 2 -0.006495 0.014062 -0.004501 0.000000 0.000000 0.000000
# 3 -0.007758 -0.004501 0.013796 0.000000 0.000000 0.000000
# 4 0.000000 0.000000 0.000000 0.045249 0.000000 0.000000
# 5 0.000000 0.000000 0.000000 0.000000 2.413387 0.000000
# 6 0.000000 0.000000 0.000000 0.000000 0.000000 0.103619
#
#
# Mechanical properties :
#
#
# Convention : Reuss Voigt Hill
#
# Bulk Modulus (GPa) = 51.82731 62.31087 57.06909
# Shear Modulus (GPa) = 1.87758 15.63117 8.75438
#
# Velocity S-wave (km/s) = 1.03047 2.97324 2.22509
# Velocity P-wave (km/s) = 5.54315 6.85759 6.23511
#
# Compressibility (1/GPa) = 0.01929485
#
# Stress axis : x y z
#
# Youngs Moduli (GPa) = 34.54735 71.11358 72.48544
#
# Poissons Ratio (x) = 0.46191 0.56233
# Poissons Ratio (y) = 0.22440 0.32628
# Poissons Ratio (z) = 0.26801 0.32010
#
# Static dielectric constant tensor:
#      x y z
#    x 1.619470 0.000000 0.000000 
#    y 0.000000 1.632690 0.000000 
#    z 0.000000 0.000000 1.576160 
# 
# From -- ./inp_files/15670.got.cif
#   From: 2010.05.17/outbox.cif.g08.bks.cpg/sg57_8_cif.got.tgz:15670.got - 2010.06.03 13:58:18.
