data_PCOD9436853
_publ_section_title
;
Structure prediction by ZEFSAII (Michael W. Deem and Ramdas Pophale) SiO2 
 PCOD9436853
Probable space group: P B C M
;
_chemical_formula_sum "Si O2"
_cell_formula_units_Z 48
_cell_length_a 11.153134
_cell_length_b 25.943976
_cell_length_c 9.347938
_cell_angle_alpha 90.000000
_cell_angle_beta 90.000000
_cell_angle_gamma 90.000000
_cell_volume 2704.887938
_symmetry_space_group_name_H-M "P B C M"
_symmetry_group_IT_number 57
_symmetry_cell_setting 'orthorhombic'
loop_
_space_group_symop_operation_xyz
x,y,z
-x,-y,1/2+z
x,1/2-y,-z
-x,1/2+y,1/2-z
-x,-y,-z
x,y,1/2-z
-x,1/2+y,z
x,1/2-y,1/2+z
loop_
_atom_site_type_symbol
_atom_site_label
_atom_site_fract_x
_atom_site_fract_y
_atom_site_fract_z
Si Si1 0.122523 0.030593 0.969445
Si Si2 0.756349 0.425283 0.913195
Si Si3 0.688619 0.599521 0.094370
Si Si4 0.145392 0.198591 0.082792
Si Si5 0.481955 0.554608 0.579192
Si Si6 0.029032 0.627897 0.588517
O O1 0.206964 0.055962 0.089706
O O2 0.070892 0.082359 0.898340
O O3 0.204707 0.985740 0.904342
O O4 0.000000 0.000000 0.000000
O O5 0.740151 0.407136 0.750000
O O6 0.637965 0.422101 0.009409
O O7 0.862577 0.395336 0.995089
O O8 0.627901 0.596176 0.250000
O O9 0.752447 0.654552 0.079756
O O10 0.596576 0.588039 0.968137
O O11 0.118019 0.208444 0.250000
O O12 0.182075 0.250000 0.000000
O O13 0.033058 0.173822 0.998649
O O14 0.500000 0.500000 0.500000
O O15 0.472899 0.548882 0.750000
O O16 0.065554 0.641880 0.750000
#
# Coordination Sequence:
#
# PCOD9436853 Si02
#       6
#     8   8   8   8   8   8
#     4   9  19  30  49  75 110 145 184 219 272 321
#     4  11  21  34  52  76 110 150 189 225 270 324
#     4  10  21  37  56  79 110 146 188 232 277 330
#     4  10  21  38  61  87 112 142 180 229 285 336
#     4  12  24  36  53  77 110 152 194 232 275 327
#     4  10  20  34  53  80 111 143 182 226 275 330
#
# _framework density 17.745652
#
# number of rings (size 3 to 8) (size 9 to 14) (size 15 to 20)
#    0.000    1.667    1.667    3.500    0.000   10.000 
#    0.000    0.000    0.000    1.000    0.000    4.667 
#    0.000    0.000    0.000    0.000    0.000    0.000 
#
# Total GULP energy -267385.599263 kJ/mol
# GULP energy per Si atom -5570.533318 kJ/mol
# Density = 1.770526 g / cm^3
# Si number density = 17.745652 Si / 1000 Ang^3
#
#
#
# Elastic Constant Matrix: (Units=GPa)
#
#
# Indices 1 2 3 4 5 6 
#
# 1 79.7606 15.3597 52.1012 0.0000 0.0000 0.0000
# 2 15.3597 67.5703 39.2050 0.0000 0.0000 0.0000
# 3 52.1012 39.2050 184.2721 0.0000 0.0000 0.0000
# 4 0.0000 0.0000 0.0000 8.9979 0.0000 0.0000
# 5 0.0000 0.0000 0.0000 0.0000 22.8737 0.0000
# 6 0.0000 0.0000 0.0000 0.0000 0.0000 15.6695
#
#
#
# Elastic Compliance Matrix: (Units=1/GPa)
#
#
# Indices 1 2 3 4 5 6 
#
# 1 0.015451 -0.001115 -0.004131 0.000000 0.000000 0.000000
# 2 -0.001115 0.016964 -0.003294 0.000000 0.000000 0.000000
# 3 -0.004131 -0.003294 0.007296 0.000000 0.000000 0.000000
# 4 0.000000 0.000000 0.000000 0.111137 0.000000 0.000000
# 5 0.000000 0.000000 0.000000 0.000000 0.043718 0.000000
# 6 0.000000 0.000000 0.000000 0.000000 0.000000 0.063818
#
#
# Mechanical properties :
#
#
# Convention : Reuss Voigt Hill
#
# Bulk Modulus (GPa) = 44.18950 60.54832 52.36891
# Shear Modulus (GPa) = 17.66731 24.50402 21.08566
#
# Velocity S-wave (km/s) = 3.15871 3.72001 3.45079
# Velocity P-wave (km/s) = 6.18538 7.25572 6.74182
#
# Compressibility (1/GPa) = 0.02262981
#
# Stress axis : x y z
#
# Youngs Moduli (GPa) = 64.72097 58.94822 137.06784
#
# Poissons Ratio (x) = 0.06574 0.56628
# Poissons Ratio (y) = 0.07217 0.45149
# Poissons Ratio (z) = 0.26739 0.19417
#
# Static dielectric constant tensor:
#      x y z
#    x 1.655760 0.000000 0.000000 
#    y 0.000000 1.591640 0.000000 
#    z 0.000000 0.000000 1.602520 
# 
# From -- ./inp_files/3306.got.cif
#   From: 2010.05.17/outbox.cif.g08.bks.cpg/sg57_2_cif.got.tgz:3306.got - 2010.06.03 13:58:18.
