data_PCOD9436306
_publ_section_title
;
Structure prediction by ZEFSAII (Michael W. Deem and Ramdas Pophale) SiO2 
 PCOD9436306
Probable space group: P B C M
;
_chemical_formula_sum "Si O2"
_cell_formula_units_Z 52
_cell_length_a 21.844447
_cell_length_b 5.473753
_cell_length_c 19.315026
_cell_angle_alpha 90.000000
_cell_angle_beta 90.000000
_cell_angle_gamma 90.000000
_cell_volume 2309.519046
_symmetry_space_group_name_H-M "P B C M"
_symmetry_group_IT_number 57
_symmetry_cell_setting 'orthorhombic'
loop_
_space_group_symop_operation_xyz
x,y,z
-x,-y,1/2+z
x,1/2-y,-z
-x,1/2+y,1/2-z
-x,-y,-z
x,y,1/2-z
-x,1/2+y,z
x,1/2-y,1/2+z
loop_
_atom_site_type_symbol
_atom_site_label
_atom_site_fract_x
_atom_site_fract_y
_atom_site_fract_z
Si Si1 0.960504 0.042240 0.903638
Si Si2 0.826695 0.496502 0.459576
Si Si3 0.632099 0.883137 0.750000
Si Si4 0.711045 0.606536 0.390830
Si Si5 0.479308 0.697485 0.420464
Si Si6 0.338884 0.889000 0.594920
Si Si7 0.371260 0.617705 0.250000
Si Si8 0.965430 0.383337 0.250000
O O1 0.898778 0.032386 0.946510
O O2 0.999749 0.791727 0.914122
O O3 0.937136 0.057022 0.823904
O O4 0.819096 0.750000 0.500000
O O5 0.782620 0.537377 0.393119
O O6 0.807672 0.250000 0.500000
O O7 0.676570 0.881325 0.683055
O O8 0.593798 0.636059 0.750000
O O9 0.593760 0.129422 0.750000
O O10 0.680794 0.377447 0.430311
O O11 0.697311 0.868579 0.424905
O O12 0.498616 0.750000 0.500000
O O13 0.518495 0.472757 0.389875
O O14 0.410748 0.593074 0.419158
O O15 0.332614 0.878831 0.679303
O O16 0.019347 0.593008 0.250000
#
# Coordination Sequence:
#
# PCOD9436306 Si02
#       8
#     8   8   4   8   8   8   4   4
#     4  10  21  39  62  84 111 150 188 229 284 331
#     4  12  26  40  55  83 119 148 188 236 267 325
#     4   8  16  33  56  79 104 139 180 223 274 330
#     4  10  21  37  58  83 110 143 183 228 280 332
#     4  10  21  36  53  77 107 141 187 230 260 311
#     4  10  19  36  59  80 109 146 177 220 285 334
#     4   8  16  30  52  82 108 132 176 224 264 336
#     4   8  16  33  58  87 110 133 182 239 276 322
#
# _framework density 22.515509000000002
#
# number of rings (size 3 to 8) (size 9 to 14) (size 15 to 20)
#    0.000    2.154    0.000    2.769    0.000    4.308 
#    0.000    0.769    0.000   12.923    0.000    0.000 
#    0.000    0.000    0.000    0.000    0.000    0.000 
#
# Total GULP energy -289590.780290 kJ/mol
# GULP energy per Si atom -5569.053467 kJ/mol
# Density = 2.246426 g / cm^3
# Si number density = 22.515509 Si / 1000 Ang^3
#
#
#
# Elastic Constant Matrix: (Units=GPa)
#
#
# Indices 1 2 3 4 5 6 
#
# 1 93.8607 37.7044 9.8417 0.0000 0.0000 0.0000
# 2 37.7044 242.3275 22.9197 0.0000 0.0000 0.0000
# 3 9.8417 22.9197 66.5811 0.0000 0.0000 0.0000
# 4 0.0000 0.0000 0.0000 20.0549 0.0000 0.0000
# 5 0.0000 0.0000 0.0000 0.0000 17.9853 0.0000
# 6 0.0000 0.0000 0.0000 0.0000 0.0000 8.9561
#
#
#
# Elastic Compliance Matrix: (Units=1/GPa)
#
#
# Indices 1 2 3 4 5 6 
#
# 1 0.011444 -0.001675 -0.001115 0.000000 0.000000 0.000000
# 2 -0.001675 0.004511 -0.001305 0.000000 0.000000 0.000000
# 3 -0.001115 -0.001305 0.015633 0.000000 0.000000 0.000000
# 4 0.000000 0.000000 0.000000 0.049863 0.000000 0.000000
# 5 0.000000 0.000000 0.000000 0.000000 0.055601 0.000000
# 6 0.000000 0.000000 0.000000 0.000000 0.000000 0.111656
#
#
# Mechanical properties :
#
#
# Convention : Reuss Voigt Hill
#
# Bulk Modulus (GPa) = 42.73953 60.41121 51.57537
# Shear Modulus (GPa) = 18.88950 31.55283 25.22116
#
# Velocity S-wave (km/s) = 2.89961 3.74756 3.35052
# Velocity P-wave (km/s) = 5.49853 6.75388 6.15827
#
# Compressibility (1/GPa) = 0.02339755
#
# Stress axis : x y z
#
# Youngs Moduli (GPa) = 87.38279 221.69364 63.96574
#
# Poissons Ratio (x) = 0.37137 0.07132
# Poissons Ratio (y) = 0.14638 0.08348
# Poissons Ratio (z) = 0.09743 0.28934
#
# Static dielectric constant tensor:
#      x y z
#    x 1.763310 0.000000 0.000000 
#    y 0.000000 1.961120 0.000000 
#    z 0.000000 0.000000 1.934740 
# 
# From -- ./inp_files/25768.got.cif
#   From: 2010.05.17/outbox.cif.g08.bks.cpg/sg57_13_cif.got.tgz:25768.got - 2010.06.03 13:58:18.
