data_PCOD9436240
_publ_section_title
;
Structure prediction by ZEFSAII (Michael W. Deem and Ramdas Pophale) SiO2 
 PCOD9436240
Probable space group: P B C M
;
_chemical_formula_sum "Si O2"
_cell_formula_units_Z 48
_cell_length_a 10.770419
_cell_length_b 17.078575
_cell_length_c 11.667020
_cell_angle_alpha 90.000000
_cell_angle_beta 90.000000
_cell_angle_gamma 90.000000
_cell_volume 2146.071428
_symmetry_space_group_name_H-M "P B C M"
_symmetry_group_IT_number 57
_symmetry_cell_setting 'orthorhombic'
loop_
_space_group_symop_operation_xyz
x,y,z
-x,-y,1/2+z
x,1/2-y,-z
-x,1/2+y,1/2-z
-x,-y,-z
x,y,1/2-z
-x,1/2+y,z
x,1/2-y,1/2+z
loop_
_atom_site_type_symbol
_atom_site_label
_atom_site_fract_x
_atom_site_fract_y
_atom_site_fract_z
Si Si1 0.017444 0.406246 0.625006
Si Si2 0.623850 0.679578 0.625858
Si Si3 0.489447 0.544906 0.377015
Si Si4 0.890416 0.086524 0.618375
Si Si5 0.649343 0.339302 0.477463
Si Si6 0.720812 0.646570 0.404968
O O1 0.950348 0.400343 0.750000
O O2 0.075098 0.494264 0.618254
O O3 0.139529 0.353181 0.632447
O O4 0.951045 0.386650 0.504317
O O5 0.643928 0.649311 0.750000
O O6 0.482525 0.668559 0.587462
O O7 0.717614 0.637574 0.541321
O O8 0.654777 0.771413 0.620958
O O9 0.500000 0.500000 0.500000
O O10 0.460628 0.511027 0.250000
O O11 0.389218 0.612971 0.407844
O O12 0.626960 0.580884 0.364638
O O13 0.924009 0.113759 0.750000
O O14 0.747676 0.111300 0.596234
O O15 0.692927 0.250000 0.500000
#
# Coordination Sequence:
#
# PCOD9436240 Si02
#       6
#     8   8   8   8   8   8
#     4  10  21  41  66  89 121 165 214 265 318 376
#     4  10  19  35  59  88 124 162 202 250 312 384
#     4  11  23  38  60  94 131 171 216 263 320 390
#     4  10  23  42  65  91 122 164 215 269 322 380
#     4  11  22  40  63  95 131 171 213 267 334 396
#     4  10  20  36  59  88 118 162 204 252 312 376
#
# _framework density 22.366451999999999
#
# number of rings (size 3 to 8) (size 9 to 14) (size 15 to 20)
#    0.000    1.667    3.333    3.000    0.000    6.667 
#    3.000    3.333    0.000    0.000    0.000    0.000 
#    0.000    0.000    0.000    0.000    0.000    0.000 
#
# Total GULP energy -267228.948493 kJ/mol
# GULP energy per Si atom -5567.269760 kJ/mol
# Density = 2.231554 g / cm^3
# Si number density = 22.366452 Si / 1000 Ang^3
#
#
#
# Elastic Constant Matrix: (Units=GPa)
#
#
# Indices 1 2 3 4 5 6 
#
# 1 62.7463 7.8789 44.1921 0.0000 0.0000 0.0000
# 2 7.8789 54.2717 32.1163 0.0000 0.0000 0.0000
# 3 44.1921 32.1163 246.4118 0.0000 0.0000 0.0000
# 4 0.0000 0.0000 0.0000 -1.9644 0.0000 0.0000
# 5 0.0000 0.0000 0.0000 0.0000 -10.2475 0.0000
# 6 0.0000 0.0000 0.0000 0.0000 0.0000 20.3489
#
#
#
# Elastic Compliance Matrix: (Units=1/GPa)
#
#
# Indices 1 2 3 4 5 6 
#
# 1 0.018271 -0.000773 -0.003176 0.000000 0.000000 0.000000
# 2 -0.000773 0.019998 -0.002468 0.000000 0.000000 0.000000
# 3 -0.003176 -0.002468 0.004950 0.000000 0.000000 0.000000
# 4 0.000000 0.000000 0.000000 -0.509051 0.000000 0.000000
# 5 0.000000 0.000000 0.000000 0.000000 -0.097585 0.000000
# 6 0.000000 0.000000 0.000000 0.000000 0.000000 0.049143
#
#
# Mechanical properties :
#
#
# Convention : Reuss Voigt Hill
#
# Bulk Modulus (GPa) = 32.91076 59.08939 46.00007
# Shear Modulus (GPa) = -10.17684 20.24354 5.03335
#
# Velocity S-wave (km/s) = -2.13540 3.01173 1.50176
# Velocity P-wave (km/s) = 2.94387 6.21048 4.85986
#
# Compressibility (1/GPa) = 0.03038520
#
# Stress axis : x y z
#
# Youngs Moduli (GPa) = 54.73112 50.00382 202.04060
#
# Poissons Ratio (x) = 0.03865 0.64169
# Poissons Ratio (y) = 0.04231 0.49861
# Poissons Ratio (z) = 0.17383 0.12340
#
# Static dielectric constant tensor:
#      x y z
#    x 1.793960 0.000000 0.000000 
#    y 0.000000 1.907680 0.000000 
#    z 0.000000 0.000000 1.971430 
# 
# From -- ./inp_files/12919.got.cif
#   From: 2010.05.17/outbox.cif.g08.bks.cpg/sg57_7_cif.got.tgz:12919.got - 2010.06.03 13:58:18.
