data_PCOD9436831
_publ_section_title
;
Structure prediction by ZEFSAII (Michael W. Deem and Ramdas Pophale) SiO2 
 PCOD9436831
Probable space group: P B C M
;
_chemical_formula_sum "Si O2"
_cell_formula_units_Z 64
_cell_length_a 20.872239
_cell_length_b 19.232797
_cell_length_c 8.267614
_cell_angle_alpha 90.000000
_cell_angle_beta 90.000000
_cell_angle_gamma 90.000000
_cell_volume 3318.880984
_symmetry_space_group_name_H-M "P B C M"
_symmetry_group_IT_number 57
_symmetry_cell_setting 'orthorhombic'
loop_
_space_group_symop_operation_xyz
x,y,z
-x,-y,1/2+z
x,1/2-y,-z
-x,1/2+y,1/2-z
-x,-y,-z
x,y,1/2-z
-x,1/2+y,z
x,1/2-y,1/2+z
loop_
_atom_site_type_symbol
_atom_site_label
_atom_site_fract_x
_atom_site_fract_y
_atom_site_fract_z
Si Si1 0.313573 0.081126 0.447948
Si Si2 0.074798 0.074950 0.445413
Si Si3 0.421499 0.828017 0.943928
Si Si4 0.809084 0.670710 0.054592
Si Si5 0.812392 0.328895 0.056921
Si Si6 0.432504 0.327838 0.945192
Si Si7 0.694094 0.422311 0.444872
Si Si8 0.071190 0.580196 0.056503
O O1 0.313800 0.080445 0.250000
O O2 0.253735 0.128411 0.499266
O O3 0.379788 0.116970 0.500999
O O4 0.306111 0.001795 0.503211
O O5 0.074699 0.075624 0.250000
O O6 0.127444 0.129954 0.502167
O O7 0.002228 0.090634 0.501086
O O8 0.091388 0.996743 0.499025
O O9 0.420454 0.829697 0.750000
O O10 0.494599 0.841929 0.000096
O O11 0.404447 0.750000 0.000000
O O12 0.370784 0.882725 0.009680
O O13 0.809402 0.669552 0.250000
O O14 0.807686 0.750000 0.000000
O O15 0.809436 0.329234 0.250000
O O16 0.754501 0.377497 0.994125
O O17 0.805553 0.250000 0.000000
O O18 0.879411 0.362736 0.004916
O O19 0.432882 0.328520 0.750000
O O20 0.415007 0.250000 0.000000
O O21 0.698600 0.424631 0.250000
O O22 0.070862 0.581274 0.250000
#
# Coordination Sequence:
#
# PCOD9436831 Si02
#       8
#     8   8   8   8   8   8   8   8
#     4   9  18  34  55  77 104 139 175 212 259 312
#     4   9  19  36  56  80 111 145 179 216 262 316
#     4  10  20  34  53  78 107 138 172 213 259 308
#     4  10  20  35  55  78 106 139 176 217 260 308
#     4  11  23  38  56  78 106 140 179 223 270 321
#     4   9  18  33  53  77 106 139 174 211 254 307
#     4  10  21  37  57  78 102 137 177 217 265 319
#     4  10  20  35  57  83 109 140 179 221 265 315
#
# _framework density 19.283607
#
# number of rings (size 3 to 8) (size 9 to 14) (size 15 to 20)
#    0.000    2.250    0.000    2.625    0.000    6.500 
#    0.000    2.500    0.000    0.000    0.000    0.000 
#    0.000    0.000    0.000    0.000    0.000    0.000 
#
# Total GULP energy -357386.160601 kJ/mol
# GULP energy per Si atom -5584.158759 kJ/mol
# Density = 1.923972 g / cm^3
# Si number density = 19.283607 Si / 1000 Ang^3
#
#
#
# Elastic Constant Matrix: (Units=GPa)
#
#
# Indices 1 2 3 4 5 6 
#
# 1 98.8161 88.6607 7.2320 0.0000 0.0000 0.0000
# 2 88.6607 151.9112 8.0342 0.0000 0.0000 0.0000
# 3 7.2320 8.0342 6.5084 0.0000 0.0000 0.0000
# 4 0.0000 0.0000 0.0000 29.3773 0.0000 0.0000
# 5 0.0000 0.0000 0.0000 0.0000 9.3501 0.0000
# 6 0.0000 0.0000 0.0000 0.0000 0.0000 40.6127
#
#
#
# Elastic Compliance Matrix: (Units=1/GPa)
#
#
# Indices 1 2 3 4 5 6 
#
# 1 0.021735 -0.012205 -0.009085 0.000000 0.000000 0.000000
# 2 -0.012205 0.013896 -0.003592 0.000000 0.000000 0.000000
# 3 -0.009085 -0.003592 0.168176 0.000000 0.000000 0.000000
# 4 0.000000 0.000000 0.000000 0.034040 0.000000 0.000000
# 5 0.000000 0.000000 0.000000 0.000000 0.106950 0.000000
# 6 0.000000 0.000000 0.000000 0.000000 0.000000 0.024623
#
#
# Mechanical properties :
#
#
# Convention : Reuss Voigt Hill
#
# Bulk Modulus (GPa) = 6.49169 51.67662 29.08416
# Shear Modulus (GPa) = 10.62624 26.08863 18.35743
#
# Velocity S-wave (km/s) = 2.34999 3.68216 3.08875
# Velocity P-wave (km/s) = 3.27674 6.70329 5.27594
#
# Compressibility (1/GPa) = 0.15404303
#
# Stress axis : x y z
#
# Youngs Moduli (GPa) = 46.00770 71.96282 5.94614
#
# Poissons Ratio (x) = 0.87831 0.05402
# Poissons Ratio (y) = 0.56153 0.02136
# Poissons Ratio (z) = 0.41800 0.25848
#
# Static dielectric constant tensor:
#      x y z
#    x 1.681610 0.000000 0.000000 
#    y 0.000000 1.627660 0.000000 
#    z 0.000000 0.000000 1.669740 
# 
# From -- ./inp_files/8521.got.cif
#   From: 2010.05.17/outbox.cif.g08.bks.cpg/sg57_5_cif.got.tgz:8521.got - 2010.06.03 13:58:18.
