data_PCOD9436963
_publ_section_title
;
Structure prediction by ZEFSAII (Michael W. Deem and Ramdas Pophale) SiO2 
 PCOD9436963
Probable space group: P B C M
;
_chemical_formula_sum "Si O2"
_cell_formula_units_Z 56
_cell_length_a 12.510221
_cell_length_b 12.930172
_cell_length_c 15.426349
_cell_angle_alpha 90.000000
_cell_angle_beta 90.000000
_cell_angle_gamma 90.000000
_cell_volume 2495.355559
_symmetry_space_group_name_H-M "P B C M"
_symmetry_group_IT_number 57
_symmetry_cell_setting 'orthorhombic'
loop_
_space_group_symop_operation_xyz
x,y,z
-x,-y,1/2+z
x,1/2-y,-z
-x,1/2+y,1/2-z
-x,-y,-z
x,y,1/2-z
-x,1/2+y,z
x,1/2-y,1/2+z
loop_
_atom_site_type_symbol
_atom_site_label
_atom_site_fract_x
_atom_site_fract_y
_atom_site_fract_z
Si Si1 0.470148 0.372607 0.482504
Si Si2 0.598584 0.099843 0.345581
Si Si3 0.219487 0.367726 0.466440
Si Si4 0.043028 0.405224 0.345069
Si Si5 0.356801 0.653639 0.651503
Si Si6 0.155987 0.593018 0.533567
Si Si7 0.163806 0.610593 0.156370
O O1 0.476346 0.250000 0.500000
O O2 0.529912 0.418577 0.567577
O O3 0.345137 0.393065 0.471587
O O4 0.538013 0.388571 0.395541
O O5 0.550101 0.077190 0.250000
O O6 0.626856 0.222628 0.346804
O O7 0.719130 0.055222 0.346293
O O8 0.207757 0.250000 0.500000
O O9 0.156121 0.360543 0.375949
O O10 0.164998 0.468345 0.513319
O O11 0.012078 0.368335 0.250000
O O12 0.068753 0.527537 0.340767
O O13 0.951171 0.385227 0.413879
O O14 0.343292 0.617405 0.750000
O O15 0.257346 0.623529 0.591548
O O16 0.156657 0.652534 0.441073
O O17 0.161677 0.667699 0.250000
#
# Coordination Sequence:
#
# PCOD9436963 Si02
#       7
#     8   8   8   8   8   8   8
#     4   9  18  35  58  85 122 160 196 247 298 355
#     4   9  17  33  56  87 120 154 202 249 299 362
#     4  10  22  41  63  88 118 161 207 243 300 362
#     4  10  22  42  62  85 120 160 200 249 304 355
#     4  10  20  34  55  87 123 161 198 245 306 354
#     4  11  21  39  61  82 123 155 196 255 302 352
#     4   9  17  32  57  84 111 149 196 243 298 356
#
# _framework density 22.441690999999999
#
# number of rings (size 3 to 8) (size 9 to 14) (size 15 to 20)
#    0.000    2.286    1.429    2.143    0.000    1.143 
#    5.143    5.000    0.000    0.857    0.000    0.000 
#    0.000    0.000    0.000    0.000    0.000    0.000 
#
# Total GULP energy -312272.591863 kJ/mol
# GULP energy per Si atom -5576.296283 kJ/mol
# Density = 2.239061 g / cm^3
# Si number density = 22.441691 Si / 1000 Ang^3
#
#
#
# Elastic Constant Matrix: (Units=GPa)
#
#
# Indices 1 2 3 4 5 6 
#
# 1 105.1688 7.8132 76.5447 0.0000 0.0000 0.0000
# 2 7.8132 77.6323 17.9694 0.0000 0.0000 0.0000
# 3 76.5447 17.9694 235.6887 0.0000 0.0000 0.0000
# 4 0.0000 0.0000 0.0000 18.8554 0.0000 0.0000
# 5 0.0000 0.0000 0.0000 0.0000 15.3215 0.0000
# 6 0.0000 0.0000 0.0000 0.0000 0.0000 29.5241
#
#
#
# Elastic Compliance Matrix: (Units=1/GPa)
#
#
# Indices 1 2 3 4 5 6 
#
# 1 0.012460 -0.000323 -0.004022 0.000000 0.000000 0.000000
# 2 -0.000323 0.013121 -0.000895 0.000000 0.000000 0.000000
# 3 -0.004022 -0.000895 0.005617 0.000000 0.000000 0.000000
# 4 0.000000 0.000000 0.000000 0.053035 0.000000 0.000000
# 5 0.000000 0.000000 0.000000 0.000000 0.065268 0.000000
# 6 0.000000 0.000000 0.000000 0.000000 0.000000 0.033871
#
#
# Mechanical properties :
#
#
# Convention : Reuss Voigt Hill
#
# Bulk Modulus (GPa) = 48.26888 69.23827 58.75357
# Shear Modulus (GPa) = 24.90556 33.81771 29.36164
#
# Velocity S-wave (km/s) = 3.33496 3.88611 3.62104
# Velocity P-wave (km/s) = 6.03196 7.14530 6.61211
#
# Compressibility (1/GPa) = 0.02071728
#
# Stress axis : x y z
#
# Youngs Moduli (GPa) = 80.25815 76.21360 178.01953
#
# Poissons Ratio (x) = 0.02462 0.71598
# Poissons Ratio (y) = 0.02593 0.15941
# Poissons Ratio (z) = 0.32279 0.06825
#
# Static dielectric constant tensor:
#      x y z
#    x 1.806180 0.000000 0.000000 
#    y 0.000000 1.929880 0.000000 
#    z 0.000000 0.000000 1.868950 
# 
# From -- ./inp_files/17707.got.cif
#   From: 2010.05.17/outbox.cif.g08.bks.cpg/sg57_9_cif.got.tgz:17707.got - 2010.06.03 13:58:18.
