data_PCOD9436902
_publ_section_title
;
Structure prediction by ZEFSAII (Michael W. Deem and Ramdas Pophale) SiO2 
 PCOD9436902
Probable space group: P B C M
;
_chemical_formula_sum "Si O2"
_cell_formula_units_Z 40
_cell_length_a 26.922382
_cell_length_b 9.266529
_cell_length_c 8.673758
_cell_angle_alpha 90.000000
_cell_angle_beta 90.000000
_cell_angle_gamma 90.000000
_cell_volume 2163.903416
_symmetry_space_group_name_H-M "P B C M"
_symmetry_group_IT_number 57
_symmetry_cell_setting 'orthorhombic'
loop_
_space_group_symop_operation_xyz
x,y,z
-x,-y,1/2+z
x,1/2-y,-z
-x,1/2+y,1/2-z
-x,-y,-z
x,y,1/2-z
-x,1/2+y,z
x,1/2-y,1/2+z
loop_
_atom_site_type_symbol
_atom_site_label
_atom_site_fract_x
_atom_site_fract_y
_atom_site_fract_z
Si Si1 0.644883 0.912457 0.934508
Si Si2 0.953490 0.088931 0.435710
Si Si3 0.747291 0.913227 0.434861
Si Si4 0.453518 0.911223 0.064850
Si Si5 0.856474 0.912047 0.435694
O O1 0.647418 0.902915 0.750000
O O2 0.597476 0.007481 0.979037
O O3 0.639320 0.750000 0.000000
O O4 0.696832 0.977230 0.996344
O O5 0.955104 0.250000 0.500000
O O6 0.955479 0.091059 0.250000
O O7 0.902384 0.010413 0.484725
O O8 0.000000 0.000000 0.500000
O O9 0.748108 0.750000 0.500000
O O10 0.743327 0.910280 0.250000
O O11 0.801739 0.972426 0.478541
O O12 0.456393 0.907474 0.250000
O O13 0.454169 0.750000 0.000000
O O14 0.500000 0.000000 0.000000
O O15 0.861772 0.750000 0.500000
O O16 0.857395 0.902073 0.250000
#
# Coordination Sequence:
#
# PCOD9436902 Si02
#       5
#     8   8   8   8   8
#     4  10  20  34  54  82 111 142 179 221 266 316
#     4  11  23  39  57  80 109 142 181 225 273 326
#     4   9  16  29  51  78 107 141 178 218 262 313
#     4  11  24  40  59  82 110 143 182 225 273 325
#     4   9  19  34  54  80 109 140 178 221 266 316
#
# _framework density 18.485115
#
# number of rings (size 3 to 8) (size 9 to 14) (size 15 to 20)
#    0.000    2.000    0.000    4.800    0.000    8.800 
#    0.000    1.000    0.000    4.800    0.000    0.000 
#    0.000    0.000    0.000    0.000    0.000    0.000 
#
# Total GULP energy -223255.591572 kJ/mol
# GULP energy per Si atom -5581.389789 kJ/mol
# Density = 1.844304 g / cm^3
# Si number density = 18.485115 Si / 1000 Ang^3
#
#
#
# Elastic Constant Matrix: (Units=GPa)
#
#
# Indices 1 2 3 4 5 6 
#
# 1 236.7489 99.8363 59.9398 0.0000 0.0000 0.0000
# 2 99.8363 111.7891 32.9423 0.0000 0.0000 0.0000
# 3 59.9398 32.9423 49.3884 0.0000 0.0000 0.0000
# 4 0.0000 0.0000 0.0000 27.5915 0.0000 0.0000
# 5 0.0000 0.0000 0.0000 0.0000 29.0400 0.0000
# 6 0.0000 0.0000 0.0000 0.0000 0.0000 30.1472
#
#
#
# Elastic Compliance Matrix: (Units=1/GPa)
#
#
# Indices 1 2 3 4 5 6 
#
# 1 0.008057 -0.005370 -0.006197 0.000000 0.000000 0.000000
# 2 -0.005370 0.014712 -0.003296 0.000000 0.000000 0.000000
# 3 -0.006197 -0.003296 0.029967 0.000000 0.000000 0.000000
# 4 0.000000 0.000000 0.000000 0.036243 0.000000 0.000000
# 5 0.000000 0.000000 0.000000 0.000000 0.034435 0.000000
# 6 0.000000 0.000000 0.000000 0.000000 0.000000 0.033171
#
#
# Mechanical properties :
#
#
# Convention : Reuss Voigt Hill
#
# Bulk Modulus (GPa) = 43.45785 87.04035 65.24910
# Shear Modulus (GPa) = 25.77561 31.03626 28.40593
#
# Velocity S-wave (km/s) = 3.73821 4.10199 3.92432
# Velocity P-wave (km/s) = 6.49562 8.34410 7.47720
#
# Compressibility (1/GPa) = 0.02301080
#
# Stress axis : x y z
#
# Youngs Moduli (GPa) = 124.11357 67.97074 33.36961
#
# Poissons Ratio (x) = 0.36497 0.20679
# Poissons Ratio (y) = 0.66643 0.11000
# Poissons Ratio (z) = 0.76913 0.22406
#
# Static dielectric constant tensor:
#      x y z
#    x 1.678860 0.000000 0.000000 
#    y 0.000000 1.564290 0.000000 
#    z 0.000000 0.000000 1.624800 
# 
# From -- ./inp_files/9626.got.cif
#   From: 2010.05.17/outbox.cif.g08.bks.cpg/sg57_5_cif.got.tgz:9626.got - 2010.06.03 13:58:18.
