data_PCOD9436469
_publ_section_title
;
Structure prediction by ZEFSAII (Michael W. Deem and Ramdas Pophale) SiO2 
 PCOD9436469
Probable space group: P B C M
;
_chemical_formula_sum "Si O2"
_cell_formula_units_Z 64
_cell_length_a 20.966679
_cell_length_b 9.129561
_cell_length_c 15.528605
_cell_angle_alpha 90.000000
_cell_angle_beta 90.000000
_cell_angle_gamma 90.000000
_cell_volume 2972.432382
_symmetry_space_group_name_H-M "P B C M"
_symmetry_group_IT_number 57
_symmetry_cell_setting 'orthorhombic'
loop_
_space_group_symop_operation_xyz
x,y,z
-x,-y,1/2+z
x,1/2-y,-z
-x,1/2+y,1/2-z
-x,-y,-z
x,y,1/2-z
-x,1/2+y,z
x,1/2-y,1/2+z
loop_
_atom_site_type_symbol
_atom_site_label
_atom_site_fract_x
_atom_site_fract_y
_atom_site_fract_z
Si Si1 0.614109 0.090939 0.478258
Si Si2 0.801600 0.591371 0.518743
Si Si3 0.730202 0.101134 0.348059
Si Si4 0.956452 0.262011 0.848522
Si Si5 0.456602 0.374557 0.152252
Si Si6 0.588843 0.961951 0.652643
Si Si7 0.177749 0.835107 0.408694
Si Si8 0.948086 0.936086 0.434304
O O1 0.583968 0.250000 0.500000
O O2 0.673333 0.127532 0.415680
O O3 0.573466 0.976679 0.421523
O O4 0.629160 0.010737 0.569145
O O5 0.775551 0.750000 0.500000
O O6 0.770500 0.525982 0.604832
O O7 0.793056 0.488833 0.435614
O O8 0.877946 0.592345 0.531105
O O9 0.711048 0.068570 0.250000
O O10 0.776373 0.241535 0.349022
O O11 0.968455 0.236268 0.750000
O O12 0.894597 0.167835 0.876018
O O13 0.941397 0.431185 0.866381
O O14 0.018881 0.208236 0.897872
O O15 0.433308 0.411033 0.250000
O O16 0.440232 0.202479 0.139586
O O17 0.530659 0.420964 0.152813
O O18 0.617232 0.965486 0.750000
O O19 0.174787 0.750000 0.500000
O O20 0.000000 0.000000 0.500000
#
# Coordination Sequence:
#
# PCOD9436469 Si02
#       8
#     8   8   8   8   8   8   8   8
#     4  12  24  40  64  96 131 176 230 280 334 396
#     4  11  23  41  66  93 125 164 210 260 331 405
#     4  11  25  46  70  92 124 173 227 281 332 396
#     4  12  23  36  58  90 125 157 203 260 316 386
#     4  10  21  40  66 100 142 185 228 275 332 390
#     4  10  22  40  66 100 141 184 226 277 331 389
#     4  10  19  41  65  86 115 163 209 252 319 392
#     4  12  22  39  60  89 123 165 202 250 319 400
#
# _framework density 21.531188
#
# number of rings (size 3 to 8) (size 9 to 14) (size 15 to 20)
#    0.000    1.000    3.750    4.875    0.000    3.500 
#    0.000    1.250    0.000    0.000    0.000    0.000 
#    0.000    0.000    0.000    0.000    0.000    0.000 
#
# Total GULP energy -357421.824717 kJ/mol
# GULP energy per Si atom -5584.716011 kJ/mol
# Density = 2.148218 g / cm^3
# Si number density = 21.531188 Si / 1000 Ang^3
#
#
#
# Elastic Constant Matrix: (Units=GPa)
#
#
# Indices 1 2 3 4 5 6 
#
# 1 35.2193 -1.9666 27.6263 0.0000 0.0000 0.0000
# 2 -1.9666 124.8453 42.9940 0.0000 0.0000 0.0000
# 3 27.6263 42.9940 143.7099 0.0000 0.0000 0.0000
# 4 0.0000 0.0000 0.0000 27.4560 0.0000 0.0000
# 5 0.0000 0.0000 0.0000 0.0000 13.2937 0.0000
# 6 0.0000 0.0000 0.0000 0.0000 0.0000 13.4841
#
#
#
# Elastic Compliance Matrix: (Units=1/GPa)
#
#
# Indices 1 2 3 4 5 6 
#
# 1 0.034514 0.003153 -0.007578 0.000000 0.000000 0.000000
# 2 0.003153 0.009218 -0.003364 0.000000 0.000000 0.000000
# 3 -0.007578 -0.003364 0.009422 0.000000 0.000000 0.000000
# 4 0.000000 0.000000 0.000000 0.036422 0.000000 0.000000
# 5 0.000000 0.000000 0.000000 0.000000 0.075223 0.000000
# 6 0.000000 0.000000 0.000000 0.000000 0.000000 0.074161
#
#
# Mechanical properties :
#
#
# Convention : Reuss Voigt Hill
#
# Bulk Modulus (GPa) = 26.61258 49.00912 37.81085
# Shear Modulus (GPa) = 18.72214 26.52149 22.62181
#
# Velocity S-wave (km/s) = 2.95199 3.51347 3.24489
# Velocity P-wave (km/s) = 4.89957 6.26663 5.62479
#
# Compressibility (1/GPa) = 0.03757621
#
# Stress axis : x y z
#
# Youngs Moduli (GPa) = 28.97366 108.48246 106.13784
#
# Poissons Ratio (x) = -0.34210 0.80435
# Poissons Ratio (y) = -0.09137 0.35705
# Poissons Ratio (z) = 0.21957 0.36494
#
# Static dielectric constant tensor:
#      x y z
#    x 1.824830 0.000000 0.000000 
#    y 0.000000 1.813700 0.000000 
#    z 0.000000 0.000000 1.783700 
# 
# From -- ./inp_files/19530.got.cif
#   From: 2010.05.17/outbox.cif.g08.bks.cpg/sg57_10_cif.got.tgz:19530.got - 2010.06.03 13:58:18.
