data_PCOD9436208
_publ_section_title
;
Structure prediction by ZEFSAII (Michael W. Deem and Ramdas Pophale) SiO2 
 PCOD9436208
Probable space group: P B C M
;
_chemical_formula_sum "Si O2"
_cell_formula_units_Z 64
_cell_length_a 5.264278
_cell_length_b 20.367895
_cell_length_c 31.232059
_cell_angle_alpha 90.000000
_cell_angle_beta 90.000000
_cell_angle_gamma 90.000000
_cell_volume 3348.771999
_symmetry_space_group_name_H-M "P B C M"
_symmetry_group_IT_number 57
_symmetry_cell_setting 'orthorhombic'
loop_
_space_group_symop_operation_xyz
x,y,z
-x,-y,1/2+z
x,1/2-y,-z
-x,1/2+y,1/2-z
-x,-y,-z
x,y,1/2-z
-x,1/2+y,z
x,1/2-y,1/2+z
loop_
_atom_site_type_symbol
_atom_site_label
_atom_site_fract_x
_atom_site_fract_y
_atom_site_fract_z
Si Si1 0.086148 0.683239 0.155123
Si Si2 0.477354 0.131914 0.798611
Si Si3 0.014419 0.667151 0.847560
Si Si4 0.398260 0.370773 0.800937
Si Si5 0.747521 0.044695 0.496832
Si Si6 0.206046 0.935751 0.411059
Si Si7 0.906236 0.067857 0.095129
Si Si8 0.463229 0.003446 0.659132
O O1 0.088371 0.758730 0.141481
O O2 0.355767 0.662632 0.176430
O O3 0.020107 0.637624 0.114217
O O4 0.857751 0.668688 0.188211
O O5 0.456911 0.153943 0.750000
O O6 0.765605 0.143093 0.814626
O O7 0.406416 0.054646 0.803414
O O8 0.263889 0.167166 0.826924
O O9 0.026063 0.615706 0.886852
O O10 0.438426 0.375145 0.750000
O O11 0.369630 0.444290 0.821323
O O12 0.742513 0.086832 0.540548
O O13 0.756422 0.076235 0.449617
O O14 0.500000 0.000000 0.500000
O O15 0.000000 0.000000 0.500000
O O16 0.433540 0.947841 0.377999
O O17 0.110813 0.011297 0.414031
O O18 0.755927 0.034604 0.134443
#
# Coordination Sequence:
#
# PCOD9436208 Si02
#       8
#     8   8   8   8   8   8   8   8
#     4  11  24  39  58  83 117 156 192 236 293 350
#     4  11  23  38  59  83 114 152 198 245 289 341
#     4  11  24  39  58  83 117 156 192 236 293 350
#     4  11  23  38  59  83 114 152 198 245 289 341
#     4  10  20  32  59  90 113 140 185 234 277 332
#     4  10  19  37  58  86 115 147 189 235 284 340
#     4  10  19  37  58  86 115 147 189 235 284 340
#     4  10  19  35  58  86 118 144 194 237 299 336
#
# _framework density 19.111481999999999
#
# number of rings (size 3 to 8) (size 9 to 14) (size 15 to 20)
#    0.000    1.500    3.750    1.875    0.000    3.000 
#    0.000    4.375    0.000    0.000    0.000    5.250 
#    0.000    0.000    0.000    0.000    0.000    0.000 
#
# Total GULP energy -356420.288982 kJ/mol
# GULP energy per Si atom -5569.067015 kJ/mol
# Density = 1.906798 g / cm^3
# Si number density = 19.111482 Si / 1000 Ang^3
#
#
#
# Elastic Constant Matrix: (Units=GPa)
#
#
# Indices 1 2 3 4 5 6 
#
# 1 67.3900 -4.2410 13.8875 0.0000 0.0000 0.0000
# 2 -4.2410 74.9143 20.3256 0.0000 0.0000 0.0000
# 3 13.8875 20.3256 92.6509 0.0000 0.0000 0.0000
# 4 0.0000 0.0000 0.0000 5.1247 0.0000 0.0000
# 5 0.0000 0.0000 0.0000 0.0000 20.1957 0.0000
# 6 0.0000 0.0000 0.0000 0.0000 0.0000 19.9064
#
#
#
# Elastic Compliance Matrix: (Units=1/GPa)
#
#
# Indices 1 2 3 4 5 6 
#
# 1 0.015491 0.001602 -0.002673 0.000000 0.000000 0.000000
# 2 0.001602 0.014359 -0.003390 0.000000 0.000000 0.000000
# 3 -0.002673 -0.003390 0.011938 0.000000 0.000000 0.000000
# 4 0.000000 0.000000 0.000000 0.195132 0.000000 0.000000
# 5 0.000000 0.000000 0.000000 0.000000 0.049516 0.000000
# 6 0.000000 0.000000 0.000000 0.000000 0.000000 0.050235
#
#
# Mechanical properties :
#
#
# Convention : Reuss Voigt Hill
#
# Bulk Modulus (GPa) = 30.42766 32.76658 31.59712
# Shear Modulus (GPa) = 14.02334 22.71090 18.36712
#
# Velocity S-wave (km/s) = 2.71175 3.45097 3.10345
# Velocity P-wave (km/s) = 5.07548 5.74988 5.42317
#
# Compressibility (1/GPa) = 0.03286483
#
# Stress axis : x y z
#
# Youngs Moduli (GPa) = 64.55461 69.64209 83.76847
#
# Poissons Ratio (x) = -0.11159 0.22395
# Poissons Ratio (y) = -0.10344 0.28400
# Poissons Ratio (z) = 0.17258 0.23610
#
# Static dielectric constant tensor:
#      x y z
#    x 1.709420 0.000000 0.000000 
#    y 0.000000 1.701560 0.000000 
#    z 0.000000 0.000000 1.750530 
# 
# From -- ./inp_files/29288.got.cif
#   From: 2010.05.17/outbox.cif.g08.bks.cpg/sg57_15_cif.got.tgz:29288.got - 2010.06.03 13:58:18.
