data_PCOD9436111
_publ_section_title
;
Structure prediction by ZEFSAII (Michael W. Deem and Ramdas Pophale) SiO2 
 PCOD9436111
Probable space group: P B C M
;
_chemical_formula_sum "Si O2"
_cell_formula_units_Z 48
_cell_length_a 9.869719
_cell_length_b 28.231353
_cell_length_c 9.146958
_cell_angle_alpha 90.000000
_cell_angle_beta 90.000000
_cell_angle_gamma 90.000000
_cell_volume 2548.667409
_symmetry_space_group_name_H-M "P B C M"
_symmetry_group_IT_number 57
_symmetry_cell_setting 'orthorhombic'
loop_
_space_group_symop_operation_xyz
x,y,z
-x,-y,1/2+z
x,1/2-y,-z
-x,1/2+y,1/2-z
-x,-y,-z
x,y,1/2-z
-x,1/2+y,z
x,1/2-y,1/2+z
loop_
_atom_site_type_symbol
_atom_site_label
_atom_site_fract_x
_atom_site_fract_y
_atom_site_fract_z
Si Si1 0.288095 0.604892 0.921573
Si Si2 0.787969 0.898174 0.577408
Si Si3 0.349228 0.799393 0.924064
Si Si4 0.940904 0.046691 0.422727
Si Si5 0.442308 0.454169 0.419960
Si Si6 0.326494 0.201608 0.423303
O O1 0.254061 0.608994 0.750000
O O2 0.441912 0.585958 0.932131
O O3 0.279889 0.655206 0.002541
O O4 0.192215 0.566424 0.998735
O O5 0.752989 0.900776 0.750000
O O6 0.693520 0.935097 0.493306
O O7 0.751819 0.845294 0.526139
O O8 0.943041 0.913220 0.562099
O O9 0.325350 0.798063 0.750000
O O10 0.511982 0.804637 0.947739
O O11 0.309013 0.750000 0.000000
O O12 0.918205 0.038148 0.250000
O O13 0.000000 0.000000 0.500000
O O14 0.500000 0.500000 0.500000
O O15 0.419959 0.464672 0.250000
O O16 0.283622 0.250000 0.500000
O O17 0.306189 0.206524 0.250000
#
# Coordination Sequence:
#
# PCOD9436111 Si02
#       6
#     8   8   8   8   8   8
#     4  11  23  39  58  85 118 153 197 241 287 347
#     4  10  21  39  59  83 114 150 191 237 288 346
#     4  10  19  34  59  88 119 153 189 236 291 345
#     4  11  24  41  61  83 115 157 199 242 296 354
#     4  11  23  36  56  84 113 146 189 242 292 343
#     4   9  18  33  56  85 116 147 182 229 285 340
#
# _framework density 18.833371
#
# number of rings (size 3 to 8) (size 9 to 14) (size 15 to 20)
#    0.000    1.667    1.667    3.000    0.000    8.667 
#    0.000    0.833    0.000    2.000    0.000    0.000 
#    0.000    0.000    0.000    0.000    0.000    0.000 
#
# Total GULP energy -268203.339217 kJ/mol
# GULP energy per Si atom -5587.569567 kJ/mol
# Density = 1.879051 g / cm^3
# Si number density = 18.833371 Si / 1000 Ang^3
#
#
#
# Elastic Constant Matrix: (Units=GPa)
#
#
# Indices 1 2 3 4 5 6 
#
# 1 30.6561 -13.4721 20.2182 0.0000 0.0000 0.0000
# 2 -13.4721 87.1117 28.6800 0.0000 0.0000 0.0000
# 3 20.2182 28.6800 79.4015 0.0000 0.0000 0.0000
# 4 0.0000 0.0000 0.0000 39.1303 0.0000 0.0000
# 5 0.0000 0.0000 0.0000 0.0000 24.0511 0.0000
# 6 0.0000 0.0000 0.0000 0.0000 0.0000 31.9105
#
#
#
# Elastic Compliance Matrix: (Units=1/GPa)
#
#
# Indices 1 2 3 4 5 6 
#
# 1 0.050290 0.013612 -0.017722 0.000000 0.000000 0.000000
# 2 0.013612 0.016713 -0.009503 0.000000 0.000000 0.000000
# 3 -0.017722 -0.009503 0.020539 0.000000 0.000000 0.000000
# 4 0.000000 0.000000 0.000000 0.025556 0.000000 0.000000
# 5 0.000000 0.000000 0.000000 0.000000 0.041578 0.000000
# 6 0.000000 0.000000 0.000000 0.000000 0.000000 0.031338
#
#
# Mechanical properties :
#
#
# Convention : Reuss Voigt Hill
#
# Bulk Modulus (GPa) = 16.57912 29.78017 23.17964
# Shear Modulus (GPa) = 21.42737 29.80124 25.61431
#
# Velocity S-wave (km/s) = 3.37669 3.98221 3.69189
# Velocity P-wave (km/s) = 4.90152 6.08200 5.52339
#
# Compressibility (1/GPa) = 0.06031684
#
# Stress axis : x y z
#
# Youngs Moduli (GPa) = 19.88459 59.83223 48.68682
#
# Poissons Ratio (x) = -0.81445 0.86284
# Poissons Ratio (y) = -0.27067 0.46267
# Poissons Ratio (z) = 0.35240 0.56859
#
# Static dielectric constant tensor:
#      x y z
#    x 1.636190 0.000000 0.000000 
#    y 0.000000 1.645130 0.000000 
#    z 0.000000 0.000000 1.628760 
# 
# From -- ./inp_files/2135.got.cif
#   From: 2010.05.17/outbox.cif.g08.bks.cpg/sg57_2_cif.got.tgz:2135.got - 2010.06.03 13:58:18.
