data_PCOD9436584
_publ_section_title
;
Structure prediction by ZEFSAII (Michael W. Deem and Ramdas Pophale) SiO2 
 PCOD9436584
Probable space group: P B C M
;
_chemical_formula_sum "Si O2"
_cell_formula_units_Z 56
_cell_length_a 18.425462
_cell_length_b 19.963509
_cell_length_c 8.200371
_cell_angle_alpha 90.000000
_cell_angle_beta 90.000000
_cell_angle_gamma 90.000000
_cell_volume 3016.398855
_symmetry_space_group_name_H-M "P B C M"
_symmetry_group_IT_number 57
_symmetry_cell_setting 'orthorhombic'
loop_
_space_group_symop_operation_xyz
x,y,z
-x,-y,1/2+z
x,1/2-y,-z
-x,1/2+y,1/2-z
-x,-y,-z
x,y,1/2-z
-x,1/2+y,z
x,1/2-y,1/2+z
loop_
_atom_site_type_symbol
_atom_site_label
_atom_site_fract_x
_atom_site_fract_y
_atom_site_fract_z
Si Si1 0.126072 0.927399 0.550977
Si Si2 0.583099 0.173692 0.447201
Si Si3 0.293557 0.422838 0.446177
Si Si4 0.579045 0.826061 0.944432
Si Si5 0.870862 0.918858 0.052887
Si Si6 0.998323 0.173194 0.444216
Si Si7 0.708663 0.424883 0.949110
O O1 0.124743 0.927579 0.750000
O O2 0.208470 0.909809 0.501384
O O3 0.067560 0.873596 0.491879
O O4 0.110668 0.004527 0.500794
O O5 0.595187 0.250000 0.500000
O O6 0.583340 0.171236 0.250000
O O7 0.501899 0.153827 0.503704
O O8 0.647381 0.126026 0.507303
O O9 0.291478 0.423449 0.250000
O O10 0.356684 0.373568 0.498664
O O11 0.211912 0.404422 0.501019
O O12 0.307883 0.499067 0.500287
O O13 0.577414 0.827084 0.750000
O O14 0.591685 0.750000 0.000000
O O15 0.872113 0.918342 0.250000
O O16 0.927821 0.864670 0.992033
O O17 0.995590 0.250000 0.500000
O O18 0.992985 0.173642 0.250000
O O19 0.708152 0.423642 0.750000
#
# Coordination Sequence:
#
# PCOD9436584 Si02
#       7
#     8   8   8   8   8   8   8
#     4   8  16  32  54  76  98 128 164 200 241 292
#     4   9  18  32  50  72  99 133 168 200 239 288
#     4   9  18  33  54  76  97 126 163 202 246 295
#     4  10  20  33  49  71 100 132 166 203 243 289
#     4   9  18  35  56  75  96 126 165 204 244 292
#     4  11  22  34  50  75 104 132 163 200 243 288
#     4   8  15  31  53  75 100 129 161 198 244 295
#
# _framework density 18.565183999999999
#
# number of rings (size 3 to 8) (size 9 to 14) (size 15 to 20)
#    0.000    2.857    0.000    3.000    0.000    2.857 
#    0.000    1.429    0.000    3.429    0.000    0.000 
#    0.000    0.000    0.000    0.000    0.000    0.000 
#
# Total GULP energy -312242.990219 kJ/mol
# GULP energy per Si atom -5575.767682 kJ/mol
# Density = 1.852293 g / cm^3
# Si number density = 18.565184 Si / 1000 Ang^3
#
#
#
# Elastic Constant Matrix: (Units=GPa)
#
#
# Indices 1 2 3 4 5 6 
#
# 1 152.4580 113.8026 14.0207 0.0000 0.0000 0.0000
# 2 113.8026 122.7460 13.1678 0.0000 0.0000 0.0000
# 3 14.0207 13.1678 11.2708 0.0000 0.0000 0.0000
# 4 0.0000 0.0000 0.0000 10.1736 0.0000 0.0000
# 5 0.0000 0.0000 0.0000 0.0000 14.5840 0.0000
# 6 0.0000 0.0000 0.0000 0.0000 0.0000 1677.8381
#
#
#
# Elastic Compliance Matrix: (Units=1/GPa)
#
#
# Indices 1 2 3 4 5 6 
#
# 1 0.021453 -0.019467 -0.003944 0.000000 0.000000 0.000000
# 2 -0.019467 0.026979 -0.007303 0.000000 0.000000 0.000000
# 3 -0.003944 -0.007303 0.102163 0.000000 0.000000 0.000000
# 4 0.000000 0.000000 0.000000 0.098293 0.000000 0.000000
# 5 0.000000 0.000000 0.000000 0.000000 0.068568 0.000000
# 6 0.000000 0.000000 0.000000 0.000000 0.000000 0.000596
#
#
# Mechanical properties :
#
#
# Convention : Reuss Voigt Hill
#
# Bulk Modulus (GPa) = 11.21491 63.16190 37.18840
# Shear Modulus (GPa) = 12.21890 350.21807 181.21849
#
# Velocity S-wave (km/s) = 2.56825 13.74962 9.89060
# Velocity P-wave (km/s) = 3.85337 16.91641 12.26811
#
# Compressibility (1/GPa) = 0.08916705
#
# Stress axis : x y z
#
# Youngs Moduli (GPa) = 46.61406 37.06636 9.78827
#
# Poissons Ratio (x) = 0.72156 0.03860
# Poissons Ratio (y) = 0.90742 0.07149
# Poissons Ratio (z) = 0.18383 0.27071
#
# Static dielectric constant tensor:
#      x y z
#    x 1.652380 0.000000 0.000000 
#    y 0.000000 1.608960 0.000000 
#    z 0.000000 0.000000 1.651300 
# 
# From -- ./inp_files/7025.got.cif
#   From: 2010.05.17/outbox.cif.g08.bks.cpg/sg57_4_cif.got.tgz:7025.got - 2010.06.03 13:58:18.
