data_PCOD9436246
_publ_section_title
;
Structure prediction by ZEFSAII (Michael W. Deem and Ramdas Pophale) SiO2 
 PCOD9436246
Probable space group: P B C M
;
_chemical_formula_sum "Si O2"
_cell_formula_units_Z 64
_cell_length_a 11.601983
_cell_length_b 18.691763
_cell_length_c 16.483764
_cell_angle_alpha 90.000000
_cell_angle_beta 90.000000
_cell_angle_gamma 90.000000
_cell_volume 3574.694060
_symmetry_space_group_name_H-M "P B C M"
_symmetry_group_IT_number 57
_symmetry_cell_setting 'orthorhombic'
loop_
_space_group_symop_operation_xyz
x,y,z
-x,-y,1/2+z
x,1/2-y,-z
-x,1/2+y,1/2-z
-x,-y,-z
x,y,1/2-z
-x,1/2+y,z
x,1/2-y,1/2+z
loop_
_atom_site_type_symbol
_atom_site_label
_atom_site_fract_x
_atom_site_fract_y
_atom_site_fract_z
Si Si1 0.111405 0.653728 0.159856
Si Si2 0.407796 0.837527 0.347649
Si Si3 0.015837 0.336851 0.002967
Si Si4 0.539189 0.808795 0.652717
Si Si5 0.645205 0.425175 0.656285
Si Si6 0.861488 0.325830 0.155830
Si Si7 0.719516 0.668285 0.028010
Si Si8 0.563838 0.947087 0.061292
O O1 0.063868 0.634526 0.250000
O O2 0.236394 0.618121 0.153052
O O3 0.122774 0.739834 0.158805
O O4 0.043644 0.633797 0.078570
O O5 0.411426 0.838103 0.250000
O O6 0.478402 0.765936 0.373900
O O7 0.272167 0.836942 0.369639
O O8 0.470885 0.906418 0.383330
O O9 0.949212 0.355745 0.087012
O O10 0.009119 0.250000 0.000000
O O11 0.150324 0.354653 0.992019
O O12 0.541274 0.807349 0.750000
O O13 0.454368 0.872265 0.624729
O O14 0.665842 0.825454 0.618213
O O15 0.618287 0.439278 0.750000
O O16 0.645962 0.500228 0.611628
O O17 0.878295 0.351222 0.250000
O O18 0.709176 0.750000 0.000000
O O19 0.636919 0.614176 0.981561
O O20 0.500000 0.000000 0.000000
#
# Coordination Sequence:
#
# PCOD9436246 Si02
#       8
#     8   8   8   8   8   8   8   8
#     4   9  17  33  58  84 111 143 188 241 287 336
#     4  10  20  36  59  86 113 146 191 241 291 341
#     4   9  20  34  55  84 114 149 192 234 286 331
#     4  10  19  35  60  85 113 148 183 233 292 341
#     4  10  20  36  56  84 116 146 185 234 288 349
#     4   9  17  33  58  88 113 141 191 246 288 334
#     4  11  22  40  55  82 120 151 190 236 276 350
#     4  12  24  35  55  84 116 154 188 230 295 344
#
# _framework density 17.90363
#
# number of rings (size 3 to 8) (size 9 to 14) (size 15 to 20)
#    0.000    2.000    3.750    0.375    1.750    0.500 
#    2.250    3.750    0.000    0.000    0.000    0.000 
#    0.000    0.000    0.000    0.000    0.000    0.000 
#
# Total GULP energy -356396.576994 kJ/mol
# GULP energy per Si atom -5568.696516 kJ/mol
# Density = 1.786288 g / cm^3
# Si number density = 17.903630 Si / 1000 Ang^3
#
#
#
# Elastic Constant Matrix: (Units=GPa)
#
#
# Indices 1 2 3 4 5 6 
#
# 1 105.1693 18.9326 68.0332 0.0000 0.0000 0.0000
# 2 18.9326 54.2276 29.4428 0.0000 0.0000 0.0000
# 3 68.0332 29.4428 81.1247 0.0000 0.0000 0.0000
# 4 0.0000 0.0000 0.0000 24.4604 0.0000 0.0000
# 5 0.0000 0.0000 0.0000 0.0000 23.9621 0.0000
# 6 0.0000 0.0000 0.0000 0.0000 0.0000 -4.4254
#
#
#
# Elastic Compliance Matrix: (Units=1/GPa)
#
#
# Indices 1 2 3 4 5 6 
#
# 1 0.021118 0.002793 -0.018724 0.000000 0.000000 0.000000
# 2 0.002793 0.023336 -0.010812 0.000000 0.000000 0.000000
# 3 -0.018724 -0.010812 0.031953 0.000000 0.000000 0.000000
# 4 0.000000 0.000000 0.000000 0.040882 0.000000 0.000000
# 5 0.000000 0.000000 0.000000 0.000000 0.041733 0.000000
# 6 0.000000 0.000000 0.000000 0.000000 0.000000 -0.225969
#
#
# Mechanical properties :
#
#
# Convention : Reuss Voigt Hill
#
# Bulk Modulus (GPa) = 43.62642 52.59321 48.10982
# Shear Modulus (GPa) = -858.72338 17.07362 -420.82488
#
# Velocity S-wave (km/s) = -21.92436 3.09146 -15.34797
# Velocity P-wave (km/s) = 24.82908 6.49479 16.94552
#
# Compressibility (1/GPa) = 0.02292189
#
# Stress axis : x y z
#
# Youngs Moduli (GPa) = 47.35330 42.85259 31.29621
#
# Poissons Ratio (x) = -0.11969 0.58598
# Poissons Ratio (y) = -0.13226 0.33836
# Poissons Ratio (z) = 0.88663 0.46331
#
# Static dielectric constant tensor:
#      x y z
#    x 1.613370 0.000000 0.000000 
#    y 0.000000 1.603430 0.000000 
#    z 0.000000 0.000000 1.657310 
# 
# From -- ./inp_files/18009.got.cif
#   From: 2010.05.17/outbox.cif.g08.bks.cpg/sg57_10_cif.got.tgz:18009.got - 2010.06.03 13:58:18.
