data_PCOD9436207
_publ_section_title
;
Structure prediction by ZEFSAII (Michael W. Deem and Ramdas Pophale) SiO2 
 PCOD9436207
Probable space group: P B C M
;
_chemical_formula_sum "Si O2"
_cell_formula_units_Z 48
_cell_length_a 15.946252
_cell_length_b 18.309409
_cell_length_c 8.573517
_cell_angle_alpha 90.000000
_cell_angle_beta 90.000000
_cell_angle_gamma 90.000000
_cell_volume 2503.179322
_symmetry_space_group_name_H-M "P B C M"
_symmetry_group_IT_number 57
_symmetry_cell_setting 'orthorhombic'
loop_
_space_group_symop_operation_xyz
x,y,z
-x,-y,1/2+z
x,1/2-y,-z
-x,1/2+y,1/2-z
-x,-y,-z
x,y,1/2-z
-x,1/2+y,z
x,1/2-y,1/2+z
loop_
_atom_site_type_symbol
_atom_site_label
_atom_site_fract_x
_atom_site_fract_y
_atom_site_fract_z
Si Si1 0.663384 0.669636 0.564418
Si Si2 0.003348 0.916927 0.062448
Si Si3 0.492009 0.081603 0.436019
Si Si4 0.652578 0.167838 0.938016
Si Si5 0.172438 0.403588 0.562855
Si Si6 0.812732 0.425954 0.439108
O O1 0.645476 0.750000 0.500000
O O2 0.656465 0.668945 0.750000
O O3 0.595770 0.614956 0.491662
O O4 0.755664 0.645050 0.512061
O O5 0.997406 0.916637 0.250000
O O6 0.096981 0.891574 0.016461
O O7 0.920734 0.880819 0.990949
O O8 0.000000 0.000000 0.000000
O O9 0.495474 0.081167 0.250000
O O10 0.567737 0.130402 0.502024
O O11 0.500000 0.000000 0.500000
O O12 0.651562 0.168547 0.750000
O O13 0.732431 0.119534 0.992061
O O14 0.659051 0.250000 0.000000
O O15 0.177446 0.400516 0.750000
O O16 0.187894 0.488586 0.513464
O O17 0.810832 0.426757 0.250000
#
# Coordination Sequence:
#
# PCOD9436207 Si02
#       6
#     8   8   8   8   8   8
#     4  12  25  42  62  87 118 156 195 239 292 350
#     4   9  16  30  52  81 113 150 194 245 297 346
#     4  12  25  43  65  91 118 150 191 238 286 342
#     4  11  22  39  59  84 117 155 194 239 291 347
#     4  10  19  35  58  86 115 150 195 246 296 350
#     4   8  17  33  56  81 112 151 194 241 290 339
#
# _framework density 19.175613999999999
#
# number of rings (size 3 to 8) (size 9 to 14) (size 15 to 20)
#    0.000    1.667    0.000    7.000    0.000    1.333 
#    0.000   10.000    0.000    2.000    0.000    0.000 
#    0.000    0.000    0.000    0.000    0.000    0.000 
#
# Total GULP energy -268139.606296 kJ/mol
# GULP energy per Si atom -5586.241798 kJ/mol
# Density = 1.913197 g / cm^3
# Si number density = 19.175614 Si / 1000 Ang^3
#
#
#
# Elastic Constant Matrix: (Units=GPa)
#
#
# Indices 1 2 3 4 5 6 
#
# 1 56.6228 -17.1255 15.3580 0.0000 0.0000 0.0000
# 2 -17.1255 41.3308 16.6336 0.0000 0.0000 0.0000
# 3 15.3580 16.6336 103.8673 0.0000 0.0000 0.0000
# 4 0.0000 0.0000 0.0000 29.3033 0.0000 0.0000
# 5 0.0000 0.0000 0.0000 0.0000 32.4586 0.0000
# 6 0.0000 0.0000 0.0000 0.0000 0.0000 -4.5953
#
#
#
# Elastic Compliance Matrix: (Units=1/GPa)
#
#
# Indices 1 2 3 4 5 6 
#
# 1 0.022506 0.011400 -0.005153 0.000000 0.000000 0.000000
# 2 0.011400 0.031636 -0.006752 0.000000 0.000000 0.000000
# 3 -0.005153 -0.006752 0.011471 0.000000 0.000000 0.000000
# 4 0.000000 0.000000 0.000000 0.034126 0.000000 0.000000
# 5 0.000000 0.000000 0.000000 0.000000 0.030808 0.000000
# 6 0.000000 0.000000 0.000000 0.000000 0.000000 -0.217613
#
#
# Mechanical properties :
#
#
# Convention : Reuss Voigt Hill
#
# Bulk Modulus (GPa) = 15.47949 25.72813 20.60381
# Shear Modulus (GPa) = -77.49510 23.89697 -26.79907
#
# Velocity S-wave (km/s) = -6.36405 3.53401 -3.74245
# Velocity P-wave (km/s) = 6.77580 5.48621 2.81184
#
# Compressibility (1/GPa) = 0.06460162
#
# Stress axis : x y z
#
# Youngs Moduli (GPa) = 44.43207 31.60982 87.17707
#
# Poissons Ratio (x) = -0.36034 0.44926
# Poissons Ratio (y) = -0.50650 0.58860
# Poissons Ratio (z) = 0.22897 0.21342
#
# Static dielectric constant tensor:
#      x y z
#    x 1.673550 0.000000 0.000000 
#    y 0.000000 1.660490 0.000000 
#    z 0.000000 0.000000 1.646030 
# 
# From -- ./inp_files/4537.got.cif
#   From: 2010.05.17/outbox.cif.g08.bks.cpg/sg57_3_cif.got.tgz:4537.got - 2010.06.03 13:58:18.
