data_PCOD9436576
_publ_section_title
;
Structure prediction by ZEFSAII (Michael W. Deem and Ramdas Pophale) SiO2 
 PCOD9436576
Probable space group: P B C M
;
_chemical_formula_sum "Si O2"
_cell_formula_units_Z 64
_cell_length_a 17.427187
_cell_length_b 20.224703
_cell_length_c 9.528566
_cell_angle_alpha 90.000000
_cell_angle_beta 90.000000
_cell_angle_gamma 90.000000
_cell_volume 3358.435335
_symmetry_space_group_name_H-M "P B C M"
_symmetry_group_IT_number 57
_symmetry_cell_setting 'orthorhombic'
loop_
_space_group_symop_operation_xyz
x,y,z
-x,-y,1/2+z
x,1/2-y,-z
-x,1/2+y,1/2-z
-x,-y,-z
x,y,1/2-z
-x,1/2+y,z
x,1/2-y,1/2+z
loop_
_atom_site_type_symbol
_atom_site_label
_atom_site_fract_x
_atom_site_fract_y
_atom_site_fract_z
Si Si1 0.386002 0.315239 0.917822
Si Si2 0.047040 0.308903 0.909019
Si Si3 0.154667 0.028519 0.906640
Si Si4 0.572103 0.531801 0.080460
Si Si5 0.214331 0.352979 0.590825
Si Si6 0.783051 0.318900 0.581065
Si Si7 0.929938 0.409445 0.920074
Si Si8 0.690475 0.444669 0.591642
O O1 0.394222 0.304813 0.750000
O O2 0.419362 0.388951 0.950077
O O3 0.294976 0.322023 0.951739
O O4 0.415367 0.250000 0.000000
O O5 0.020645 0.300659 0.750000
O O6 0.138957 0.307666 0.907799
O O7 0.010890 0.377607 0.960445
O O8 0.016039 0.250000 0.000000
O O9 0.132169 0.050808 0.750000
O O10 0.090858 0.981661 0.976466
O O11 0.226866 0.979027 0.894336
O O12 0.187787 0.088377 0.992894
O O13 0.568144 0.525093 0.250000
O O14 0.500000 0.500000 0.000000
O O15 0.642328 0.488970 0.016201
O O16 0.225949 0.377740 0.750000
O O17 0.777046 0.250000 0.500000
O O18 0.783433 0.309170 0.750000
O O19 0.862737 0.356879 0.544151
O O20 0.712607 0.369680 0.549718
O O21 0.927873 0.417520 0.750000
O O22 0.655291 0.444777 0.750000
#
# Coordination Sequence:
#
# PCOD9436576 Si02
#       8
#     8   8   8   8   8   8   8   8
#     4  10  22  39  60  87 118 149 185 229 273 325
#     4  10  20  33  49  68 100 142 183 232 286 336
#     4   9  17  31  53  76 101 139 184 225 270 331
#     4  11  23  40  63  90 118 147 181 223 269 328
#     4  10  20  34  51  77 111 142 179 232 284 325
#     4   9  17  30  50  76 107 142 187 236 280 329
#     4   8  16  31  48  70 102 141 184 233 285 331
#     4   9  18  34  55  80 109 144 184 225 270 325
#
# _framework density 19.056493
#
# number of rings (size 3 to 8) (size 9 to 14) (size 15 to 20)
#    0.000    2.500    1.250    2.625    0.000    3.000 
#    0.000    3.125    0.000    0.000    0.000    0.000 
#    0.000    0.000    0.000    0.000    0.000    0.000 
#
# Total GULP energy -356374.330800 kJ/mol
# GULP energy per Si atom -5568.348919 kJ/mol
# Density = 1.901312 g / cm^3
# Si number density = 19.056493 Si / 1000 Ang^3
#
#
#
# Elastic Constant Matrix: (Units=GPa)
#
#
# Indices 1 2 3 4 5 6 
#
# 1 59.2709 21.5114 20.3489 0.0000 0.0000 0.0000
# 2 21.5114 125.5106 62.6135 0.0000 0.0000 0.0000
# 3 20.3489 62.6135 52.0435 0.0000 0.0000 0.0000
# 4 0.0000 0.0000 0.0000 33.6477 0.0000 0.0000
# 5 0.0000 0.0000 0.0000 0.0000 14.5112 0.0000
# 6 0.0000 0.0000 0.0000 0.0000 0.0000 10.9528
#
#
#
# Elastic Compliance Matrix: (Units=1/GPa)
#
#
# Indices 1 2 3 4 5 6 
#
# 1 0.019555 0.001158 -0.009038 0.000000 0.000000 0.000000
# 2 0.001158 0.019997 -0.024510 0.000000 0.000000 0.000000
# 3 -0.009038 -0.024510 0.052237 0.000000 0.000000 0.000000
# 4 0.000000 0.000000 0.000000 0.029720 0.000000 0.000000
# 5 0.000000 0.000000 0.000000 0.000000 0.068912 0.000000
# 6 0.000000 0.000000 0.000000 0.000000 0.000000 0.091301
#
#
# Mechanical properties :
#
#
# Convention : Reuss Voigt Hill
#
# Bulk Modulus (GPa) = 37.02922 49.53030 43.27976
# Shear Modulus (GPa) = 14.06446 20.64576 17.35511
#
# Velocity S-wave (km/s) = 2.71964 3.29507 3.02109
# Velocity P-wave (km/s) = 5.41621 6.36588 5.91015
#
# Compressibility (1/GPa) = 0.02700570
#
# Stress axis : x y z
#
# Youngs Moduli (GPa) = 51.13874 50.00847 19.14343
#
# Poissons Ratio (x) = -0.05788 0.17303
# Poissons Ratio (y) = -0.05919 0.46921
# Poissons Ratio (z) = 0.46221 1.22573
#
# Static dielectric constant tensor:
#      x y z
#    x 1.718180 0.000000 0.000000 
#    y 0.000000 1.696520 0.000000 
#    z 0.000000 0.000000 1.661040 
# 
# From -- ./inp_files/7260.got.cif
#   From: 2010.05.17/outbox.cif.g08.bks.cpg/sg57_4_cif.got.tgz:7260.got - 2010.06.03 13:58:18.
