data_PCOD9436909
_publ_section_title
;
Structure prediction by ZEFSAII (Michael W. Deem and Ramdas Pophale) SiO2 
 PCOD9436909
Probable space group: P B C M
;
_chemical_formula_sum "Si O2"
_cell_formula_units_Z 64
_cell_length_a 9.604989
_cell_length_b 20.098604
_cell_length_c 17.832013
_cell_angle_alpha 90.000000
_cell_angle_beta 90.000000
_cell_angle_gamma 90.000000
_cell_volume 3442.414301
_symmetry_space_group_name_H-M "P B C M"
_symmetry_group_IT_number 57
_symmetry_cell_setting 'orthorhombic'
loop_
_space_group_symop_operation_xyz
x,y,z
-x,-y,1/2+z
x,1/2-y,-z
-x,1/2+y,1/2-z
-x,-y,-z
x,y,1/2-z
-x,1/2+y,z
x,1/2-y,1/2+z
loop_
_atom_site_type_symbol
_atom_site_label
_atom_site_fract_x
_atom_site_fract_y
_atom_site_fract_z
Si Si1 0.850100 0.399802 0.943094
Si Si2 0.660550 0.511144 0.017225
Si Si3 0.994472 0.305780 0.437551
Si Si4 0.260773 0.384083 0.099459
Si Si5 0.060531 0.489798 0.165287
Si Si6 0.773834 0.274639 0.841068
Si Si7 0.749909 0.454904 0.164178
Si Si8 0.550406 0.170013 0.838789
O O1 0.943328 0.450376 0.894120
O O2 0.791777 0.343580 0.886359
O O3 0.736347 0.448312 0.978928
O O4 0.925572 0.364328 0.012619
O O5 0.695559 0.507866 0.104592
O O6 0.500000 0.500000 0.000000
O O7 0.714626 0.578310 0.979092
O O8 0.020694 0.250000 0.500000
O O9 0.893060 0.274136 0.374964
O O10 0.139484 0.330223 0.404542
O O11 0.194028 0.442824 0.150779
O O12 0.406479 0.352415 0.124182
O O13 0.066668 0.515976 0.250000
O O14 0.916779 0.448831 0.157601
O O15 0.784468 0.280709 0.750000
O O16 0.626942 0.238638 0.860436
O O17 0.720522 0.473968 0.250000
O O18 0.665377 0.387567 0.148430
O O19 0.525209 0.173260 0.750000
#
# Coordination Sequence:
#
# PCOD9436909 Si02
#       8
#     8   8   8   8   8   8   8   8
#     4  10  21  38  59  84 117 147 196 243 285 351
#     4  11  21  36  57  88 115 154 190 236 296 351
#     4  10  22  39  58  86 113 151 193 242 288 333
#     4  11  21  35  56  84 121 147 191 245 284 348
#     4  10  20  34  59  87 114 154 191 237 294 342
#     4  10  21  39  62  83 111 153 196 238 288 350
#     4  10  20  36  56  84 116 149 194 236 287 347
#     4  10  20  34  54  83 116 150 188 234 283 340
#
# _framework density 18.591602000000002
#
# number of rings (size 3 to 8) (size 9 to 14) (size 15 to 20)
#    0.000    1.750    1.250    3.750    0.000    4.000 
#    2.250    0.625    0.000    0.000    0.000    0.000 
#    0.000    0.000    0.000    0.000    0.000    0.000 
#
# Total GULP energy -357087.685982 kJ/mol
# GULP energy per Si atom -5579.495093 kJ/mol
# Density = 1.854929 g / cm^3
# Si number density = 18.591602 Si / 1000 Ang^3
#
#
#
# Elastic Constant Matrix: (Units=GPa)
#
#
# Indices 1 2 3 4 5 6 
#
# 1 100.9629 49.1867 28.2280 0.0000 0.0000 0.0000
# 2 49.1867 67.1254 21.1107 0.0000 0.0000 0.0000
# 3 28.2280 21.1107 81.7402 0.0000 0.0000 0.0000
# 4 0.0000 0.0000 0.0000 21.1101 0.0000 0.0000
# 5 0.0000 0.0000 0.0000 0.0000 25.5992 0.0000
# 6 0.0000 0.0000 0.0000 0.0000 0.0000 19.5955
#
#
#
# Elastic Compliance Matrix: (Units=1/GPa)
#
#
# Indices 1 2 3 4 5 6 
#
# 1 0.015935 -0.010825 -0.002707 0.000000 0.000000 0.000000
# 2 -0.010825 0.023569 -0.002349 0.000000 0.000000 0.000000
# 3 -0.002707 -0.002349 0.013775 0.000000 0.000000 0.000000
# 4 0.000000 0.000000 0.000000 0.047371 0.000000 0.000000
# 5 0.000000 0.000000 0.000000 0.000000 0.039064 0.000000
# 6 0.000000 0.000000 0.000000 0.000000 0.000000 0.051032
#
#
# Mechanical properties :
#
#
# Convention : Reuss Voigt Hill
#
# Bulk Modulus (GPa) = 46.47512 49.65325 48.06419
# Shear Modulus (GPa) = 21.76938 23.34784 22.55861
#
# Velocity S-wave (km/s) = 3.42559 3.54761 3.48713
# Velocity P-wave (km/s) = 6.37953 6.59894 6.49016
#
# Compressibility (1/GPa) = 0.02151689
#
# Stress axis : x y z
#
# Youngs Moduli (GPa) = 62.75326 42.42950 72.59346
#
# Poissons Ratio (x) = 0.45932 0.19653
# Poissons Ratio (y) = 0.67933 0.17049
# Poissons Ratio (z) = 0.16989 0.09965
#
# Static dielectric constant tensor:
#      x y z
#    x 1.635910 0.000000 0.000000 
#    y 0.000000 1.655130 0.000000 
#    z 0.000000 0.000000 1.655270 
# 
# From -- ./inp_files/21408.got.cif
#   From: 2010.05.17/outbox.cif.g08.bks.cpg/sg57_11_cif.got.tgz:21408.got - 2010.06.03 13:58:18.
