data_PCOD9436764
_publ_section_title
;
Structure prediction by ZEFSAII (Michael W. Deem and Ramdas Pophale) SiO2 
 PCOD9436764
Probable space group: P B C M
;
_chemical_formula_sum "Si O2"
_cell_formula_units_Z 48
_cell_length_a 13.636044
_cell_length_b 13.295123
_cell_length_c 15.903214
_cell_angle_alpha 90.000000
_cell_angle_beta 90.000000
_cell_angle_gamma 90.000000
_cell_volume 2883.139503
_symmetry_space_group_name_H-M "P B C M"
_symmetry_group_IT_number 57
_symmetry_cell_setting 'orthorhombic'
loop_
_space_group_symop_operation_xyz
x,y,z
-x,-y,1/2+z
x,1/2-y,-z
-x,1/2+y,1/2-z
-x,-y,-z
x,y,1/2-z
-x,1/2+y,z
x,1/2-y,1/2+z
loop_
_atom_site_type_symbol
_atom_site_label
_atom_site_fract_x
_atom_site_fract_y
_atom_site_fract_z
Si Si1 0.613914 0.023025 0.996612
Si Si2 0.286940 0.879225 0.159154
Si Si3 0.787855 0.630983 0.505381
Si Si4 0.251454 0.821630 0.582017
Si Si5 0.119458 0.500583 0.150090
Si Si6 0.887390 0.972354 0.846352
O O1 0.641477 0.075114 0.909015
O O2 0.682493 0.924711 0.003671
O O3 0.657320 0.104969 0.061876
O O4 0.500000 0.000000 0.000000
O O5 0.321871 0.910514 0.250000
O O6 0.277921 0.760392 0.150876
O O7 0.179272 0.927595 0.146304
O O8 0.778964 0.750000 0.500000
O O9 0.840443 0.588128 0.589631
O O10 0.848112 0.595566 0.422555
O O11 0.229563 0.750000 0.500000
O O12 0.165642 0.896593 0.611397
O O13 0.144679 0.490839 0.250000
O O14 0.001976 0.505619 0.143811
O O15 0.872543 0.933350 0.750000
#
# Coordination Sequence:
#
# PCOD9436764 Si02
#       6
#     8   8   8   8   8   8
#     4   9  19  36  54  71  96 130 165 206 257 305
#     4   9  17  32  52  75  99 127 165 208 247 292
#     4  10  21  34  51  74 103 137 172 212 254 300
#     4   9  18  32  53  77 101 130 167 209 252 299
#     4  10  20  34  51  77 110 141 170 206 250 300
#     4   9  19  34  52  74 104 139 174 207 246 296
#
# _framework density 16.648517999999999
#
# number of rings (size 3 to 8) (size 9 to 14) (size 15 to 20)
#    0.000    2.667    0.000    2.000    0.000    4.667 
#    0.000    7.500    0.000    4.000    0.000    0.000 
#    0.000    0.000    0.000    0.000    0.000    0.000 
#
# Total GULP energy -267224.615011 kJ/mol
# GULP energy per Si atom -5567.179479 kJ/mol
# Density = 1.661063 g / cm^3
# Si number density = 16.648518 Si / 1000 Ang^3
#
#
#
# Elastic Constant Matrix: (Units=GPa)
#
#
# Indices 1 2 3 4 5 6 
#
# 1 127.4663 51.8184 57.4998 0.0000 0.0000 0.0000
# 2 51.8184 135.2919 53.2146 0.0000 0.0000 0.0000
# 3 57.4998 53.2146 91.2758 0.0000 0.0000 0.0000
# 4 0.0000 0.0000 0.0000 6.6306 0.0000 0.0000
# 5 0.0000 0.0000 0.0000 0.0000 3.4856 0.0000
# 6 0.0000 0.0000 0.0000 0.0000 0.0000 3.9023
#
#
#
# Elastic Compliance Matrix: (Units=1/GPa)
#
#
# Indices 1 2 3 4 5 6 
#
# 1 0.011359 -0.001993 -0.005994 0.000000 0.000000 0.000000
# 2 -0.001993 0.009940 -0.004540 0.000000 0.000000 0.000000
# 3 -0.005994 -0.004540 0.017378 0.000000 0.000000 0.000000
# 4 0.000000 0.000000 0.000000 0.150816 0.000000 0.000000
# 5 0.000000 0.000000 0.000000 0.000000 0.286897 0.000000
# 6 0.000000 0.000000 0.000000 0.000000 0.000000 0.256257
#
#
# Mechanical properties :
#
#
# Convention : Reuss Voigt Hill
#
# Bulk Modulus (GPa) = 73.39662 75.45552 74.42607
# Shear Modulus (GPa) = 6.55958 15.57044 11.06501
#
# Velocity S-wave (km/s) = 1.98711 3.06150 2.58083
# Velocity P-wave (km/s) = 7.03182 7.61039 7.32682
#
# Compressibility (1/GPa) = 0.01362461
#
# Stress axis : x y z
#
# Youngs Moduli (GPa) = 88.03367 100.59877 57.54284
#
# Poissons Ratio (x) = 0.20051 0.34490
# Poissons Ratio (y) = 0.17547 0.26123
# Poissons Ratio (z) = 0.52766 0.45669
#
# Static dielectric constant tensor:
#      x y z
#    x 1.491070 0.000000 0.000000 
#    y 0.000000 1.550510 0.000000 
#    z 0.000000 0.000000 1.611730 
# 
# From -- ./inp_files/21845.got.cif
#   From: 2010.05.17/outbox.cif.g08.bks.cpg/sg57_11_cif.got.tgz:21845.got - 2010.06.03 13:58:18.
