data_PCOD9436650
_publ_section_title
;
Structure prediction by ZEFSAII (Michael W. Deem and Ramdas Pophale) SiO2 
 PCOD9436650
Probable space group: P B C M
;
_chemical_formula_sum "Si O2"
_cell_formula_units_Z 48
_cell_length_a 7.374480
_cell_length_b 7.463252
_cell_length_c 34.010137
_cell_angle_alpha 90.000000
_cell_angle_beta 90.000000
_cell_angle_gamma 90.000000
_cell_volume 1871.836405
_symmetry_space_group_name_H-M "P B C M"
_symmetry_group_IT_number 57
_symmetry_cell_setting 'orthorhombic'
loop_
_space_group_symop_operation_xyz
x,y,z
-x,-y,1/2+z
x,1/2-y,-z
-x,1/2+y,1/2-z
-x,-y,-z
x,y,1/2-z
-x,1/2+y,z
x,1/2-y,1/2+z
loop_
_atom_site_type_symbol
_atom_site_label
_atom_site_fract_x
_atom_site_fract_y
_atom_site_fract_z
Si Si1 0.074653 0.129444 0.207193
Si Si2 0.605088 0.153238 0.459621
Si Si3 0.204690 0.267598 0.041193
Si Si4 0.702227 0.260451 0.292133
Si Si5 0.794100 0.740273 0.625335
Si Si6 0.583609 0.136580 0.125601
O O1 0.119028 0.215506 0.250000
O O2 0.104574 0.227738 0.165812
O O3 0.857949 0.109309 0.208432
O O4 0.189236 0.947569 0.206534
O O5 0.657879 0.250000 0.500000
O O6 0.384180 0.141096 0.461606
O O7 0.636332 0.231993 0.415697
O O8 0.704279 0.963521 0.458026
O O9 0.106718 0.242786 0.083050
O O10 0.100306 0.250000 0.000000
O O11 0.601272 0.252519 0.250000
O O12 0.601502 0.235428 0.332730
O O13 0.632550 0.884696 0.623084
O O14 0.697083 0.546491 0.626882
#
# Coordination Sequence:
#
# PCOD9436650 Si02
#       6
#     8   8   8   8   8   8
#     4  10  21  37  56  76  99 131 169 207 251 304
#     4   9  16  26  43  68  98 131 165 201 243 291
#     4   9  16  26  43  68  98 131 165 201 243 291
#     4  10  21  37  56  76  99 131 169 207 251 304
#     4  10  20  33  51  77 106 135 169 209 252 296
#     4  10  20  33  51  77 106 135 169 209 252 296
#
# _framework density 25.643269
#
# number of rings (size 3 to 8) (size 9 to 14) (size 15 to 20)
#    0.000    2.333    0.000    4.000    0.000    6.667 
#    0.000    0.000    0.000    1.000    0.000    7.000 
#    0.000    0.000    0.000    0.000    0.000    0.000 
#
# Total GULP energy -267826.245000 kJ/mol
# GULP energy per Si atom -5579.713437 kJ/mol
# Density = 2.558490 g / cm^3
# Si number density = 25.643269 Si / 1000 Ang^3
#
#
#
# Elastic Constant Matrix: (Units=GPa)
#
#
# Indices 1 2 3 4 5 6 
#
# 1 28.5162 -11.2162 30.0430 0.0000 0.0000 0.0000
# 2 -11.2162 56.0643 41.4395 0.0000 0.0000 0.0000
# 3 30.0430 41.4395 352.4723 0.0000 0.0000 0.0000
# 4 0.0000 0.0000 0.0000 42.8702 0.0000 0.0000
# 5 0.0000 0.0000 0.0000 0.0000 -115.4104 0.0000
# 6 0.0000 0.0000 0.0000 0.0000 0.0000 14.4960
#
#
#
# Elastic Compliance Matrix: (Units=1/GPa)
#
#
# Indices 1 2 3 4 5 6 
#
# 1 0.046069 0.013272 -0.005487 0.000000 0.000000 0.000000
# 2 0.013272 0.023358 -0.003877 0.000000 0.000000 0.000000
# 3 -0.005487 -0.003877 0.003761 0.000000 0.000000 0.000000
# 4 0.000000 0.000000 0.000000 0.023326 0.000000 0.000000
# 5 0.000000 0.000000 0.000000 0.000000 -0.008665 0.000000
# 6 0.000000 0.000000 0.000000 0.000000 0.000000 0.068985
#
#
# Mechanical properties :
#
#
# Convention : Reuss Voigt Hill
#
# Bulk Modulus (GPa) = 12.34522 61.95393 37.14958
# Shear Modulus (GPa) = 28.40603 13.51026 20.95814
#
# Velocity S-wave (km/s) = 3.33188 2.29782 2.86194
# Velocity P-wave (km/s) = 4.43019 5.59038 5.04375
#
# Compressibility (1/GPa) = 0.08100299
#
# Stress axis : x y z
#
# Youngs Moduli (GPa) = 21.70659 42.81221 265.91146
#
# Poissons Ratio (x) = -0.56821 1.45908
# Poissons Ratio (y) = -0.28810 1.03104
# Poissons Ratio (z) = 0.11911 0.16600
#
# Static dielectric constant tensor:
#      x y z
#    x 1.974720 0.000000 0.000000 
#    y 0.000000 2.080800 0.000000 
#    z 0.000000 0.000000 2.088990 
# 
# From -- ./inp_files/29439.got.cif
#   From: 2010.05.17/outbox.cif.g08.bks.cpg/sg57_15_cif.got.tgz:29439.got - 2010.06.03 13:58:18.
