data_PCOD9436709
_publ_section_title
;
Structure prediction by ZEFSAII (Michael W. Deem and Ramdas Pophale) SiO2 
 PCOD9436709
Probable space group: P B C M
;
_chemical_formula_sum "Si O2"
_cell_formula_units_Z 56
_cell_length_a 18.217152
_cell_length_b 19.941802
_cell_length_c 8.447320
_cell_angle_alpha 90.000000
_cell_angle_beta 90.000000
_cell_angle_gamma 90.000000
_cell_volume 3068.766385
_symmetry_space_group_name_H-M "P B C M"
_symmetry_group_IT_number 57
_symmetry_cell_setting 'orthorhombic'
loop_
_space_group_symop_operation_xyz
x,y,z
-x,-y,1/2+z
x,1/2-y,-z
-x,1/2+y,1/2-z
-x,-y,-z
x,y,1/2-z
-x,1/2+y,z
x,1/2-y,1/2+z
loop_
_atom_site_type_symbol
_atom_site_label
_atom_site_fract_x
_atom_site_fract_y
_atom_site_fract_z
Si Si1 0.142708 0.925335 0.558643
Si Si2 0.532582 0.070154 0.440143
Si Si3 0.271499 0.399469 0.061294
Si Si4 0.584759 0.824071 0.060230
Si Si5 0.886193 0.926138 0.937640
Si Si6 0.984474 0.173663 0.441637
Si Si7 0.694868 0.445088 0.939493
O O1 0.144667 0.925105 0.750000
O O2 0.089350 0.865577 0.507125
O O3 0.226776 0.918584 0.498893
O O4 0.112855 0.999012 0.510720
O O5 0.534845 0.067981 0.250000
O O6 0.477892 0.127372 0.496191
O O7 0.616366 0.079916 0.500060
O O8 0.500000 0.000000 0.500000
O O9 0.259406 0.391594 0.250000
O O10 0.334790 0.349415 0.006817
O O11 0.301933 0.474750 0.036774
O O12 0.193575 0.395620 0.976540
O O13 0.584410 0.827263 0.250000
O O14 0.571708 0.750000 0.000000
O O15 0.894875 0.934041 0.750000
O O16 0.948573 0.874624 0.994531
O O17 0.989226 0.250000 0.500000
O O18 0.985620 0.175321 0.250000
O O19 0.695368 0.433352 0.750000
#
# Coordination Sequence:
#
# PCOD9436709 Si02
#       7
#     8   8   8   8   8   8   8
#     4   9  18  36  58  79 106 143 181 222 273 323
#     4  11  20  34  57  84 112 145 184 229 273 325
#     4   9  18  35  55  76 106 143 178 217 271 331
#     4  11  23  39  55  78 111 149 189 228 279 337
#     4  10  20  33  53  84 112 136 178 228 271 321
#     4  10  22  37  54  77 108 144 183 224 271 326
#     4   8  15  31  55  80 104 134 175 219 267 320
#
# _framework density 18.248376
#
# number of rings (size 3 to 8) (size 9 to 14) (size 15 to 20)
#    0.000    2.286    1.429    2.571    0.000    3.429 
#    0.000    4.286    0.000    1.714    0.000    0.000 
#    0.000    0.000    0.000    0.000    0.000    0.000 
#
# Total GULP energy -312350.303799 kJ/mol
# GULP energy per Si atom -5577.683996 kJ/mol
# Density = 1.820684 g / cm^3
# Si number density = 18.248376 Si / 1000 Ang^3
#
#
#
# Elastic Constant Matrix: (Units=GPa)
#
#
# Indices 1 2 3 4 5 6 
#
# 1 118.7732 58.0193 12.9500 0.0000 0.0000 0.0000
# 2 58.0193 79.8068 6.6710 0.0000 0.0000 0.0000
# 3 12.9500 6.6710 18.9886 0.0000 0.0000 0.0000
# 4 0.0000 0.0000 0.0000 24.8980 0.0000 0.0000
# 5 0.0000 0.0000 0.0000 0.0000 23.1464 0.0000
# 6 0.0000 0.0000 0.0000 0.0000 0.0000 27.8065
#
#
#
# Elastic Compliance Matrix: (Units=1/GPa)
#
#
# Indices 1 2 3 4 5 6 
#
# 1 0.013692 -0.009451 -0.006018 0.000000 0.000000 0.000000
# 2 -0.009451 0.019433 -0.000382 0.000000 0.000000 0.000000
# 3 -0.006018 -0.000382 0.056901 0.000000 0.000000 0.000000
# 4 0.000000 0.000000 0.000000 0.040164 0.000000 0.000000
# 5 0.000000 0.000000 0.000000 0.000000 0.043203 0.000000
# 6 0.000000 0.000000 0.000000 0.000000 0.000000 0.035963
#
#
# Mechanical properties :
#
#
# Convention : Reuss Voigt Hill
#
# Bulk Modulus (GPa) = 17.14509 41.42771 29.28640
# Shear Modulus (GPa) = 19.19390 24.49874 21.84632
#
# Velocity S-wave (km/s) = 3.24669 3.66801 3.46376
# Velocity P-wave (km/s) = 4.84463 6.37891 5.66396
#
# Compressibility (1/GPa) = 0.05832574
#
# Stress axis : x y z
#
# Youngs Moduli (GPa) = 73.03345 51.45828 17.57435
#
# Poissons Ratio (x) = 0.48635 0.10576
# Poissons Ratio (y) = 0.69026 0.00671
# Poissons Ratio (z) = 0.43949 0.01964
#
# Static dielectric constant tensor:
#      x y z
#    x 1.661810 0.000000 0.000000 
#    y 0.000000 1.586020 0.000000 
#    z 0.000000 0.000000 1.647070 
# 
# From -- ./inp_files/7026.got.cif
#   From: 2010.05.17/outbox.cif.g08.bks.cpg/sg57_4_cif.got.tgz:7026.got - 2010.06.03 13:58:18.
