data_PCOD9436594
_publ_section_title
;
Structure prediction by ZEFSAII (Michael W. Deem and Ramdas Pophale) SiO2 
 PCOD9436594
Probable space group: P B C M
;
_chemical_formula_sum "Si O2"
_cell_formula_units_Z 64
_cell_length_a 18.157092
_cell_length_b 20.621809
_cell_length_c 8.602590
_cell_angle_alpha 90.000000
_cell_angle_beta 90.000000
_cell_angle_gamma 90.000000
_cell_volume 3221.085695
_symmetry_space_group_name_H-M "P B C M"
_symmetry_group_IT_number 57
_symmetry_cell_setting 'orthorhombic'
loop_
_space_group_symop_operation_xyz
x,y,z
-x,-y,1/2+z
x,1/2-y,-z
-x,1/2+y,1/2-z
-x,-y,-z
x,y,1/2-z
-x,1/2+y,z
x,1/2-y,1/2+z
loop_
_atom_site_type_symbol
_atom_site_label
_atom_site_fract_x
_atom_site_fract_y
_atom_site_fract_z
Si Si1 0.625041 0.414351 0.062338
Si Si2 0.045512 0.560449 0.932818
Si Si3 0.191188 0.314225 0.575900
Si Si4 0.585828 0.553932 0.571427
Si Si5 0.790789 0.434496 0.428341
Si Si6 0.496148 0.823466 0.936265
Si Si7 0.760329 0.560465 0.921126
Si Si8 0.015815 0.184981 0.424307
O O1 0.625314 0.415227 0.250000
O O2 0.710799 0.413064 0.006070
O O3 0.584979 0.481529 0.005654
O O4 0.581470 0.352268 0.998760
O O5 0.054505 0.548155 0.750000
O O6 0.127877 0.576276 0.997564
O O7 0.000000 0.500000 0.000000
O O8 0.999352 0.624276 0.967497
O O9 0.223983 0.250000 0.500000
O O10 0.220359 0.326771 0.750000
O O11 0.204762 0.371510 0.457422
O O12 0.103521 0.306639 0.588952
O O13 0.558447 0.549081 0.750000
O O14 0.549711 0.617164 0.491552
O O15 0.672928 0.567464 0.575778
O O16 0.792172 0.412035 0.250000
O O17 0.784089 0.511958 0.443991
O O18 0.496944 0.820610 0.750000
O O19 0.510498 0.750000 0.000000
O O20 0.781872 0.535279 0.750000
O O21 0.984336 0.250000 0.500000
O O22 0.987186 0.173767 0.250000
#
# Coordination Sequence:
#
# PCOD9436594 Si02
#       8
#     8   8   8   8   8   8   8   8
#     4  10  20  39  64  87 113 149 190 233 278 331
#     4  11  22  36  56  85 117 150 187 232 283 335
#     4  10  20  33  50  71 101 140 183 225 272 331
#     4  10  21  38  59  86 117 151 189 229 275 333
#     4   9  20  37  57  81 111 145 184 227 275 329
#     4  12  25  41  61  87 117 150 188 234 284 335
#     4  10  20  33  53  80 110 142 180 224 271 323
#     4  10  21  37  55  77 105 143 187 232 281 337
#
# _framework density 19.869078999999999
#
# number of rings (size 3 to 8) (size 9 to 14) (size 15 to 20)
#    0.000    1.750    0.000    4.500    0.000    8.000 
#    0.000    0.625    0.000    0.000    0.000    0.000 
#    0.000    0.000    0.000    0.000    0.000    0.000 
#
# Total GULP energy -356605.039450 kJ/mol
# GULP energy per Si atom -5571.953741 kJ/mol
# Density = 1.982386 g / cm^3
# Si number density = 19.869079 Si / 1000 Ang^3
#
#
#
# Elastic Constant Matrix: (Units=GPa)
#
#
# Indices 1 2 3 4 5 6 
#
# 1 13.9228 9.1922 27.6875 0.0000 0.0000 0.0000
# 2 9.1922 90.1337 27.5241 0.0000 0.0000 0.0000
# 3 27.6875 27.5241 88.3524 0.0000 0.0000 0.0000
# 4 0.0000 0.0000 0.0000 26.4265 0.0000 0.0000
# 5 0.0000 0.0000 0.0000 0.0000 19.7950 0.0000
# 6 0.0000 0.0000 0.0000 0.0000 0.0000 2.9168
#
#
#
# Elastic Compliance Matrix: (Units=1/GPa)
#
#
# Indices 1 2 3 4 5 6 
#
# 1 0.190760 -0.001326 -0.059367 0.000000 0.000000 0.000000
# 2 -0.001326 0.012270 -0.003407 0.000000 0.000000 0.000000
# 3 -0.059367 -0.003407 0.030984 0.000000 0.000000 0.000000
# 4 0.000000 0.000000 0.000000 0.037841 0.000000 0.000000
# 5 0.000000 0.000000 0.000000 0.000000 0.050518 0.000000
# 6 0.000000 0.000000 0.000000 0.000000 0.000000 0.342847
#
#
# Mechanical properties :
#
#
# Convention : Reuss Voigt Hill
#
# Bulk Modulus (GPa) = 9.45045 35.69073 22.57059
# Shear Modulus (GPa) = 6.03362 18.36130 12.19746
#
# Velocity S-wave (km/s) = 1.74450 3.04322 2.48037
# Velocity P-wave (km/s) = 2.97059 5.50910 4.42575
#
# Compressibility (1/GPa) = 0.10581509
#
# Stress axis : x y z
#
# Youngs Moduli (GPa) = 5.24219 81.49795 32.27492
#
# Poissons Ratio (x) = 0.10805 1.91605
# Poissons Ratio (y) = 0.00695 0.10996
# Poissons Ratio (z) = 0.31121 0.27767
#
# Static dielectric constant tensor:
#      x y z
#    x 1.761720 0.000000 0.000000 
#    y 0.000000 1.671350 0.000000 
#    z 0.000000 0.000000 1.744880 
# 
# From -- ./inp_files/7115.got.cif
#   From: 2010.05.17/outbox.cif.g08.bks.cpg/sg57_4_cif.got.tgz:7115.got - 2010.06.03 13:58:18.
