data_PCOD9436552
_publ_section_title
;
Structure prediction by ZEFSAII (Michael W. Deem and Ramdas Pophale) SiO2 
 PCOD9436552
Probable space group: P B C M
;
_chemical_formula_sum "Si O2"
_cell_formula_units_Z 52
_cell_length_a 20.533280
_cell_length_b 14.849796
_cell_length_c 8.395975
_cell_angle_alpha 90.000000
_cell_angle_beta 90.000000
_cell_angle_gamma 90.000000
_cell_volume 2560.058878
_symmetry_space_group_name_H-M "P B C M"
_symmetry_group_IT_number 57
_symmetry_cell_setting 'orthorhombic'
loop_
_space_group_symop_operation_xyz
x,y,z
-x,-y,1/2+z
x,1/2-y,-z
-x,1/2+y,1/2-z
-x,-y,-z
x,y,1/2-z
-x,1/2+y,z
x,1/2-y,1/2+z
loop_
_atom_site_type_symbol
_atom_site_label
_atom_site_fract_x
_atom_site_fract_y
_atom_site_fract_z
Si Si1 0.406566 0.964100 0.442110
Si Si2 0.736810 0.095678 0.940019
Si Si3 0.076360 0.594107 0.576017
Si Si4 0.534732 0.646441 0.559109
Si Si5 0.170369 0.750000 0.000000
Si Si6 0.943749 0.650768 0.436774
Si Si7 0.167499 0.458889 0.068265
O O1 0.409020 0.970097 0.250000
O O2 0.338065 0.917969 0.484547
O O3 0.465624 0.898363 0.494653
O O4 0.415734 0.066234 0.506291
O O5 0.742569 0.118060 0.750000
O O6 0.776694 0.171100 0.039457
O O7 0.772361 0.001051 0.973920
O O8 0.083346 0.549725 0.750000
O O9 0.116788 0.687141 0.587469
O O10 0.113424 0.537960 0.442453
O O11 0.001512 0.601390 0.531297
O O12 0.543742 0.750000 0.500000
O O13 0.535098 0.650357 0.750000
O O14 0.950748 0.750000 0.500000
O O15 0.956269 0.646405 0.250000
O O16 0.871400 0.619298 0.480798
O O17 0.183651 0.437669 0.250000
#
# Coordination Sequence:
#
# PCOD9436552 Si02
#       7
#     8   8   8   8   4   8   8
#     4   9  20  39  61  89 126 166 208 256 303 357
#     4  10  22  40  60  84 120 160 200 244 299 360
#     4  11  22  38  58  81 114 150 192 240 292 352
#     4  10  20  36  62  93 127 165 208 255 303 356
#     4  10  20  32  58  86 120 152 194 238 296 358
#     4  12  24  39  60  83 110 144 189 242 297 352
#     4  11  23  39  58  82 113 149 191 238 292 352
#
# _framework density 20.312031999999999
#
# number of rings (size 3 to 8) (size 9 to 14) (size 15 to 20)
#    0.000    1.538    0.769    5.538    1.077    6.769 
#    0.000    0.769    0.000    3.692    0.000    0.000 
#    0.000    0.000    0.000    0.000    0.000    0.000 
#
# Total GULP energy -289518.212121 kJ/mol
# GULP energy per Si atom -5567.657925 kJ/mol
# Density = 2.026580 g / cm^3
# Si number density = 20.312032 Si / 1000 Ang^3
#
#
#
# Elastic Constant Matrix: (Units=GPa)
#
#
# Indices 1 2 3 4 5 6 
#
# 1 77.8002 18.3820 4.4906 0.0000 0.0000 0.0000
# 2 18.3820 99.8811 14.8853 0.0000 0.0000 0.0000
# 3 4.4906 14.8853 63.8563 0.0000 0.0000 0.0000
# 4 0.0000 0.0000 0.0000 14.1587 0.0000 0.0000
# 5 0.0000 0.0000 0.0000 0.0000 9.3339 0.0000
# 6 0.0000 0.0000 0.0000 0.0000 0.0000 34.4263
#
#
#
# Elastic Compliance Matrix: (Units=1/GPa)
#
#
# Indices 1 2 3 4 5 6 
#
# 1 0.013447 -0.002418 -0.000382 0.000000 0.000000 0.000000
# 2 -0.002418 0.010807 -0.002349 0.000000 0.000000 0.000000
# 3 -0.000382 -0.002349 0.016235 0.000000 0.000000 0.000000
# 4 0.000000 0.000000 0.000000 0.070628 0.000000 0.000000
# 5 0.000000 0.000000 0.000000 0.000000 0.107136 0.000000
# 6 0.000000 0.000000 0.000000 0.000000 0.000000 0.029048
#
#
# Mechanical properties :
#
#
# Convention : Reuss Voigt Hill
#
# Bulk Modulus (GPa) = 33.12307 35.22814 34.17561
# Shear Modulus (GPa) = 18.68032 25.16910 21.92471
#
# Velocity S-wave (km/s) = 3.03589 3.52394 3.28898
# Velocity P-wave (km/s) = 5.35083 5.82569 5.59330
#
# Compressibility (1/GPa) = 0.03019044
#
# Stress axis : x y z
#
# Youngs Moduli (GPa) = 74.36745 92.53290 61.59673
#
# Poissons Ratio (x) = 0.22373 0.02353
# Poissons Ratio (y) = 0.17980 0.14470
# Poissons Ratio (z) = 0.02841 0.21737
#
# Static dielectric constant tensor:
#      x y z
#    x 1.717770 0.000000 0.000000 
#    y 0.000000 1.761810 0.000000 
#    z 0.000000 0.000000 1.728670 
# 
# From -- ./inp_files/7950.got.cif
#   From: 2010.05.17/outbox.cif.g08.bks.cpg/sg57_4_cif.got.tgz:7950.got - 2010.06.03 13:58:18.
