data_PCOD9436617
_publ_section_title
;
Structure prediction by ZEFSAII (Michael W. Deem and Ramdas Pophale) SiO2 
 PCOD9436617
Probable space group: P B C M
;
_chemical_formula_sum "Si O2"
_cell_formula_units_Z 40
_cell_length_a 10.244317
_cell_length_b 14.081807
_cell_length_c 11.316992
_cell_angle_alpha 90.000000
_cell_angle_beta 90.000000
_cell_angle_gamma 90.000000
_cell_volume 1632.572232
_symmetry_space_group_name_H-M "P B C M"
_symmetry_group_IT_number 57
_symmetry_cell_setting 'orthorhombic'
loop_
_space_group_symop_operation_xyz
x,y,z
-x,-y,1/2+z
x,1/2-y,-z
-x,1/2+y,1/2-z
-x,-y,-z
x,y,1/2-z
-x,1/2+y,z
x,1/2-y,1/2+z
loop_
_atom_site_type_symbol
_atom_site_label
_atom_site_fract_x
_atom_site_fract_y
_atom_site_fract_z
Si Si1 0.581831 0.384847 0.880314
Si Si2 0.561686 0.884162 0.120446
Si Si3 0.848784 0.061226 0.380251
Si Si4 0.846877 0.548339 0.123673
Si Si5 0.815037 0.751796 0.124870
O O1 0.530143 0.356557 0.750000
O O2 0.578007 0.501275 0.882479
O O3 0.736180 0.360242 0.882409
O O4 0.515521 0.356161 0.002478
O O5 0.500442 0.864070 0.250000
O O6 0.697718 0.826474 0.119028
O O7 0.830304 0.012450 0.250000
O O8 0.826552 0.005718 0.502626
O O9 0.002169 0.082937 0.379597
O O10 0.827613 0.497003 0.250000
O O11 0.762663 0.643773 0.128585
O O12 0.885706 0.768507 0.250000
O O13 0.889141 0.750000 0.000000
#
# Coordination Sequence:
#
# PCOD9436617 Si02
#       5
#     8   8   8   8   8
#     4   9  17  30  49  72  99 134 176 221 268 316
#     4   9  18  31  47  71 103 136 172 217 266 316
#     4   9  17  31  51  75 105 139 176 221 271 320
#     4   9  18  31  49  76 107 139 176 219 269 325
#     4  10  20  33  50  74 104 136 172 215 264 320
#
# _framework density 24.501211000000001
#
# number of rings (size 3 to 8) (size 9 to 14) (size 15 to 20)
#    0.000    2.800    0.000    1.200    0.000    4.000 
#    0.000    4.000    0.000    1.200    0.000    5.600 
#    0.000    0.000    0.000    0.000    0.000    0.000 
#
# Total GULP energy -222744.654423 kJ/mol
# GULP energy per Si atom -5568.616361 kJ/mol
# Density = 2.444545 g / cm^3
# Si number density = 24.501211 Si / 1000 Ang^3
#
#
#
# Elastic Constant Matrix: (Units=GPa)
#
#
# Indices 1 2 3 4 5 6 
#
# 1 49.6378 -0.2898 49.8883 0.0000 0.0000 0.0000
# 2 -0.2898 66.6192 25.3366 0.0000 0.0000 0.0000
# 3 49.8883 25.3366 314.9102 0.0000 0.0000 0.0000
# 4 0.0000 0.0000 0.0000 11.7402 0.0000 0.0000
# 5 0.0000 0.0000 0.0000 0.0000 31.1624 0.0000
# 6 0.0000 0.0000 0.0000 0.0000 0.0000 11.0121
#
#
#
# Elastic Compliance Matrix: (Units=1/GPa)
#
#
# Indices 1 2 3 4 5 6 
#
# 1 0.024127 0.001608 -0.003952 0.000000 0.000000 0.000000
# 2 0.001608 0.015592 -0.001509 0.000000 0.000000 0.000000
# 3 -0.003952 -0.001509 0.003923 0.000000 0.000000 0.000000
# 4 0.000000 0.000000 0.000000 0.085178 0.000000 0.000000
# 5 0.000000 0.000000 0.000000 0.000000 0.032090 0.000000
# 6 0.000000 0.000000 0.000000 0.000000 0.000000 0.090809
#
#
# Mechanical properties :
#
#
# Convention : Reuss Voigt Hill
#
# Bulk Modulus (GPa) = 27.82758 64.55973 46.19365
# Shear Modulus (GPa) = 18.42282 34.53174 26.47728
#
# Velocity S-wave (km/s) = 2.74508 3.75826 3.29089
# Velocity P-wave (km/s) = 4.62921 6.72603 5.77361
#
# Compressibility (1/GPa) = 0.03593557
#
# Stress axis : x y z
#
# Youngs Moduli (GPa) = 41.44766 64.13695 254.91100
#
# Poissons Ratio (x) = -0.10312 1.00729
# Poissons Ratio (y) = -0.06664 0.38470
# Poissons Ratio (z) = 0.16378 0.09679
#
# Static dielectric constant tensor:
#      x y z
#    x 1.966010 0.000000 0.000000 
#    y 0.000000 1.982330 0.000000 
#    z 0.000000 0.000000 2.032940 
# 
# From -- ./inp_files/12702.got.cif
#   From: 2010.05.17/outbox.cif.g08.bks.cpg/sg57_7_cif.got.tgz:12702.got - 2010.06.03 13:58:18.
