data_PCOD9436602
_publ_section_title
;
Structure prediction by ZEFSAII (Michael W. Deem and Ramdas Pophale) SiO2 
 PCOD9436602
Probable space group: P B C M
;
_chemical_formula_sum "Si O2"
_cell_formula_units_Z 64
_cell_length_a 30.420709
_cell_length_b 13.891006
_cell_length_c 9.039054
_cell_angle_alpha 90.000000
_cell_angle_beta 90.000000
_cell_angle_gamma 90.000000
_cell_volume 3819.671476
_symmetry_space_group_name_H-M "P B C M"
_symmetry_group_IT_number 57
_symmetry_cell_setting 'orthorhombic'
loop_
_space_group_symop_operation_xyz
x,y,z
-x,-y,1/2+z
x,1/2-y,-z
-x,1/2+y,1/2-z
-x,-y,-z
x,y,1/2-z
-x,1/2+y,z
x,1/2-y,1/2+z
loop_
_atom_site_type_symbol
_atom_site_label
_atom_site_fract_x
_atom_site_fract_y
_atom_site_fract_z
Si Si1 0.642669 0.351722 0.924281
Si Si2 0.747461 0.352818 0.575279
Si Si3 0.047466 0.507163 0.073516
Si Si4 0.891027 0.346380 0.418300
Si Si5 0.875415 0.645127 0.927640
Si Si6 0.567095 0.042786 0.925660
Si Si7 0.811631 0.498406 0.080194
Si Si8 0.485758 0.149720 0.425791
O O1 0.632975 0.347605 0.750000
O O2 0.694951 0.365506 0.942473
O O3 0.631145 0.250000 0.000000
O O4 0.613587 0.432855 0.001865
O O5 0.759117 0.250000 0.500000
O O6 0.757773 0.347595 0.750000
O O7 0.772454 0.442356 0.501428
O O8 0.043536 0.512126 0.250000
O O9 0.080899 0.418796 0.038229
O O10 0.070763 0.601830 0.009426
O O11 0.000000 0.500000 0.000000
O O12 0.877434 0.250000 0.500000
O O13 0.904861 0.327089 0.250000
O O14 0.850529 0.419551 0.415418
O O15 0.871735 0.651497 0.750000
O O16 0.878792 0.750000 0.000000
O O17 0.833470 0.587794 0.993990
O O18 0.568159 0.060188 0.750000
O O19 0.550046 0.934272 0.950759
O O20 0.530763 0.111567 0.000852
O O21 0.800416 0.523763 0.250000
O O22 0.473215 0.250000 0.500000
O O23 0.491914 0.160898 0.250000
#
# Coordination Sequence:
#
# PCOD9436602 Si02
#       8
#     8   8   8   8   8   8   8   8
#     4  10  20  33  50  73 103 137 170 207 250 300
#     4  10  20  33  51  77 107 138 170 205 251 306
#     4  10  21  36  53  74 102 134 168 207 248 293
#     4  10  20  33  50  73 100 130 163 198 241 291
#     4  10  21  37  57  79 103 134 172 213 256 301
#     4  10  20  33  50  72  99 132 169 210 255 303
#     4  10  20  34  54  78 104 133 165 206 251 296
#     4  10  20  33  50  72  98 130 168 210 255 302
#
# _framework density 16.755367
#
# number of rings (size 3 to 8) (size 9 to 14) (size 15 to 20)
#    0.000    2.000    0.000    3.750    0.000    7.500 
#    0.000    1.250    0.000    0.750    0.000    1.750 
#    0.000    0.000    0.000    0.000    0.000    0.000 
#
# Total GULP energy -357230.885081 kJ/mol
# GULP energy per Si atom -5581.732579 kJ/mol
# Density = 1.671723 g / cm^3
# Si number density = 16.755367 Si / 1000 Ang^3
#
#
#
# Elastic Constant Matrix: (Units=GPa)
#
#
# Indices 1 2 3 4 5 6 
#
# 1 60.6981 30.4295 54.1056 0.0000 0.0000 0.0000
# 2 30.4295 88.7103 66.0043 0.0000 0.0000 0.0000
# 3 54.1056 66.0043 122.9724 0.0000 0.0000 0.0000
# 4 0.0000 0.0000 0.0000 32.5067 0.0000 0.0000
# 5 0.0000 0.0000 0.0000 0.0000 30.4093 0.0000
# 6 0.0000 0.0000 0.0000 0.0000 0.0000 14.5452
#
#
#
# Elastic Compliance Matrix: (Units=1/GPa)
#
#
# Indices 1 2 3 4 5 6 
#
# 1 0.027132 -0.000707 -0.011558 0.000000 0.000000 0.000000
# 2 -0.000707 0.018786 -0.009772 0.000000 0.000000 0.000000
# 3 -0.011558 -0.009772 0.018462 0.000000 0.000000 0.000000
# 4 0.000000 0.000000 0.000000 0.030763 0.000000 0.000000
# 5 0.000000 0.000000 0.000000 0.000000 0.032885 0.000000
# 6 0.000000 0.000000 0.000000 0.000000 0.000000 0.068751
#
#
# Mechanical properties :
#
#
# Convention : Reuss Voigt Hill
#
# Bulk Modulus (GPa) = 49.24680 63.71775 56.48228
# Shear Modulus (GPa) = 20.19199 23.61501 21.90350
#
# Velocity S-wave (km/s) = 3.47523 3.75827 3.61952
# Velocity P-wave (km/s) = 6.74970 7.54610 7.15898
#
# Compressibility (1/GPa) = 0.02030589
#
# Stress axis : x y z
#
# Youngs Moduli (GPa) = 36.85637 53.23082 54.16417
#
# Poissons Ratio (x) = 0.03764 0.62604
# Poissons Ratio (y) = 0.02606 0.52930
# Poissons Ratio (z) = 0.42599 0.52018
#
# Static dielectric constant tensor:
#      x y z
#    x 1.554840 0.000000 0.000000 
#    y 0.000000 1.545400 0.000000 
#    z 0.000000 0.000000 1.567210 
# 
# From -- ./inp_files/10271.got.cif
#   From: 2010.05.17/outbox.cif.g08.bks.cpg/sg57_6_cif.got.tgz:10271.got - 2010.06.03 13:58:18.
