data_PCOD9436367
_publ_section_title
;
Structure prediction by ZEFSAII (Michael W. Deem and Ramdas Pophale) SiO2 
 PCOD9436367
Probable space group: P B C M
;
_chemical_formula_sum "Si O2"
_cell_formula_units_Z 40
_cell_length_a 7.840177
_cell_length_b 15.656322
_cell_length_c 15.262319
_cell_angle_alpha 90.000000
_cell_angle_beta 90.000000
_cell_angle_gamma 90.000000
_cell_volume 1873.424255
_symmetry_space_group_name_H-M "P B C M"
_symmetry_group_IT_number 57
_symmetry_cell_setting 'orthorhombic'
loop_
_space_group_symop_operation_xyz
x,y,z
-x,-y,1/2+z
x,1/2-y,-z
-x,1/2+y,1/2-z
-x,-y,-z
x,y,1/2-z
-x,1/2+y,z
x,1/2-y,1/2+z
loop_
_atom_site_type_symbol
_atom_site_label
_atom_site_fract_x
_atom_site_fract_y
_atom_site_fract_z
Si Si1 0.181548 0.782857 0.250000
Si Si2 0.814145 0.487546 0.750000
Si Si3 0.939918 0.314786 0.579823
Si Si4 0.816366 0.003895 0.052930
Si Si5 0.697828 0.592283 0.399301
Si Si6 0.183335 0.518164 0.750000
Si Si7 0.465481 0.663161 0.250000
O O1 0.105777 0.738238 0.165100
O O2 0.146460 0.882740 0.250000
O O3 0.379854 0.755820 0.250000
O O4 0.806933 0.530711 0.846690
O O5 0.679322 0.411026 0.750000
O O6 0.012433 0.460484 0.750000
O O7 0.936620 0.250000 0.500000
O O8 0.808040 0.393455 0.564195
O O9 0.128207 0.353818 0.591727
O O10 0.682247 0.950844 0.994969
O O11 0.000000 0.000000 0.000000
O O12 0.719994 0.509878 0.336512
O O13 0.570275 0.648051 0.339999
#
# Coordination Sequence:
#
# PCOD9436367 Si02
#       7
#     4   4   8   8   8   4   4
#     4  12  23  39  64  97 125 166 218 280 328 374
#     4  12  20  39  65  97 127 172 224 278 316 394
#     4  11  21  38  66  97 125 169 225 279 315 372
#     4  10  19  36  65  93 126 168 232 268 314 377
#     4  10  22  41  65  91 133 178 210 263 331 399
#     4  11  20  39  70  92 121 170 227 271 315 386
#     4  11  23  43  65  92 137 174 203 269 345 394
#
# _framework density 21.351279000000002
#
# number of rings (size 3 to 8) (size 9 to 14) (size 15 to 20)
#    0.000    1.200    6.000    2.400    2.800    0.800 
#    0.000    5.000    0.000    0.000    0.000    0.000 
#    0.000    0.000    0.000    0.000    0.000    0.000 
#
# Total GULP energy -222794.388521 kJ/mol
# GULP energy per Si atom -5569.859713 kJ/mol
# Density = 2.130268 g / cm^3
# Si number density = 21.351279 Si / 1000 Ang^3
#
#
#
# Elastic Constant Matrix: (Units=GPa)
#
#
# Indices 1 2 3 4 5 6 
#
# 1 47.8268 14.7869 23.8126 0.0000 0.0000 0.0000
# 2 14.7869 90.7140 46.7703 0.0000 0.0000 0.0000
# 3 23.8126 46.7703 215.6247 0.0000 0.0000 0.0000
# 4 0.0000 0.0000 0.0000 19.3832 0.0000 0.0000
# 5 0.0000 0.0000 0.0000 0.0000 22.6218 0.0000
# 6 0.0000 0.0000 0.0000 0.0000 0.0000 17.9466
#
#
#
# Elastic Compliance Matrix: (Units=1/GPa)
#
#
# Indices 1 2 3 4 5 6 
#
# 1 0.022703 -0.002711 -0.001919 0.000000 0.000000 0.000000
# 2 -0.002711 0.012735 -0.002463 0.000000 0.000000 0.000000
# 3 -0.001919 -0.002463 0.005384 0.000000 0.000000 0.000000
# 4 0.000000 0.000000 0.000000 0.051591 0.000000 0.000000
# 5 0.000000 0.000000 0.000000 0.000000 0.044205 0.000000
# 6 0.000000 0.000000 0.000000 0.000000 0.000000 0.055721
#
#
# Mechanical properties :
#
#
# Convention : Reuss Voigt Hill
#
# Bulk Modulus (GPa) = 37.54418 58.32281 47.93349
# Shear Modulus (GPa) = 23.21221 29.91003 26.56112
#
# Velocity S-wave (km/s) = 3.30078 3.74686 3.53087
# Velocity P-wave (km/s) = 5.67002 6.78924 6.25471
#
# Compressibility (1/GPa) = 0.02663529
#
# Stress axis : x y z
#
# Youngs Moduli (GPa) = 44.04797 78.52089 185.74032
#
# Poissons Ratio (x) = 0.21289 0.35645
# Poissons Ratio (y) = 0.11942 0.45748
# Poissons Ratio (z) = 0.08453 0.19340
#
# Static dielectric constant tensor:
#      x y z
#    x 1.859040 0.000000 0.000000 
#    y 0.000000 1.755130 0.000000 
#    z 0.000000 0.000000 1.852310 
# 
# From -- ./inp_files/16186.got.cif
#   From: 2010.05.17/outbox.cif.g08.bks.cpg/sg57_9_cif.got.tgz:16186.got - 2010.06.03 13:58:18.
