data_PCOD9436186
_publ_section_title
;
Structure prediction by ZEFSAII (Michael W. Deem and Ramdas Pophale) SiO2 
 PCOD9436186
Probable space group: P B C M
;
_chemical_formula_sum "Si O2"
_cell_formula_units_Z 52
_cell_length_a 17.734577
_cell_length_b 5.089869
_cell_length_c 24.639309
_cell_angle_alpha 90.000000
_cell_angle_beta 90.000000
_cell_angle_gamma 90.000000
_cell_volume 2224.108466
_symmetry_space_group_name_H-M "P B C M"
_symmetry_group_IT_number 57
_symmetry_cell_setting 'orthorhombic'
loop_
_space_group_symop_operation_xyz
x,y,z
-x,-y,1/2+z
x,1/2-y,-z
-x,1/2+y,1/2-z
-x,-y,-z
x,y,1/2-z
-x,1/2+y,z
x,1/2-y,1/2+z
loop_
_atom_site_type_symbol
_atom_site_label
_atom_site_fract_x
_atom_site_fract_y
_atom_site_fract_z
Si Si1 0.325875 0.000944 0.038557
Si Si2 0.112455 0.355619 0.138543
Si Si3 0.916637 0.502580 0.976374
Si Si4 0.892317 0.513893 0.750000
Si Si5 0.550331 0.666753 0.250000
Si Si6 0.212109 0.855843 0.134060
Si Si7 0.551960 0.554956 0.131159
Si Si8 0.210731 0.515992 0.750000
O O1 0.261526 0.914660 0.081649
O O2 0.393394 0.081691 0.079773
O O3 0.308398 0.250000 0.000000
O O4 0.343166 0.750000 0.000000
O O5 0.070317 0.457481 0.086329
O O6 0.068770 0.413301 0.193921
O O7 0.184499 0.554951 0.137416
O O8 0.140945 0.058341 0.132830
O O9 0.876666 0.250000 0.000000
O O10 0.000000 0.500000 0.000000
O O11 0.873737 0.750000 0.000000
O O12 0.860971 0.218992 0.750000
O O13 0.821016 0.719480 0.750000
O O14 0.521391 0.966425 0.250000
O O15 0.587156 0.607471 0.191376
O O16 0.248983 0.922028 0.192613
O O17 0.484391 0.766334 0.128739
#
# Coordination Sequence:
#
# PCOD9436186 Si02
#       8
#     8   8   8   4   4   8   8   4
#     4  12  26  39  53  80 115 146 185 228 265 327
#     4  10  19  35  58  80 108 145 178 220 276 327
#     4  10  21  35  53  78 108 141 183 224 255 306
#     4   8  16  30  52  81 105 133 179 220 264 330
#     4   8  16  33  58  85 104 126 177 234 277 326
#     4  10  21  36  56  82 111 141 179 226 277 326
#     4  10  21  39  61  81 105 142 184 229 280 327
#     4   8  16  33  54  78 105 137 178 220 269 332
#
# _framework density 23.380154000000001
#
# number of rings (size 3 to 8) (size 9 to 14) (size 15 to 20)
#    0.000    2.154    0.000    2.769    0.000    6.154 
#    0.000    0.000    0.000   16.615    0.000    0.000 
#    0.000    0.000    0.000    0.000    0.000    0.000 
#
# Total GULP energy -290183.164757 kJ/mol
# GULP energy per Si atom -5580.445476 kJ/mol
# Density = 2.332694 g / cm^3
# Si number density = 23.380154 Si / 1000 Ang^3
#
#
#
# Elastic Constant Matrix: (Units=GPa)
#
#
# Indices 1 2 3 4 5 6 
#
# 1 24.8685 -18.5030 12.5248 0.0000 0.0000 0.0000
# 2 -18.5030 108.2056 -10.8388 0.0000 0.0000 0.0000
# 3 12.5248 -10.8388 200.0157 0.0000 0.0000 0.0000
# 4 0.0000 0.0000 0.0000 37.4022 0.0000 0.0000
# 5 0.0000 0.0000 0.0000 0.0000 60.7596 0.0000
# 6 0.0000 0.0000 0.0000 0.0000 0.0000 7.9599
#
#
#
# Elastic Compliance Matrix: (Units=1/GPa)
#
#
# Indices 1 2 3 4 5 6 
#
# 1 0.047321 0.007838 -0.002539 0.000000 0.000000 0.000000
# 2 0.007838 0.010590 0.000083 0.000000 0.000000 0.000000
# 3 -0.002539 0.000083 0.005163 0.000000 0.000000 0.000000
# 4 0.000000 0.000000 0.000000 0.026736 0.000000 0.000000
# 5 0.000000 0.000000 0.000000 0.000000 0.016458 0.000000
# 6 0.000000 0.000000 0.000000 0.000000 0.000000 0.125629
#
#
# Mechanical properties :
#
#
# Convention : Reuss Voigt Hill
#
# Bulk Modulus (GPa) = 13.54294 33.27286 23.40790
# Shear Modulus (GPa) = 20.34608 44.55147 32.44877
#
# Velocity S-wave (km/s) = 2.95316 4.36997 3.72946
# Velocity P-wave (km/s) = 4.17532 6.30272 5.34591
#
# Compressibility (1/GPa) = 0.07383922
#
# Stress axis : x y z
#
# Youngs Moduli (GPa) = 21.13205 94.42681 193.68327
#
# Poissons Ratio (x) = -0.74008 0.49167
# Poissons Ratio (y) = -0.16563 -0.01609
# Poissons Ratio (z) = 0.05364 -0.00785
#
# Static dielectric constant tensor:
#      x y z
#    x 1.802520 0.000000 0.000000 
#    y 0.000000 1.881660 0.000000 
#    z 0.000000 0.000000 1.964970 
# 
# From -- ./inp_files/25769.got.cif
#   From: 2010.05.17/outbox.cif.g08.bks.cpg/sg57_13_cif.got.tgz:25769.got - 2010.06.03 13:58:18.
