data_PCOD9436456
_publ_section_title
;
Structure prediction by ZEFSAII (Michael W. Deem and Ramdas Pophale) SiO2 
 PCOD9436456
Probable space group: P B C M
;
_chemical_formula_sum "Si O2"
_cell_formula_units_Z 48
_cell_length_a 14.609507
_cell_length_b 9.357564
_cell_length_c 16.852840
_cell_angle_alpha 90.000000
_cell_angle_beta 90.000000
_cell_angle_gamma 90.000000
_cell_volume 2303.941590
_symmetry_space_group_name_H-M "P B C M"
_symmetry_group_IT_number 57
_symmetry_cell_setting 'orthorhombic'
loop_
_space_group_symop_operation_xyz
x,y,z
-x,-y,1/2+z
x,1/2-y,-z
-x,1/2+y,1/2-z
-x,-y,-z
x,y,1/2-z
-x,1/2+y,z
x,1/2-y,1/2+z
loop_
_atom_site_type_symbol
_atom_site_label
_atom_site_fract_x
_atom_site_fract_y
_atom_site_fract_z
Si Si1 0.249302 0.678781 0.657339
Si Si2 0.048359 0.185319 0.657945
Si Si3 0.890860 0.987147 0.585879
Si Si4 0.183392 0.528498 0.409817
Si Si5 0.630355 0.894370 0.460531
Si Si6 0.434092 0.638995 0.927247
O O1 0.236271 0.697670 0.750000
O O2 0.203857 0.530978 0.628682
O O3 0.196193 0.806461 0.612423
O O4 0.356502 0.680034 0.635078
O O5 0.028535 0.220502 0.750000
O O6 0.075437 0.329570 0.610862
O O7 0.130356 0.070170 0.652292
O O8 0.964248 0.101689 0.617835
O O9 0.870612 0.006082 0.492718
O O10 0.286335 0.472167 0.419536
O O11 0.665339 0.750000 0.500000
O O12 0.541217 0.866955 0.405762
O O13 0.593764 0.989225 0.533559
O O14 0.427729 0.750000 0.000000
#
# Coordination Sequence:
#
# PCOD9436456 Si02
#       6
#     8   8   8   8   8   8
#     4  12  24  42  65  94 132 173 216 277 337 386
#     4  12  26  44  65  99 136 170 210 274 346 397
#     4  12  25  46  69  93 127 177 222 271 323 411
#     4  12  24  43  68  98 127 173 229 273 317 396
#     4  10  20  36  67  97 125 164 217 269 312 375
#     4  10  19  39  66  94 126 169 219 264 315 390
#
# _framework density 20.833862
#
# number of rings (size 3 to 8) (size 9 to 14) (size 15 to 20)
#    0.000    0.667    3.333    5.500    0.000    1.333 
#    0.000    1.667    0.000    0.000    0.000    0.000 
#    0.000    0.000    0.000    0.000    0.000    0.000 
#
# Total GULP energy -268395.676635 kJ/mol
# GULP energy per Si atom -5591.576597 kJ/mol
# Density = 2.078644 g / cm^3
# Si number density = 20.833862 Si / 1000 Ang^3
#
#
#
# Elastic Constant Matrix: (Units=GPa)
#
#
# Indices 1 2 3 4 5 6 
#
# 1 93.7524 10.4673 26.8502 0.0000 0.0000 0.0000
# 2 10.4673 84.9795 10.5299 0.0000 0.0000 0.0000
# 3 26.8502 10.5299 95.7346 0.0000 0.0000 0.0000
# 4 0.0000 0.0000 0.0000 23.5647 0.0000 0.0000
# 5 0.0000 0.0000 0.0000 0.0000 2.6004 0.0000
# 6 0.0000 0.0000 0.0000 0.0000 0.0000 35.7423
#
#
#
# Elastic Compliance Matrix: (Units=1/GPa)
#
#
# Indices 1 2 3 4 5 6 
#
# 1 0.011689 -0.001048 -0.003163 0.000000 0.000000 0.000000
# 2 -0.001048 0.012024 -0.001029 0.000000 0.000000 0.000000
# 3 -0.003163 -0.001029 0.011446 0.000000 0.000000 0.000000
# 4 0.000000 0.000000 0.000000 0.042436 0.000000 0.000000
# 5 0.000000 0.000000 0.000000 0.000000 0.384554 0.000000
# 6 0.000000 0.000000 0.000000 0.000000 0.000000 0.027978
#
#
# Mechanical properties :
#
#
# Convention : Reuss Voigt Hill
#
# Bulk Modulus (GPa) = 40.51891 41.12903 40.82397
# Shear Modulus (GPa) = 9.82639 27.48942 18.65790
#
# Velocity S-wave (km/s) = 2.17412 3.63638 2.99583
# Velocity P-wave (km/s) = 5.07870 6.11680 5.62176
#
# Compressibility (1/GPa) = 0.02467983
#
# Stress axis : x y z
#
# Youngs Moduli (GPa) = 85.54827 83.16645 87.36790
#
# Poissons Ratio (x) = 0.08715 0.27636
# Poissons Ratio (y) = 0.08964 0.08987
# Poissons Ratio (z) = 0.27060 0.08555
#
# Static dielectric constant tensor:
#      x y z
#    x 1.796750 0.000000 0.000000 
#    y 0.000000 2.291390 0.000000 
#    z 0.000000 0.000000 1.704170 
# 
# From -- ./inp_files/22446.got.cif
#   From: 2010.05.17/outbox.cif.g08.bks.cpg/sg57_12_cif.got.tgz:22446.got - 2010.06.03 13:58:18.
