data_PCOD9436261
_publ_section_title
;
Structure prediction by ZEFSAII (Michael W. Deem and Ramdas Pophale) SiO2 
 PCOD9436261
Probable space group: P B C M
;
_chemical_formula_sum "Si O2"
_cell_formula_units_Z 64
_cell_length_a 11.745159
_cell_length_b 16.326769
_cell_length_c 16.882265
_cell_angle_alpha 90.000000
_cell_angle_beta 90.000000
_cell_angle_gamma 90.000000
_cell_volume 3237.351541
_symmetry_space_group_name_H-M "P B C M"
_symmetry_group_IT_number 57
_symmetry_cell_setting 'orthorhombic'
loop_
_space_group_symop_operation_xyz
x,y,z
-x,-y,1/2+z
x,1/2-y,-z
-x,1/2+y,1/2-z
-x,-y,-z
x,y,1/2-z
-x,1/2+y,z
x,1/2-y,1/2+z
loop_
_atom_site_type_symbol
_atom_site_label
_atom_site_fract_x
_atom_site_fract_y
_atom_site_fract_z
Si Si1 0.792950 0.509684 0.414688
Si Si2 0.064578 0.282699 0.414600
Si Si3 0.143069 0.773071 0.843182
Si Si4 0.269304 0.179159 0.155314
Si Si5 0.788421 0.943398 0.410192
Si Si6 0.965461 0.442280 0.658261
Si Si7 0.324952 0.848722 0.153846
Si Si8 0.412965 0.336975 0.345702
O O1 0.725276 0.590713 0.384916
O O2 0.780687 0.506014 0.509068
O O3 0.740938 0.428682 0.376181
O O4 0.924584 0.525755 0.389437
O O5 0.028695 0.250000 0.500000
O O6 0.150244 0.219918 0.371506
O O7 0.134613 0.364433 0.428722
O O8 0.955047 0.293481 0.359980
O O9 0.157965 0.787017 0.750000
O O10 0.088117 0.857284 0.874214
O O11 0.258877 0.733323 0.874071
O O12 0.271517 0.169755 0.250000
O O13 0.363191 0.247217 0.131883
O O14 0.669567 0.906854 0.380154
O O15 0.861069 0.994625 0.347449
O O16 0.001103 0.430989 0.750000
O O17 0.321309 0.849226 0.250000
O O18 0.456733 0.847949 0.129821
O O19 0.406003 0.341193 0.250000
#
# Coordination Sequence:
#
# PCOD9436261 Si02
#       8
#     8   8   8   8   8   8   8   8
#     4  12  22  37  62  91 125 156 202 251 308 367
#     4  11  19  34  57  85 122 156 188 242 300 361
#     4  10  21  37  59  83 119 157 198 250 302 359
#     4  10  19  35  61  88 113 153 201 247 294 357
#     4  11  23  37  60  89 123 159 196 247 308 360
#     4  11  22  38  60  93 126 156 201 250 305 371
#     4  10  22  41  61  85 117 159 206 256 301 357
#     4   9  21  41  62  84 115 156 208 249 297 362
#
# _framework density 19.769245999999999
#
# number of rings (size 3 to 8) (size 9 to 14) (size 15 to 20)
#    0.000    1.500    2.500    3.000    0.000    4.000 
#    2.250    0.000    5.500    0.000    0.000    0.000 
#    0.000    0.000    0.000    0.000    0.000    0.000 
#
# Total GULP energy -357286.783185 kJ/mol
# GULP energy per Si atom -5582.605987 kJ/mol
# Density = 1.972425 g / cm^3
# Si number density = 19.769246 Si / 1000 Ang^3
#
#
#
# Elastic Constant Matrix: (Units=GPa)
#
#
# Indices 1 2 3 4 5 6 
#
# 1 140.9591 64.6088 12.6889 0.0000 0.0000 0.0000
# 2 64.6088 67.2403 13.6107 0.0000 0.0000 0.0000
# 3 12.6889 13.6107 33.0643 0.0000 0.0000 0.0000
# 4 0.0000 0.0000 0.0000 16.4804 0.0000 0.0000
# 5 0.0000 0.0000 0.0000 0.0000 0.0728 0.0000
# 6 0.0000 0.0000 0.0000 0.0000 0.0000 27.9101
#
#
#
# Elastic Compliance Matrix: (Units=1/GPa)
#
#
# Indices 1 2 3 4 5 6 
#
# 1 0.012678 -0.012215 0.000163 0.000000 0.000000 0.000000
# 2 -0.012215 0.027993 -0.006835 0.000000 0.000000 0.000000
# 3 0.000163 -0.006835 0.032995 0.000000 0.000000 0.000000
# 4 0.000000 0.000000 0.000000 0.060678 0.000000 0.000000
# 5 0.000000 0.000000 0.000000 0.000000 13.727784 0.000000
# 6 0.000000 0.000000 0.000000 0.000000 0.000000 0.035829
#
#
# Mechanical properties :
#
#
# Convention : Reuss Voigt Hill
#
# Bulk Modulus (GPa) = 27.86204 47.00894 37.43549
# Shear Modulus (GPa) = 0.35848 18.91635 9.63741
#
# Velocity S-wave (km/s) = 0.42629 3.09667 2.21032
# Velocity P-wave (km/s) = 3.79032 6.05114 5.04890
#
# Compressibility (1/GPa) = 0.03589113
#
# Stress axis : x y z
#
# Youngs Moduli (GPa) = 78.87387 35.72348 30.30727
#
# Poissons Ratio (x) = 0.43637 -0.00493
# Poissons Ratio (y) = 0.96346 0.20716
# Poissons Ratio (z) = -0.01284 0.24418
#
# Static dielectric constant tensor:
#      x y z
#    x 1.686050 0.000000 0.000000 
#    y 0.000000 1.731580 0.000000 
#    z 0.000000 0.000000 1.695350 
# 
# From -- ./inp_files/22048.got.cif
#   From: 2010.05.17/outbox.cif.g08.bks.cpg/sg57_12_cif.got.tgz:22048.got - 2010.06.03 13:58:18.
