data_PCOD9436009
_publ_section_title
;
Structure prediction by ZEFSAII (Michael W. Deem and Ramdas Pophale) SiO2 
 PCOD9436009
Probable space group: P B C M
;
_chemical_formula_sum "Si O2"
_cell_formula_units_Z 64
_cell_length_a 20.556646
_cell_length_b 20.541359
_cell_length_c 8.686673
_cell_angle_alpha 90.000000
_cell_angle_beta 90.000000
_cell_angle_gamma 90.000000
_cell_volume 3668.047096
_symmetry_space_group_name_H-M "P B C M"
_symmetry_group_IT_number 57
_symmetry_cell_setting 'orthorhombic'
loop_
_space_group_symop_operation_xyz
x,y,z
-x,-y,1/2+z
x,1/2-y,-z
-x,1/2+y,1/2-z
-x,-y,-z
x,y,1/2-z
-x,1/2+y,z
x,1/2-y,1/2+z
loop_
_atom_site_type_symbol
_atom_site_label
_atom_site_fract_x
_atom_site_fract_y
_atom_site_fract_z
Si Si1 0.303743 0.894778 0.065241
Si Si2 0.530291 0.933570 0.434514
Si Si3 0.948059 0.178816 0.435682
Si Si4 0.191687 0.065576 0.935912
Si Si5 0.165772 0.917947 0.935160
Si Si6 0.568950 0.179285 0.564189
Si Si7 0.908221 0.679091 0.935310
Si Si8 0.669097 0.545531 0.433676
O O1 0.297711 0.890694 0.250000
O O2 0.359745 0.845589 0.013319
O O3 0.327317 0.968252 0.028618
O O4 0.233054 0.886512 0.992291
O O5 0.529295 0.937163 0.250000
O O6 0.484545 0.873789 0.483481
O O7 0.603889 0.926527 0.492472
O O8 0.500000 0.000000 0.500000
O O9 0.929441 0.250000 0.500000
O O10 0.950194 0.181541 0.250000
O O11 0.896116 0.124281 0.484972
O O12 0.020026 0.164481 0.499241
O O13 0.196198 0.064865 0.750000
O O14 0.142336 0.122762 0.980096
O O15 0.166777 0.993694 0.986076
O O16 0.263631 0.074774 0.003833
O O17 0.165894 0.918197 0.750000
O O18 0.554734 0.250000 0.500000
O O19 0.569402 0.180865 0.750000
O O20 0.911576 0.682304 0.750000
O O21 0.889192 0.750000 0.000000
O O22 0.666058 0.551815 0.250000
#
# Coordination Sequence:
#
# PCOD9436009 Si02
#       8
#     8   8   8   8   8   8   8   8
#     4   9  18  34  52  74 106 138 172 216 260 312
#     4  11  21  36  58  82 109 141 181 226 268 320
#     4  10  20  34  52  74 104 139 179 220 261 317
#     4   9  19  36  55  79 108 138 174 220 269 316
#     4   9  19  34  52  77 106 138 177 217 260 314
#     4  10  22  38  53  77 111 142 179 223 266 317
#     4  10  20  35  56  78 104 137 178 222 268 324
#     4  10  19  34  56  83 109 135 176 221 265 318
#
# _framework density 17.447977000000002
#
# number of rings (size 3 to 8) (size 9 to 14) (size 15 to 20)
#    0.000    2.250    1.250    2.250    0.000    5.000 
#    0.000    3.125    0.000    0.000    0.000    0.000 
#    0.000    0.000    0.000    0.000    0.000    0.000 
#
# Total GULP energy -357128.203127 kJ/mol
# GULP energy per Si atom -5580.128174 kJ/mol
# Density = 1.740826 g / cm^3
# Si number density = 17.447977 Si / 1000 Ang^3
#
#
#
# Elastic Constant Matrix: (Units=GPa)
#
#
# Indices 1 2 3 4 5 6 
#
# 1 152.1096 109.0019 38.3822 0.0000 0.0000 0.0000
# 2 109.0019 129.2386 35.2725 0.0000 0.0000 0.0000
# 3 38.3822 35.2725 30.0180 0.0000 0.0000 0.0000
# 4 0.0000 0.0000 0.0000 24.9574 0.0000 0.0000
# 5 0.0000 0.0000 0.0000 0.0000 30.0221 0.0000
# 6 0.0000 0.0000 0.0000 0.0000 0.0000 31.1730
#
#
#
# Elastic Compliance Matrix: (Units=1/GPa)
#
#
# Indices 1 2 3 4 5 6 
#
# 1 0.017693 -0.012878 -0.007490 0.000000 0.000000 0.000000
# 2 -0.012878 0.020764 -0.007933 0.000000 0.000000 0.000000
# 3 -0.007490 -0.007933 0.052212 0.000000 0.000000 0.000000
# 4 0.000000 0.000000 0.000000 0.040068 0.000000 0.000000
# 5 0.000000 0.000000 0.000000 0.000000 0.033309 0.000000
# 6 0.000000 0.000000 0.000000 0.000000 0.000000 0.032079
#
#
# Mechanical properties :
#
#
# Convention : Reuss Voigt Hill
#
# Bulk Modulus (GPa) = 29.35386 75.18662 52.27024
# Shear Modulus (GPa) = 18.93352 25.81113 22.37232
#
# Velocity S-wave (km/s) = 3.29772 3.85036 3.58471
# Velocity P-wave (km/s) = 5.60001 7.93426 6.86705
#
# Compressibility (1/GPa) = 0.03406707
#
# Stress axis : x y z
#
# Youngs Moduli (GPa) = 56.52087 48.16020 19.15270
#
# Poissons Ratio (x) = 0.62020 0.14346
# Poissons Ratio (y) = 0.72787 0.15193
# Poissons Ratio (z) = 0.42336 0.38203
#
# Static dielectric constant tensor:
#      x y z
#    x 1.577770 0.000000 0.000000 
#    y 0.000000 1.581850 0.000000 
#    z 0.000000 0.000000 1.591690 
# 
# From -- ./inp_files/8479.got.cif
#   From: 2010.05.17/outbox.cif.g08.bks.cpg/sg57_5_cif.got.tgz:8479.got - 2010.06.03 13:58:18.
