data_PCOD9436937
_publ_section_title
;
Structure prediction by ZEFSAII (Michael W. Deem and Ramdas Pophale) SiO2 
 PCOD9436937
Probable space group: P B C M
;
_chemical_formula_sum "Si O2"
_cell_formula_units_Z 48
_cell_length_a 16.653603
_cell_length_b 18.357769
_cell_length_c 8.892182
_cell_angle_alpha 90.000000
_cell_angle_beta 90.000000
_cell_angle_gamma 90.000000
_cell_volume 2718.544530
_symmetry_space_group_name_H-M "P B C M"
_symmetry_group_IT_number 57
_symmetry_cell_setting 'orthorhombic'
loop_
_space_group_symop_operation_xyz
x,y,z
-x,-y,1/2+z
x,1/2-y,-z
-x,1/2+y,1/2-z
-x,-y,-z
x,y,1/2-z
-x,1/2+y,z
x,1/2-y,1/2+z
loop_
_atom_site_type_symbol
_atom_site_label
_atom_site_fract_x
_atom_site_fract_y
_atom_site_fract_z
Si Si1 0.327731 0.596521 0.570516
Si Si2 0.248066 0.045466 0.929066
Si Si3 0.492723 0.580547 0.070295
Si Si4 0.919187 0.468975 0.570977
Si Si5 0.839184 0.172022 0.929643
Si Si6 0.654213 0.829861 0.569948
O O1 0.337092 0.591091 0.750000
O O2 0.300630 0.518318 0.505317
O O3 0.411846 0.616112 0.495039
O O4 0.253659 0.650296 0.536961
O O5 0.262183 0.045265 0.750000
O O6 0.155706 0.023542 0.956550
O O7 0.275149 0.121129 0.000372
O O8 0.486932 0.573900 0.250000
O O9 0.571111 0.628018 0.033800
O O10 0.500000 0.500000 0.000000
O O11 0.927780 0.460513 0.750000
O O12 0.893115 0.392204 0.498703
O O13 0.000000 0.500000 0.500000
O O14 0.848585 0.173286 0.750000
O O15 0.857740 0.250000 0.000000
O O16 0.653483 0.750000 0.500000
O O17 0.661735 0.826400 0.750000
#
# Coordination Sequence:
#
# PCOD9436937 Si02
#       6
#     8   8   8   8   8   8
#     4  10  20  34  55  82 111 148 191 232 280 336
#     4  10  20  36  59  83 110 145 185 229 277 335
#     4  11  22  35  55  81 111 150 195 240 285 336
#     4  10  21  38  62  91 118 149 189 231 281 343
#     4  10  21  37  58  85 119 154 189 236 289 341
#     4  11  24  39  56  80 112 150 192 238 288 334
#
# _framework density 17.656506
#
# number of rings (size 3 to 8) (size 9 to 14) (size 15 to 20)
#    0.000    1.667    1.667    3.000    0.000    6.667 
#    0.000    4.167    0.000    4.000    0.000    0.000 
#    0.000    0.000    0.000    0.000    0.000    0.000 
#
# Total GULP energy -268187.603130 kJ/mol
# GULP energy per Si atom -5587.241732 kJ/mol
# Density = 1.761632 g / cm^3
# Si number density = 17.656506 Si / 1000 Ang^3
#
#
#
# Elastic Constant Matrix: (Units=GPa)
#
#
# Indices 1 2 3 4 5 6 
#
# 1 119.9586 74.7973 69.1477 0.0000 0.0000 0.0000
# 2 74.7973 151.8673 72.3686 0.0000 0.0000 0.0000
# 3 69.1477 72.3686 81.9832 0.0000 0.0000 0.0000
# 4 0.0000 0.0000 0.0000 30.9995 0.0000 0.0000
# 5 0.0000 0.0000 0.0000 0.0000 32.6066 0.0000
# 6 0.0000 0.0000 0.0000 0.0000 0.0000 18.8440
#
#
#
# Elastic Compliance Matrix: (Units=1/GPa)
#
#
# Indices 1 2 3 4 5 6 
#
# 1 0.016811 -0.002629 -0.011858 0.000000 0.000000 0.000000
# 2 -0.002629 0.011777 -0.008178 0.000000 0.000000 0.000000
# 3 -0.011858 -0.008178 0.029419 0.000000 0.000000 0.000000
# 4 0.000000 0.000000 0.000000 0.032259 0.000000 0.000000
# 5 0.000000 0.000000 0.000000 0.000000 0.030669 0.000000
# 6 0.000000 0.000000 0.000000 0.000000 0.000000 0.053067
#
#
# Mechanical properties :
#
#
# Convention : Reuss Voigt Hill
#
# Bulk Modulus (GPa) = 78.89471 87.38179 83.13825
# Shear Modulus (GPa) = 22.36571 25.65638 24.01104
#
# Velocity S-wave (km/s) = 3.56295 3.81607 3.69168
# Velocity P-wave (km/s) = 7.85533 8.30745 8.08455
#
# Compressibility (1/GPa) = 0.01267512
#
# Stress axis : x y z
#
# Youngs Moduli (GPa) = 59.48525 84.91443 33.99218
#
# Poissons Ratio (x) = 0.22323 0.40309
# Poissons Ratio (y) = 0.15638 0.27799
# Poissons Ratio (z) = 0.70540 0.69445
#
# Static dielectric constant tensor:
#      x y z
#    x 1.599810 0.000000 0.000000 
#    y 0.000000 1.576490 0.000000 
#    z 0.000000 0.000000 1.584690 
# 
# From -- ./inp_files/4717.got.cif
#   From: 2010.05.17/outbox.cif.g08.bks.cpg/sg57_3_cif.got.tgz:4717.got - 2010.06.03 13:58:18.
