data_PCOD9436991
_publ_section_title
;
Structure prediction by ZEFSAII (Michael W. Deem and Ramdas Pophale) SiO2 
 PCOD9436991
Probable space group: P B C M
;
_chemical_formula_sum "Si O2"
_cell_formula_units_Z 64
_cell_length_a 10.529525
_cell_length_b 22.799775
_cell_length_c 13.722918
_cell_angle_alpha 90.000000
_cell_angle_beta 90.000000
_cell_angle_gamma 90.000000
_cell_volume 3294.471914
_symmetry_space_group_name_H-M "P B C M"
_symmetry_group_IT_number 57
_symmetry_cell_setting 'orthorhombic'
loop_
_space_group_symop_operation_xyz
x,y,z
-x,-y,1/2+z
x,1/2-y,-z
-x,1/2+y,1/2-z
-x,-y,-z
x,y,1/2-z
-x,1/2+y,z
x,1/2-y,1/2+z
loop_
_atom_site_type_symbol
_atom_site_label
_atom_site_fract_x
_atom_site_fract_y
_atom_site_fract_z
Si Si1 0.862941 0.722474 0.867418
Si Si2 0.754209 0.115011 0.364492
Si Si3 0.628508 0.861442 0.368597
Si Si4 0.024078 0.435777 0.037772
Si Si5 0.379100 0.685055 0.969563
Si Si6 0.950352 0.647379 0.134897
Si Si7 0.124225 0.656990 0.865940
Si Si8 0.743733 0.521693 0.637709
O O1 0.857419 0.721618 0.750000
O O2 0.740659 0.684453 0.899410
O O3 0.883758 0.790991 0.892129
O O4 0.995937 0.691663 0.893755
O O5 0.720043 0.118382 0.250000
O O6 0.657833 0.148217 0.434593
O O7 0.894557 0.145160 0.371722
O O8 0.756888 0.045884 0.394717
O O9 0.628825 0.861819 0.250000
O O10 0.493994 0.841573 0.408988
O O11 0.652179 0.928339 0.405312
O O12 0.122399 0.444813 0.125542
O O13 0.900082 0.404488 0.080354
O O14 0.000000 0.500000 0.000000
O O15 0.083956 0.400297 0.946880
O O16 0.250520 0.686498 0.905697
O O17 0.415058 0.750000 0.000000
O O18 0.922263 0.634469 0.250000
O O19 0.129550 0.651303 0.750000
O O20 0.709515 0.516246 0.750000
#
# Coordination Sequence:
#
# PCOD9436991 Si02
#       8
#     8   8   8   8   8   8   8   8
#     4   9  19  37  61  88 118 158 202 247 306 372
#     4  10  21  40  62  88 122 165 213 261 311 372
#     4  10  22  41  63  90 123 163 206 253 314 382
#     4  12  21  33  57  91 127 157 202 254 312 371
#     4  12  25  40  60  92 125 165 208 262 321 370
#     4  10  20  34  56  86 125 161 201 254 308 365
#     4  11  22  38  62  91 121 158 205 260 311 368
#     4  10  20  39  64  89 123 166 210 257 315 381
#
# _framework density 19.426483000000001
#
# number of rings (size 3 to 8) (size 9 to 14) (size 15 to 20)
#    0.000    1.500    3.750    1.500    0.000    4.000 
#    0.000    0.000    0.000    0.750    0.000    0.000 
#    0.000    0.000    0.000    0.000    0.000    0.000 
#
# Total GULP energy -356821.661891 kJ/mol
# GULP energy per Si atom -5575.338467 kJ/mol
# Density = 1.938227 g / cm^3
# Si number density = 19.426483 Si / 1000 Ang^3
#
#
#
# Elastic Constant Matrix: (Units=GPa)
#
#
# Indices 1 2 3 4 5 6 
#
# 1 50.1332 -6.4044 7.8646 0.0000 0.0000 0.0000
# 2 -6.4044 75.9461 21.2690 0.0000 0.0000 0.0000
# 3 7.8646 21.2690 74.7089 0.0000 0.0000 0.0000
# 4 0.0000 0.0000 0.0000 28.9319 0.0000 0.0000
# 5 0.0000 0.0000 0.0000 0.0000 23.0106 0.0000
# 6 0.0000 0.0000 0.0000 0.0000 0.0000 18.0702
#
#
#
# Elastic Compliance Matrix: (Units=1/GPa)
#
#
# Indices 1 2 3 4 5 6 
#
# 1 0.020731 0.002564 -0.002912 0.000000 0.000000 0.000000
# 2 0.002564 0.014625 -0.004434 0.000000 0.000000 0.000000
# 3 -0.002912 -0.004434 0.014954 0.000000 0.000000 0.000000
# 4 0.000000 0.000000 0.000000 0.034564 0.000000 0.000000
# 5 0.000000 0.000000 0.000000 0.000000 0.043458 0.000000
# 6 0.000000 0.000000 0.000000 0.000000 0.000000 0.055340
#
#
# Mechanical properties :
#
#
# Convention : Reuss Voigt Hill
#
# Bulk Modulus (GPa) = 24.54205 27.36073 25.95139
# Shear Modulus (GPa) = 24.17581 25.87315 25.02448
#
# Velocity S-wave (km/s) = 3.53154 3.65341 3.59299
# Velocity P-wave (km/s) = 5.41200 5.64901 5.53178
#
# Compressibility (1/GPa) = 0.04074640
#
# Stress axis : x y z
#
# Youngs Moduli (GPa) = 48.23639 68.37576 66.87148
#
# Poissons Ratio (x) = -0.17530 0.19475
# Poissons Ratio (y) = -0.12367 0.29648
# Poissons Ratio (z) = 0.14048 0.30315
#
# Static dielectric constant tensor:
#      x y z
#    x 2.277720 0.000000 0.000000 
#    y 0.000000 1.726580 0.000000 
#    z 0.000000 0.000000 1.711310 
# 
# From -- ./inp_files/16998.got.cif
#   From: 2010.05.17/outbox.cif.g08.bks.cpg/sg57_9_cif.got.tgz:16998.got - 2010.06.03 13:58:18.
