data_PCOD9436603
_publ_section_title
;
Structure prediction by ZEFSAII (Michael W. Deem and Ramdas Pophale) SiO2 
 PCOD9436603
Probable space group: P B C M
;
_chemical_formula_sum "Si O2"
_cell_formula_units_Z 48
_cell_length_a 32.627663
_cell_length_b 9.240049
_cell_length_c 8.710364
_cell_angle_alpha 90.000000
_cell_angle_beta 90.000000
_cell_angle_gamma 90.000000
_cell_volume 2626.011034
_symmetry_space_group_name_H-M "P B C M"
_symmetry_group_IT_number 57
_symmetry_cell_setting 'orthorhombic'
loop_
_space_group_symop_operation_xyz
x,y,z
-x,-y,1/2+z
x,1/2-y,-z
-x,1/2+y,1/2-z
-x,-y,-z
x,y,1/2-z
-x,1/2+y,z
x,1/2-y,1/2+z
loop_
_atom_site_type_symbol
_atom_site_label
_atom_site_fract_x
_atom_site_fract_y
_atom_site_fract_z
Si Si1 0.461622 0.911573 0.065380
Si Si2 0.210694 0.913571 0.433714
Si Si3 0.962145 0.411912 0.566068
Si Si4 0.380394 0.410577 0.935180
Si Si5 0.872084 0.413643 0.566424
Si Si6 0.300980 0.912375 0.064751
O O1 0.464009 0.907023 0.250000
O O2 0.419660 0.993277 0.020952
O O3 0.461792 0.750000 0.000000
O O4 0.500000 0.000000 0.000000
O O5 0.211566 0.750000 0.500000
O O6 0.207352 0.907781 0.250000
O O7 0.169303 0.983674 0.500019
O O8 0.255688 0.972898 0.475917
O O9 0.963881 0.250000 0.500000
O O10 0.964702 0.406210 0.750000
O O11 0.916944 0.475607 0.526205
O O12 0.000000 0.500000 0.500000
O O13 0.379581 0.403121 0.750000
O O14 0.338510 0.488328 0.987351
O O15 0.383934 0.250000 0.000000
O O16 0.873019 0.250000 0.500000
O O17 0.868667 0.406502 0.750000
O O18 0.302413 0.902378 0.250000
O O19 0.305153 0.750000 0.000000
#
# Coordination Sequence:
#
# PCOD9436603 Si02
#       6
#     8   8   8   8   8   8
#     4  11  23  39  60  85 113 144 179 220 265 313
#     4   9  15  24  42  67  95 124 156 199 248 296
#     4  10  20  33  50  72  99 131 167 209 255 305
#     4  10  22  38  55  77 106 140 177 216 257 304
#     4   9  16  26  42  66  95 125 160 201 246 297
#     4   9  18  32  50  75 103 130 165 207 252 301
#
# _framework density 18.278673999999999
#
# number of rings (size 3 to 8) (size 9 to 14) (size 15 to 20)
#    0.000    2.333    0.000    4.000    0.000    6.000 
#    0.000    0.000    0.000    1.000    0.000    4.667 
#    0.000    0.000    0.000    0.000    0.000    0.000 
#
# Total GULP energy -267605.061701 kJ/mol
# GULP energy per Si atom -5575.105452 kJ/mol
# Density = 1.823707 g / cm^3
# Si number density = 18.278674 Si / 1000 Ang^3
#
#
#
# Elastic Constant Matrix: (Units=GPa)
#
#
# Indices 1 2 3 4 5 6 
#
# 1 234.8980 81.3402 61.5277 0.0000 0.0000 0.0000
# 2 81.3402 84.6851 24.8369 0.0000 0.0000 0.0000
# 3 61.5277 24.8369 48.5070 0.0000 0.0000 0.0000
# 4 0.0000 0.0000 0.0000 25.0413 0.0000 0.0000
# 5 0.0000 0.0000 0.0000 0.0000 28.7647 0.0000
# 6 0.0000 0.0000 0.0000 0.0000 0.0000 24.9696
#
#
#
# Elastic Compliance Matrix: (Units=1/GPa)
#
#
# Indices 1 2 3 4 5 6 
#
# 1 0.008174 -0.005660 -0.007470 0.000000 0.000000 0.000000
# 2 -0.005660 0.017815 -0.001942 0.000000 0.000000 0.000000
# 3 -0.007470 -0.001942 0.031085 0.000000 0.000000 0.000000
# 4 0.000000 0.000000 0.000000 0.039934 0.000000 0.000000
# 5 0.000000 0.000000 0.000000 0.000000 0.034765 0.000000
# 6 0.000000 0.000000 0.000000 0.000000 0.000000 0.040049
#
#
# Mechanical properties :
#
#
# Convention : Reuss Voigt Hill
#
# Bulk Modulus (GPa) = 37.13427 78.16663 57.65045
# Shear Modulus (GPa) = 23.70335 29.11414 26.40875
#
# Velocity S-wave (km/s) = 3.60498 3.99531 3.80516
# Velocity P-wave (km/s) = 6.13902 8.00875 7.13539
#
# Compressibility (1/GPa) = 0.02692931
#
# Stress axis : x y z
#
# Youngs Moduli (GPa) = 122.34379 56.13373 32.17020
#
# Poissons Ratio (x) = 0.31772 0.24030
# Poissons Ratio (y) = 0.69248 0.06248
# Poissons Ratio (z) = 0.91386 0.10902
#
# Static dielectric constant tensor:
#      x y z
#    x 1.695390 0.000000 0.000000 
#    y 0.000000 1.588070 0.000000 
#    z 0.000000 0.000000 1.616710 
# 
# From -- ./inp_files/10088.got.cif
#   From: 2010.05.17/outbox.cif.g08.bks.cpg/sg57_6_cif.got.tgz:10088.got - 2010.06.03 13:58:18.
