data_PCOD9436297
_publ_section_title
;
Structure prediction by ZEFSAII (Michael W. Deem and Ramdas Pophale) SiO2 
 PCOD9436297
Probable space group: P B C M
;
_chemical_formula_sum "Si O2"
_cell_formula_units_Z 40
_cell_length_a 9.855049
_cell_length_b 13.797604
_cell_length_c 15.025148
_cell_angle_alpha 90.000000
_cell_angle_beta 90.000000
_cell_angle_gamma 90.000000
_cell_volume 2043.060479
_symmetry_space_group_name_H-M "P B C M"
_symmetry_group_IT_number 57
_symmetry_cell_setting 'orthorhombic'
loop_
_space_group_symop_operation_xyz
x,y,z
-x,-y,1/2+z
x,1/2-y,-z
-x,1/2+y,1/2-z
-x,-y,-z
x,y,1/2-z
-x,1/2+y,z
x,1/2-y,1/2+z
loop_
_atom_site_type_symbol
_atom_site_label
_atom_site_fract_x
_atom_site_fract_y
_atom_site_fract_z
Si Si1 0.251504 0.159098 0.564482
Si Si2 0.220049 0.822780 0.651380
Si Si3 0.038317 0.865199 0.353297
Si Si4 0.541662 0.193551 0.593747
Si Si5 0.749339 0.044098 0.978423
O O1 0.226011 0.250000 0.500000
O O2 0.118447 0.139224 0.621776
O O3 0.387814 0.175749 0.621854
O O4 0.277699 0.066205 0.502066
O O5 0.197266 0.864434 0.750000
O O6 0.360516 0.761808 0.650768
O O7 0.226809 0.898504 0.571219
O O8 0.106311 0.740983 0.632158
O O9 0.058972 0.889756 0.250000
O O10 0.119287 0.938293 0.417108
O O11 0.530306 0.250000 0.500000
O O12 0.624613 0.095581 0.572725
#
# Coordination Sequence:
#
# PCOD9436297 Si02
#       5
#     8   8   8   8   8
#     4  11  21  34  53  80 112 145 178 226 280 326
#     4   9  18  35  58  80 105 141 184 225 267 325
#     4  10  21  36  55  80 108 141 183 229 277 327
#     4   8  17  33  55  79 105 138 176 217 268 324
#     4  10  19  36  58  79 106 147 188 221 266 332
#
# _framework density 19.578469999999999
#
# number of rings (size 3 to 8) (size 9 to 14) (size 15 to 20)
#    0.000    2.400    0.000    4.200    0.000    1.600 
#    0.000    3.000    0.000   16.800    0.000    0.000 
#    0.000    0.000    0.000    0.000    0.000    0.000 
#
# Total GULP energy -223272.784989 kJ/mol
# GULP energy per Si atom -5581.819625 kJ/mol
# Density = 1.953391 g / cm^3
# Si number density = 19.578470 Si / 1000 Ang^3
#
#
#
# Elastic Constant Matrix: (Units=GPa)
#
#
# Indices 1 2 3 4 5 6 
#
# 1 130.8835 3.3019 6.9209 0.0000 0.0000 0.0000
# 2 3.3019 76.3594 17.9135 0.0000 0.0000 0.0000
# 3 6.9209 17.9135 63.7036 0.0000 0.0000 0.0000
# 4 0.0000 0.0000 0.0000 9.7042 0.0000 0.0000
# 5 0.0000 0.0000 0.0000 0.0000 -19.2993 0.0000
# 6 0.0000 0.0000 0.0000 0.0000 0.0000 -3.3851
#
#
#
# Elastic Compliance Matrix: (Units=1/GPa)
#
#
# Indices 1 2 3 4 5 6 
#
# 1 0.007686 -0.000146 -0.000794 0.000000 0.000000 0.000000
# 2 -0.000146 0.014024 -0.003928 0.000000 0.000000 0.000000
# 3 -0.000794 -0.003928 0.016888 0.000000 0.000000 0.000000
# 4 0.000000 0.000000 0.000000 0.103048 0.000000 0.000000
# 5 0.000000 0.000000 0.000000 0.000000 -0.051815 0.000000
# 6 0.000000 0.000000 0.000000 0.000000 0.000000 -0.295413
#
#
# Mechanical properties :
#
#
# Convention : Reuss Voigt Hill
#
# Bulk Modulus (GPa) = 34.64660 36.35765 35.50213
# Shear Modulus (GPa) = -26.84908 13.59130 -6.62889
#
# Velocity S-wave (km/s) = -3.70720 2.63762 -1.84205
# Velocity P-wave (km/s) = 0.76796 5.28077 3.69437
#
# Compressibility (1/GPa) = 0.02886286
#
# Stress axis : x y z
#
# Youngs Moduli (GPa) = 130.10578 71.30799 59.21222
#
# Poissons Ratio (x) = 0.01042 0.04701
# Poissons Ratio (y) = 0.01901 0.23256
# Poissons Ratio (z) = 0.10330 0.28007
#
# Static dielectric constant tensor:
#      x y z
#    x 1.718630 0.000000 0.000000 
#    y 0.000000 1.668270 0.000000 
#    z 0.000000 0.000000 1.700880 
# 
# From -- ./inp_files/15910.got.cif
#   From: 2010.05.17/outbox.cif.g08.bks.cpg/sg57_8_cif.got.tgz:15910.got - 2010.06.03 13:58:18.
