data_PCOD9436143
_publ_section_title
;
Structure prediction by ZEFSAII (Michael W. Deem and Ramdas Pophale) SiO2 
 PCOD9436143
Probable space group: P B C M
;
_chemical_formula_sum "Si O2"
_cell_formula_units_Z 64
_cell_length_a 12.713975
_cell_length_b 31.553725
_cell_length_c 7.788246
_cell_angle_alpha 90.000000
_cell_angle_beta 90.000000
_cell_angle_gamma 90.000000
_cell_volume 3124.436122
_symmetry_space_group_name_H-M "P B C M"
_symmetry_group_IT_number 57
_symmetry_cell_setting 'orthorhombic'
loop_
_space_group_symop_operation_xyz
x,y,z
-x,-y,1/2+z
x,1/2-y,-z
-x,1/2+y,1/2-z
-x,-y,-z
x,y,1/2-z
-x,1/2+y,z
x,1/2-y,1/2+z
loop_
_atom_site_type_symbol
_atom_site_label
_atom_site_fract_x
_atom_site_fract_y
_atom_site_fract_z
Si Si1 0.963471 0.200677 0.044734
Si Si2 0.750615 0.435268 0.550283
Si Si3 0.353985 0.111560 0.041000
Si Si4 0.122633 0.127763 0.039527
Si Si5 0.418082 0.629262 0.052637
Si Si6 0.618729 0.986503 0.545229
Si Si7 0.982014 0.049187 0.042856
Si Si8 0.726552 0.201148 0.551504
O O1 0.957952 0.198143 0.250000
O O2 0.050969 0.167394 0.983952
O O3 0.983988 0.250000 0.000000
O O4 0.847735 0.188263 0.978265
O O5 0.762605 0.422240 0.750000
O O6 0.662902 0.404336 0.470240
O O7 0.700816 0.481784 0.540553
O O8 0.867490 0.436169 0.475905
O O9 0.350054 0.114745 0.250000
O O10 0.243185 0.130062 0.979937
O O11 0.464376 0.131368 0.979981
O O12 0.361283 0.061943 0.996164
O O13 0.122430 0.128076 0.250000
O O14 0.069562 0.083118 0.986165
O O15 0.433072 0.614531 0.250000
O O16 0.355859 0.672941 0.050088
O O17 0.631990 0.989865 0.750000
O O18 0.500000 0.000000 0.500000
O O19 0.979716 0.051303 0.250000
O O20 0.000000 0.000000 0.000000
O O21 0.720343 0.250000 0.500000
O O22 0.701109 0.196115 0.750000
#
# Coordination Sequence:
#
# PCOD9436143 Si02
#       8
#     8   8   8   8   8   8   8   8
#     4  10  19  35  60  86 111 140 176 222 273 328
#     4  10  20  34  52  77 107 144 183 225 275 324
#     4   9  18  33  54  78 106 145 188 225 266 324
#     4   9  18  34  56  80 107 146 188 223 269 330
#     4  10  19  35  56  78 107 141 179 221 267 318
#     4  11  20  33  53  77 106 143 186 232 275 322
#     4  10  20  34  52  75 109 146 186 229 274 327
#     4  11  22  37  58  84 111 138 172 216 270 328
#
# _framework density 20.483695000000001
#
# number of rings (size 3 to 8) (size 9 to 14) (size 15 to 20)
#    0.000    2.000    1.250    4.125    0.000    4.000 
#    0.000    3.125    0.000    6.750    0.000    0.000 
#    0.000    0.000    0.000    0.000    0.000    0.000 
#
# Total GULP energy -357329.089034 kJ/mol
# GULP energy per Si atom -5583.267016 kJ/mol
# Density = 2.043707 g / cm^3
# Si number density = 20.483695 Si / 1000 Ang^3
#
#
#
# Elastic Constant Matrix: (Units=GPa)
#
#
# Indices 1 2 3 4 5 6 
#
# 1 192.2025 76.6016 -3.7512 0.0000 0.0000 0.0000
# 2 76.6016 85.0712 -7.5658 0.0000 0.0000 0.0000
# 3 -3.7512 -7.5658 35.1130 0.0000 0.0000 0.0000
# 4 0.0000 0.0000 0.0000 23.1435 0.0000 0.0000
# 5 0.0000 0.0000 0.0000 0.0000 9.4670 0.0000
# 6 0.0000 0.0000 0.0000 0.0000 0.0000 29.3812
#
#
#
# Elastic Compliance Matrix: (Units=1/GPa)
#
#
# Indices 1 2 3 4 5 6 
#
# 1 0.008133 -0.007388 -0.000723 0.000000 0.000000 0.000000
# 2 -0.007388 0.018695 0.003239 0.000000 0.000000 0.000000
# 3 -0.000723 0.003239 0.029100 0.000000 0.000000 0.000000
# 4 0.000000 0.000000 0.000000 0.043209 0.000000 0.000000
# 5 0.000000 0.000000 0.000000 0.000000 0.105630 0.000000
# 6 0.000000 0.000000 0.000000 0.000000 0.000000 0.034035
#
#
# Mechanical properties :
#
#
# Convention : Reuss Voigt Hill
#
# Bulk Modulus (GPa) = 21.65202 49.21734 35.43468
# Shear Modulus (GPa) = 18.94365 28.87181 23.90773
#
# Velocity S-wave (km/s) = 3.04438 3.75841 3.42008
# Velocity P-wave (km/s) = 4.79072 6.55087 5.73868
#
# Compressibility (1/GPa) = 0.04618507
#
# Stress axis : x y z
#
# Youngs Moduli (GPa) = 122.95507 53.49007 34.36408
#
# Poissons Ratio (x) = 0.39517 0.02484
# Poissons Ratio (y) = 0.90835 -0.11130
# Poissons Ratio (z) = 0.08889 -0.17325
#
# Static dielectric constant tensor:
#      x y z
#    x 1.741380 0.000000 0.000000 
#    y 0.000000 1.758360 0.000000 
#    z 0.000000 0.000000 1.769630 
# 
# From -- ./inp_files/3885.got.cif
#   From: 2010.05.17/outbox.cif.g08.bks.cpg/sg57_2_cif.got.tgz:3885.got - 2010.06.03 13:58:18.
