data_PCOD9436715
_publ_section_title
;
Structure prediction by ZEFSAII (Michael W. Deem and Ramdas Pophale) SiO2 
 PCOD9436715
Probable space group: P B C M
;
_chemical_formula_sum "Si O2"
_cell_formula_units_Z 64
_cell_length_a 23.645678
_cell_length_b 7.995285
_cell_length_c 15.525397
_cell_angle_alpha 90.000000
_cell_angle_beta 90.000000
_cell_angle_gamma 90.000000
_cell_volume 2935.137390
_symmetry_space_group_name_H-M "P B C M"
_symmetry_group_IT_number 57
_symmetry_cell_setting 'orthorhombic'
loop_
_space_group_symop_operation_xyz
x,y,z
-x,-y,1/2+z
x,1/2-y,-z
-x,1/2+y,1/2-z
-x,-y,-z
x,y,1/2-z
-x,1/2+y,z
x,1/2-y,1/2+z
loop_
_atom_site_type_symbol
_atom_site_label
_atom_site_fract_x
_atom_site_fract_y
_atom_site_fract_z
Si Si1 0.433809 0.376672 0.155155
Si Si2 0.860682 0.845549 0.854191
Si Si3 0.679190 0.437325 0.605747
Si Si4 0.061253 0.038051 0.855283
Si Si5 0.462194 0.026831 0.415032
Si Si6 0.336675 0.578081 0.903007
Si Si7 0.935334 0.156828 0.644705
Si Si8 0.267093 0.268221 0.897278
O O1 0.419425 0.315502 0.250000
O O2 0.383599 0.493677 0.123153
O O3 0.492432 0.476503 0.156229
O O4 0.442562 0.216376 0.095676
O O5 0.863583 0.846052 0.750000
O O6 0.895407 0.681703 0.884110
O O7 0.795894 0.829322 0.880446
O O8 0.890429 0.017182 0.884046
O O9 0.683835 0.423654 0.502314
O O10 0.684670 0.249240 0.639675
O O11 0.720403 0.582966 0.638680
O O12 0.062350 0.036212 0.750000
O O13 0.997903 0.093475 0.880027
O O14 0.073748 0.848264 0.884186
O O15 0.500000 0.000000 0.500000
O O16 0.404803 0.921337 0.407989
O O17 0.311419 0.407526 0.864591
O O18 0.934253 0.159468 0.750000
O O19 0.275637 0.250000 0.000000
#
# Coordination Sequence:
#
# PCOD9436715 Si02
#       8
#     8   8   8   8   8   8   8   8
#     4  12  25  40  59  94 136 159 187 255 333 377
#     4  10  20  33  54  85 115 149 195 242 295 354
#     4  10  21  40  64  87 112 154 206 251 297 360
#     4   9  15  26  48  80 116 148 186 238 290 344
#     4  12  23  38  65  94 121 160 212 255 299 382
#     4  10  21  40  65  91 110 149 212 260 290 352
#     4   9  15  26  48  81 116 147 185 238 292 345
#     4  10  22  41  60  81 118 158 204 247 295 359
#
# _framework density 21.804770000000001
#
# number of rings (size 3 to 8) (size 9 to 14) (size 15 to 20)
#    0.000    1.750    3.750    1.500    1.750    1.500 
#    0.000    1.250    0.000    0.750    0.000    0.000 
#    0.000    0.000    0.000    0.000    0.000    0.000 
#
# Total GULP energy -357438.933395 kJ/mol
# GULP energy per Si atom -5584.983334 kJ/mol
# Density = 2.175514 g / cm^3
# Si number density = 21.804770 Si / 1000 Ang^3
#
#
#
# Elastic Constant Matrix: (Units=GPa)
#
#
# Indices 1 2 3 4 5 6 
#
# 1 98.8469 55.3829 -5.5287 0.0000 0.0000 0.0000
# 2 55.3829 170.1752 30.4873 0.0000 0.0000 0.0000
# 3 -5.5287 30.4873 39.2029 0.0000 0.0000 0.0000
# 4 0.0000 0.0000 0.0000 3.4930 0.0000 0.0000
# 5 0.0000 0.0000 0.0000 0.0000 18.1431 0.0000
# 6 0.0000 0.0000 0.0000 0.0000 0.0000 39.9186
#
#
#
# Elastic Compliance Matrix: (Units=1/GPa)
#
#
# Indices 1 2 3 4 5 6 
#
# 1 0.013560 -0.005525 0.006209 0.000000 0.000000 0.000000
# 2 -0.005525 0.009079 -0.007840 0.000000 0.000000 0.000000
# 3 0.006209 -0.007840 0.032481 0.000000 0.000000 0.000000
# 4 0.000000 0.000000 0.000000 0.286284 0.000000 0.000000
# 5 0.000000 0.000000 0.000000 0.000000 0.055117 0.000000
# 6 0.000000 0.000000 0.000000 0.000000 0.000000 0.025051
#
#
# Mechanical properties :
#
#
# Convention : Reuss Voigt Hill
#
# Bulk Modulus (GPa) = 24.50509 52.10088 38.30298
# Shear Modulus (GPa) = 11.12381 27.50319 19.31350
#
# Velocity S-wave (km/s) = 2.26111 3.55539 2.97938
# Velocity P-wave (km/s) = 4.25202 6.38753 5.42587
#
# Compressibility (1/GPa) = 0.04080784
#
# Stress axis : x y z
#
# Youngs Moduli (GPa) = 73.74760 110.14387 30.78734
#
# Poissons Ratio (x) = 0.60859 -0.19117
# Poissons Ratio (y) = 0.40748 0.24137
# Poissons Ratio (z) = -0.45792 0.86351
#
# Static dielectric constant tensor:
#      x y z
#    x 1.750070 0.000000 0.000000 
#    y 0.000000 1.830460 0.000000 
#    z 0.000000 0.000000 1.797900 
# 
# From -- ./inp_files/23136.got.cif
#   From: 2010.05.17/outbox.cif.g08.bks.cpg/sg57_12_cif.got.tgz:23136.got - 2010.06.03 13:58:18.
