data_PCOD9436479
_publ_section_title
;
Structure prediction by ZEFSAII (Michael W. Deem and Ramdas Pophale) SiO2 
 PCOD9436479
Probable space group: P B C M
;
_chemical_formula_sum "Si O2"
_cell_formula_units_Z 52
_cell_length_a 11.815369
_cell_length_b 8.547303
_cell_length_c 26.355202
_cell_angle_alpha 90.000000
_cell_angle_beta 90.000000
_cell_angle_gamma 90.000000
_cell_volume 2661.599698
_symmetry_space_group_name_H-M "P B C M"
_symmetry_group_IT_number 57
_symmetry_cell_setting 'orthorhombic'
loop_
_space_group_symop_operation_xyz
x,y,z
-x,-y,1/2+z
x,1/2-y,-z
-x,1/2+y,1/2-z
-x,-y,-z
x,y,1/2-z
-x,1/2+y,z
x,1/2-y,1/2+z
loop_
_atom_site_type_symbol
_atom_site_label
_atom_site_fract_x
_atom_site_fract_y
_atom_site_fract_z
Si Si1 0.019425 0.358136 0.750000
Si Si2 0.866069 0.522443 0.353748
Si Si3 0.673732 0.161562 0.809680
Si Si4 0.258187 0.158996 0.642295
Si Si5 0.551120 0.002699 0.310608
Si Si6 0.845004 0.925944 0.250000
Si Si7 0.083211 0.501938 0.072721
Si Si8 0.013193 0.750000 0.000000
O O1 0.078714 0.421800 0.800670
O O2 0.039873 0.173983 0.750000
O O3 0.887774 0.398671 0.750000
O O4 0.784978 0.375031 0.342598
O O5 0.786798 0.668285 0.370831
O O6 0.970828 0.497939 0.391731
O O7 0.701965 0.153135 0.750000
O O8 0.582536 0.021505 0.818529
O O9 0.608867 0.326961 0.817933
O O10 0.388668 0.116485 0.650144
O O11 0.216760 0.120077 0.699321
O O12 0.191520 0.041824 0.605537
O O13 0.566997 0.964219 0.250000
O O14 0.064256 0.373946 0.029042
O O15 0.085944 0.664751 0.043090
#
# Coordination Sequence:
#
# PCOD9436479 Si02
#       8
#     4   8   8   8   8   4   8   4
#     4  10  20  30  45  76 119 148 181 217 265 327
#     4  11  21  34  54  83 114 155 187 227 273 341
#     4  10  21  35  53  79 117 159 194 227 265 320
#     4  11  21  34  54  83 114 155 187 227 273 341
#     4  10  21  35  53  79 117 159 194 227 265 320
#     4  10  20  30  45  76 119 148 181 217 265 327
#     4  11  22  39  60  84 112 149 188 237 296 342
#     4  10  24  42  56  80 114 142 192 246 294 344
#
# _framework density 19.537122
#
# number of rings (size 3 to 8) (size 9 to 14) (size 15 to 20)
#    0.000    1.538    4.615    0.923    2.154    2.462 
#    0.000    0.000    0.000    0.000    0.000    6.462 
#    0.000    0.000    0.000    0.000    0.000    0.000 
#
# Total GULP energy -290151.661559 kJ/mol
# GULP energy per Si atom -5579.839645 kJ/mol
# Density = 1.949265 g / cm^3
# Si number density = 19.537122 Si / 1000 Ang^3
#
#
#
# Elastic Constant Matrix: (Units=GPa)
#
#
# Indices 1 2 3 4 5 6 
#
# 1 66.8501 10.8818 18.4380 0.0000 0.0000 0.0000
# 2 10.8818 42.7046 6.4112 0.0000 0.0000 0.0000
# 3 18.4380 6.4112 61.4042 0.0000 0.0000 0.0000
# 4 0.0000 0.0000 0.0000 28.0506 0.0000 0.0000
# 5 0.0000 0.0000 0.0000 0.0000 -29.6522 0.0000
# 6 0.0000 0.0000 0.0000 0.0000 0.0000 30.9837
#
#
#
# Elastic Compliance Matrix: (Units=1/GPa)
#
#
# Indices 1 2 3 4 5 6 
#
# 1 0.016834 -0.003587 -0.004680 0.000000 0.000000 0.000000
# 2 -0.003587 0.024554 -0.001487 0.000000 0.000000 0.000000
# 3 -0.004680 -0.001487 0.017846 0.000000 0.000000 0.000000
# 4 0.000000 0.000000 0.000000 0.035650 0.000000 0.000000
# 5 0.000000 0.000000 0.000000 0.000000 -0.033724 0.000000
# 6 0.000000 0.000000 0.000000 0.000000 0.000000 0.032275
#
#
# Mechanical properties :
#
#
# Convention : Reuss Voigt Hill
#
# Bulk Modulus (GPa) = 25.17230 26.93567 26.05398
# Shear Modulus (GPa) = 39.62491 14.89163 27.25827
#
# Velocity S-wave (km/s) = 4.50842 2.76383 3.73930
# Velocity P-wave (km/s) = 6.32562 4.89917 5.65753
#
# Compressibility (1/GPa) = 0.03972621
#
# Stress axis : x y z
#
# Youngs Moduli (GPa) = 59.40522 40.72686 56.03476
#
# Poissons Ratio (x) = 0.14608 0.26225
# Poissons Ratio (y) = 0.21308 0.08330
# Poissons Ratio (z) = 0.27803 0.06055
#
# Static dielectric constant tensor:
#      x y z
#    x 1.729410 0.000000 0.000000 
#    y 0.000000 1.772900 0.000000 
#    z 0.000000 0.000000 1.645520 
# 
# From -- ./inp_files/28589.got.cif
#   From: 2010.05.17/outbox.cif.g08.bks.cpg/sg57_15_cif.got.tgz:28589.got - 2010.06.03 13:58:18.
