data_PCOD9436998
_publ_section_title
;
Structure prediction by ZEFSAII (Michael W. Deem and Ramdas Pophale) SiO2 
 PCOD9436998
Probable space group: P B C M
;
_chemical_formula_sum "Si O2"
_cell_formula_units_Z 64
_cell_length_a 24.268653
_cell_length_b 15.038659
_cell_length_c 9.116734
_cell_angle_alpha 90.000000
_cell_angle_beta 90.000000
_cell_angle_gamma 90.000000
_cell_volume 3327.316146
_symmetry_space_group_name_H-M "P B C M"
_symmetry_group_IT_number 57
_symmetry_cell_setting 'orthorhombic'
loop_
_space_group_symop_operation_xyz
x,y,z
-x,-y,1/2+z
x,1/2-y,-z
-x,1/2+y,1/2-z
-x,-y,-z
x,y,1/2-z
-x,1/2+y,z
x,1/2-y,1/2+z
loop_
_atom_site_type_symbol
_atom_site_label
_atom_site_fract_x
_atom_site_fract_y
_atom_site_fract_z
Si Si1 0.537802 0.343591 0.425750
Si Si2 0.409480 0.343780 0.424838
Si Si3 0.247838 0.974576 0.075666
Si Si4 0.894259 0.836606 0.416214
Si Si5 0.370175 0.516402 0.575317
Si Si6 0.237798 0.162877 0.584679
Si Si7 0.147827 0.846217 0.426538
Si Si8 0.940594 0.493503 0.074341
O O1 0.551349 0.250000 0.500000
O O2 0.542044 0.334561 0.250000
O O3 0.474001 0.364307 0.460261
O O4 0.580389 0.419361 0.472627
O O5 0.396512 0.250000 0.500000
O O6 0.404078 0.337379 0.250000
O O7 0.374379 0.423799 0.490483
O O8 0.239701 0.988714 0.250000
O O9 0.310114 0.940592 0.052394
O O10 0.200454 0.906405 0.026738
O O11 0.245309 0.070016 0.998051
O O12 0.916616 0.750000 0.500000
O O13 0.916259 0.844151 0.250000
O O14 0.828445 0.826365 0.405433
O O15 0.906722 0.923628 0.510112
O O16 0.375976 0.499480 0.750000
O O17 0.259186 0.250000 0.500000
O O18 0.260218 0.159352 0.750000
O O19 0.147866 0.750000 0.500000
O O20 0.150617 0.836344 0.250000
O O21 0.093227 0.903831 0.461303
O O22 0.944757 0.499941 0.250000
O O23 0.000000 0.500000 0.000000
#
# Coordination Sequence:
#
# PCOD9436998 Si02
#       8
#     8   8   8   8   8   8   8   8
#     4   9  19  35  55  81 111 147 189 237 291 344
#     4  10  20  35  56  81 113 150 191 236 288 349
#     4  10  21  39  59  82 115 153 192 237 288 342
#     4  10  20  35  58  87 116 148 185 229 283 340
#     4  10  21  36  56  82 114 149 189 238 290 342
#     4  10  20  34  57  85 112 145 185 230 280 341
#     4  10  23  42  64  87 116 155 196 237 286 338
#     4  11  23  40  62  89 122 156 194 242 290 343
#
# _framework density 19.234722000000001
#
# number of rings (size 3 to 8) (size 9 to 14) (size 15 to 20)
#    0.000    2.000    1.250    1.875    0.000    5.500 
#    0.000    1.250    0.000    0.000    0.000    0.000 
#    0.000    0.000    0.000    0.000    0.000    0.000 
#
# Total GULP energy -357382.101296 kJ/mol
# GULP energy per Si atom -5584.095333 kJ/mol
# Density = 1.919094 g / cm^3
# Si number density = 19.234722 Si / 1000 Ang^3
#
#
#
# Elastic Constant Matrix: (Units=GPa)
#
#
# Indices 1 2 3 4 5 6 
#
# 1 99.1226 58.3693 43.4322 0.0000 0.0000 0.0000
# 2 58.3693 139.8910 52.2771 0.0000 0.0000 0.0000
# 3 43.4322 52.2771 60.8766 0.0000 0.0000 0.0000
# 4 0.0000 0.0000 0.0000 38.1094 0.0000 0.0000
# 5 0.0000 0.0000 0.0000 0.0000 18.7840 0.0000
# 6 0.0000 0.0000 0.0000 0.0000 0.0000 1.1016
#
#
#
# Elastic Compliance Matrix: (Units=1/GPa)
#
#
# Indices 1 2 3 4 5 6 
#
# 1 0.015758 -0.003495 -0.008241 0.000000 0.000000 0.000000
# 2 -0.003495 0.011302 -0.007212 0.000000 0.000000 0.000000
# 3 -0.008241 -0.007212 0.028499 0.000000 0.000000 0.000000
# 4 0.000000 0.000000 0.000000 0.026240 0.000000 0.000000
# 5 0.000000 0.000000 0.000000 0.000000 0.053237 0.000000
# 6 0.000000 0.000000 0.000000 0.000000 0.000000 0.907769
#
#
# Mechanical properties :
#
#
# Convention : Reuss Voigt Hill
#
# Bulk Modulus (GPa) = 56.61512 67.56081 62.08796
# Shear Modulus (GPa) = 4.60156 21.31977 12.96067
#
# Velocity S-wave (km/s) = 1.54839 3.33288 2.59861
# Velocity P-wave (km/s) = 5.71790 7.07187 6.43062
#
# Compressibility (1/GPa) = 0.01766313
#
# Stress axis : x y z
#
# Youngs Moduli (GPa) = 63.46183 88.48164 35.08921
#
# Poissons Ratio (x) = 0.30927 0.28916
# Poissons Ratio (y) = 0.22182 0.25305
# Poissons Ratio (z) = 0.52296 0.63809
#
# Static dielectric constant tensor:
#      x y z
#    x 1.709760 0.000000 0.000000 
#    y 0.000000 1.629560 0.000000 
#    z 0.000000 0.000000 1.660840 
# 
# From -- ./inp_files/9253.got.cif
#   From: 2010.05.17/outbox.cif.g08.bks.cpg/sg57_5_cif.got.tgz:9253.got - 2010.06.03 13:58:18.
