data_PCOD9436910
_publ_section_title
;
Structure prediction by ZEFSAII (Michael W. Deem and Ramdas Pophale) SiO2 
 PCOD9436910
Probable space group: P B C M
;
_chemical_formula_sum "Si O2"
_cell_formula_units_Z 64
_cell_length_a 15.609104
_cell_length_b 23.872364
_cell_length_c 8.718414
_cell_angle_alpha 90.000000
_cell_angle_beta 90.000000
_cell_angle_gamma 90.000000
_cell_volume 3248.709587
_symmetry_space_group_name_H-M "P B C M"
_symmetry_group_IT_number 57
_symmetry_cell_setting 'orthorhombic'
loop_
_space_group_symop_operation_xyz
x,y,z
-x,-y,1/2+z
x,1/2-y,-z
-x,1/2+y,1/2-z
-x,-y,-z
x,y,1/2-z
-x,1/2+y,z
x,1/2-y,1/2+z
loop_
_atom_site_type_symbol
_atom_site_label
_atom_site_fract_x
_atom_site_fract_y
_atom_site_fract_z
Si Si1 0.369058 0.117839 0.933560
Si Si2 0.282941 0.003712 0.563960
Si Si3 0.040956 0.189592 0.572646
Si Si4 0.682081 0.119488 0.929639
Si Si5 0.211861 0.186910 0.067542
Si Si6 0.093789 0.995320 0.574939
Si Si7 0.473265 0.687292 0.067891
Si Si8 0.872211 0.383410 0.075586
O O1 0.376110 0.120705 0.750000
O O2 0.348495 0.053389 0.976022
O O3 0.287308 0.152740 0.989771
O O4 0.451574 0.146868 0.006625
O O5 0.280422 0.998176 0.750000
O O6 0.310424 0.944369 0.491804
O O7 0.184842 0.020262 0.514870
O O8 0.026380 0.250000 0.500000
O O9 0.067707 0.195004 0.750000
O O10 0.952891 0.156560 0.566812
O O11 0.119284 0.162479 0.480280
O O12 0.658553 0.118082 0.750000
O O13 0.778872 0.143210 0.942809
O O14 0.614918 0.157531 0.018394
O O15 0.221439 0.188228 0.250000
O O16 0.213476 0.250000 0.000000
O O17 0.084543 0.013933 0.750000
O O18 0.115720 0.929988 0.553291
O O19 0.000000 0.000000 0.500000
O O20 0.479090 0.691451 0.250000
O O21 0.480649 0.750000 0.000000
O O22 0.872220 0.408825 0.250000
#
# Coordination Sequence:
#
# PCOD9436910 Si02
#       8
#     8   8   8   8   8   8   8   8
#     4  11  23  41  64  90 122 160 202 253 307 364
#     4   9  21  40  61  88 123 164 207 249 304 365
#     4  10  20  35  54  79 113 152 197 244 296 354
#     4  10  21  41  66  92 124 160 202 253 307 364
#     4  11  22  37  56  82 116 156 201 248 305 366
#     4  10  20  34  54  83 117 157 201 247 295 349
#     4  12  26  45  68  95 124 157 201 252 308 372
#     4   9  20  37  57  82 115 154 195 244 296 348
#
# _framework density 19.700130999999999
#
# number of rings (size 3 to 8) (size 9 to 14) (size 15 to 20)
#    0.000    1.750    0.000    4.875    1.750    4.000 
#    0.000    1.250    0.000    0.000    0.000    0.000 
#    0.000    0.000    0.000    0.000    0.000    0.000 
#
# Total GULP energy -357195.878626 kJ/mol
# GULP energy per Si atom -5581.185604 kJ/mol
# Density = 1.965529 g / cm^3
# Si number density = 19.700131 Si / 1000 Ang^3
#
#
#
# Elastic Constant Matrix: (Units=GPa)
#
#
# Indices 1 2 3 4 5 6 
#
# 1 93.7891 11.8634 21.3770 0.0000 0.0000 0.0000
# 2 11.8634 24.0270 8.5062 0.0000 0.0000 0.0000
# 3 21.3770 8.5062 73.0261 0.0000 0.0000 0.0000
# 4 0.0000 0.0000 0.0000 28.1922 0.0000 0.0000
# 5 0.0000 0.0000 0.0000 0.0000 33.3408 0.0000
# 6 0.0000 0.0000 0.0000 0.0000 0.0000 39.0619
#
#
#
# Elastic Compliance Matrix: (Units=1/GPa)
#
#
# Indices 1 2 3 4 5 6 
#
# 1 0.011945 -0.004860 -0.002931 0.000000 0.000000 0.000000
# 2 -0.004860 0.045388 -0.003864 0.000000 0.000000 0.000000
# 3 -0.002931 -0.003864 0.015002 0.000000 0.000000 0.000000
# 4 0.000000 0.000000 0.000000 0.035471 0.000000 0.000000
# 5 0.000000 0.000000 0.000000 0.000000 0.029993 0.000000
# 6 0.000000 0.000000 0.000000 0.000000 0.000000 0.025600
#
#
# Mechanical properties :
#
#
# Convention : Reuss Voigt Hill
#
# Bulk Modulus (GPa) = 20.39803 30.48172 25.43987
# Shear Modulus (GPa) = 24.62448 30.05869 27.34159
#
# Velocity S-wave (km/s) = 3.53932 3.91040 3.72948
# Velocity P-wave (km/s) = 5.20376 5.99122 5.61132
#
# Compressibility (1/GPa) = 0.04902435
#
# Stress axis : x y z
#
# Youngs Moduli (GPa) = 83.71737 22.03246 66.65921
#
# Poissons Ratio (x) = 0.10709 0.19535
# Poissons Ratio (y) = 0.40689 0.25758
# Poissons Ratio (z) = 0.24534 0.08513
#
# Static dielectric constant tensor:
#      x y z
#    x 1.718210 0.000000 0.000000 
#    y 0.000000 1.675270 0.000000 
#    z 0.000000 0.000000 1.695080 
# 
# From -- ./inp_files/5542.got.cif
#   From: 2010.05.17/outbox.cif.g08.bks.cpg/sg57_3_cif.got.tgz:5542.got - 2010.06.03 13:58:18.
