data_PCOD9436295
_publ_section_title
;
Structure prediction by ZEFSAII (Michael W. Deem and Ramdas Pophale) SiO2 
 PCOD9436295
Probable space group: P B C M
;
_chemical_formula_sum "Si O2"
_cell_formula_units_Z 56
_cell_length_a 14.491454
_cell_length_b 8.169641
_cell_length_c 22.291881
_cell_angle_alpha 90.000000
_cell_angle_beta 90.000000
_cell_angle_gamma 90.000000
_cell_volume 2639.135273
_symmetry_space_group_name_H-M "P B C M"
_symmetry_group_IT_number 57
_symmetry_cell_setting 'orthorhombic'
loop_
_space_group_symop_operation_xyz
x,y,z
-x,-y,1/2+z
x,1/2-y,-z
-x,1/2+y,1/2-z
-x,-y,-z
x,y,1/2-z
-x,1/2+y,z
x,1/2-y,1/2+z
loop_
_atom_site_type_symbol
_atom_site_label
_atom_site_fract_x
_atom_site_fract_y
_atom_site_fract_z
Si Si1 0.606657 0.946660 0.002613
Si Si2 0.145069 0.701237 0.321266
Si Si3 0.686975 0.017122 0.131765
Si Si4 0.207229 0.302758 0.678082
Si Si5 0.362738 0.502549 0.871328
Si Si6 0.028654 0.133024 0.678530
Si Si7 0.477258 0.806025 0.819352
O O1 0.652955 0.008560 0.063562
O O2 0.613358 0.750000 0.000000
O O3 0.500000 0.000000 0.000000
O O4 0.650483 0.018284 0.942092
O O5 0.167898 0.718619 0.250000
O O6 0.238216 0.659809 0.356238
O O7 0.079958 0.539396 0.328122
O O8 0.075558 0.842196 0.343654
O O9 0.597358 0.048921 0.172418
O O10 0.736878 0.851388 0.151659
O O11 0.206984 0.293613 0.750000
O O12 0.265938 0.460333 0.659474
O O13 0.102381 0.269850 0.657425
O O14 0.419696 0.651996 0.843445
O O15 0.433776 0.351287 0.858626
O O16 0.018233 0.157678 0.750000
O O17 0.503157 0.788424 0.750000
#
# Coordination Sequence:
#
# PCOD9436295 Si02
#       7
#     8   8   8   8   8   8   8
#     4  12  24  43  62  83 113 159 214 251 289 347
#     4   9  17  33  56  88 119 154 193 241 303 359
#     4  11  22  37  60  85 119 157 200 245 293 354
#     4  10  19  36  57  85 117 153 194 244 301 356
#     4  12  24  39  57  83 116 156 202 245 294 354
#     4   8  16  29  52  80 115 150 186 232 293 361
#     4  12  24  38  57  87 120 153 188 245 310 364
#
# _framework density 21.219071
#
# number of rings (size 3 to 8) (size 9 to 14) (size 15 to 20)
#    0.000    1.429    2.857    5.143    0.000    1.143 
#    0.000    2.857    0.000    0.857    0.000    0.000 
#    0.000    0.000    0.000    0.000    0.000    0.000 
#
# Total GULP energy -313069.962673 kJ/mol
# GULP energy per Si atom -5590.535048 kJ/mol
# Density = 2.117077 g / cm^3
# Si number density = 21.219071 Si / 1000 Ang^3
#
#
#
# Elastic Constant Matrix: (Units=GPa)
#
#
# Indices 1 2 3 4 5 6 
#
# 1 96.7215 -5.9405 4.9043 0.0000 0.0000 0.0000
# 2 -5.9405 49.1907 -4.7554 0.0000 0.0000 0.0000
# 3 4.9043 -4.7554 100.3511 0.0000 0.0000 0.0000
# 4 0.0000 0.0000 0.0000 19.4142 0.0000 0.0000
# 5 0.0000 0.0000 0.0000 0.0000 9.6844 0.0000
# 6 0.0000 0.0000 0.0000 0.0000 0.0000 37.8884
#
#
#
# Elastic Compliance Matrix: (Units=1/GPa)
#
#
# Indices 1 2 3 4 5 6 
#
# 1 0.010437 0.001217 -0.000452 0.000000 0.000000 0.000000
# 2 0.001217 0.020564 0.000915 0.000000 0.000000 0.000000
# 3 -0.000452 0.000915 0.010030 0.000000 0.000000 0.000000
# 4 0.000000 0.000000 0.000000 0.051509 0.000000 0.000000
# 5 0.000000 0.000000 0.000000 0.000000 0.103259 0.000000
# 6 0.000000 0.000000 0.000000 0.000000 0.000000 0.026393
#
#
# Mechanical properties :
#
#
# Convention : Reuss Voigt Hill
#
# Bulk Modulus (GPa) = 22.52753 26.07555 24.30154
# Shear Modulus (GPa) = 21.40134 30.20106 25.80120
#
# Velocity S-wave (km/s) = 3.17928 3.77676 3.49082
# Velocity P-wave (km/s) = 4.91088 5.59767 5.26549
#
# Compressibility (1/GPa) = 0.04439013
#
# Stress axis : x y z
#
# Youngs Moduli (GPa) = 95.81640 48.62764 99.69609
#
# Poissons Ratio (x) = -0.05916 0.04510
# Poissons Ratio (y) = -0.11657 -0.09123
# Poissons Ratio (z) = 0.04335 -0.04450
#
# Static dielectric constant tensor:
#      x y z
#    x 1.761270 0.000000 0.000000 
#    y 0.000000 1.575440 0.000000 
#    z 0.000000 0.000000 1.702470 
# 
# From -- ./inp_files/25377.got.cif
#   From: 2010.05.17/outbox.cif.g08.bks.cpg/sg57_13_cif.got.tgz:25377.got - 2010.06.03 13:58:18.
