data_PCOD9436996
_publ_section_title
;
Structure prediction by ZEFSAII (Michael W. Deem and Ramdas Pophale) SiO2 
 PCOD9436996
Probable space group: P B C M
;
_chemical_formula_sum "Si O2"
_cell_formula_units_Z 64
_cell_length_a 13.856162
_cell_length_b 11.977049
_cell_length_c 18.565866
_cell_angle_alpha 90.000000
_cell_angle_beta 90.000000
_cell_angle_gamma 90.000000
_cell_volume 3081.115581
_symmetry_space_group_name_H-M "P B C M"
_symmetry_group_IT_number 57
_symmetry_cell_setting 'orthorhombic'
loop_
_space_group_symop_operation_xyz
x,y,z
-x,-y,1/2+z
x,1/2-y,-z
-x,1/2+y,1/2-z
-x,-y,-z
x,y,1/2-z
-x,1/2+y,z
x,1/2-y,1/2+z
loop_
_atom_site_type_symbol
_atom_site_label
_atom_site_fract_x
_atom_site_fract_y
_atom_site_fract_z
Si Si1 0.893531 0.761305 0.826787
Si Si2 0.461746 0.302229 0.423964
Si Si3 0.321987 0.149060 0.168481
Si Si4 0.254180 0.579740 0.596462
Si Si5 0.123113 0.418789 0.059504
Si Si6 0.063239 0.455337 0.913049
Si Si7 0.669001 0.019043 0.061018
Si Si8 0.361124 0.729061 0.336143
O O1 0.922742 0.715403 0.750000
O O2 0.779383 0.786053 0.827864
O O3 0.915683 0.674540 0.888147
O O4 0.938610 0.881371 0.842292
O O5 0.494254 0.250000 0.500000
O O6 0.385891 0.215836 0.388598
O O7 0.412489 0.422299 0.438585
O O8 0.548275 0.300387 0.366748
O O9 0.363321 0.146913 0.250000
O O10 0.298447 0.024593 0.141112
O O11 0.139327 0.556522 0.591562
O O12 0.306077 0.572512 0.517691
O O13 0.272711 0.694722 0.637191
O O14 0.229840 0.457677 0.079476
O O15 0.045314 0.517510 0.065757
O O16 0.116453 0.384153 0.976145
O O17 0.642480 0.113094 0.119519
O O18 0.364283 0.714539 0.250000
#
# Coordination Sequence:
#
# PCOD9436996 Si02
#       8
#     8   8   8   8   8   8   8   8
#     4  10  20  34  56  88 124 161 206 257 316 380
#     4  12  24  42  69  97 123 162 215 270 323 381
#     4  10  20  36  62  93 123 161 207 263 316 372
#     4  10  21  43  67  92 127 170 217 264 312 382
#     4  10  20  39  63  92 124 164 207 268 318 368
#     4   9  21  37  64  93 124 165 217 261 311 377
#     4  11  24  43  69  96 128 165 220 270 324 383
#     4  12  29  45  62  92 135 177 211 263 329 391
#
# _framework density 20.771698000000001
#
# number of rings (size 3 to 8) (size 9 to 14) (size 15 to 20)
#    0.000    1.500    2.500    2.250    1.750    4.500 
#    0.000    5.000    0.000    0.000    0.000    0.000 
#    0.000    0.000    0.000    0.000    0.000    0.000 
#
# Total GULP energy -357166.002571 kJ/mol
# GULP energy per Si atom -5580.718790 kJ/mol
# Density = 2.072442 g / cm^3
# Si number density = 20.771698 Si / 1000 Ang^3
#
#
#
# Elastic Constant Matrix: (Units=GPa)
#
#
# Indices 1 2 3 4 5 6 
#
# 1 40.1441 10.3430 9.6286 0.0000 0.0000 0.0000
# 2 10.3430 68.9565 33.9297 0.0000 0.0000 0.0000
# 3 9.6286 33.9297 119.8400 0.0000 0.0000 0.0000
# 4 0.0000 0.0000 0.0000 22.6518 0.0000 0.0000
# 5 0.0000 0.0000 0.0000 0.0000 15.5846 0.0000
# 6 0.0000 0.0000 0.0000 0.0000 0.0000 6.8160
#
#
#
# Elastic Compliance Matrix: (Units=1/GPa)
#
#
# Indices 1 2 3 4 5 6 
#
# 1 0.026046 -0.003343 -0.001146 0.000000 0.000000 0.000000
# 2 -0.003343 0.017278 -0.004623 0.000000 0.000000 0.000000
# 3 -0.001146 -0.004623 0.009746 0.000000 0.000000 0.000000
# 4 0.000000 0.000000 0.000000 0.044147 0.000000 0.000000
# 5 0.000000 0.000000 0.000000 0.000000 0.064166 0.000000
# 6 0.000000 0.000000 0.000000 0.000000 0.000000 0.146714
#
#
# Mechanical properties :
#
#
# Convention : Reuss Voigt Hill
#
# Bulk Modulus (GPa) = 28.69818 37.41592 33.05705
# Shear Modulus (GPa) = 14.79568 20.67979 17.73773
#
# Velocity S-wave (km/s) = 2.67179 3.15870 2.92539
# Velocity P-wave (km/s) = 4.83363 5.59957 5.23064
#
# Compressibility (1/GPa) = 0.03484542
#
# Stress axis : x y z
#
# Youngs Moduli (GPa) = 38.39298 57.87655 102.61115
#
# Poissons Ratio (x) = 0.19347 0.11762
# Poissons Ratio (y) = 0.12834 0.47440
# Poissons Ratio (z) = 0.04401 0.26758
#
# Static dielectric constant tensor:
#      x y z
#    x 1.776090 0.000000 0.000000 
#    y 0.000000 1.755430 0.000000 
#    z 0.000000 0.000000 1.786690 
# 
# From -- ./inp_files/22642.got.cif
#   From: 2010.05.17/outbox.cif.g08.bks.cpg/sg57_12_cif.got.tgz:22642.got - 2010.06.03 13:58:18.
