data_PCOD9436279
_publ_section_title
;
Structure prediction by ZEFSAII (Michael W. Deem and Ramdas Pophale) SiO2 
 PCOD9436279
Probable space group: P B C M
;
_chemical_formula_sum "Si O2"
_cell_formula_units_Z 52
_cell_length_a 5.329396
_cell_length_b 17.161035
_cell_length_c 22.725962
_cell_angle_alpha 90.000000
_cell_angle_beta 90.000000
_cell_angle_gamma 90.000000
_cell_volume 2078.469925
_symmetry_space_group_name_H-M "P B C M"
_symmetry_group_IT_number 57
_symmetry_cell_setting 'orthorhombic'
loop_
_space_group_symop_operation_xyz
x,y,z
-x,-y,1/2+z
x,1/2-y,-z
-x,1/2+y,1/2-z
-x,-y,-z
x,y,1/2-z
-x,1/2+y,z
x,1/2-y,1/2+z
loop_
_atom_site_type_symbol
_atom_site_label
_atom_site_fract_x
_atom_site_fract_y
_atom_site_fract_z
Si Si1 0.272965 0.580110 0.387249
Si Si2 0.272302 0.081595 0.943917
Si Si3 0.206364 0.454252 0.681919
Si Si4 0.943739 0.722104 0.867217
Si Si5 0.390277 0.181525 0.453095
Si Si6 0.342854 0.615300 0.649279
Si Si7 0.304684 0.331062 0.250000
O O1 0.210796 0.507125 0.429700
O O2 0.533882 0.562677 0.352316
O O3 0.348587 0.654736 0.425157
O O4 0.040608 0.586881 0.343478
O O5 0.108404 0.144389 0.907813
O O6 0.545702 0.094662 0.914063
O O7 0.282846 0.107542 0.011139
O O8 0.238183 0.436639 0.750000
O O9 0.161048 0.547516 0.672959
O O10 0.806927 0.786906 0.905790
O O11 0.821050 0.720659 0.803000
O O12 0.232765 0.702538 0.852360
O O13 0.429915 0.250000 0.500000
O O14 0.559942 0.615936 0.698158
#
# Coordination Sequence:
#
# PCOD9436279 Si02
#       7
#     8   8   8   8   8   8   4
#     4  11  23  45  68 106 134 177 231 286 341 404
#     4   9  20  40  67  94 129 168 231 282 332 395
#     4  11  23  41  72 103 140 174 221 281 352 403
#     4  10  20  39  61  95 130 178 220 276 341 406
#     4  10  23  47  64  91 136 182 230 277 344 403
#     4  10  19  35  66 100 125 171 224 281 334 404
#     4  10  20  34  62  92 134 170 228 270 330 416
#
# _framework density 25.018405000000001
#
# number of rings (size 3 to 8) (size 9 to 14) (size 15 to 20)
#    0.000    1.846    2.308    1.385    0.000    0.000 
#   16.615    5.385    0.000    0.000    0.000    0.000 
#    0.000    0.000    0.000    0.000    0.000    0.000 
#
# Total GULP energy -289733.086798 kJ/mol
# GULP energy per Si atom -5571.790131 kJ/mol
# Density = 2.496146 g / cm^3
# Si number density = 25.018405 Si / 1000 Ang^3
#
#
#
# Elastic Constant Matrix: (Units=GPa)
#
#
# Indices 1 2 3 4 5 6 
#
# 1 84.2474 27.0283 27.2230 0.0000 0.0000 0.0000
# 2 27.0283 71.8869 45.0995 0.0000 0.0000 0.0000
# 3 27.2230 45.0995 111.5960 0.0000 0.0000 0.0000
# 4 0.0000 0.0000 0.0000 21.4427 0.0000 0.0000
# 5 0.0000 0.0000 0.0000 0.0000 1.4514 0.0000
# 6 0.0000 0.0000 0.0000 0.0000 0.0000 31.5773
#
#
#
# Elastic Compliance Matrix: (Units=1/GPa)
#
#
# Indices 1 2 3 4 5 6 
#
# 1 0.013733 -0.004101 -0.001692 0.000000 0.000000 0.000000
# 2 -0.004101 0.019861 -0.007026 0.000000 0.000000 0.000000
# 3 -0.001692 -0.007026 0.012213 0.000000 0.000000 0.000000
# 4 0.000000 0.000000 0.000000 0.046636 0.000000 0.000000
# 5 0.000000 0.000000 0.000000 0.000000 0.688967 0.000000
# 6 0.000000 0.000000 0.000000 0.000000 0.000000 0.031668
#
#
# Mechanical properties :
#
#
# Convention : Reuss Voigt Hill
#
# Bulk Modulus (GPa) = 49.58619 51.82576 50.70598
# Shear Modulus (GPa) = 5.91408 22.11957 14.01683
#
# Velocity S-wave (km/s) = 1.53916 2.97666 2.36955
# Velocity P-wave (km/s) = 4.79808 5.70737 5.27236
#
# Compressibility (1/GPa) = 0.02016690
#
# Stress axis : x y z
#
# Youngs Moduli (GPa) = 72.81995 50.35105 81.87932
#
# Poissons Ratio (x) = 0.20651 0.13857
# Poissons Ratio (y) = 0.29867 0.57527
# Poissons Ratio (z) = 0.12324 0.35376
#
# Static dielectric constant tensor:
#      x y z
#    x 2.146320 0.000000 0.000000 
#    y 0.000000 2.107770 0.000000 
#    z 0.000000 0.000000 1.917290 
# 
# From -- ./inp_files/23714.got.cif
#   From: 2010.05.17/outbox.cif.g08.bks.cpg/sg57_12_cif.got.tgz:23714.got - 2010.06.03 13:58:18.
