data_PCOD9436705
_publ_section_title
;
Structure prediction by ZEFSAII (Michael W. Deem and Ramdas Pophale) SiO2 
 PCOD9436705
Probable space group: P B C M
;
_chemical_formula_sum "Si O2"
_cell_formula_units_Z 48
_cell_length_a 12.292636
_cell_length_b 8.607809
_cell_length_c 20.940659
_cell_angle_alpha 90.000000
_cell_angle_beta 90.000000
_cell_angle_gamma 90.000000
_cell_volume 2215.786889
_symmetry_space_group_name_H-M "P B C M"
_symmetry_group_IT_number 57
_symmetry_cell_setting 'orthorhombic'
loop_
_space_group_symop_operation_xyz
x,y,z
-x,-y,1/2+z
x,1/2-y,-z
-x,1/2+y,1/2-z
-x,-y,-z
x,y,1/2-z
-x,1/2+y,z
x,1/2-y,1/2+z
loop_
_atom_site_type_symbol
_atom_site_label
_atom_site_fract_x
_atom_site_fract_y
_atom_site_fract_z
Si Si1 0.985112 0.845989 0.180500
Si Si2 0.152087 0.962397 0.895452
Si Si3 0.578047 0.196258 0.676298
Si Si4 0.351713 0.058367 0.674657
Si Si5 0.207580 0.614512 0.884206
Si Si6 0.934190 0.868404 0.942908
O O1 0.964244 0.781293 0.250000
O O2 0.946626 0.738913 0.121342
O O3 0.112273 0.885107 0.169799
O O4 0.914758 0.003309 0.170301
O O5 0.256795 0.067499 0.878767
O O6 0.197542 0.790977 0.908594
O O7 0.048992 0.962309 0.943409
O O8 0.584089 0.146927 0.750000
O O9 0.609214 0.378071 0.673617
O O10 0.670320 0.099200 0.639731
O O11 0.454698 0.163298 0.656645
O O12 0.320436 0.090653 0.750000
O O13 0.165191 0.485663 0.932750
O O14 0.919289 0.750000 0.000000
#
# Coordination Sequence:
#
# PCOD9436705 Si02
#       6
#     8   8   8   8   8   8
#     4  10  20  33  53  82 112 141 177 224 274 325
#     4   9  19  33  52  75 106 141 177 218 266 321
#     4   9  17  29  47  72 104 140 176 216 264 317
#     4   9  17  30  48  73 106 141 176 217 266 319
#     4   9  19  33  52  75 106 141 176 217 268 320
#     4  10  22  38  56  81 112 146 184 226 273 327
#
# _framework density 21.662732999999999
#
# number of rings (size 3 to 8) (size 9 to 14) (size 15 to 20)
#    0.000    2.667    0.000    1.000    0.000   18.667 
#    0.000    1.667    0.000    1.000    0.000    9.333 
#    0.000    0.000    0.000    0.000    0.000    0.000 
#
# Total GULP energy -267252.964927 kJ/mol
# GULP energy per Si atom -5567.770103 kJ/mol
# Density = 2.161343 g / cm^3
# Si number density = 21.662733 Si / 1000 Ang^3
#
#
#
# Elastic Constant Matrix: (Units=GPa)
#
#
# Indices 1 2 3 4 5 6 
#
# 1 99.3059 3.1421 11.1860 0.0000 0.0000 0.0000
# 2 3.1421 47.9556 16.3382 0.0000 0.0000 0.0000
# 3 11.1860 16.3382 69.3718 0.0000 0.0000 0.0000
# 4 0.0000 0.0000 0.0000 24.6433 0.0000 0.0000
# 5 0.0000 0.0000 0.0000 0.0000 30.5341 0.0000
# 6 0.0000 0.0000 0.0000 0.0000 0.0000 34.3531
#
#
#
# Elastic Compliance Matrix: (Units=1/GPa)
#
#
# Indices 1 2 3 4 5 6 
#
# 1 0.010257 -0.000118 -0.001626 0.000000 0.000000 0.000000
# 2 -0.000118 0.022673 -0.005321 0.000000 0.000000 0.000000
# 3 -0.001626 -0.005321 0.015930 0.000000 0.000000 0.000000
# 4 0.000000 0.000000 0.000000 0.040579 0.000000 0.000000
# 5 0.000000 0.000000 0.000000 0.000000 0.032750 0.000000
# 6 0.000000 0.000000 0.000000 0.000000 0.000000 0.029109
#
#
# Mechanical properties :
#
#
# Convention : Reuss Voigt Hill
#
# Bulk Modulus (GPa) = 28.79321 30.88510 29.83915
# Shear Modulus (GPa) = 28.24766 30.30391 29.27578
#
# Velocity S-wave (km/s) = 3.61498 3.74424 3.68018
# Velocity P-wave (km/s) = 5.54477 5.74288 5.64469
#
# Compressibility (1/GPa) = 0.03473042
#
# Stress axis : x y z
#
# Youngs Moduli (GPa) = 97.49634 44.10501 62.77295
#
# Poissons Ratio (x) = 0.00521 0.10207
# Poissons Ratio (y) = 0.01151 0.33401
# Poissons Ratio (z) = 0.15854 0.23468
#
# Static dielectric constant tensor:
#      x y z
#    x 1.804300 0.000000 0.000000 
#    y 0.000000 1.911960 0.000000 
#    z 0.000000 0.000000 1.868960 
# 
# From -- ./inp_files/21829.got.cif
#   From: 2010.05.17/outbox.cif.g08.bks.cpg/sg57_11_cif.got.tgz:21829.got - 2010.06.03 13:58:18.
