data_PCOD9436935
_publ_section_title
;
Structure prediction by ZEFSAII (Michael W. Deem and Ramdas Pophale) SiO2 
 PCOD9436935
Probable space group: P B C M
;
_chemical_formula_sum "Si O2"
_cell_formula_units_Z 48
_cell_length_a 9.811130
_cell_length_b 30.789574
_cell_length_c 8.668515
_cell_angle_alpha 90.000000
_cell_angle_beta 90.000000
_cell_angle_gamma 90.000000
_cell_volume 2618.589460
_symmetry_space_group_name_H-M "P B C M"
_symmetry_group_IT_number 57
_symmetry_cell_setting 'orthorhombic'
loop_
_space_group_symop_operation_xyz
x,y,z
-x,-y,1/2+z
x,1/2-y,-z
-x,1/2+y,1/2-z
-x,-y,-z
x,y,1/2-z
-x,1/2+y,z
x,1/2-y,1/2+z
loop_
_atom_site_type_symbol
_atom_site_label
_atom_site_fract_x
_atom_site_fract_y
_atom_site_fract_z
Si Si1 0.653188 0.049803 0.065563
Si Si2 0.647328 0.202084 0.564456
Si Si3 0.357017 0.050147 0.935788
Si Si4 0.155842 0.876302 0.063982
Si Si5 0.649855 0.797981 0.934202
Si Si6 0.158510 0.372248 0.436755
O O1 0.654739 0.051667 0.250000
O O2 0.674358 0.999493 0.017364
O O3 0.503046 0.062643 0.005940
O O4 0.765878 0.081906 0.999589
O O5 0.678442 0.250000 0.500000
O O6 0.639641 0.204044 0.750000
O O7 0.759432 0.166616 0.518607
O O8 0.498936 0.189237 0.499731
O O9 0.369959 0.050863 0.750000
O O10 0.240454 0.084093 0.979803
O O11 0.157952 0.878426 0.250000
O O12 0.998794 0.874137 0.014533
O O13 0.643798 0.796321 0.750000
O O14 0.678684 0.750000 0.000000
O O15 0.761742 0.831897 0.991107
O O16 0.162748 0.368361 0.250000
#
# Coordination Sequence:
#
# PCOD9436935 Si02
#       6
#     8   8   8   8   8   8
#     4  10  20  34  55  82 108 138 181 227 267 315
#     4  10  20  36  57  80 105 136 176 218 263 313
#     4   9  19  36  57  79 106 142 181 223 271 319
#     4  10  22  37  54  78 110 146 177 214 269 324
#     4  11  22  37  58  83 108 138 178 221 266 314
#     4  10  21  38  56  77 109 146 181 218 266 321
#
# _framework density 18.330480000000001
#
# number of rings (size 3 to 8) (size 9 to 14) (size 15 to 20)
#    0.000    2.000    0.000    4.500    0.000    8.667 
#    0.000    1.667    0.000    0.000    0.000    0.000 
#    0.000    0.000    0.000    0.000    0.000    0.000 
#
# Total GULP energy -268142.533093 kJ/mol
# GULP energy per Si atom -5586.302773 kJ/mol
# Density = 1.828876 g / cm^3
# Si number density = 18.330480 Si / 1000 Ang^3
#
#
#
# Elastic Constant Matrix: (Units=GPa)
#
#
# Indices 1 2 3 4 5 6 
#
# 1 196.7135 128.0470 50.4863 0.0000 0.0000 0.0000
# 2 128.0470 120.7701 41.4740 0.0000 0.0000 0.0000
# 3 50.4863 41.4740 40.4952 0.0000 0.0000 0.0000
# 4 0.0000 0.0000 0.0000 29.8723 0.0000 0.0000
# 5 0.0000 0.0000 0.0000 0.0000 21.8838 0.0000
# 6 0.0000 0.0000 0.0000 0.0000 0.0000 -15.1513
#
#
#
# Elastic Compliance Matrix: (Units=1/GPa)
#
#
# Indices 1 2 3 4 5 6 
#
# 1 0.016853 -0.016433 -0.004181 0.000000 0.000000 0.000000
# 2 -0.016433 0.028795 -0.009004 0.000000 0.000000 0.000000
# 3 -0.004181 -0.009004 0.039129 0.000000 0.000000 0.000000
# 4 0.000000 0.000000 0.000000 0.033476 0.000000 0.000000
# 5 0.000000 0.000000 0.000000 0.000000 0.045696 0.000000
# 6 0.000000 0.000000 0.000000 0.000000 0.000000 -0.066001
#
#
# Mechanical properties :
#
#
# Convention : Reuss Voigt Hill
#
# Bulk Modulus (GPa) = 39.15274 88.66594 63.90934
# Shear Modulus (GPa) = 30.17514 16.51906 23.34710
#
# Velocity S-wave (km/s) = 4.06171 3.00522 3.57273
# Velocity P-wave (km/s) = 6.58805 7.77931 7.20833
#
# Compressibility (1/GPa) = 0.02554100
#
# Stress axis : x y z
#
# Youngs Moduli (GPa) = 59.33514 34.72771 25.55650
#
# Poissons Ratio (x) = 0.57068 0.10686
# Poissons Ratio (y) = 0.97505 0.23011
# Poissons Ratio (z) = 0.24810 0.31269
#
# Static dielectric constant tensor:
#      x y z
#    x 1.600390 0.000000 0.000000 
#    y 0.000000 1.623150 0.000000 
#    z 0.000000 0.000000 1.619260 
# 
# From -- ./inp_files/2064.got.cif
#   From: 2010.05.17/outbox.cif.g08.bks.cpg/sg57_2_cif.got.tgz:2064.got - 2010.06.03 13:58:18.
