data_PCOD9436844
_publ_section_title
;
Structure prediction by ZEFSAII (Michael W. Deem and Ramdas Pophale) SiO2 
 PCOD9436844
Probable space group: P B C M
;
_chemical_formula_sum "Si O2"
_cell_formula_units_Z 56
_cell_length_a 17.150856
_cell_length_b 19.715684
_cell_length_c 8.133294
_cell_angle_alpha 90.000000
_cell_angle_beta 90.000000
_cell_angle_gamma 90.000000
_cell_volume 2750.199005
_symmetry_space_group_name_H-M "P B C M"
_symmetry_group_IT_number 57
_symmetry_cell_setting 'orthorhombic'
loop_
_space_group_symop_operation_xyz
x,y,z
-x,-y,1/2+z
x,1/2-y,-z
-x,1/2+y,1/2-z
-x,-y,-z
x,y,1/2-z
-x,1/2+y,z
x,1/2-y,1/2+z
loop_
_atom_site_type_symbol
_atom_site_label
_atom_site_fract_x
_atom_site_fract_y
_atom_site_fract_z
Si Si1 0.145139 0.171474 0.946402
Si Si2 0.572248 0.953087 0.551730
Si Si3 0.831200 0.422843 0.446508
Si Si4 0.481096 0.826605 0.552306
Si Si5 0.747543 0.555057 0.051063
Si Si6 0.000763 0.420942 0.448672
Si Si7 0.692134 0.172374 0.053355
O O1 0.141945 0.171136 0.750000
O O2 0.070873 0.126918 0.010412
O O3 0.144226 0.250000 0.000000
O O4 0.221218 0.128564 0.999579
O O5 0.574776 0.955531 0.750000
O O6 0.546482 0.878217 0.495541
O O7 0.660493 0.965120 0.493022
O O8 0.500000 0.000000 0.500000
O O9 0.837453 0.428741 0.250000
O O10 0.807700 0.497496 0.510313
O O11 0.760307 0.373648 0.485371
O O12 0.914934 0.396677 0.505463
O O13 0.494466 0.750000 0.500000
O O14 0.479395 0.828736 0.750000
O O15 0.394560 0.848351 0.493965
O O16 0.746729 0.553562 0.250000
O O17 0.005029 0.419150 0.250000
O O18 0.000000 0.500000 0.500000
O O19 0.693192 0.168510 0.250000
O O20 0.702932 0.250000 0.000000
#
# Coordination Sequence:
#
# PCOD9436844 Si02
#       7
#     8   8   8   8   8   8   8
#     4  11  24  41  62  88 119 156 199 244 294 351
#     4  10  21  36  56  85 117 150 192 239 289 343
#     4  10  20  35  57  84 115 147 185 230 281 342
#     4   9  19  35  53  75 106 143 186 231 277 335
#     4  10  21  38  60  85 117 155 192 240 295 346
#     4  10  21  38  61  87 115 150 192 235 285 346
#     4  10  20  34  53  78 110 147 186 233 284 336
#
# _framework density 20.362162999999999
#
# number of rings (size 3 to 8) (size 9 to 14) (size 15 to 20)
#    0.000    2.000    1.429    1.714    0.000    4.571 
#    0.000    2.857    0.000    0.000    0.000    0.000 
#    0.000    0.000    0.000    0.000    0.000    0.000 
#
# Total GULP energy -312481.031529 kJ/mol
# GULP energy per Si atom -5580.018420 kJ/mol
# Density = 2.031582 g / cm^3
# Si number density = 20.362163 Si / 1000 Ang^3
#
#
#
# Elastic Constant Matrix: (Units=GPa)
#
#
# Indices 1 2 3 4 5 6 
#
# 1 118.6574 48.4693 16.6094 0.0000 0.0000 0.0000
# 2 48.4693 71.3188 0.2162 0.0000 0.0000 0.0000
# 3 16.6094 0.2162 5.1774 0.0000 0.0000 0.0000
# 4 0.0000 0.0000 0.0000 28.0159 0.0000 0.0000
# 5 0.0000 0.0000 0.0000 0.0000 11.7507 0.0000
# 6 0.0000 0.0000 0.0000 0.0000 0.0000 37.3726
#
#
#
# Elastic Compliance Matrix: (Units=1/GPa)
#
#
# Indices 1 2 3 4 5 6 
#
# 1 0.029971 -0.020080 -0.095311 0.000000 0.000000 0.000000
# 2 -0.020080 0.027476 0.063270 0.000000 0.000000 0.000000
# 3 -0.095311 0.063270 0.496266 0.000000 0.000000 0.000000
# 4 0.000000 0.000000 0.000000 0.035694 0.000000 0.000000
# 5 0.000000 0.000000 0.000000 0.000000 0.085101 0.000000
# 6 0.000000 0.000000 0.000000 0.000000 0.000000 0.026758
#
#
# Mechanical properties :
#
#
# Convention : Reuss Voigt Hill
#
# Bulk Modulus (GPa) = 2.22483 36.19370 19.20927
# Shear Modulus (GPa) = 5.23379 24.08511 14.65945
#
# Velocity S-wave (km/s) = 1.60497 3.44297 2.68607
# Velocity P-wave (km/s) = 2.12828 5.79819 4.36741
#
# Compressibility (1/GPa) = 0.44947231
#
# Stress axis : x y z
#
# Youngs Moduli (GPa) = 33.36531 36.39492 2.01505
#
# Poissons Ratio (x) = 0.73081 0.19206
# Poissons Ratio (y) = 0.66997 -0.12749
# Poissons Ratio (z) = 3.18007 -2.30271
#
# Static dielectric constant tensor:
#      x y z
#    x 1.761650 0.000000 0.000000 
#    y 0.000000 1.712730 0.000000 
#    z 0.000000 0.000000 1.715580 
# 
# From -- ./inp_files/5152.got.cif
#   From: 2010.05.17/outbox.cif.g08.bks.cpg/sg57_3_cif.got.tgz:5152.got - 2010.06.03 13:58:18.
