data_PCOD9436624
_publ_section_title
;
Structure prediction by ZEFSAII (Michael W. Deem and Ramdas Pophale) SiO2 
 PCOD9436624
Probable space group: P B C M
;
_chemical_formula_sum "Si O2"
_cell_formula_units_Z 64
_cell_length_a 20.174406
_cell_length_b 20.932223
_cell_length_c 8.781129
_cell_angle_alpha 90.000000
_cell_angle_beta 90.000000
_cell_angle_gamma 90.000000
_cell_volume 3708.228322
_symmetry_space_group_name_H-M "P B C M"
_symmetry_group_IT_number 57
_symmetry_cell_setting 'orthorhombic'
loop_
_space_group_symop_operation_xyz
x,y,z
-x,-y,1/2+z
x,1/2-y,-z
-x,1/2+y,1/2-z
-x,-y,-z
x,y,1/2-z
-x,1/2+y,z
x,1/2-y,1/2+z
loop_
_atom_site_type_symbol
_atom_site_label
_atom_site_fract_x
_atom_site_fract_y
_atom_site_fract_z
Si Si1 0.322731 0.569982 0.567216
Si Si2 0.424026 0.318680 0.066346
Si Si3 0.078033 0.181278 0.432092
Si Si4 0.827561 0.574199 0.932676
Si Si5 0.075212 0.818637 0.566426
Si Si6 0.577196 0.318669 0.066438
Si Si7 0.177165 0.928208 0.934064
Si Si8 0.673682 0.568269 0.566281
O O1 0.320951 0.568468 0.750000
O O2 0.374304 0.624540 0.517901
O O3 0.249341 0.584008 0.504069
O O4 0.342449 0.500236 0.505562
O O5 0.421594 0.315259 0.250000
O O6 0.500603 0.330724 0.021257
O O7 0.375890 0.375797 0.017535
O O8 0.404213 0.250000 0.000000
O O9 0.097705 0.250000 0.500000
O O10 0.080385 0.184743 0.250000
O O11 0.125158 0.125306 0.490055
O O12 0.001312 0.169437 0.478735
O O13 0.833796 0.580067 0.750000
O O14 0.843345 0.500689 0.975074
O O15 0.750096 0.584257 0.972406
O O16 0.095227 0.750000 0.500000
O O17 0.077200 0.815237 0.750000
O O18 0.123890 0.875415 0.517903
O O19 0.579080 0.315103 0.250000
O O20 0.597022 0.250000 0.000000
O O21 0.183166 0.926617 0.750000
O O22 0.670424 0.562119 0.750000
#
# Coordination Sequence:
#
# PCOD9436624 Si02
#       8
#     8   8   8   8   8   8   8   8
#     4  10  20  33  50  75 103 129 164 207 245 288
#     4   9  18  34  53  73  99 131 167 205 246 292
#     4  10  20  34  52  74 100 130 164 202 244 291
#     4   9  18  33  51  72  99 130 163 201 245 292
#     4   9  19  35  53  74 100 130 165 203 243 290
#     4   9  19  34  51  73 101 131 165 206 247 290
#     4   9  19  36  54  72  99 133 165 200 246 296
#     4   9  19  35  53  73 100 133 165 200 246 296
#
# _framework density 17.258914999999998
#
# number of rings (size 3 to 8) (size 9 to 14) (size 15 to 20)
#    0.000    2.750    0.000    1.500    0.000    6.500 
#    0.000    3.750    0.000    0.000    0.000    0.000 
#    0.000    0.000    0.000    0.000    0.000    0.000 
#
# Total GULP energy -356916.970240 kJ/mol
# GULP energy per Si atom -5576.827660 kJ/mol
# Density = 1.721963 g / cm^3
# Si number density = 17.258915 Si / 1000 Ang^3
#
#
#
# Elastic Constant Matrix: (Units=GPa)
#
#
# Indices 1 2 3 4 5 6 
#
# 1 104.0185 128.8137 33.2999 0.0000 0.0000 0.0000
# 2 128.8137 192.6942 43.5784 0.0000 0.0000 0.0000
# 3 33.2999 43.5784 15.9279 0.0000 0.0000 0.0000
# 4 0.0000 0.0000 0.0000 32.0254 0.0000 0.0000
# 5 0.0000 0.0000 0.0000 0.0000 22.3814 0.0000
# 6 0.0000 0.0000 0.0000 0.0000 0.0000 43.1200
#
#
#
# Elastic Compliance Matrix: (Units=1/GPa)
#
#
# Indices 1 2 3 4 5 6 
#
# 1 0.066459 -0.034110 -0.045619 0.000000 0.000000 0.000000
# 2 -0.034110 0.031119 -0.013828 0.000000 0.000000 0.000000
# 3 -0.045619 -0.013828 0.195990 0.000000 0.000000 0.000000
# 4 0.000000 0.000000 0.000000 0.031225 0.000000 0.000000
# 5 0.000000 0.000000 0.000000 0.000000 0.044680 0.000000
# 6 0.000000 0.000000 0.000000 0.000000 0.000000 0.023191
#
#
# Mechanical properties :
#
#
# Convention : Reuss Voigt Hill
#
# Bulk Modulus (GPa) = 9.39373 80.44716 44.92044
# Shear Modulus (GPa) = 8.12661 26.63528 17.38094
#
# Velocity S-wave (km/s) = 2.17230 3.93272 3.17688
# Velocity P-wave (km/s) = 3.42731 8.20578 6.28814
#
# Compressibility (1/GPa) = 0.10645396
#
# Stress axis : x y z
#
# Youngs Moduli (GPa) = 15.04693 32.13466 5.10230
#
# Poissons Ratio (x) = 1.09612 0.23276
# Poissons Ratio (y) = 0.51325 0.07056
# Poissons Ratio (z) = 0.68642 0.44437
#
# Static dielectric constant tensor:
#      x y z
#    x 1.576260 0.000000 0.000000 
#    y 0.000000 1.559830 0.000000 
#    z 0.000000 0.000000 1.586880 
# 
# From -- ./inp_files/7163.got.cif
#   From: 2010.05.17/outbox.cif.g08.bks.cpg/sg57_4_cif.got.tgz:7163.got - 2010.06.03 13:58:18.
