data_PCOD9436029
_publ_section_title
;
Structure prediction by ZEFSAII (Michael W. Deem and Ramdas Pophale) SiO2 
 PCOD9436029
Probable space group: P B C M
;
_chemical_formula_sum "Si O2"
_cell_formula_units_Z 40
_cell_length_a 9.486014
_cell_length_b 18.796661
_cell_length_c 10.535536
_cell_angle_alpha 90.000000
_cell_angle_beta 90.000000
_cell_angle_gamma 90.000000
_cell_volume 1878.542849
_symmetry_space_group_name_H-M "P B C M"
_symmetry_group_IT_number 57
_symmetry_cell_setting 'orthorhombic'
loop_
_space_group_symop_operation_xyz
x,y,z
-x,-y,1/2+z
x,1/2-y,-z
-x,1/2+y,1/2-z
-x,-y,-z
x,y,1/2-z
-x,1/2+y,z
x,1/2-y,1/2+z
loop_
_atom_site_type_symbol
_atom_site_label
_atom_site_fract_x
_atom_site_fract_y
_atom_site_fract_z
Si Si1 0.484372 0.905614 0.750000
Si Si2 0.088443 0.863035 0.475764
Si Si3 0.459933 0.570791 0.750000
Si Si4 0.159559 0.250000 0.500000
Si Si5 0.128044 0.961944 0.250000
Si Si6 0.405410 0.668075 0.984790
Si Si7 0.751478 0.808086 0.750000
Si Si8 0.976436 0.392519 0.750000
O O1 0.422940 0.871972 0.619887
O O2 0.645594 0.874705 0.750000
O O3 0.469188 0.991965 0.750000
O O4 0.068402 0.924939 0.375159
O O5 0.239237 0.827888 0.444453
O O6 0.950500 0.813715 0.470415
O O7 0.105040 0.890693 0.619077
O O8 0.294890 0.549267 0.750000
O O9 0.480537 0.620118 0.875384
O O10 0.258114 0.234322 0.380150
O O11 0.080317 0.041757 0.250000
O O12 0.449735 0.750000 0.000000
O O13 0.918255 0.826153 0.750000
#
# Coordination Sequence:
#
# PCOD9436029 Si02
#       8
#     4   8   4   4   4   8   4   4
#     4  12  24  42  61  88 131 165 210 253 309 383
#     4  10  20  35  62  88 118 152 199 258 308 351
#     4  10  23  42  62  89 125 167 203 253 324 362
#     4  10  20  40  60  86 122 154 202 256 308 364
#     4  10  19  34  56  86 120 151 198 243 301 376
#     4  11  23  41  67  95 119 161 214 268 303 362
#     4  10  23  37  60  82 119 166 198 240 311 362
#     4  10  19  35  55  85 117 157 191 243 305 373
#
# _framework density 21.293099000000002
#
# number of rings (size 3 to 8) (size 9 to 14) (size 15 to 20)
#    0.000    1.600    2.000    3.000    1.400    0.000 
#    0.000    0.000    0.000    0.000    0.000    0.000 
#    0.000    0.000    0.000    0.000    0.000    0.000 
#
# Total GULP energy -223108.561771 kJ/mol
# GULP energy per Si atom -5577.714044 kJ/mol
# Density = 2.124463 g / cm^3
# Si number density = 21.293099 Si / 1000 Ang^3
#
#
#
# Elastic Constant Matrix: (Units=GPa)
#
#
# Indices 1 2 3 4 5 6 
#
# 1 60.1274 11.3673 6.6287 0.0000 0.0000 0.0000
# 2 11.3673 133.0506 66.9070 0.0000 0.0000 0.0000
# 3 6.6287 66.9070 148.3247 0.0000 0.0000 0.0000
# 4 0.0000 0.0000 0.0000 54.1046 0.0000 0.0000
# 5 0.0000 0.0000 0.0000 0.0000 27.4003 0.0000
# 6 0.0000 0.0000 0.0000 0.0000 0.0000 12.1732
#
#
#
# Elastic Compliance Matrix: (Units=1/GPa)
#
#
# Indices 1 2 3 4 5 6 
#
# 1 0.016906 -0.001377 -0.000135 0.000000 0.000000 0.000000
# 2 -0.001377 0.009833 -0.004374 0.000000 0.000000 0.000000
# 3 -0.000135 -0.004374 0.008721 0.000000 0.000000 0.000000
# 4 0.000000 0.000000 0.000000 0.018483 0.000000 0.000000
# 5 0.000000 0.000000 0.000000 0.000000 0.036496 0.000000
# 6 0.000000 0.000000 0.000000 0.000000 0.000000 0.082148
#
#
# Mechanical properties :
#
#
# Convention : Reuss Voigt Hill
#
# Bulk Modulus (GPa) = 42.21199 56.81208 49.51204
# Shear Modulus (GPa) = 26.00723 35.84226 30.92474
#
# Velocity S-wave (km/s) = 3.49863 4.10723 3.81509
# Velocity P-wave (km/s) = 6.01564 7.01651 6.53526
#
# Compressibility (1/GPa) = 0.02368995
#
# Stress axis : x y z
#
# Youngs Moduli (GPa) = 59.14900 101.69699 114.66519
#
# Poissons Ratio (x) = 0.14001 0.01542
# Poissons Ratio (y) = 0.08143 0.50155
# Poissons Ratio (z) = 0.00796 0.44483
#
# Static dielectric constant tensor:
#      x y z
#    x 1.772850 0.000000 0.000000 
#    y 0.000000 1.766980 0.000000 
#    z 0.000000 0.000000 1.790280 
# 
# From -- ./inp_files/2959.got.cif
#   From: 2010.05.17/outbox.cif.g08.bks.cpg/sg57_2_cif.got.tgz:2959.got - 2010.06.03 13:58:18.
