data_PCOD9436415
_publ_section_title
;
Structure prediction by ZEFSAII (Michael W. Deem and Ramdas Pophale) SiO2 
 PCOD9436415
Probable space group: P B C M
;
_chemical_formula_sum "Si O2"
_cell_formula_units_Z 64
_cell_length_a 5.254472
_cell_length_b 30.732192
_cell_length_c 17.609405
_cell_angle_alpha 90.000000
_cell_angle_beta 90.000000
_cell_angle_gamma 90.000000
_cell_volume 2843.592119
_symmetry_space_group_name_H-M "P B C M"
_symmetry_group_IT_number 57
_symmetry_cell_setting 'orthorhombic'
loop_
_space_group_symop_operation_xyz
x,y,z
-x,-y,1/2+z
x,1/2-y,-z
-x,1/2+y,1/2-z
-x,-y,-z
x,y,1/2-z
-x,1/2+y,z
x,1/2-y,1/2+z
loop_
_atom_site_type_symbol
_atom_site_label
_atom_site_fract_x
_atom_site_fract_y
_atom_site_fract_z
Si Si1 0.387569 0.104665 0.019101
Si Si2 0.574818 0.840269 0.120069
Si Si3 0.995975 0.201318 0.161694
Si Si4 0.266950 0.536421 0.554882
Si Si5 0.267895 0.609500 0.331526
Si Si6 0.979175 0.955415 0.908447
Si Si7 0.512881 0.742094 0.090672
Si Si8 0.928483 0.107705 0.835076
O O1 0.555160 0.109431 0.094549
O O2 0.120240 0.087519 0.048097
O O3 0.398392 0.147622 0.969178
O O4 0.491049 0.066541 0.962620
O O5 0.571057 0.788867 0.128761
O O6 0.312104 0.860975 0.149247
O O7 0.815314 0.864460 0.156633
O O8 0.015918 0.215588 0.250000
O O9 0.919832 0.150602 0.163282
O O10 0.759625 0.225000 0.120006
O O11 0.258781 0.210864 0.118385
O O12 0.245898 0.490461 0.598321
O O13 0.090400 0.568708 0.604395
O O14 0.178728 0.525331 0.468820
O O15 0.404580 0.613143 0.250000
O O16 0.115087 0.564053 0.336135
O O17 0.508891 0.750000 0.000000
O O18 0.909946 0.089984 0.750000
#
# Coordination Sequence:
#
# PCOD9436415 Si02
#       8
#     8   8   8   8   8   8   8   8
#     4  10  20  38  65  88 127 163 210 265 319 378
#     4  11  24  41  66  96 125 167 217 259 325 389
#     4  11  26  46  66  94 136 177 212 268 342 399
#     4   9  20  36  59  94 124 162 214 255 318 378
#     4  10  24  40  60  91 125 169 215 263 325 385
#     4  10  19  37  65  87 121 166 211 263 311 381
#     4  12  26  43  70 100 128 165 225 279 324 387
#     4  11  23  41  63  93 134 171 208 264 318 379
#
# _framework density 22.506744999999999
#
# number of rings (size 3 to 8) (size 9 to 14) (size 15 to 20)
#    0.000    1.500    1.250    3.000    3.500    4.000 
#    0.000    0.000    0.000    0.000    0.000    0.000 
#    0.000    0.000    0.000    0.000    0.000    0.000 
#
# Total GULP energy -357402.745762 kJ/mol
# GULP energy per Si atom -5584.417903 kJ/mol
# Density = 2.245552 g / cm^3
# Si number density = 22.506745 Si / 1000 Ang^3
#
#
#
# Elastic Constant Matrix: (Units=GPa)
#
#
# Indices 1 2 3 4 5 6 
#
# 1 79.5370 1.1248 27.1587 0.0000 0.0000 0.0000
# 2 1.1248 78.4901 16.9537 0.0000 0.0000 0.0000
# 3 27.1587 16.9537 130.2143 0.0000 0.0000 0.0000
# 4 0.0000 0.0000 0.0000 11.6101 0.0000 0.0000
# 5 0.0000 0.0000 0.0000 0.0000 -32.1133 0.0000
# 6 0.0000 0.0000 0.0000 0.0000 0.0000 26.3320
#
#
#
# Elastic Compliance Matrix: (Units=1/GPa)
#
#
# Indices 1 2 3 4 5 6 
#
# 1 0.013551 0.000428 -0.002882 0.000000 0.000000 0.000000
# 2 0.000428 0.013123 -0.001798 0.000000 0.000000 0.000000
# 3 -0.002882 -0.001798 0.008515 0.000000 0.000000 0.000000
# 4 0.000000 0.000000 0.000000 0.086132 0.000000 0.000000
# 5 0.000000 0.000000 0.000000 0.000000 -0.031140 0.000000
# 6 0.000000 0.000000 0.000000 0.000000 0.000000 0.037977
#
#
# Mechanical properties :
#
#
# Convention : Reuss Voigt Hill
#
# Bulk Modulus (GPa) = 37.47411 42.07954 39.77683
# Shear Modulus (GPa) = 34.35114 17.36603 25.85859
#
# Velocity S-wave (km/s) = 3.91098 2.78077 3.39326
# Velocity P-wave (km/s) = 6.08939 5.38955 5.75012
#
# Compressibility (1/GPa) = 0.02668509
#
# Stress axis : x y z
#
# Youngs Moduli (GPa) = 73.79634 76.20401 117.44202
#
# Poissons Ratio (x) = -0.03264 0.33847
# Poissons Ratio (y) = -0.03161 0.21115
# Poissons Ratio (z) = 0.21268 0.13701
#
# Static dielectric constant tensor:
#      x y z
#    x 1.850400 0.000000 0.000000 
#    y 0.000000 1.852150 0.000000 
#    z 0.000000 0.000000 2.025860 
# 
# From -- ./inp_files/20328.got.cif
#   From: 2010.05.17/outbox.cif.g08.bks.cpg/sg57_11_cif.got.tgz:20328.got - 2010.06.03 13:58:18.
