data_PCOD9436063
_publ_section_title
;
Structure prediction by ZEFSAII (Michael W. Deem and Ramdas Pophale) SiO2 
 PCOD9436063
Probable space group: P B C M
;
_chemical_formula_sum "Si O2"
_cell_formula_units_Z 48
_cell_length_a 32.226431
_cell_length_b 9.220829
_cell_length_c 8.613820
_cell_angle_alpha 90.000000
_cell_angle_beta 90.000000
_cell_angle_gamma 90.000000
_cell_volume 2559.634596
_symmetry_space_group_name_H-M "P B C M"
_symmetry_group_IT_number 57
_symmetry_cell_setting 'orthorhombic'
loop_
_space_group_symop_operation_xyz
x,y,z
-x,-y,1/2+z
x,1/2-y,-z
-x,1/2+y,1/2-z
-x,-y,-z
x,y,1/2-z
-x,1/2+y,z
x,1/2-y,1/2+z
loop_
_atom_site_type_symbol
_atom_site_label
_atom_site_fract_x
_atom_site_fract_y
_atom_site_fract_z
Si Si1 0.799703 0.585362 0.436864
Si Si2 0.291130 0.086323 0.063349
Si Si3 0.039380 0.412767 0.436414
Si Si4 0.878030 0.412135 0.936135
Si Si5 0.539371 0.412496 0.935509
Si Si6 0.382072 0.414948 0.937368
O O1 0.803390 0.750000 0.500000
O O2 0.801920 0.589626 0.250000
O O3 0.753855 0.525609 0.483884
O O4 0.836725 0.489145 0.501753
O O5 0.291128 0.090833 0.250000
O O6 0.336133 0.025185 0.017268
O O7 0.291149 0.250000 0.000000
O O8 0.039273 0.250000 0.500000
O O9 0.037533 0.409408 0.250000
O O10 0.081652 0.494736 0.483439
O O11 0.000000 0.500000 0.500000
O O12 0.876674 0.408094 0.750000
O O13 0.881439 0.250000 0.000000
O O14 0.537962 0.410912 0.750000
O O15 0.538080 0.250000 0.000000
O O16 0.500000 0.500000 0.000000
O O17 0.581123 0.490980 0.992725
O O18 0.385180 0.412628 0.750000
O O19 0.385249 0.250000 0.000000
#
# Coordination Sequence:
#
# PCOD9436063 Si02
#       6
#     8   8   8   8   8   8
#     4  10  19  34  57  85 115 150 191 236 281 332
#     4   8  16  30  52  81 113 147 186 229 276 328
#     4  11  24  41  63  89 118 150 188 231 281 336
#     4  11  24  40  58  83 114 151 191 236 285 337
#     4  12  25  42  61  84 112 146 186 230 279 333
#     4  10  19  35  58  86 117 150 187 230 278 332
#
# _framework density 18.752675
#
# number of rings (size 3 to 8) (size 9 to 14) (size 15 to 20)
#    0.000    1.667    0.000    5.000    0.000    6.667 
#    0.000    0.833    0.000    0.000    0.000    0.000 
#    0.000    0.000    0.000    0.000    0.000    0.000 
#
# Total GULP energy -268050.757333 kJ/mol
# GULP energy per Si atom -5584.390778 kJ/mol
# Density = 1.870999 g / cm^3
# Si number density = 18.752675 Si / 1000 Ang^3
#
#
#
# Elastic Constant Matrix: (Units=GPa)
#
#
# Indices 1 2 3 4 5 6 
#
# 1 238.9866 109.1116 69.9950 0.0000 0.0000 0.0000
# 2 109.1116 135.6274 47.5576 0.0000 0.0000 0.0000
# 3 69.9950 47.5576 84.7579 0.0000 0.0000 0.0000
# 4 0.0000 0.0000 0.0000 34.1944 0.0000 0.0000
# 5 0.0000 0.0000 0.0000 0.0000 29.7687 0.0000
# 6 0.0000 0.0000 0.0000 0.0000 0.0000 33.0011
#
#
#
# Elastic Compliance Matrix: (Units=1/GPa)
#
#
# Indices 1 2 3 4 5 6 
#
# 1 0.007331 -0.004699 -0.003417 0.000000 0.000000 0.000000
# 2 -0.004699 0.012192 -0.002960 0.000000 0.000000 0.000000
# 3 -0.003417 -0.002960 0.016281 0.000000 0.000000 0.000000
# 4 0.000000 0.000000 0.000000 0.029245 0.000000 0.000000
# 5 0.000000 0.000000 0.000000 0.000000 0.033592 0.000000
# 6 0.000000 0.000000 0.000000 0.000000 0.000000 0.030302
#
#
# Mechanical properties :
#
#
# Convention : Reuss Voigt Hill
#
# Bulk Modulus (GPa) = 73.25616 101.41114 87.33365
# Shear Modulus (GPa) = 32.12445 34.90671 33.51558
#
# Velocity S-wave (km/s) = 4.14340 4.31910 4.23217
# Velocity P-wave (km/s) = 7.87652 8.89205 8.39965
#
# Compressibility (1/GPa) = 0.01365073
#
# Stress axis : x y z
#
# Youngs Moduli (GPa) = 136.41414 82.02390 61.42134
#
# Poissons Ratio (x) = 0.38545 0.20988
# Poissons Ratio (y) = 0.64105 0.18180
# Poissons Ratio (z) = 0.46613 0.24278
#
# Static dielectric constant tensor:
#      x y z
#    x 1.676690 0.000000 0.000000 
#    y 0.000000 1.598600 0.000000 
#    z 0.000000 0.000000 1.632500 
# 
# From -- ./inp_files/10081.got.cif
#   From: 2010.05.17/outbox.cif.g08.bks.cpg/sg57_6_cif.got.tgz:10081.got - 2010.06.03 13:58:18.
