data_PCOD9436459
_publ_section_title
;
Structure prediction by ZEFSAII (Michael W. Deem and Ramdas Pophale) SiO2 
 PCOD9436459
Probable space group: P B C M
;
_chemical_formula_sum "Si O2"
_cell_formula_units_Z 64
_cell_length_a 12.538990
_cell_length_b 14.081377
_cell_length_c 18.196990
_cell_angle_alpha 90.000000
_cell_angle_beta 90.000000
_cell_angle_gamma 90.000000
_cell_volume 3212.974202
_symmetry_space_group_name_H-M "P B C M"
_symmetry_group_IT_number 57
_symmetry_cell_setting 'orthorhombic'
loop_
_space_group_symop_operation_xyz
x,y,z
-x,-y,1/2+z
x,1/2-y,-z
-x,1/2+y,1/2-z
-x,-y,-z
x,y,1/2-z
-x,1/2+y,z
x,1/2-y,1/2+z
loop_
_atom_site_type_symbol
_atom_site_label
_atom_site_fract_x
_atom_site_fract_y
_atom_site_fract_z
Si Si1 0.261054 0.029256 0.549253
Si Si2 0.885520 0.324592 0.337119
Si Si3 0.476866 0.820230 0.662119
Si Si4 0.283749 0.984862 0.119796
Si Si5 0.734156 0.304470 0.922202
Si Si6 0.512654 0.975605 0.412653
Si Si7 0.283960 0.305275 0.667336
Si Si8 0.104740 0.197216 0.576647
O O1 0.271811 0.027472 0.461644
O O2 0.253394 0.917730 0.568909
O O3 0.369448 0.068946 0.587304
O O4 0.162669 0.096075 0.566958
O O5 0.897579 0.325091 0.250000
O O6 0.810159 0.412956 0.360649
O O7 0.821777 0.233377 0.366166
O O8 0.998841 0.321171 0.376919
O O9 0.459417 0.811135 0.750000
O O10 0.380665 0.781710 0.613200
O O11 0.594574 0.781383 0.644012
O O12 0.479320 0.930060 0.636852
O O13 0.400536 0.934169 0.116403
O O14 0.281200 0.079625 0.168337
O O15 0.745121 0.250000 0.000000
O O16 0.500000 0.000000 0.500000
O O17 0.268356 0.269352 0.750000
O O18 0.191787 0.263576 0.616899
O O19 0.078557 0.250000 0.500000
#
# Coordination Sequence:
#
# PCOD9436459 Si02
#       8
#     8   8   8   8   8   8   8   8
#     4  10  21  41  66 100 127 160 208 258 319 380
#     4  12  27  44  63  92 126 168 221 267 316 371
#     4   9  19  36  62  96 132 168 206 255 320 388
#     4  10  19  39  67  96 126 163 206 261 315 372
#     4  11  22  42  67  95 128 166 205 264 318 383
#     4   8  17  34  63  97 132 158 201 253 315 383
#     4  10  21  41  64  94 131 167 208 258 316 374
#     4  12  26  43  64  90 124 167 220 268 313 375
#
# _framework density 19.919236999999999
#
# number of rings (size 3 to 8) (size 9 to 14) (size 15 to 20)
#    0.000    1.750    2.500    1.500    0.000    3.500 
#    2.250    7.500    0.000    0.000    0.000    0.000 
#    0.000    0.000    0.000    0.000    0.000    0.000 
#
# Total GULP energy -356984.595911 kJ/mol
# GULP energy per Si atom -5577.884311 kJ/mol
# Density = 1.987390 g / cm^3
# Si number density = 19.919237 Si / 1000 Ang^3
#
#
#
# Elastic Constant Matrix: (Units=GPa)
#
#
# Indices 1 2 3 4 5 6 
#
# 1 170.5621 49.1720 79.7696 0.0000 0.0000 0.0000
# 2 49.1720 93.5885 36.2100 0.0000 0.0000 0.0000
# 3 79.7696 36.2100 106.8003 0.0000 0.0000 0.0000
# 4 0.0000 0.0000 0.0000 0.0451 0.0000 0.0000
# 5 0.0000 0.0000 0.0000 0.0000 29.5205 0.0000
# 6 0.0000 0.0000 0.0000 0.0000 0.0000 23.9649
#
#
#
# Elastic Compliance Matrix: (Units=1/GPa)
#
#
# Indices 1 2 3 4 5 6 
#
# 1 0.009527 -0.002593 -0.006237 0.000000 0.000000 0.000000
# 2 -0.002593 0.013004 -0.002472 0.000000 0.000000 0.000000
# 3 -0.006237 -0.002472 0.014860 0.000000 0.000000 0.000000
# 4 0.000000 0.000000 0.000000 22.190990 0.000000 0.000000
# 5 0.000000 0.000000 0.000000 0.000000 0.033875 0.000000
# 6 0.000000 0.000000 0.000000 0.000000 0.000000 0.041728
#
#
# Mechanical properties :
#
#
# Convention : Reuss Voigt Hill
#
# Bulk Modulus (GPa) = 67.62670 77.91713 72.77192
# Shear Modulus (GPa) = 0.22390 24.42605 12.32497
#
# Velocity S-wave (km/s) = 0.33563 3.50559 2.49016
# Velocity P-wave (km/s) = 5.84588 7.45567 6.69930
#
# Compressibility (1/GPa) = 0.01478706
#
# Stress axis : x y z
#
# Youngs Moduli (GPa) = 104.96075 76.90029 67.29468
#
# Poissons Ratio (x) = 0.19937 0.41972
# Poissons Ratio (y) = 0.27212 0.16638
# Poissons Ratio (z) = 0.65464 0.19013
#
# Static dielectric constant tensor:
#      x y z
#    x 1.720290 0.000000 0.000000 
#    y 0.000000 1.687730 0.000000 
#    z 0.000000 0.000000 1.688440 
# 
# From -- ./inp_files/21991.got.cif
#   From: 2010.05.17/outbox.cif.g08.bks.cpg/sg57_11_cif.got.tgz:21991.got - 2010.06.03 13:58:18.
