data_PCOD9436982
_publ_section_title
;
Structure prediction by ZEFSAII (Michael W. Deem and Ramdas Pophale) SiO2 
 PCOD9436982
Probable space group: P B C M
;
_chemical_formula_sum "Si O2"
_cell_formula_units_Z 56
_cell_length_a 16.158977
_cell_length_b 20.507277
_cell_length_c 8.508863
_cell_angle_alpha 90.000000
_cell_angle_beta 90.000000
_cell_angle_gamma 90.000000
_cell_volume 2819.638239
_symmetry_space_group_name_H-M "P B C M"
_symmetry_group_IT_number 57
_symmetry_cell_setting 'orthorhombic'
loop_
_space_group_symop_operation_xyz
x,y,z
-x,-y,1/2+z
x,1/2-y,-z
-x,1/2+y,1/2-z
-x,-y,-z
x,y,1/2-z
-x,1/2+y,z
x,1/2-y,1/2+z
loop_
_atom_site_type_symbol
_atom_site_label
_atom_site_fract_x
_atom_site_fract_y
_atom_site_fract_z
Si Si1 0.832959 0.414066 0.440149
Si Si2 0.496400 0.821841 0.062561
Si Si3 0.021438 0.679873 0.938933
Si Si4 0.756734 0.954429 0.941485
Si Si5 0.311250 0.678373 0.437815
Si Si6 0.571038 0.952350 0.937993
Si Si7 0.165406 0.180078 0.438356
O O1 0.830236 0.411986 0.250000
O O2 0.819854 0.488780 0.490434
O O3 0.755769 0.373100 0.504447
O O4 0.916888 0.377710 0.489091
O O5 0.499318 0.822058 0.250000
O O6 0.518627 0.750000 0.000000
O O7 0.402143 0.835359 0.007442
O O8 0.552266 0.879170 0.994011
O O9 0.017527 0.681965 0.750000
O O10 0.053119 0.750000 0.000000
O O11 0.929289 0.671867 0.005530
O O12 0.756880 0.953227 0.750000
O O13 0.663396 0.971360 0.991464
O O14 0.783235 0.882552 0.994216
O O15 0.287062 0.750000 0.500000
O O16 0.316553 0.679443 0.250000
O O17 0.569125 0.954558 0.750000
O O18 0.500000 0.000000 0.000000
O O19 0.195702 0.250000 0.500000
O O20 0.166450 0.181881 0.250000
#
# Coordination Sequence:
#
# PCOD9436982 Si02
#       7
#     8   8   8   8   8   8   8
#     4  10  20  36  56  81 115 151 188 229 278 335
#     4  11  22  38  58  82 112 147 189 239 293 346
#     4  10  20  34  56  84 114 149 187 228 275 329
#     4   9  21  39  59  82 111 148 185 229 286 340
#     4  11  21  34  54  82 114 150 191 233 282 337
#     4  11  22  39  61  86 116 152 194 237 289 348
#     4  10  20  38  61  83 110 146 187 232 283 335
#
# _framework density 19.860703999999998
#
# number of rings (size 3 to 8) (size 9 to 14) (size 15 to 20)
#    0.000    1.714    0.000    6.857    0.000    4.571 
#    0.000    6.429    0.000    0.000    0.000    0.000 
#    0.000    0.000    0.000    0.000    0.000    0.000 
#
# Total GULP energy -312968.978468 kJ/mol
# GULP energy per Si atom -5588.731758 kJ/mol
# Density = 1.981550 g / cm^3
# Si number density = 19.860704 Si / 1000 Ang^3
#
#
#
# Elastic Constant Matrix: (Units=GPa)
#
#
# Indices 1 2 3 4 5 6 
#
# 1 62.7055 54.5043 14.6394 0.0000 0.0000 0.0000
# 2 54.5043 110.0755 16.2122 0.0000 0.0000 0.0000
# 3 14.6394 16.2122 61.4408 0.0000 0.0000 0.0000
# 4 0.0000 0.0000 0.0000 27.9244 0.0000 0.0000
# 5 0.0000 0.0000 0.0000 0.0000 20.0404 0.0000
# 6 0.0000 0.0000 0.0000 0.0000 0.0000 45.3320
#
#
#
# Elastic Compliance Matrix: (Units=1/GPa)
#
#
# Indices 1 2 3 4 5 6 
#
# 1 0.028590 -0.013685 -0.003201 0.000000 0.000000 0.000000
# 2 -0.013685 0.016003 -0.000962 0.000000 0.000000 0.000000
# 3 -0.003201 -0.000962 0.017292 0.000000 0.000000 0.000000
# 4 0.000000 0.000000 0.000000 0.035811 0.000000 0.000000
# 5 0.000000 0.000000 0.000000 0.000000 0.049899 0.000000
# 6 0.000000 0.000000 0.000000 0.000000 0.000000 0.022059
#
#
# Mechanical properties :
#
#
# Convention : Reuss Voigt Hill
#
# Bulk Modulus (GPa) = 38.18388 44.99263 41.58825
# Shear Modulus (GPa) = 23.35573 28.58374 25.96974
#
# Velocity S-wave (km/s) = 3.43297 3.79781 3.61999
# Velocity P-wave (km/s) = 5.91450 6.47568 6.20144
#
# Compressibility (1/GPa) = 0.02618906
#
# Stress axis : x y z
#
# Youngs Moduli (GPa) = 34.97717 62.49018 57.82907
#
# Poissons Ratio (x) = 0.85518 0.18512
# Poissons Ratio (y) = 0.47866 0.05562
# Poissons Ratio (z) = 0.11197 0.06010
#
# Static dielectric constant tensor:
#      x y z
#    x 1.691780 0.000000 0.000000 
#    y 0.000000 1.710160 0.000000 
#    z 0.000000 0.000000 1.652570 
# 
# From -- ./inp_files/5225.got.cif
#   From: 2010.05.17/outbox.cif.g08.bks.cpg/sg57_3_cif.got.tgz:5225.got - 2010.06.03 13:58:18.
