data_PCOD9436732
_publ_section_title
;
Structure prediction by ZEFSAII (Michael W. Deem and Ramdas Pophale) SiO2 
 PCOD9436732
Probable space group: P B C M
;
_chemical_formula_sum "Si O2"
_cell_formula_units_Z 48
_cell_length_a 11.721772
_cell_length_b 8.887395
_cell_length_c 22.305348
_cell_angle_alpha 90.000000
_cell_angle_beta 90.000000
_cell_angle_gamma 90.000000
_cell_volume 2323.682332
_symmetry_space_group_name_H-M "P B C M"
_symmetry_group_IT_number 57
_symmetry_cell_setting 'orthorhombic'
loop_
_space_group_symop_operation_xyz
x,y,z
-x,-y,1/2+z
x,1/2-y,-z
-x,1/2+y,1/2-z
-x,-y,-z
x,y,1/2-z
-x,1/2+y,z
x,1/2-y,1/2+z
loop_
_atom_site_type_symbol
_atom_site_label
_atom_site_fract_x
_atom_site_fract_y
_atom_site_fract_z
Si Si1 0.376645 0.572733 0.515638
Si Si2 0.340803 0.077941 0.595203
Si Si3 0.661038 0.055268 0.658039
Si Si4 0.498860 0.313060 0.854013
Si Si5 0.866065 0.964940 0.323041
Si Si6 0.098972 0.692697 0.679879
O O1 0.370959 0.750000 0.500000
O O2 0.500000 0.500000 0.500000
O O3 0.299095 0.475741 0.469805
O O4 0.346903 0.553383 0.585221
O O5 0.427707 0.218051 0.596603
O O6 0.415105 0.937209 0.620081
O O7 0.240292 0.105640 0.642127
O O8 0.598920 0.904970 0.680039
O O9 0.579767 0.193147 0.678166
O O10 0.790725 0.086913 0.673863
O O11 0.852355 0.957587 0.250000
O O12 0.872775 0.140257 0.342959
O O13 0.983163 0.883798 0.342116
O O14 0.077892 0.715910 0.750000
#
# Coordination Sequence:
#
# PCOD9436732 Si02
#       6
#     8   8   8   8   8   8
#     4  12  18  30  55  80 116 149 178 216 270 334
#     4  11  20  36  55  86 113 147 184 223 274 329
#     4  11  20  36  55  86 113 147 184 223 274 329
#     4  10  20  33  57  82 118 146 179 223 278 328
#     4  10  22  41  61  79 106 146 190 232 272 323
#     4  10  22  41  61  79 106 146 190 232 272 323
#
# _framework density 20.656866000000001
#
# number of rings (size 3 to 8) (size 9 to 14) (size 15 to 20)
#    0.000    1.333    6.667    0.000    2.333    0.000 
#    0.000    5.833    0.000    0.000    0.000    0.000 
#    0.000    0.000    0.000    0.000    0.000    0.000 
#
# Total GULP energy -267782.641236 kJ/mol
# GULP energy per Si atom -5578.805026 kJ/mol
# Density = 2.060985 g / cm^3
# Si number density = 20.656866 Si / 1000 Ang^3
#
#
#
# Elastic Constant Matrix: (Units=GPa)
#
#
# Indices 1 2 3 4 5 6 
#
# 1 113.5402 18.2362 11.4255 0.0000 0.0000 0.0000
# 2 18.2362 58.3367 -0.0446 0.0000 0.0000 0.0000
# 3 11.4255 -0.0446 59.9334 0.0000 0.0000 0.0000
# 4 0.0000 0.0000 0.0000 10.0034 0.0000 0.0000
# 5 0.0000 0.0000 0.0000 0.0000 27.8148 0.0000
# 6 0.0000 0.0000 0.0000 0.0000 0.0000 31.0335
#
#
#
# Elastic Compliance Matrix: (Units=1/GPa)
#
#
# Indices 1 2 3 4 5 6 
#
# 1 0.009465 -0.002960 -0.001807 0.000000 0.000000 0.000000
# 2 -0.002960 0.018068 0.000578 0.000000 0.000000 0.000000
# 3 -0.001807 0.000578 0.017030 0.000000 0.000000 0.000000
# 4 0.000000 0.000000 0.000000 0.099966 0.000000 0.000000
# 5 0.000000 0.000000 0.000000 0.000000 0.035952 0.000000
# 6 0.000000 0.000000 0.000000 0.000000 0.000000 0.032223
#
#
# Mechanical properties :
#
#
# Convention : Reuss Voigt Hill
#
# Bulk Modulus (GPa) = 27.63602 32.33826 29.98714
# Shear Modulus (GPa) = 21.44611 27.24990 24.34801
#
# Velocity S-wave (km/s) = 3.22562 3.63598 3.43693
# Velocity P-wave (km/s) = 5.22307 5.77201 5.50439
#
# Compressibility (1/GPa) = 0.03618466
#
# Stress axis : x y z
#
# Youngs Moduli (GPa) = 105.65606 55.34757 58.71993
#
# Poissons Ratio (x) = 0.16383 0.10608
# Poissons Ratio (y) = 0.31275 -0.03393
# Poissons Ratio (z) = 0.19087 -0.03198
#
# Static dielectric constant tensor:
#      x y z
#    x 1.730620 0.000000 0.000000 
#    y 0.000000 1.797510 0.000000 
#    z 0.000000 0.000000 1.821680 
# 
# From -- ./inp_files/27112.got.cif
#   From: 2010.05.17/outbox.cif.g08.bks.cpg/sg57_14_cif.got.tgz:27112.got - 2010.06.03 13:58:18.
