data_PCOD9436333
_publ_section_title
;
Structure prediction by ZEFSAII (Michael W. Deem and Ramdas Pophale) SiO2 
 PCOD9436333
Probable space group: P B C M
;
_chemical_formula_sum "Si O2"
_cell_formula_units_Z 32
_cell_length_a 8.332909
_cell_length_b 10.126813
_cell_length_c 19.560533
_cell_angle_alpha 90.000000
_cell_angle_beta 90.000000
_cell_angle_gamma 90.000000
_cell_volume 1650.631444
_symmetry_space_group_name_H-M "P B C M"
_symmetry_group_IT_number 57
_symmetry_cell_setting 'orthorhombic'
loop_
_space_group_symop_operation_xyz
x,y,z
-x,-y,1/2+z
x,1/2-y,-z
-x,1/2+y,1/2-z
-x,-y,-z
x,y,1/2-z
-x,1/2+y,z
x,1/2-y,1/2+z
loop_
_atom_site_type_symbol
_atom_site_label
_atom_site_fract_x
_atom_site_fract_y
_atom_site_fract_z
Si Si1 0.501617 0.409806 0.899842
Si Si2 0.073048 0.152621 0.939341
Si Si3 0.665045 0.663508 0.668980
Si Si4 0.749814 0.425390 0.014094
O O1 0.447198 0.283213 0.857212
O O2 0.588472 0.524869 0.856347
O O3 0.349111 0.479650 0.935585
O O4 0.618129 0.367607 0.962109
O O5 0.164577 0.183425 0.869604
O O6 0.879887 0.154987 0.941414
O O7 0.127470 0.250000 0.000000
O O8 0.138576 0.010411 0.962701
O O9 0.680989 0.665263 0.750000
#
# Coordination Sequence:
#
# PCOD9436333 Si02
#       4
#     8   8   8   8
#     4  10  21  38  64  91 118 159 203 257 301 358
#     4  10  19  36  60  86 117 156 198 252 298 357
#     4  11  23  40  59  88 128 163 199 247 311 373
#     4   9  20  34  62  92 114 150 206 256 300 350
#
# _framework density 19.386520000000001
#
# number of rings (size 3 to 8) (size 9 to 14) (size 15 to 20)
#    0.000    2.000    2.500    0.750    3.500    0.000 
#    0.000    2.500    0.000    0.000    0.000    0.000 
#    0.000    0.000    0.000    0.000    0.000    0.000 
#
# Total GULP energy -178460.168334 kJ/mol
# GULP energy per Si atom -5576.880260 kJ/mol
# Density = 1.934240 g / cm^3
# Si number density = 19.386520 Si / 1000 Ang^3
#
#
#
# Elastic Constant Matrix: (Units=GPa)
#
#
# Indices 1 2 3 4 5 6 
#
# 1 117.9665 50.8332 60.3534 0.0000 0.0000 0.0000
# 2 50.8332 93.8175 75.0496 0.0000 0.0000 0.0000
# 3 60.3534 75.0496 135.9892 0.0000 0.0000 0.0000
# 4 0.0000 0.0000 0.0000 27.4910 0.0000 0.0000
# 5 0.0000 0.0000 0.0000 0.0000 14.3819 0.0000
# 6 0.0000 0.0000 0.0000 0.0000 0.0000 28.1756
#
#
#
# Elastic Compliance Matrix: (Units=1/GPa)
#
#
# Indices 1 2 3 4 5 6 
#
# 1 0.011721 -0.003920 -0.003038 0.000000 0.000000 0.000000
# 2 -0.003920 0.020395 -0.009516 0.000000 0.000000 0.000000
# 3 -0.003038 -0.009516 0.013954 0.000000 0.000000 0.000000
# 4 0.000000 0.000000 0.000000 0.036376 0.000000 0.000000
# 5 0.000000 0.000000 0.000000 0.000000 0.069532 0.000000
# 6 0.000000 0.000000 0.000000 0.000000 0.000000 0.035492
#
#
# Mechanical properties :
#
#
# Convention : Reuss Voigt Hill
#
# Bulk Modulus (GPa) = 76.21470 80.02729 78.12100
# Shear Modulus (GPa) = 22.24282 24.77880 23.51081
#
# Velocity S-wave (km/s) = 3.39091 3.57900 3.48622
# Velocity P-wave (km/s) = 7.39795 7.64516 7.52257
#
# Compressibility (1/GPa) = 0.01312083
#
# Stress axis : x y z
#
# Youngs Moduli (GPa) = 85.31945 49.03066 71.66578
#
# Poissons Ratio (x) = 0.19221 0.21774
# Poissons Ratio (y) = 0.33446 0.68197
# Poissons Ratio (z) = 0.25923 0.46658
#
# Static dielectric constant tensor:
#      x y z
#    x 1.718460 0.000000 0.000000 
#    y 0.000000 1.782590 0.000000 
#    z 0.000000 0.000000 1.628510 
# 
# From -- ./inp_files/20467.got.cif
#   From: 2010.05.17/outbox.cif.g08.bks.cpg/sg57_11_cif.got.tgz:20467.got - 2010.06.03 13:58:18.
