data_PCOD9436731
_publ_section_title
;
Structure prediction by ZEFSAII (Michael W. Deem and Ramdas Pophale) SiO2 
 PCOD9436731
Probable space group: P B C M
;
_chemical_formula_sum "Si O2"
_cell_formula_units_Z 56
_cell_length_a 8.993013
_cell_length_b 22.525545
_cell_length_c 15.206948
_cell_angle_alpha 90.000000
_cell_angle_beta 90.000000
_cell_angle_gamma 90.000000
_cell_volume 3080.509763
_symmetry_space_group_name_H-M "P B C M"
_symmetry_group_IT_number 57
_symmetry_cell_setting 'orthorhombic'
loop_
_space_group_symop_operation_xyz
x,y,z
-x,-y,1/2+z
x,1/2-y,-z
-x,1/2+y,1/2-z
-x,-y,-z
x,y,1/2-z
-x,1/2+y,z
x,1/2-y,1/2+z
loop_
_atom_site_type_symbol
_atom_site_label
_atom_site_fract_x
_atom_site_fract_y
_atom_site_fract_z
Si Si1 0.995315 0.586451 0.351171
Si Si2 0.490394 0.179791 0.990431
Si Si3 0.780803 0.395419 0.989682
Si Si4 0.437850 0.986511 0.596275
Si Si5 0.023339 0.945015 0.354511
Si Si6 0.647377 0.887696 0.654116
Si Si7 0.701822 0.609397 0.649211
O O1 0.045404 0.596975 0.250000
O O2 0.085336 0.622657 0.424738
O O3 0.004693 0.515351 0.367927
O O4 0.821943 0.602444 0.357168
O O5 0.494631 0.250000 0.000000
O O6 0.656364 0.152294 0.983552
O O7 0.420305 0.151887 0.078167
O O8 0.383847 0.155389 0.912967
O O9 0.696770 0.442496 0.926296
O O10 0.850543 0.424359 0.077304
O O11 0.563612 0.950841 0.647744
O O12 0.500000 0.000000 0.500000
O O13 0.384799 0.046724 0.640337
O O14 0.058570 0.937323 0.250000
O O15 0.872268 0.907954 0.374280
O O16 0.619016 0.861533 0.750000
O O17 0.700174 0.629340 0.750000
#
# Coordination Sequence:
#
# PCOD9436731 Si02
#       7
#     8   8   8   8   8   8   8
#     4  10  20  33  56  92 124 150 177 223 298 371
#     4  11  26  44  59  80 110 157 215 254 285 326
#     4  11  21  34  60  82 122 153 187 237 296 346
#     4  11  19  33  55  93 123 153 183 227 294 358
#     4  10  21  34  55  92 128 153 180 224 293 371
#     4  10  21  37  61  89 120 154 191 236 290 351
#     4  11  22  38  61  88 122 157 192 238 294 351
#
# _framework density 18.178809000000001
#
# number of rings (size 3 to 8) (size 9 to 14) (size 15 to 20)
#    0.000    1.429    4.286    2.571    0.000    3.429 
#    0.000    2.857    0.000    1.714    0.000    0.000 
#    0.000    0.000    0.000    0.000    0.000    0.000 
#
# Total GULP energy -312493.307395 kJ/mol
# GULP energy per Si atom -5580.237632 kJ/mol
# Density = 1.813743 g / cm^3
# Si number density = 18.178809 Si / 1000 Ang^3
#
#
#
# Elastic Constant Matrix: (Units=GPa)
#
#
# Indices 1 2 3 4 5 6 
#
# 1 64.6214 13.2906 37.8720 0.0000 0.0000 0.0000
# 2 13.2906 69.5100 16.6246 0.0000 0.0000 0.0000
# 3 37.8720 16.6246 86.5416 0.0000 0.0000 0.0000
# 4 0.0000 0.0000 0.0000 -2.0259 0.0000 0.0000
# 5 0.0000 0.0000 0.0000 0.0000 25.6617 0.0000
# 6 0.0000 0.0000 0.0000 0.0000 0.0000 12.0734
#
#
#
# Elastic Compliance Matrix: (Units=1/GPa)
#
#
# Indices 1 2 3 4 5 6 
#
# 1 0.021052 -0.001910 -0.008846 0.000000 0.000000 0.000000
# 2 -0.001910 0.015252 -0.002094 0.000000 0.000000 0.000000
# 3 -0.008846 -0.002094 0.015828 0.000000 0.000000 0.000000
# 4 0.000000 0.000000 0.000000 -0.493620 0.000000 0.000000
# 5 0.000000 0.000000 0.000000 0.000000 0.038969 0.000000
# 6 0.000000 0.000000 0.000000 0.000000 0.000000 0.082827
#
#
# Mechanical properties :
#
#
# Convention : Reuss Voigt Hill
#
# Bulk Modulus (GPa) = 37.83099 39.58304 38.70701
# Shear Modulus (GPa) = -17.53268 17.33424 -0.09922
#
# Velocity S-wave (km/s) = -3.10894 3.09130 -0.23388
# Velocity P-wave (km/s) = 2.82282 5.87903 4.61147
#
# Compressibility (1/GPa) = 0.02643336
#
# Stress axis : x y z
#
# Youngs Moduli (GPa) = 47.50231 65.56333 63.17724
#
# Poissons Ratio (x) = 0.12520 0.55885
# Poissons Ratio (y) = 0.09071 0.13231
# Poissons Ratio (z) = 0.42019 0.13731
#
# Static dielectric constant tensor:
#      x y z
#    x 1.789260 0.000000 0.000000 
#    y 0.000000 1.691780 0.000000 
#    z 0.000000 0.000000 1.636960 
# 
# From -- ./inp_files/16699.got.cif
#   From: 2010.05.17/outbox.cif.g08.bks.cpg/sg57_9_cif.got.tgz:16699.got - 2010.06.03 13:58:18.
