data_PCOD9436588
_publ_section_title
;
Structure prediction by ZEFSAII (Michael W. Deem and Ramdas Pophale) SiO2 
 PCOD9436588
Probable space group: P B C M
;
_chemical_formula_sum "Si O2"
_cell_formula_units_Z 64
_cell_length_a 15.190843
_cell_length_b 30.646897
_cell_length_c 8.842276
_cell_angle_alpha 90.000000
_cell_angle_beta 90.000000
_cell_angle_gamma 90.000000
_cell_volume 4116.541052
_symmetry_space_group_name_H-M "P B C M"
_symmetry_group_IT_number 57
_symmetry_cell_setting 'orthorhombic'
loop_
_space_group_symop_operation_xyz
x,y,z
-x,-y,1/2+z
x,1/2-y,-z
-x,1/2+y,1/2-z
-x,-y,-z
x,y,1/2-z
-x,1/2+y,z
x,1/2-y,1/2+z
loop_
_atom_site_type_symbol
_atom_site_label
_atom_site_fract_x
_atom_site_fract_y
_atom_site_fract_z
Si Si1 0.371223 0.026268 0.569687
Si Si2 0.704534 0.114195 0.431167
Si Si3 0.556071 0.063368 0.570324
Si Si4 0.136718 0.940634 0.431217
Si Si5 0.033262 0.392554 0.932903
Si Si6 0.994660 0.295838 0.568164
Si Si7 0.817942 0.961035 0.931931
Si Si8 0.211328 0.704876 0.068688
O O1 0.367550 0.018854 0.750000
O O2 0.452114 0.059218 0.538850
O O3 0.277150 0.041177 0.509041
O O4 0.399398 0.981311 0.489123
O O5 0.709729 0.110735 0.250000
O O6 0.608179 0.101682 0.488319
O O7 0.774857 0.080936 0.503107
O O8 0.734545 0.162494 0.477777
O O9 0.568693 0.066245 0.750000
O O10 0.136301 0.936731 0.250000
O O11 0.053466 0.915225 0.499140
O O12 0.138448 0.992069 0.470492
O O13 0.024526 0.393530 0.750000
O O14 0.038897 0.341609 0.978124
O O15 0.117219 0.421762 0.975233
O O16 0.027140 0.250000 0.500000
O O17 0.999141 0.292643 0.750000
O O18 0.891359 0.300449 0.524349
O O19 0.806504 0.960277 0.750000
O O20 0.213375 0.707560 0.250000
O O21 0.244095 0.750000 0.000000
#
# Coordination Sequence:
#
# PCOD9436588 Si02
#       8
#     8   8   8   8   8   8   8   8
#     4  10  20  33  50  70  96 128 160 200 242 280
#     4  11  20  32  50  72  98 131 164 196 241 292
#     4  10  20  33  49  72  97 124 162 200 239 285
#     4  11  21  31  45  70  99 131 169 202 231 279
#     4  10  20  35  50  67  96 133 165 199 242 288
#     4   9  17  31  48  67  92 122 158 199 242 285
#     4  10  21  34  49  69  97 131 168 205 240 283
#     4   9  18  31  47  69  95 125 160 196 238 290
#
# _framework density 15.547033000000001
#
# number of rings (size 3 to 8) (size 9 to 14) (size 15 to 20)
#    0.000    2.000    2.500    1.875    0.000    4.000 
#    0.000    0.000    0.000    0.000    0.000    0.875 
#    0.000    2.000    0.000    0.000    0.000    0.000 
#
# Total GULP energy -357024.279046 kJ/mol
# GULP energy per Si atom -5578.504360 kJ/mol
# Density = 1.551165 g / cm^3
# Si number density = 15.547033 Si / 1000 Ang^3
#
#
#
# Elastic Constant Matrix: (Units=GPa)
#
#
# Indices 1 2 3 4 5 6 
#
# 1 74.9687 50.7693 25.0341 0.0000 0.0000 0.0000
# 2 50.7693 137.7864 34.1753 0.0000 0.0000 0.0000
# 3 25.0341 34.1753 23.9828 0.0000 0.0000 0.0000
# 4 0.0000 0.0000 0.0000 23.0759 0.0000 0.0000
# 5 0.0000 0.0000 0.0000 0.0000 24.8949 0.0000
# 6 0.0000 0.0000 0.0000 0.0000 0.0000 21.4806
#
#
#
# Elastic Compliance Matrix: (Units=1/GPa)
#
#
# Indices 1 2 3 4 5 6 
#
# 1 0.021608 -0.003662 -0.017338 0.000000 0.000000 0.000000
# 2 -0.003662 0.011845 -0.013058 0.000000 0.000000 0.000000
# 3 -0.017338 -0.013058 0.078401 0.000000 0.000000 0.000000
# 4 0.000000 0.000000 0.000000 0.043335 0.000000 0.000000
# 5 0.000000 0.000000 0.000000 0.000000 0.040169 0.000000
# 6 0.000000 0.000000 0.000000 0.000000 0.000000 0.046554
#
#
# Mechanical properties :
#
#
# Convention : Reuss Voigt Hill
#
# Bulk Modulus (GPa) = 22.86183 50.74393 36.80288
# Shear Modulus (GPa) = 15.40330 22.34090 18.87210
#
# Velocity S-wave (km/s) = 3.15104 3.79487 3.48785
# Velocity P-wave (km/s) = 5.28920 7.20495 6.32008
#
# Compressibility (1/GPa) = 0.04374103
#
# Stress axis : x y z
#
# Youngs Moduli (GPa) = 46.27913 84.42074 12.75495
#
# Poissons Ratio (x) = 0.30911 0.22114
# Poissons Ratio (y) = 0.16945 0.16655
# Poissons Ratio (z) = 0.80237 1.10233
#
# Static dielectric constant tensor:
#      x y z
#    x 1.503430 0.000000 0.000000 
#    y 0.000000 1.520630 0.000000 
#    z 0.000000 0.000000 1.521820 
# 
# From -- ./inp_files/6041.got.cif
#   From: 2010.05.17/outbox.cif.g08.bks.cpg/sg57_4_cif.got.tgz:6041.got - 2010.06.03 13:58:18.
