data_PCOD9436509
_publ_section_title
;
Structure prediction by ZEFSAII (Michael W. Deem and Ramdas Pophale) SiO2 
 PCOD9436509
Probable space group: P B C M
;
_chemical_formula_sum "Si O2"
_cell_formula_units_Z 64
_cell_length_a 11.093632
_cell_length_b 35.740475
_cell_length_c 7.805926
_cell_angle_alpha 90.000000
_cell_angle_beta 90.000000
_cell_angle_gamma 90.000000
_cell_volume 3094.984691
_symmetry_space_group_name_H-M "P B C M"
_symmetry_group_IT_number 57
_symmetry_cell_setting 'orthorhombic'
loop_
_space_group_symop_operation_xyz
x,y,z
-x,-y,1/2+z
x,1/2-y,-z
-x,1/2+y,1/2-z
-x,-y,-z
x,y,1/2-z
-x,1/2+y,z
x,1/2-y,1/2+z
loop_
_atom_site_type_symbol
_atom_site_label
_atom_site_fract_x
_atom_site_fract_y
_atom_site_fract_z
Si Si1 0.272071 0.444480 0.048405
Si Si2 0.166657 0.130637 0.948542
Si Si3 0.911904 0.402645 0.958143
Si Si4 0.661021 0.365512 0.541407
Si Si5 0.459961 0.940794 0.543510
Si Si6 0.206031 0.522305 0.459184
Si Si7 0.536185 0.291279 0.956477
Si Si8 0.736676 0.790433 0.549799
O O1 0.242837 0.442188 0.250000
O O2 0.244610 0.403602 0.972345
O O3 0.196549 0.479719 0.977995
O O4 0.413282 0.453447 0.030745
O O5 0.198977 0.133884 0.750000
O O6 0.188925 0.171994 0.018541
O O7 0.030884 0.116154 0.969887
O O8 0.918941 0.402228 0.750000
O O9 0.793213 0.379344 0.010775
O O10 0.887809 0.445686 0.013229
O O11 0.663435 0.365283 0.750000
O O12 0.566472 0.397847 0.493088
O O13 0.617505 0.325351 0.479299
O O14 0.468082 0.942994 0.750000
O O15 0.339766 0.963059 0.491739
O O16 0.203691 0.521959 0.250000
O O17 0.533381 0.294580 0.750000
O O18 0.398835 0.294202 0.026029
O O19 0.581681 0.250000 0.000000
O O20 0.789694 0.750000 0.500000
O O21 0.718449 0.787804 0.750000
#
# Coordination Sequence:
#
# PCOD9436509 Si02
#       8
#     8   8   8   8   8   8   8   8
#     4  10  20  32  47  72 107 139 166 208 264 313
#     4  11  23  36  50  73 106 139 174 215 256 300
#     4   9  18  35  56  71  91 133 183 220 253 299
#     4   8  15  30  51  72  95 126 163 205 252 301
#     4   9  16  29  51  75  97 125 167 213 257 313
#     4   8  16  32  52  73  99 133 171 214 266 314
#     4   9  17  30  50  77 105 127 152 191 242 300
#     4  10  20  36  59  83 107 134 164 201 248 302
#
# _framework density 20.678616000000002
#
# number of rings (size 3 to 8) (size 9 to 14) (size 15 to 20)
#    0.000    2.750    0.000    3.375    0.000    3.000 
#    0.000    5.000    0.000    1.500    0.000    0.000 
#    0.000    0.000    0.000    0.000    0.000    0.000 
#
# Total GULP energy -356954.224427 kJ/mol
# GULP energy per Si atom -5577.409757 kJ/mol
# Density = 2.063155 g / cm^3
# Si number density = 20.678616 Si / 1000 Ang^3
#
#
#
# Elastic Constant Matrix: (Units=GPa)
#
#
# Indices 1 2 3 4 5 6 
#
# 1 35.6262 21.9103 -4.4519 0.0000 0.0000 0.0000
# 2 21.9103 146.5524 14.3859 0.0000 0.0000 0.0000
# 3 -4.4519 14.3859 24.5735 0.0000 0.0000 0.0000
# 4 0.0000 0.0000 0.0000 8.0001 0.0000 0.0000
# 5 0.0000 0.0000 0.0000 0.0000 33.1324 0.0000
# 6 0.0000 0.0000 0.0000 0.0000 0.0000 17.1948
#
#
#
# Elastic Compliance Matrix: (Units=1/GPa)
#
#
# Indices 1 2 3 4 5 6 
#
# 1 0.032821 -0.005825 0.009356 0.000000 0.000000 0.000000
# 2 -0.005825 0.008273 -0.005899 0.000000 0.000000 0.000000
# 3 0.009356 -0.005899 0.045843 0.000000 0.000000 0.000000
# 4 0.000000 0.000000 0.000000 0.124999 0.000000 0.000000
# 5 0.000000 0.000000 0.000000 0.000000 0.030182 0.000000
# 6 0.000000 0.000000 0.000000 0.000000 0.000000 0.058157
#
#
# Mechanical properties :
#
#
# Convention : Reuss Voigt Hill
#
# Bulk Modulus (GPa) = 12.16519 30.04896 21.10707
# Shear Modulus (GPa) = 15.04162 23.32599 19.18380
#
# Velocity S-wave (km/s) = 2.69996 3.36225 3.04914
# Velocity P-wave (km/s) = 3.95164 5.44389 4.75665
#
# Compressibility (1/GPa) = 0.08220177
#
# Stress axis : x y z
#
# Youngs Moduli (GPa) = 30.46820 120.86826 21.81371
#
# Poissons Ratio (x) = 0.70410 -0.20410
# Poissons Ratio (y) = 0.17749 0.12868
# Poissons Ratio (z) = -0.28508 0.71299
#
# Static dielectric constant tensor:
#      x y z
#    x 1.717790 0.000000 0.000000 
#    y 0.000000 1.793840 0.000000 
#    z 0.000000 0.000000 1.740410 
# 
# From -- ./inp_files/3839.got.cif
#   From: 2010.05.17/outbox.cif.g08.bks.cpg/sg57_2_cif.got.tgz:3839.got - 2010.06.03 13:58:18.
