data_PCOD9436241
_publ_section_title
;
Structure prediction by ZEFSAII (Michael W. Deem and Ramdas Pophale) SiO2 
 PCOD9436241
Probable space group: P B C M
;
_chemical_formula_sum "Si O2"
_cell_formula_units_Z 48
_cell_length_a 22.963208
_cell_length_b 5.471527
_cell_length_c 18.488369
_cell_angle_alpha 90.000000
_cell_angle_beta 90.000000
_cell_angle_gamma 90.000000
_cell_volume 2322.949170
_symmetry_space_group_name_H-M "P B C M"
_symmetry_group_IT_number 57
_symmetry_cell_setting 'orthorhombic'
loop_
_space_group_symop_operation_xyz
x,y,z
-x,-y,1/2+z
x,1/2-y,-z
-x,1/2+y,1/2-z
-x,-y,-z
x,y,1/2-z
-x,1/2+y,z
x,1/2-y,1/2+z
loop_
_atom_site_type_symbol
_atom_site_label
_atom_site_fract_x
_atom_site_fract_y
_atom_site_fract_z
Si Si1 0.073526 0.999987 0.385780
Si Si2 0.467725 0.000048 0.661649
Si Si3 0.053571 0.499987 0.332243
Si Si4 0.333754 0.000001 0.837535
Si Si5 0.266335 0.500002 0.663238
Si Si6 0.818713 0.000000 0.537647
O O1 0.088192 0.746804 0.345996
O O2 0.003109 0.999982 0.384250
O O3 0.088191 0.253164 0.345992
O O4 0.110840 0.999998 0.458084
O O5 0.467868 0.000050 0.750000
O O6 0.500005 0.750059 0.639215
O O7 0.400632 0.000016 0.637359
O O8 0.031246 0.499997 0.250000
O O9 0.335431 0.999997 0.750000
O O10 0.301283 0.747840 0.857214
O O11 0.301281 0.252157 0.857213
O O12 0.257879 0.500005 0.750000
O O13 0.207134 0.500003 0.618064
O O14 0.799736 0.750000 0.500000
O O15 0.799736 0.250000 0.500000
#
# Coordination Sequence:
#
# PCOD9436241 Si02
#       6
#     8   8   8   8   8   8
#     4  10  20  36  56  82 110 148 183 224 276 332
#     4   9  15  23  40  70 111 153 180 211 275 346
#     4  10  19  35  59  89 120 148 183 227 279 341
#     4   9  17  31  50  78 114 147 188 236 280 332
#     4  10  21  37  59  82 108 149 194 240 286 330
#     4  12  26  44  60  83 117 151 191 240 289 340
#
# _framework density 20.663388999999999
#
# number of rings (size 3 to 8) (size 9 to 14) (size 15 to 20)
#    0.000    2.000    0.000    5.500    0.000    6.000 
#    0.000   11.667    0.000    0.000    0.000    0.000 
#    0.000   46.667    0.000    0.000    0.000    0.000 
#
# Total GULP energy -267566.430266 kJ/mol
# GULP energy per Si atom -5574.300631 kJ/mol
# Density = 2.061636 g / cm^3
# Si number density = 20.663389 Si / 1000 Ang^3
#
#
#
# Elastic Constant Matrix: (Units=GPa)
#
#
# Indices 1 2 3 4 5 6 
#
# 1 96.7681 52.1390 29.3530 0.0000 0.0000 0.0000
# 2 52.1390 238.4309 35.6248 0.0000 0.0000 0.0000
# 3 29.3530 35.6248 28.1495 0.0000 0.0000 0.0000
# 4 0.0000 0.0000 0.0000 20.3356 0.0000 0.0000
# 5 0.0000 0.0000 0.0000 0.0000 10.4363 0.0000
# 6 0.0000 0.0000 0.0000 0.0000 0.0000 -20.8289
#
#
#
# Elastic Compliance Matrix: (Units=1/GPa)
#
#
# Indices 1 2 3 4 5 6 
#
# 1 0.015385 -0.001193 -0.014533 0.000000 0.000000 0.000000
# 2 -0.001193 0.005265 -0.005419 0.000000 0.000000 0.000000
# 3 -0.014533 -0.005419 0.057537 0.000000 0.000000 0.000000
# 4 0.000000 0.000000 0.000000 0.049175 0.000000 0.000000
# 5 0.000000 0.000000 0.000000 0.000000 0.095819 0.000000
# 6 0.000000 0.000000 0.000000 0.000000 0.000000 -0.048010
#
#
# Mechanical properties :
#
#
# Convention : Reuss Voigt Hill
#
# Bulk Modulus (GPa) = 27.85760 66.39803 47.12782
# Shear Modulus (GPa) = 21.79351 18.40403 20.09877
#
# Velocity S-wave (km/s) = 3.25113 2.98763 3.12216
# Velocity P-wave (km/s) = 5.25395 6.64110 5.98783
#
# Compressibility (1/GPa) = 0.03589684
#
# Stress axis : x y z
#
# Youngs Moduli (GPa) = 64.99774 189.94896 17.38017
#
# Poissons Ratio (x) = 0.22659 0.25259
# Poissons Ratio (y) = 0.07754 0.09418
# Poissons Ratio (z) = 0.94463 1.02928
#
# Static dielectric constant tensor:
#      x y z
#    x 1.752960 0.000000 0.000000 
#    y 0.000000 1.783930 0.000000 
#    z 0.000000 0.000000 1.711860 
# 
# From -- ./inp_files/23111.got.cif
#   From: 2010.05.17/outbox.cif.g08.bks.cpg/sg57_12_cif.got.tgz:23111.got - 2010.06.03 13:58:18.
