data_PCOD9436273
_publ_section_title
;
Structure prediction by ZEFSAII (Michael W. Deem and Ramdas Pophale) SiO2 
 PCOD9436273
Probable space group: P B C M
;
_chemical_formula_sum "Si O2"
_cell_formula_units_Z 48
_cell_length_a 15.718266
_cell_length_b 10.352047
_cell_length_c 17.210153
_cell_angle_alpha 90.000000
_cell_angle_beta 90.000000
_cell_angle_gamma 90.000000
_cell_volume 2800.371186
_symmetry_space_group_name_H-M "P B C M"
_symmetry_group_IT_number 57
_symmetry_cell_setting 'orthorhombic'
loop_
_space_group_symop_operation_xyz
x,y,z
-x,-y,1/2+z
x,1/2-y,-z
-x,1/2+y,1/2-z
-x,-y,-z
x,y,1/2-z
-x,1/2+y,z
x,1/2-y,1/2+z
loop_
_atom_site_type_symbol
_atom_site_label
_atom_site_fract_x
_atom_site_fract_y
_atom_site_fract_z
Si Si1 0.168911 0.267749 0.591978
Si Si2 0.152798 0.519757 0.342761
Si Si3 0.652625 0.473853 0.841871
Si Si4 0.504167 0.125410 0.445871
Si Si5 0.005452 0.875094 0.945379
Si Si6 0.350412 0.283237 0.658153
O O1 0.187106 0.250000 0.500000
O O2 0.146321 0.128445 0.628289
O O3 0.254223 0.317328 0.633015
O O4 0.085226 0.355651 0.596971
O O5 0.142587 0.523537 0.250000
O O6 0.249815 0.559661 0.361580
O O7 0.082504 0.603631 0.386296
O O8 0.640619 0.453709 0.750000
O O9 0.584750 0.394192 0.890103
O O10 0.641415 0.628176 0.856175
O O11 0.512829 0.250000 0.500000
O O12 0.419953 0.144178 0.393478
O O13 0.500000 0.000000 0.500000
O O14 0.017344 0.750000 0.000000
O O15 0.000000 0.000000 0.000000
O O16 0.362416 0.305573 0.750000
#
# Coordination Sequence:
#
# PCOD9436273 Si02
#       6
#     8   8   8   8   8   8
#     4  10  19  35  63  86 119 152 201 236 289 351
#     4  10  21  38  61  88 118 158 198 241 297 354
#     4   9  20  39  60  83 118 156 190 237 297 349
#     4  12  23  37  60  90 117 149 196 241 290 347
#     4  11  21  38  60  87 120 156 193 245 295 344
#     4  10  21  38  60  86 117 157 198 241 288 348
#
# _framework density 17.140584
#
# number of rings (size 3 to 8) (size 9 to 14) (size 15 to 20)
#    0.000    1.667    5.000    2.500    2.333    2.000 
#    0.000    0.000    0.000    2.000    0.000    0.000 
#    0.000    0.000    0.000    0.000    0.000    0.000 
#
# Total GULP energy -267895.153291 kJ/mol
# GULP energy per Si atom -5581.149027 kJ/mol
# Density = 1.710157 g / cm^3
# Si number density = 17.140584 Si / 1000 Ang^3
#
#
#
# Elastic Constant Matrix: (Units=GPa)
#
#
# Indices 1 2 3 4 5 6 
#
# 1 176.4499 69.2960 89.9459 0.0000 0.0000 0.0000
# 2 69.2960 87.6861 49.7617 0.0000 0.0000 0.0000
# 3 89.9459 49.7617 92.0796 0.0000 0.0000 0.0000
# 4 0.0000 0.0000 0.0000 28.7112 0.0000 0.0000
# 5 0.0000 0.0000 0.0000 0.0000 40.3389 0.0000
# 6 0.0000 0.0000 0.0000 0.0000 0.0000 33.7417
#
#
#
# Elastic Compliance Matrix: (Units=1/GPa)
#
#
# Indices 1 2 3 4 5 6 
#
# 1 0.012263 -0.004173 -0.009723 0.000000 0.000000 0.000000
# 2 -0.004173 0.017869 -0.005581 0.000000 0.000000 0.000000
# 3 -0.009723 -0.005581 0.023374 0.000000 0.000000 0.000000
# 4 0.000000 0.000000 0.000000 0.034830 0.000000 0.000000
# 5 0.000000 0.000000 0.000000 0.000000 0.024790 0.000000
# 6 0.000000 0.000000 0.000000 0.000000 0.000000 0.029637
#
#
# Mechanical properties :
#
#
# Convention : Reuss Voigt Hill
#
# Bulk Modulus (GPa) = 68.71882 86.02475 77.37179
# Shear Modulus (GPa) = 26.80006 30.37249 28.58628
#
# Velocity S-wave (km/s) = 3.95846 4.21404 4.08824
# Velocity P-wave (km/s) = 7.81478 8.60082 8.21721
#
# Compressibility (1/GPa) = 0.01455205
#
# Stress axis : x y z
#
# Youngs Moduli (GPa) = 81.54851 55.96285 42.78227
#
# Poissons Ratio (x) = 0.23352 0.41599
# Poissons Ratio (y) = 0.34029 0.23875
# Poissons Ratio (z) = 0.79293 0.31231
#
# Static dielectric constant tensor:
#      x y z
#    x 1.583810 0.000000 0.000000 
#    y 0.000000 1.557260 0.000000 
#    z 0.000000 0.000000 1.569680 
# 
# From -- ./inp_files/22461.got.cif
#   From: 2010.05.17/outbox.cif.g08.bks.cpg/sg57_12_cif.got.tgz:22461.got - 2010.06.03 13:58:18.
