data_PCOD9436116
_publ_section_title
;
Structure prediction by ZEFSAII (Michael W. Deem and Ramdas Pophale) SiO2 
 PCOD9436116
Probable space group: P B C M
;
_chemical_formula_sum "Si O2"
_cell_formula_units_Z 48
_cell_length_a 6.950419
_cell_length_b 23.320832
_cell_length_c 13.010242
_cell_angle_alpha 90.000000
_cell_angle_beta 90.000000
_cell_angle_gamma 90.000000
_cell_volume 2108.824321
_symmetry_space_group_name_H-M "P B C M"
_symmetry_group_IT_number 57
_symmetry_cell_setting 'orthorhombic'
loop_
_space_group_symop_operation_xyz
x,y,z
-x,-y,1/2+z
x,1/2-y,-z
-x,1/2+y,1/2-z
-x,-y,-z
x,y,1/2-z
-x,1/2+y,z
x,1/2-y,1/2+z
loop_
_atom_site_type_symbol
_atom_site_label
_atom_site_fract_x
_atom_site_fract_y
_atom_site_fract_z
Si Si1 0.150073 0.084549 0.868616
Si Si2 0.700947 0.710316 0.626490
Si Si3 0.553069 0.483227 0.863333
Si Si4 0.053950 0.786347 0.634793
Si Si5 0.760698 0.055090 0.558274
Si Si6 0.281451 0.819036 0.432273
O O1 0.082310 0.082892 0.750000
O O2 0.191677 0.150077 0.896671
O O3 0.336954 0.044397 0.871759
O O4 0.989721 0.056057 0.939981
O O5 0.664817 0.709989 0.750000
O O6 0.498032 0.704212 0.569987
O O7 0.835375 0.766249 0.608084
O O8 0.576997 0.459631 0.750000
O O9 0.333628 0.500614 0.885710
O O10 0.653163 0.444941 0.948939
O O11 0.059503 0.811747 0.750000
O O12 0.170051 0.817909 0.543189
O O13 0.161550 0.724995 0.636161
O O14 0.714848 0.116549 0.608763
#
# Coordination Sequence:
#
# PCOD9436116 Si02
#       6
#     8   8   8   8   8   8
#     4  10  19  34  60  86 116 154 196 244 295 350
#     4  10  20  37  62  90 119 154 202 252 300 356
#     4  10  22  37  56  87 122 158 198 244 297 357
#     4  10  23  40  59  86 118 156 199 248 302 358
#     4  11  21  36  59  87 120 157 198 249 297 357
#     4  11  22  37  62  88 117 159 201 250 302 358
#
# _framework density 22.761499000000001
#
# number of rings (size 3 to 8) (size 9 to 14) (size 15 to 20)
#    0.000    1.667    3.333    1.500    0.000    4.667 
#    0.000    0.000    0.000    2.000    0.000    0.000 
#    0.000    0.000    0.000    0.000    0.000    0.000 
#
# Total GULP energy -267925.490099 kJ/mol
# GULP energy per Si atom -5581.781044 kJ/mol
# Density = 2.270969 g / cm^3
# Si number density = 22.761499 Si / 1000 Ang^3
#
#
#
# Elastic Constant Matrix: (Units=GPa)
#
#
# Indices 1 2 3 4 5 6 
#
# 1 111.8482 -4.1064 17.8238 0.0000 0.0000 0.0000
# 2 -4.1064 37.9781 -7.5030 0.0000 0.0000 0.0000
# 3 17.8238 -7.5030 91.2617 0.0000 0.0000 0.0000
# 4 0.0000 0.0000 0.0000 18.0792 0.0000 0.0000
# 5 0.0000 0.0000 0.0000 0.0000 18.7106 0.0000
# 6 0.0000 0.0000 0.0000 0.0000 0.0000 26.9537
#
#
#
# Elastic Compliance Matrix: (Units=1/GPa)
#
#
# Indices 1 2 3 4 5 6 
#
# 1 0.009244 0.000653 -0.001752 0.000000 0.000000 0.000000
# 2 0.000653 0.026812 0.002077 0.000000 0.000000 0.000000
# 3 -0.001752 0.002077 0.011470 0.000000 0.000000 0.000000
# 4 0.000000 0.000000 0.000000 0.055312 0.000000 0.000000
# 5 0.000000 0.000000 0.000000 0.000000 0.053446 0.000000
# 6 0.000000 0.000000 0.000000 0.000000 0.000000 0.037101
#
#
# Mechanical properties :
#
#
# Convention : Reuss Voigt Hill
#
# Bulk Modulus (GPa) = 20.20894 28.16853 24.18873
# Shear Modulus (GPa) = 24.04747 28.40692 26.22720
#
# Velocity S-wave (km/s) = 3.25391 3.53657 3.39818
# Velocity P-wave (km/s) = 4.79740 5.39248 5.10362
#
# Compressibility (1/GPa) = 0.04948305
#
# Stress axis : x y z
#
# Youngs Moduli (GPa) = 108.18042 37.29687 87.18146
#
# Poissons Ratio (x) = -0.02437 0.15271
# Poissons Ratio (y) = -0.07069 -0.18105
# Poissons Ratio (z) = 0.18949 -0.07745
#
# Static dielectric constant tensor:
#      x y z
#    x 1.916380 0.000000 0.000000 
#    y 0.000000 1.820600 0.000000 
#    z 0.000000 0.000000 1.889770 
# 
# From -- ./inp_files/15203.got.cif
#   From: 2010.05.17/outbox.cif.g08.bks.cpg/sg57_8_cif.got.tgz:15203.got - 2010.06.03 13:58:18.
