data_PCOD9436141
_publ_section_title
;
Structure prediction by ZEFSAII (Michael W. Deem and Ramdas Pophale) SiO2 
 PCOD9436141
Probable space group: P B C M
;
_chemical_formula_sum "Si O2"
_cell_formula_units_Z 64
_cell_length_a 12.727652
_cell_length_b 31.299597
_cell_length_c 7.637000
_cell_angle_alpha 90.000000
_cell_angle_beta 90.000000
_cell_angle_gamma 90.000000
_cell_volume 3042.354580
_symmetry_space_group_name_H-M "P B C M"
_symmetry_group_IT_number 57
_symmetry_cell_setting 'orthorhombic'
loop_
_space_group_symop_operation_xyz
x,y,z
-x,-y,1/2+z
x,1/2-y,-z
-x,1/2+y,1/2-z
-x,-y,-z
x,y,1/2-z
-x,1/2+y,z
x,1/2-y,1/2+z
loop_
_atom_site_type_symbol
_atom_site_label
_atom_site_fract_x
_atom_site_fract_y
_atom_site_fract_z
Si Si1 0.005817 0.200553 0.541107
Si Si2 0.982638 0.950136 0.539422
Si Si3 0.139978 0.878062 0.544130
Si Si4 0.370195 0.880080 0.949299
Si Si5 0.404182 0.129106 0.045483
Si Si6 0.756716 0.799107 0.041590
Si Si7 0.609706 0.023292 0.958835
Si Si8 0.252823 0.054882 0.464059
O O1 0.979842 0.250000 0.500000
O O2 0.006841 0.196347 0.750000
O O3 0.124806 0.192077 0.475177
O O4 0.927027 0.165125 0.470294
O O5 0.981407 0.945703 0.750000
O O6 0.072004 0.917827 0.471093
O O7 0.865907 0.937549 0.475713
O O8 0.000000 0.000000 0.500000
O O9 0.156036 0.887784 0.750000
O O10 0.256439 0.871943 0.467102
O O11 0.365801 0.862881 0.750000
O O12 0.479812 0.864335 0.031816
O O13 0.382883 0.931309 0.949882
O O14 0.421915 0.118370 0.250000
O O15 0.336211 0.089869 0.971035
O O16 0.330227 0.169941 0.034812
O O17 0.756976 0.805034 0.250000
O O18 0.733963 0.750000 0.000000
O O19 0.615687 0.030007 0.750000
O O20 0.703625 0.991630 0.012335
O O21 0.500000 0.000000 0.000000
O O22 0.252261 0.056763 0.250000
#
# Coordination Sequence:
#
# PCOD9436141 Si02
#       8
#     8   8   8   8   8   8   8   8
#     4  10  21  38  62  89 116 144 181 230 282 339
#     4  10  20  34  52  76 108 146 186 229 278 332
#     4  10  21  37  58  83 114 151 192 235 283 340
#     4  10  21  37  55  79 111 148 189 231 277 327
#     4  10  19  35  56  77 107 142 177 222 273 323
#     4  10  21  37  58  86 113 138 173 218 272 330
#     4  11  20  33  52  75 106 146 190 234 278 328
#     4   9  18  32  51  74 102 140 180 219 271 326
#
# _framework density 21.036339000000002
#
# number of rings (size 3 to 8) (size 9 to 14) (size 15 to 20)
#    0.000    2.000    1.250    2.625    0.000    4.000 
#    0.000    1.875    0.000    0.000    0.000    0.000 
#    0.000    0.000    0.000    0.000    0.000    0.000 
#
# Total GULP energy -357454.755010 kJ/mol
# GULP energy per Si atom -5585.230547 kJ/mol
# Density = 2.098846 g / cm^3
# Si number density = 21.036339 Si / 1000 Ang^3
#
#
#
# Elastic Constant Matrix: (Units=GPa)
#
#
# Indices 1 2 3 4 5 6 
#
# 1 166.3749 70.9817 -0.6024 0.0000 0.0000 0.0000
# 2 70.9817 84.0177 -14.2958 0.0000 0.0000 0.0000
# 3 -0.6024 -14.2958 50.6792 0.0000 0.0000 0.0000
# 4 0.0000 0.0000 0.0000 25.0338 0.0000 0.0000
# 5 0.0000 0.0000 0.0000 0.0000 4.2343 0.0000
# 6 0.0000 0.0000 0.0000 0.0000 0.0000 36.8432
#
#
#
# Elastic Compliance Matrix: (Units=1/GPa)
#
#
# Indices 1 2 3 4 5 6 
#
# 1 0.009645 -0.008539 -0.002294 0.000000 0.000000 0.000000
# 2 -0.008539 0.020062 0.005558 0.000000 0.000000 0.000000
# 3 -0.002294 0.005558 0.021272 0.000000 0.000000 0.000000
# 4 0.000000 0.000000 0.000000 0.039946 0.000000 0.000000
# 5 0.000000 0.000000 0.000000 0.000000 0.236165 0.000000
# 6 0.000000 0.000000 0.000000 0.000000 0.000000 0.027142
#
#
# Mechanical properties :
#
#
# Convention : Reuss Voigt Hill
#
# Bulk Modulus (GPa) = 24.73487 45.91544 35.32515
# Shear Modulus (GPa) = 13.21843 29.55483 21.38663
#
# Velocity S-wave (km/s) = 2.50943 3.75232 3.19196
# Velocity P-wave (km/s) = 4.49222 6.37553 5.51486
#
# Compressibility (1/GPa) = 0.04042876
#
# Stress axis : x y z
#
# Youngs Moduli (GPa) = 103.67733 49.84526 47.00928
#
# Poissons Ratio (x) = 0.42563 0.10784
# Poissons Ratio (y) = 0.88531 -0.26126
# Poissons Ratio (z) = 0.23784 -0.27702
#
# Static dielectric constant tensor:
#      x y z
#    x 1.798690 0.000000 0.000000 
#    y 0.000000 1.714350 0.000000 
#    z 0.000000 0.000000 1.806380 
# 
# From -- ./inp_files/3863.got.cif
#   From: 2010.05.17/outbox.cif.g08.bks.cpg/sg57_2_cif.got.tgz:3863.got - 2010.06.03 13:58:18.
