data_PCOD9436855
_publ_section_title
;
Structure prediction by ZEFSAII (Michael W. Deem and Ramdas Pophale) SiO2 
 PCOD9436855
Probable space group: P B C M
;
_chemical_formula_sum "Si O2"
_cell_formula_units_Z 32
_cell_length_a 12.180286
_cell_length_b 5.475062
_cell_length_c 20.043726
_cell_angle_alpha 90.000000
_cell_angle_beta 90.000000
_cell_angle_gamma 90.000000
_cell_volume 1336.672412
_symmetry_space_group_name_H-M "P B C M"
_symmetry_group_IT_number 57
_symmetry_cell_setting 'orthorhombic'
loop_
_space_group_symop_operation_xyz
x,y,z
-x,-y,1/2+z
x,1/2-y,-z
-x,1/2+y,1/2-z
-x,-y,-z
x,y,1/2-z
-x,1/2+y,z
x,1/2-y,1/2+z
loop_
_atom_site_type_symbol
_atom_site_label
_atom_site_fract_x
_atom_site_fract_y
_atom_site_fract_z
Si Si1 0.104261 0.250000 0.500000
Si Si2 0.430180 0.299923 0.827704
Si Si3 0.741877 0.435093 0.088311
Si Si4 0.432345 0.750000 0.500000
Si Si5 0.964265 0.199134 0.862566
O O1 0.187034 0.455645 0.527174
O O2 0.029257 0.184574 0.564531
O O3 0.397570 0.307305 0.750000
O O4 0.490986 0.039717 0.838071
O O5 0.323890 0.350992 0.873541
O O6 0.648763 0.257530 0.062218
O O7 0.833815 0.298747 0.130407
O O8 0.500000 0.500000 0.500000
O O9 0.005538 0.444174 0.829928
#
# Coordination Sequence:
#
# PCOD9436855 Si02
#       5
#     4   8   8   4   8
#     4  10  20  36  56  88 120 154 188 230 288 358
#     4  10  23  43  63  84 113 154 204 248 286 338
#     4  11  21  37  60  84 118 157 193 234 295 353
#     4  12  24  34  48  80 116 142 178 232 288 340
#     4  10  20  34  53  80 113 149 188 225 275 346
#
# _framework density 23.940048999999998
#
# number of rings (size 3 to 8) (size 9 to 14) (size 15 to 20)
#    0.000    1.500    0.000    7.500    0.000    8.000 
#    0.000    0.000    0.000    6.000    0.000    0.000 
#    0.000    0.000    0.000    0.000    0.000    0.000 
#
# Total GULP energy -178855.649810 kJ/mol
# GULP energy per Si atom -5589.239057 kJ/mol
# Density = 2.388556 g / cm^3
# Si number density = 23.940049 Si / 1000 Ang^3
#
#
#
# Elastic Constant Matrix: (Units=GPa)
#
#
# Indices 1 2 3 4 5 6 
#
# 1 139.5756 74.2410 19.1969 0.0000 0.0000 0.0000
# 2 74.2410 181.3275 16.1431 0.0000 0.0000 0.0000
# 3 19.1969 16.1431 63.1797 0.0000 0.0000 0.0000
# 4 0.0000 0.0000 0.0000 10.2852 0.0000 0.0000
# 5 0.0000 0.0000 0.0000 0.0000 8.5419 0.0000
# 6 0.0000 0.0000 0.0000 0.0000 0.0000 38.4093
#
#
#
# Elastic Compliance Matrix: (Units=1/GPa)
#
#
# Indices 1 2 3 4 5 6 
#
# 1 0.009380 -0.003670 -0.001912 0.000000 0.000000 0.000000
# 2 -0.003670 0.007079 -0.000694 0.000000 0.000000 0.000000
# 3 -0.001912 -0.000694 0.016586 0.000000 0.000000 0.000000
# 4 0.000000 0.000000 0.000000 0.097227 0.000000 0.000000
# 5 0.000000 0.000000 0.000000 0.000000 0.117070 0.000000
# 6 0.000000 0.000000 0.000000 0.000000 0.000000 0.026035
#
#
# Mechanical properties :
#
#
# Convention : Reuss Voigt Hill
#
# Bulk Modulus (GPa) = 48.79694 67.02722 57.91208
# Shear Modulus (GPa) = 17.07878 29.74739 23.41308
#
# Velocity S-wave (km/s) = 2.67385 3.52885 3.13067
# Velocity P-wave (km/s) = 5.47356 6.68299 6.10828
#
# Compressibility (1/GPa) = 0.02049309
#
# Stress axis : x y z
#
# Youngs Moduli (GPa) = 106.61287 141.25705 60.29128
#
# Poissons Ratio (x) = 0.51843 0.11529
# Poissons Ratio (y) = 0.39128 0.04182
# Poissons Ratio (z) = 0.20387 0.09799
#
# Static dielectric constant tensor:
#      x y z
#    x 1.880930 0.000000 0.000000 
#    y 0.000000 1.954350 0.000000 
#    z 0.000000 0.000000 1.964010 
# 
# From -- ./inp_files/26997.got.cif
#   From: 2010.05.17/outbox.cif.g08.bks.cpg/sg57_14_cif.got.tgz:26997.got - 2010.06.03 13:58:18.
