data_PCOD9436442
_publ_section_title
;
Structure prediction by ZEFSAII (Michael W. Deem and Ramdas Pophale) SiO2 
 PCOD9436442
Probable space group: P B C M
;
_chemical_formula_sum "Si O2"
_cell_formula_units_Z 36
_cell_length_a 12.254251
_cell_length_b 5.393508
_cell_length_c 24.233832
_cell_angle_alpha 90.000000
_cell_angle_beta 90.000000
_cell_angle_gamma 90.000000
_cell_volume 1601.696371
_symmetry_space_group_name_H-M "P B C M"
_symmetry_group_IT_number 57
_symmetry_cell_setting 'orthorhombic'
loop_
_space_group_symop_operation_xyz
x,y,z
-x,-y,1/2+z
x,1/2-y,-z
-x,1/2+y,1/2-z
-x,-y,-z
x,y,1/2-z
-x,1/2+y,z
x,1/2-y,1/2+z
loop_
_atom_site_type_symbol
_atom_site_label
_atom_site_fract_x
_atom_site_fract_y
_atom_site_fract_z
Si Si1 0.563880 0.462469 0.250000
Si Si2 0.428705 0.453732 0.627599
Si Si3 0.124555 0.015952 0.361167
Si Si4 0.758479 0.499397 0.464528
Si Si5 0.877103 0.485106 0.815366
O O1 0.465202 0.669058 0.250000
O O2 0.614494 0.523785 0.190665
O O3 0.487359 0.186125 0.621834
O O4 0.338428 0.485324 0.580455
O O5 0.133329 0.986795 0.426465
O O6 0.174493 0.773010 0.333115
O O7 0.001359 0.029226 0.337921
O O8 0.175235 0.277947 0.343914
O O9 0.748082 0.250000 0.500000
O O10 0.758209 0.750000 0.500000
O O11 0.879282 0.514948 0.750000
#
# Coordination Sequence:
#
# PCOD9436442 Si02
#       5
#     4   8   8   8   8
#     4   8  16  34  58  84 112 138 178 246 302 358
#     4  10  21  40  65  87 117 155 203 249 308 359
#     4  10  20  37  59  86 123 154 198 247 304 341
#     4  12  26  42  59  86 128 162 210 256 285 351
#     4  10  19  38  64  91 123 153 199 249 298 376
#
# _framework density 22.47617
#
# number of rings (size 3 to 8) (size 9 to 14) (size 15 to 20)
#    0.000    1.778    0.000    6.000    0.000    2.667 
#    6.000   13.333    4.889    0.000    0.000    0.000 
#    0.000    0.000    0.000    0.000    0.000    0.000 
#
# Total GULP energy -201008.478028 kJ/mol
# GULP energy per Si atom -5583.568834 kJ/mol
# Density = 2.242501 g / cm^3
# Si number density = 22.476170 Si / 1000 Ang^3
#
#
#
# Elastic Constant Matrix: (Units=GPa)
#
#
# Indices 1 2 3 4 5 6 
#
# 1 22.0448 12.5882 16.3869 0.0000 0.0000 0.0000
# 2 12.5882 126.7688 1.8014 0.0000 0.0000 0.0000
# 3 16.3869 1.8014 138.7859 0.0000 0.0000 0.0000
# 4 0.0000 0.0000 0.0000 54.4686 0.0000 0.0000
# 5 0.0000 0.0000 0.0000 0.0000 30.2441 0.0000
# 6 0.0000 0.0000 0.0000 0.0000 0.0000 15.9060
#
#
#
# Elastic Compliance Matrix: (Units=1/GPa)
#
#
# Indices 1 2 3 4 5 6 
#
# 1 0.052906 -0.005166 -0.006180 0.000000 0.000000 0.000000
# 2 -0.005166 0.008394 0.000501 0.000000 0.000000 0.000000
# 3 -0.006180 0.000501 0.007928 0.000000 0.000000 0.000000
# 4 0.000000 0.000000 0.000000 0.018359 0.000000 0.000000
# 5 0.000000 0.000000 0.000000 0.000000 0.033064 0.000000
# 6 0.000000 0.000000 0.000000 0.000000 0.000000 0.062869
#
#
# Mechanical properties :
#
#
# Convention : Reuss Voigt Hill
#
# Bulk Modulus (GPa) = 21.03516 38.79472 29.91494
# Shear Modulus (GPa) = 22.61864 37.24526 29.93195
#
# Velocity S-wave (km/s) = 3.17573 4.07517 3.65323
# Velocity P-wave (km/s) = 4.77767 6.28017 5.57972
#
# Compressibility (1/GPa) = 0.04753944
#
# Stress axis : x y z
#
# Youngs Moduli (GPa) = 18.90158 119.12960 126.12736
#
# Poissons Ratio (x) = 0.61539 0.77943
# Poissons Ratio (y) = 0.09764 -0.06319
# Poissons Ratio (z) = 0.11681 -0.05968
#
# Static dielectric constant tensor:
#      x y z
#    x 1.746250 0.000000 0.000000 
#    y 0.000000 1.919530 0.000000 
#    z 0.000000 0.000000 1.810820 
# 
# From -- ./inp_files/25207.got.cif
#   From: 2010.05.17/outbox.cif.g08.bks.cpg/sg57_13_cif.got.tgz:25207.got - 2010.06.03 13:58:18.
