data_PCOD9436506
_publ_section_title
;
Structure prediction by ZEFSAII (Michael W. Deem and Ramdas Pophale) SiO2 
 PCOD9436506
Probable space group: P B C M
;
_chemical_formula_sum "Si O2"
_cell_formula_units_Z 64
_cell_length_a 21.199704
_cell_length_b 19.723556
_cell_length_c 7.469191
_cell_angle_alpha 90.000000
_cell_angle_beta 90.000000
_cell_angle_gamma 90.000000
_cell_volume 3123.119341
_symmetry_space_group_name_H-M "P B C M"
_symmetry_group_IT_number 57
_symmetry_cell_setting 'orthorhombic'
loop_
_space_group_symop_operation_xyz
x,y,z
-x,-y,1/2+z
x,1/2-y,-z
-x,1/2+y,1/2-z
-x,-y,-z
x,y,1/2-z
-x,1/2+y,z
x,1/2-y,1/2+z
loop_
_atom_site_type_symbol
_atom_site_label
_atom_site_fract_x
_atom_site_fract_y
_atom_site_fract_z
Si Si1 0.768027 0.432484 0.460464
Si Si2 0.389495 0.169630 0.535090
Si Si3 0.472709 0.669423 0.963836
Si Si4 0.034287 0.394153 0.042873
Si Si5 0.335316 0.830077 0.034820
Si Si6 0.270591 0.082799 0.533105
Si Si7 0.909152 0.041253 0.968796
Si Si8 0.154981 0.326654 0.464305
O O1 0.776116 0.417983 0.250000
O O2 0.722646 0.374328 0.535761
O O3 0.733837 0.504818 0.479355
O O4 0.839216 0.440041 0.531823
O O5 0.380200 0.250000 0.500000
O O6 0.390788 0.163067 0.750000
O O7 0.458760 0.146926 0.466809
O O8 0.331915 0.123851 0.469282
O O9 0.472944 0.658478 0.750000
O O10 0.404463 0.645774 0.032735
O O11 0.472403 0.750000 0.000000
O O12 0.024681 0.375347 0.250000
O O13 0.085119 0.342575 0.962767
O O14 0.964496 0.407780 0.969239
O O15 0.069797 0.466858 0.032862
O O16 0.336777 0.838187 0.250000
O O17 0.328206 0.750000 0.000000
O O18 0.270576 0.085128 0.750000
O O19 0.207682 0.121397 0.468505
O O20 0.910068 0.038696 0.750000
O O21 0.174364 0.250000 0.500000
O O22 0.151970 0.335912 0.250000
#
# Coordination Sequence:
#
# PCOD9436506 Si02
#       8
#     8   8   8   8   8   8   8   8
#     4  10  20  33  50  73  98 126 159 197 239 286
#     4   9  17  29  47  70  95 126 164 202 239 279
#     4   8  14  27  47  68  91 121 157 197 237 281
#     4   9  17  31  49  69  92 119 155 197 236 275
#     4   9  18  33  52  73  96 122 156 197 243 291
#     4  10  20  33  47  68  98 130 163 198 238 284
#     4   9  17  30  50  71  91 119 155 194 234 278
#     4  10  20  32  47  68  97 130 160 195 237 281
#
# _framework density 20.492334
#
# number of rings (size 3 to 8) (size 9 to 14) (size 15 to 20)
#    0.000    2.750    1.250    0.375    0.000    2.000 
#    0.000    1.250    0.000    0.000    0.000    0.000 
#    0.000    0.000    0.000    0.000    0.000    0.000 
#
# Total GULP energy -356765.639504 kJ/mol
# GULP energy per Si atom -5574.463117 kJ/mol
# Density = 2.044569 g / cm^3
# Si number density = 20.492334 Si / 1000 Ang^3
#
#
#
# Elastic Constant Matrix: (Units=GPa)
#
#
# Indices 1 2 3 4 5 6 
#
# 1 180.1253 53.1476 0.1026 0.0000 0.0000 0.0000
# 2 53.1476 65.0675 -11.1851 0.0000 0.0000 0.0000
# 3 0.1026 -11.1851 61.5930 0.0000 0.0000 0.0000
# 4 0.0000 0.0000 0.0000 14.3129 0.0000 0.0000
# 5 0.0000 0.0000 0.0000 0.0000 22.9384 0.0000
# 6 0.0000 0.0000 0.0000 0.0000 0.0000 25.9030
#
#
#
# Elastic Compliance Matrix: (Units=1/GPa)
#
#
# Indices 1 2 3 4 5 6 
#
# 1 0.007392 -0.006234 -0.001144 0.000000 0.000000 0.000000
# 2 -0.006234 0.021122 0.003846 0.000000 0.000000 0.000000
# 3 -0.001144 0.003846 0.016936 0.000000 0.000000 0.000000
# 4 0.000000 0.000000 0.000000 0.069867 0.000000 0.000000
# 5 0.000000 0.000000 0.000000 0.000000 0.043595 0.000000
# 6 0.000000 0.000000 0.000000 0.000000 0.000000 0.038606
#
#
# Mechanical properties :
#
#
# Convention : Reuss Voigt Hill
#
# Bulk Modulus (GPa) = 26.05229 43.43510 34.74370
# Shear Modulus (GPa) = 23.00140 30.27890 26.64015
#
# Velocity S-wave (km/s) = 3.35392 3.84809 3.60947
# Velocity P-wave (km/s) = 5.26680 6.40199 5.86194
#
# Compressibility (1/GPa) = 0.03838434
#
# Stress axis : x y z
#
# Youngs Moduli (GPa) = 135.28345 47.34361 59.04592
#
# Poissons Ratio (x) = 0.29516 0.06758
# Poissons Ratio (y) = 0.84342 -0.22710
# Poissons Ratio (z) = 0.15483 -0.18209
#
# Static dielectric constant tensor:
#      x y z
#    x 1.794270 0.000000 0.000000 
#    y 0.000000 1.674710 0.000000 
#    z 0.000000 0.000000 1.749900 
# 
# From -- ./inp_files/8626.got.cif
#   From: 2010.05.17/outbox.cif.g08.bks.cpg/sg57_5_cif.got.tgz:8626.got - 2010.06.03 13:58:18.
