data_PCOD9436808
_publ_section_title
;
Structure prediction by ZEFSAII (Michael W. Deem and Ramdas Pophale) SiO2 
 PCOD9436808
Probable space group: P B C M
;
_chemical_formula_sum "Si O2"
_cell_formula_units_Z 56
_cell_length_a 14.244920
_cell_length_b 21.811739
_cell_length_c 7.784786
_cell_angle_alpha 90.000000
_cell_angle_beta 90.000000
_cell_angle_gamma 90.000000
_cell_volume 2418.783433
_symmetry_space_group_name_H-M "P B C M"
_symmetry_group_IT_number 57
_symmetry_cell_setting 'orthorhombic'
loop_
_space_group_symop_operation_xyz
x,y,z
-x,-y,1/2+z
x,1/2-y,-z
-x,1/2+y,1/2-z
-x,-y,-z
x,y,1/2-z
-x,1/2+y,z
x,1/2-y,1/2+z
loop_
_atom_site_type_symbol
_atom_site_label
_atom_site_fract_x
_atom_site_fract_y
_atom_site_fract_z
Si Si1 0.730327 0.316723 0.543380
Si Si2 0.583032 0.548105 0.545379
Si Si3 0.656547 0.680568 0.453353
Si Si4 0.717344 0.054764 0.042681
Si Si5 0.054714 0.818770 0.544150
Si Si6 0.106908 0.489786 0.047103
Si Si7 0.142099 0.139901 0.053314
O O1 0.690978 0.250000 0.500000
O O2 0.732912 0.319043 0.750000
O O3 0.681295 0.379208 0.480889
O O4 0.838197 0.320953 0.477730
O O5 0.500000 0.500000 0.500000
O O6 0.586156 0.551689 0.750000
O O7 0.593486 0.619547 0.490838
O O8 0.668877 0.506474 0.477084
O O9 0.624563 0.750000 0.500000
O O10 0.666093 0.680436 0.250000
O O11 0.763130 0.668654 0.525815
O O12 0.704319 0.054049 0.250000
O O13 0.828287 0.048370 0.010786
O O14 0.025778 0.750000 0.500000
O O15 0.061582 0.831037 0.750000
O O16 0.962870 0.853574 0.475081
O O17 0.114869 0.477726 0.250000
O O18 0.150940 0.432856 0.949094
O O19 0.000000 0.500000 0.000000
O O20 0.135209 0.163007 0.250000
#
# Coordination Sequence:
#
# PCOD9436808 Si02
#       7
#     8   8   8   8   8   8   8
#     4   9  17  32  52  76 108 150 197 244 295 351
#     4  11  23  44  70  96 124 162 210 260 324 394
#     4  11  23  40  65  97 132 167 207 261 322 388
#     4   9  19  37  60  82 114 157 199 246 307 374
#     4   9  17  29  46  70 108 153 198 242 290 346
#     4  11  21  34  53  81 117 162 209 255 308 368
#     4  10  20  34  52  80 118 160 206 258 309 365
#
# _framework density 23.152135000000001
#
# number of rings (size 3 to 8) (size 9 to 14) (size 15 to 20)
#    0.000    2.000    1.429    2.571    0.000    3.429 
#    0.000    6.429    0.000    1.714    0.000    0.000 
#    0.000    0.000    0.000    0.000    0.000    0.000 
#
# Total GULP energy -311779.258909 kJ/mol
# GULP energy per Si atom -5567.486766 kJ/mol
# Density = 2.309944 g / cm^3
# Si number density = 23.152135 Si / 1000 Ang^3
#
#
#
# Elastic Constant Matrix: (Units=GPa)
#
#
# Indices 1 2 3 4 5 6 
#
# 1 45.6341 25.2424 1.9301 0.0000 0.0000 0.0000
# 2 25.2424 189.8718 8.0464 0.0000 0.0000 0.0000
# 3 1.9301 8.0464 46.3100 0.0000 0.0000 0.0000
# 4 0.0000 0.0000 0.0000 29.2664 0.0000 0.0000
# 5 0.0000 0.0000 0.0000 0.0000 2.2575 0.0000
# 6 0.0000 0.0000 0.0000 0.0000 0.0000 20.0060
#
#
#
# Elastic Compliance Matrix: (Units=1/GPa)
#
#
# Indices 1 2 3 4 5 6 
#
# 1 0.023662 -0.003127 -0.000443 0.000000 0.000000 0.000000
# 2 -0.003127 0.005719 -0.000863 0.000000 0.000000 0.000000
# 3 -0.000443 -0.000863 0.021762 0.000000 0.000000 0.000000
# 4 0.000000 0.000000 0.000000 0.034169 0.000000 0.000000
# 5 0.000000 0.000000 0.000000 0.000000 0.442967 0.000000
# 6 0.000000 0.000000 0.000000 0.000000 0.000000 0.049985
#
#
# Mechanical properties :
#
#
# Convention : Reuss Voigt Hill
#
# Bulk Modulus (GPa) = 23.65373 39.13929 31.39651
# Shear Modulus (GPa) = 8.31640 26.74577 17.53108
#
# Velocity S-wave (km/s) = 1.89733 3.40254 2.75473
# Velocity P-wave (km/s) = 3.87797 5.69019 4.86914
#
# Compressibility (1/GPa) = 0.04227663
#
# Stress axis : x y z
#
# Youngs Moduli (GPa) = 42.26218 174.85546 45.95146
#
# Poissons Ratio (x) = 0.54676 0.02035
# Poissons Ratio (y) = 0.13215 0.03967
# Poissons Ratio (z) = 0.01872 0.15096
#
# Static dielectric constant tensor:
#      x y z
#    x 1.828380 0.000000 0.000000 
#    y 0.000000 1.995400 0.000000 
#    z 0.000000 0.000000 1.864680 
# 
# From -- ./inp_files/5220.got.cif
#   From: 2010.05.17/outbox.cif.g08.bks.cpg/sg57_3_cif.got.tgz:5220.got - 2010.06.03 13:58:18.
