data_PCOD9436886
_publ_section_title
;
Structure prediction by ZEFSAII (Michael W. Deem and Ramdas Pophale) SiO2 
 PCOD9436886
Probable space group: P B C M
;
_chemical_formula_sum "Si O2"
_cell_formula_units_Z 64
_cell_length_a 20.219489
_cell_length_b 20.298871
_cell_length_c 8.806207
_cell_angle_alpha 90.000000
_cell_angle_beta 90.000000
_cell_angle_gamma 90.000000
_cell_volume 3614.356187
_symmetry_space_group_name_H-M "P B C M"
_symmetry_group_IT_number 57
_symmetry_cell_setting 'orthorhombic'
loop_
_space_group_symop_operation_xyz
x,y,z
-x,-y,1/2+z
x,1/2-y,-z
-x,1/2+y,1/2-z
-x,-y,-z
x,y,1/2-z
-x,1/2+y,z
x,1/2-y,1/2+z
loop_
_atom_site_type_symbol
_atom_site_label
_atom_site_fract_x
_atom_site_fract_y
_atom_site_fract_z
Si Si1 0.025481 0.320078 0.067689
Si Si2 0.819772 0.040458 0.430723
Si Si3 0.445899 0.047213 0.429669
Si Si4 0.280586 0.318325 0.075967
Si Si5 0.122076 0.817685 0.568420
Si Si6 0.707302 0.542102 0.432330
Si Si7 0.558579 0.816551 0.423092
Si Si8 0.938977 0.541993 0.068291
O O1 0.028286 0.318936 0.250000
O O2 0.049398 0.250000 0.000000
O O3 0.061053 0.384677 0.001823
O O4 0.949287 0.326859 0.011269
O O5 0.826610 0.029410 0.250000
O O6 0.834689 0.117353 0.459262
O O7 0.749929 0.014427 0.489425
O O8 0.874001 0.997375 0.519087
O O9 0.447273 0.041084 0.250000
O O10 0.369730 0.035452 0.478414
O O11 0.461847 0.121070 0.480058
O O12 0.500000 0.000000 0.500000
O O13 0.257510 0.322880 0.250000
O O14 0.360987 0.314415 0.078084
O O15 0.257094 0.250000 0.000000
O O16 0.266643 0.385993 0.986986
O O17 0.150325 0.750000 0.500000
O O18 0.111840 0.810981 0.750000
O O19 0.711910 0.539067 0.250000
O O20 0.534873 0.750000 0.500000
O O21 0.536592 0.822738 0.250000
O O22 0.945546 0.545793 0.250000
O O23 0.000000 0.500000 0.000000
#
# Coordination Sequence:
#
# PCOD9436886 Si02
#       8
#     8   8   8   8   8   8   8   8
#     4  11  21  35  56  81 112 147 185 231 278 327
#     4  11  23  38  57  82 112 146 183 226 277 331
#     4  10  20  34  54  80 109 142 181 226 276 330
#     4   9  16  28  48  73 102 137 176 217 260 310
#     4  10  20  34  55  81 109 139 181 228 274 325
#     4  10  21  36  54  79 110 144 183 226 274 328
#     4   9  16  27  46  73 104 136 172 215 261 312
#     4  12  23  37  57  82 111 145 184 226 275 326
#
# _framework density 17.707163999999999
#
# number of rings (size 3 to 8) (size 9 to 14) (size 15 to 20)
#    0.000    1.750    1.250    5.250    0.000    6.000 
#    0.000    0.625    0.000    0.750    0.000    1.750 
#    0.000    0.000    0.000    0.000    0.000    0.000 
#
# Total GULP energy -357316.501414 kJ/mol
# GULP energy per Si atom -5583.070335 kJ/mol
# Density = 1.766686 g / cm^3
# Si number density = 17.707164 Si / 1000 Ang^3
#
#
#
# Elastic Constant Matrix: (Units=GPa)
#
#
# Indices 1 2 3 4 5 6 
#
# 1 47.2508 49.1962 32.2145 0.0000 0.0000 0.0000
# 2 49.1962 155.1118 65.7107 0.0000 0.0000 0.0000
# 3 32.2145 65.7107 117.1600 0.0000 0.0000 0.0000
# 4 0.0000 0.0000 0.0000 37.0281 0.0000 0.0000
# 5 0.0000 0.0000 0.0000 0.0000 22.6516 0.0000
# 6 0.0000 0.0000 0.0000 0.0000 0.0000 34.7318
#
#
#
# Elastic Compliance Matrix: (Units=1/GPa)
#
#
# Indices 1 2 3 4 5 6 
#
# 1 0.033113 -0.008716 -0.004216 0.000000 0.000000 0.000000
# 2 -0.008716 0.010751 -0.003633 0.000000 0.000000 0.000000
# 3 -0.004216 -0.003633 0.011732 0.000000 0.000000 0.000000
# 4 0.000000 0.000000 0.000000 0.027007 0.000000 0.000000
# 5 0.000000 0.000000 0.000000 0.000000 0.044147 0.000000
# 6 0.000000 0.000000 0.000000 0.000000 0.000000 0.028792
#
#
# Mechanical properties :
#
#
# Convention : Reuss Voigt Hill
#
# Bulk Modulus (GPa) = 44.51335 68.19615 56.35475
# Shear Modulus (GPa) = 25.48927 30.37571 27.93249
#
# Velocity S-wave (km/s) = 3.79818 4.14629 3.97604
# Velocity P-wave (km/s) = 6.66544 7.84342 7.27830
#
# Compressibility (1/GPa) = 0.02246517
#
# Stress axis : x y z
#
# Youngs Moduli (GPa) = 30.19927 93.01892 85.23546
#
# Poissons Ratio (x) = 0.81078 0.35937
# Poissons Ratio (y) = 0.26323 0.30965
# Poissons Ratio (z) = 0.12733 0.33793
#
# Static dielectric constant tensor:
#      x y z
#    x 1.607490 0.000000 0.000000 
#    y 0.000000 1.602320 0.000000 
#    z 0.000000 0.000000 1.594720 
# 
# From -- ./inp_files/8631.got.cif
#   From: 2010.05.17/outbox.cif.g08.bks.cpg/sg57_5_cif.got.tgz:8631.got - 2010.06.03 13:58:18.
