data_PCOD9436616
_publ_section_title
;
Structure prediction by ZEFSAII (Michael W. Deem and Ramdas Pophale) SiO2 
 PCOD9436616
Probable space group: P B C M
;
_chemical_formula_sum "Si O2"
_cell_formula_units_Z 40
_cell_length_a 15.538919
_cell_length_b 13.469536
_cell_length_c 8.036412
_cell_angle_alpha 90.000000
_cell_angle_beta 90.000000
_cell_angle_gamma 90.000000
_cell_volume 1682.037336
_symmetry_space_group_name_H-M "P B C M"
_symmetry_group_IT_number 57
_symmetry_cell_setting 'orthorhombic'
loop_
_space_group_symop_operation_xyz
x,y,z
-x,-y,1/2+z
x,1/2-y,-z
-x,1/2+y,1/2-z
-x,-y,-z
x,y,1/2-z
-x,1/2+y,z
x,1/2-y,1/2+z
loop_
_atom_site_type_symbol
_atom_site_label
_atom_site_fract_x
_atom_site_fract_y
_atom_site_fract_z
Si Si1 0.308683 0.424436 0.051413
Si Si2 0.325223 0.645823 0.437820
Si Si3 0.061117 0.860032 0.948956
Si Si4 0.508650 0.885203 0.450319
Si Si5 0.874947 0.929008 0.553044
O O1 0.321504 0.432631 0.250000
O O2 0.309679 0.538052 0.979544
O O3 0.392977 0.364045 0.994772
O O4 0.213487 0.386095 0.018080
O O5 0.288544 0.750000 0.500000
O O6 0.294846 0.636338 0.250000
O O7 0.428759 0.657735 0.448389
O O8 0.061220 0.866650 0.750000
O O9 0.963045 0.879409 0.011588
O O10 0.088105 0.750000 0.000000
O O11 0.115868 0.953400 0.013320
O O12 0.497288 0.870794 0.250000
O O13 0.500000 0.000000 0.500000
O O14 0.872569 0.916485 0.750000
#
# Coordination Sequence:
#
# PCOD9436616 Si02
#       5
#     8   8   8   8   8
#     4   9  19  34  52  75 104 137 173 215 262 313
#     4  10  20  33  50  74 103 137 176 218 265 313
#     4  10  21  38  59  82 109 142 179 220 269 325
#     4   9  17  31  50  71  97 132 169 206 251 300
#     4  10  21  36  57  84 111 142 179 221 271 325
#
# _framework density 23.780684999999998
#
# number of rings (size 3 to 8) (size 9 to 14) (size 15 to 20)
#    0.000    2.400    0.000    3.600    0.000    8.000 
#    0.000    3.000    0.000    2.400    0.000    0.000 
#    0.000    0.000    0.000    0.000    0.000    0.000 
#
# Total GULP energy -223151.956025 kJ/mol
# GULP energy per Si atom -5578.798901 kJ/mol
# Density = 2.372656 g / cm^3
# Si number density = 23.780685 Si / 1000 Ang^3
#
#
#
# Elastic Constant Matrix: (Units=GPa)
#
#
# Indices 1 2 3 4 5 6 
#
# 1 156.4942 -6.5598 -11.1736 0.0000 0.0000 0.0000
# 2 -6.5598 79.5547 -12.7374 0.0000 0.0000 0.0000
# 3 -11.1736 -12.7374 22.9641 0.0000 0.0000 0.0000
# 4 0.0000 0.0000 0.0000 15.1588 0.0000 0.0000
# 5 0.0000 0.0000 0.0000 0.0000 21.1341 0.0000
# 6 0.0000 0.0000 0.0000 0.0000 0.0000 315.0396
#
#
#
# Elastic Compliance Matrix: (Units=1/GPa)
#
#
# Indices 1 2 3 4 5 6 
#
# 1 0.006720 0.001183 0.003926 0.000000 0.000000 0.000000
# 2 0.001183 0.014003 0.008343 0.000000 0.000000 0.000000
# 3 0.003926 0.008343 0.050084 0.000000 0.000000 0.000000
# 4 0.000000 0.000000 0.000000 0.065968 0.000000 0.000000
# 5 0.000000 0.000000 0.000000 0.000000 0.047317 0.000000
# 6 0.000000 0.000000 0.000000 0.000000 0.000000 0.003174
#
#
# Mechanical properties :
#
#
# Convention : Reuss Voigt Hill
#
# Bulk Modulus (GPa) = 10.23455 22.00792 16.12124
# Shear Modulus (GPa) = 25.91563 89.56543 57.74053
#
# Velocity S-wave (km/s) = 3.30476 6.14368 4.93286
# Velocity P-wave (km/s) = 4.34453 7.72018 6.26403
#
# Compressibility (1/GPa) = 0.09770825
#
# Stress axis : x y z
#
# Youngs Moduli (GPa) = 148.81226 71.41230 19.96662
#
# Poissons Ratio (x) = -0.08445 -0.07838
# Poissons Ratio (y) = -0.17599 -0.16657
# Poissons Ratio (z) = -0.58418 -0.59576
#
# Static dielectric constant tensor:
#      x y z
#    x 1.967610 0.000000 0.000000 
#    y 0.000000 1.860060 0.000000 
#    z 0.000000 0.000000 1.838280 
# 
# From -- ./inp_files/4295.got.cif
#   From: 2010.05.17/outbox.cif.g08.bks.cpg/sg57_3_cif.got.tgz:4295.got - 2010.06.03 13:58:18.
