data_PCOD9436992
_publ_section_title
;
Structure prediction by ZEFSAII (Michael W. Deem and Ramdas Pophale) SiO2 
 PCOD9436992
Probable space group: P B C M
;
_chemical_formula_sum "Si O2"
_cell_formula_units_Z 32
_cell_length_a 10.183216
_cell_length_b 20.231070
_cell_length_c 8.862808
_cell_angle_alpha 90.000000
_cell_angle_beta 90.000000
_cell_angle_gamma 90.000000
_cell_volume 1825.892268
_symmetry_space_group_name_H-M "P B C M"
_symmetry_group_IT_number 57
_symmetry_cell_setting 'orthorhombic'
loop_
_space_group_symop_operation_xyz
x,y,z
-x,-y,1/2+z
x,1/2-y,-z
-x,1/2+y,1/2-z
-x,-y,-z
x,y,1/2-z
-x,1/2+y,z
x,1/2-y,1/2+z
loop_
_atom_site_type_symbol
_atom_site_label
_atom_site_fract_x
_atom_site_fract_y
_atom_site_fract_z
Si Si1 0.181898 0.447361 0.570092
Si Si2 0.546162 0.930325 0.069450
Si Si3 0.111147 0.589112 0.069917
Si Si4 0.326330 0.821432 0.430631
O O1 0.199498 0.452972 0.750000
O O2 0.309815 0.415853 0.495747
O O3 0.163767 0.520745 0.501693
O O4 0.045058 0.409746 0.540355
O O5 0.551557 0.936617 0.250000
O O6 0.441602 0.873507 0.031000
O O7 0.500000 0.000000 0.000000
O O8 0.130859 0.587209 0.250000
O O9 0.192526 0.648343 0.997800
O O10 0.352745 0.750000 0.500000
O O11 0.317182 0.817342 0.250000
#
# Coordination Sequence:
#
# PCOD9436992 Si02
#       4
#     8   8   8   8
#     4  10  20  34  56  87 117 147 189 238 288 340
#     4  11  22  36  58  87 117 153 195 242 292 347
#     4  10  20  35  57  84 115 151 190 236 287 341
#     4  11  24  40  59  84 116 154 197 240 293 355
#
# _framework density 17.525677000000002
#
# number of rings (size 3 to 8) (size 9 to 14) (size 15 to 20)
#    0.000    1.500    2.500    3.000    0.000    6.000 
#    0.000    1.250    0.000    3.000    0.000    0.000 
#    0.000    0.000    0.000    0.000    0.000    0.000 
#
# Total GULP energy -178785.595302 kJ/mol
# GULP energy per Si atom -5587.049853 kJ/mol
# Density = 1.748579 g / cm^3
# Si number density = 17.525677 Si / 1000 Ang^3
#
#
#
# Elastic Constant Matrix: (Units=GPa)
#
#
# Indices 1 2 3 4 5 6 
#
# 1 134.5917 73.9475 69.3895 0.0000 0.0000 0.0000
# 2 73.9475 125.3556 63.5801 0.0000 0.0000 0.0000
# 3 69.3895 63.5801 78.2109 0.0000 0.0000 0.0000
# 4 0.0000 0.0000 0.0000 29.4666 0.0000 0.0000
# 5 0.0000 0.0000 0.0000 0.0000 35.0525 0.0000
# 6 0.0000 0.0000 0.0000 0.0000 0.0000 25.2707
#
#
#
# Elastic Compliance Matrix: (Units=1/GPa)
#
#
# Indices 1 2 3 4 5 6 
#
# 1 0.014524 -0.003458 -0.010075 0.000000 0.000000 0.000000
# 2 -0.003458 0.014397 -0.008636 0.000000 0.000000 0.000000
# 3 -0.010075 -0.008636 0.028745 0.000000 0.000000 0.000000
# 4 0.000000 0.000000 0.000000 0.033937 0.000000 0.000000
# 5 0.000000 0.000000 0.000000 0.000000 0.028529 0.000000
# 6 0.000000 0.000000 0.000000 0.000000 0.000000 0.039571
#
#
# Mechanical properties :
#
#
# Convention : Reuss Voigt Hill
#
# Bulk Modulus (GPa) = 75.02650 83.55472 79.29061
# Shear Modulus (GPa) = 23.98274 26.70738 25.34506
#
# Velocity S-wave (km/s) = 3.70325 3.90795 3.80698
# Velocity P-wave (km/s) = 7.82226 8.25481 8.04145
#
# Compressibility (1/GPa) = 0.01332862
#
# Stress axis : x y z
#
# Youngs Moduli (GPa) = 68.85317 69.45717 34.78853
#
# Poissons Ratio (x) = 0.24016 0.35048
# Poissons Ratio (y) = 0.23807 0.30045
# Poissons Ratio (z) = 0.69367 0.59986
#
# Static dielectric constant tensor:
#      x y z
#    x 1.613550 0.000000 0.000000 
#    y 0.000000 1.562280 0.000000 
#    z 0.000000 0.000000 1.581840 
# 
# From -- ./inp_files/1228.got.cif
#   From: 2010.05.17/outbox.cif.g08.bks.cpg/sg57_1_cif.got.tgz:1228.got - 2010.06.03 13:58:18.
