data_PCOD9436209
_publ_section_title
;
Structure prediction by ZEFSAII (Michael W. Deem and Ramdas Pophale) SiO2 
 PCOD9436209
Probable space group: P B C M
;
_chemical_formula_sum "Si O2"
_cell_formula_units_Z 64
_cell_length_a 24.308187
_cell_length_b 14.868660
_cell_length_c 8.943468
_cell_angle_alpha 90.000000
_cell_angle_beta 90.000000
_cell_angle_gamma 90.000000
_cell_volume 3232.439139
_symmetry_space_group_name_H-M "P B C M"
_symmetry_group_IT_number 57
_symmetry_cell_setting 'orthorhombic'
loop_
_space_group_symop_operation_xyz
x,y,z
-x,-y,1/2+z
x,1/2-y,-z
-x,1/2+y,1/2-z
-x,-y,-z
x,y,1/2-z
-x,1/2+y,z
x,1/2-y,1/2+z
loop_
_atom_site_type_symbol
_atom_site_label
_atom_site_fract_x
_atom_site_fract_y
_atom_site_fract_z
Si Si1 0.522756 0.091158 0.427030
Si Si2 0.368908 0.954705 0.069719
Si Si3 0.758353 0.660692 0.917660
Si Si4 0.403747 0.158289 0.425630
Si Si5 0.745539 0.457815 0.931523
Si Si6 0.940370 0.010687 0.572224
Si Si7 0.890703 0.660393 0.580664
Si Si8 0.152045 0.651012 0.930478
O O1 0.532700 0.080210 0.250000
O O2 0.580163 0.105224 0.511086
O O3 0.470157 0.155113 0.444780
O O4 0.500000 0.000000 0.500000
O O5 0.366313 0.547825 0.750000
O O6 0.312484 0.923349 0.993943
O O7 0.380930 0.060081 0.023576
O O8 0.735876 0.661740 0.750000
O O9 0.747097 0.562489 0.983133
O O10 0.824719 0.666421 0.910692
O O11 0.739415 0.750000 0.000000
O O12 0.383494 0.250000 0.500000
O O13 0.391890 0.162618 0.250000
O O14 0.748441 0.455347 0.750000
O O15 0.797058 0.404938 0.000293
O O16 0.945717 0.008639 0.750000
O O17 0.904701 0.098677 0.531965
O O18 0.905857 0.925875 0.514676
O O19 0.000000 0.000000 0.500000
O O20 0.911663 0.750000 0.500000
O O21 0.912076 0.652672 0.750000
O O22 0.157293 0.654073 0.750000
O O23 0.151959 0.750000 0.000000
#
# Coordination Sequence:
#
# PCOD9436209 Si02
#       8
#     8   8   8   8   8   8   8   8
#     4   9  17  32  52  76 105 143 189 237 290 350
#     4  10  21  36  54  81 113 150 196 246 295 353
#     4   9  19  33  54  83 115 153 194 238 291 352
#     4   9  19  33  52  79 113 149 188 235 292 354
#     4  11  22  39  62  89 121 162 206 253 307 364
#     4  11  24  41  64  94 126 162 202 250 305 361
#     4  10  19  35  58  86 120 156 194 239 291 354
#     4  11  25  45  69  94 122 161 206 254 307 362
#
# _framework density 19.799289999999999
#
# number of rings (size 3 to 8) (size 9 to 14) (size 15 to 20)
#    0.000    2.000    1.250    3.000    0.000    7.000 
#    0.000    4.375    0.000    1.500    0.000    0.000 
#    0.000    0.000    0.000    0.000    0.000    0.000 
#
# Total GULP energy -357096.487821 kJ/mol
# GULP energy per Si atom -5579.632622 kJ/mol
# Density = 1.975423 g / cm^3
# Si number density = 19.799290 Si / 1000 Ang^3
#
#
#
# Elastic Constant Matrix: (Units=GPa)
#
#
# Indices 1 2 3 4 5 6 
#
# 1 123.8223 37.6664 55.7625 0.0000 0.0000 0.0000
# 2 37.6664 86.3424 40.9949 0.0000 0.0000 0.0000
# 3 55.7625 40.9949 66.6148 0.0000 0.0000 0.0000
# 4 0.0000 0.0000 0.0000 30.2952 0.0000 0.0000
# 5 0.0000 0.0000 0.0000 0.0000 21.2316 0.0000
# 6 0.0000 0.0000 0.0000 0.0000 0.0000 -1.0718
#
#
#
# Elastic Compliance Matrix: (Units=1/GPa)
#
#
# Indices 1 2 3 4 5 6 
#
# 1 0.012994 -0.000712 -0.010439 0.000000 0.000000 0.000000
# 2 -0.000712 0.016402 -0.009498 0.000000 0.000000 0.000000
# 3 -0.010439 -0.009498 0.029594 0.000000 0.000000 0.000000
# 4 0.000000 0.000000 0.000000 0.033009 0.000000 0.000000
# 5 0.000000 0.000000 0.000000 0.000000 0.047100 0.000000
# 6 0.000000 0.000000 0.000000 0.000000 0.000000 -0.933013
#
#
# Mechanical properties :
#
#
# Convention : Reuss Voigt Hill
#
# Bulk Modulus (GPa) = 56.51836 60.62526 58.57181
# Shear Modulus (GPa) = -6.69594 19.58137 6.44271
#
# Velocity S-wave (km/s) = -1.84099 3.14824 1.80585
# Velocity P-wave (km/s) = 4.90802 6.62583 5.83053
#
# Compressibility (1/GPa) = 0.01769336
#
# Stress axis : x y z
#
# Youngs Moduli (GPa) = 76.96046 60.96856 33.79008
#
# Poissons Ratio (x) = 0.04343 0.35272
# Poissons Ratio (y) = 0.05482 0.32092
# Poissons Ratio (z) = 0.80336 0.57905
#
# Static dielectric constant tensor:
#      x y z
#    x 1.720710 0.000000 0.000000 
#    y 0.000000 1.691070 0.000000 
#    z 0.000000 0.000000 1.700480 
# 
# From -- ./inp_files/9345.got.cif
#   From: 2010.05.17/outbox.cif.g08.bks.cpg/sg57_5_cif.got.tgz:9345.got - 2010.06.03 13:58:18.
