data_PCOD9436934
_publ_section_title
;
Structure prediction by ZEFSAII (Michael W. Deem and Ramdas Pophale) SiO2 
 PCOD9436934
Probable space group: P B C M
;
_chemical_formula_sum "Si O2"
_cell_formula_units_Z 64
_cell_length_a 20.992128
_cell_length_b 18.853076
_cell_length_c 8.808836
_cell_angle_alpha 90.000000
_cell_angle_beta 90.000000
_cell_angle_gamma 90.000000
_cell_volume 3486.239414
_symmetry_space_group_name_H-M "P B C M"
_symmetry_group_IT_number 57
_symmetry_cell_setting 'orthorhombic'
loop_
_space_group_symop_operation_xyz
x,y,z
-x,-y,1/2+z
x,1/2-y,-z
-x,1/2+y,1/2-z
-x,-y,-z
x,y,1/2-z
-x,1/2+y,z
x,1/2-y,1/2+z
loop_
_atom_site_type_symbol
_atom_site_label
_atom_site_fract_x
_atom_site_fract_y
_atom_site_fract_z
Si Si1 0.000293 0.327349 0.066936
Si Si2 0.494540 0.578487 0.066811
Si Si3 0.886594 0.431782 0.432770
Si Si4 0.741460 0.084561 0.568047
Si Si5 0.627270 0.171808 0.068231
Si Si6 0.383105 0.171517 0.433323
Si Si7 0.260634 0.419406 0.567110
Si Si8 0.875902 0.586756 0.931754
O O1 0.999637 0.323830 0.250000
O O2 0.068077 0.360332 0.019514
O O3 0.942937 0.379499 0.020924
O O4 0.991303 0.250000 0.000000
O O5 0.494625 0.573267 0.250000
O O6 0.430360 0.619672 0.020180
O O7 0.555259 0.625849 0.021035
O O8 0.500000 0.500000 0.000000
O O9 0.888933 0.441687 0.250000
O O10 0.815859 0.402752 0.468366
O O11 0.892897 0.508171 0.509799
O O12 0.733417 0.091126 0.750000
O O13 0.693015 0.136802 0.486706
O O14 0.728309 0.002140 0.525979
O O15 0.626344 0.176855 0.250000
O O16 0.618930 0.250000 0.000000
O O17 0.385149 0.250000 0.500000
O O18 0.383046 0.175833 0.250000
O O19 0.319386 0.129485 0.480279
O O20 0.255417 0.417469 0.750000
O O21 0.193478 0.395751 0.497880
O O22 0.872845 0.586408 0.750000
#
# Coordination Sequence:
#
# PCOD9436934 Si02
#       8
#     8   8   8   8   8   8   8   8
#     4  10  22  37  53  77 108 141 178 220 267 318
#     4  10  22  39  59  82 107 139 180 223 266 313
#     4   9  19  37  58  79 105 139 179 220 265 317
#     4   9  18  35  58  80 105 139 177 220 266 313
#     4  11  23  37  55  81 112 144 177 216 264 317
#     4  10  21  37  56  80 110 143 179 218 264 316
#     4   9  19  36  57  79 106 142 179 217 264 316
#     4  10  20  34  55  82 108 137 177 222 265 314
#
# _framework density 18.357890000000001
#
# number of rings (size 3 to 8) (size 9 to 14) (size 15 to 20)
#    0.000    2.250    0.000    3.000    0.000    7.500 
#    0.000    3.750    0.000    0.000    0.000    0.000 
#    0.000    0.000    0.000    0.000    0.000    0.000 
#
# Total GULP energy -357382.179762 kJ/mol
# GULP energy per Si atom -5584.096559 kJ/mol
# Density = 1.831611 g / cm^3
# Si number density = 18.357890 Si / 1000 Ang^3
#
#
#
# Elastic Constant Matrix: (Units=GPa)
#
#
# Indices 1 2 3 4 5 6 
#
# 1 60.8919 25.4372 12.2251 0.0000 0.0000 0.0000
# 2 25.4372 63.9107 12.0022 0.0000 0.0000 0.0000
# 3 12.2251 12.0022 10.2313 0.0000 0.0000 0.0000
# 4 0.0000 0.0000 0.0000 35.7260 0.0000 0.0000
# 5 0.0000 0.0000 0.0000 0.0000 25.8466 0.0000
# 6 0.0000 0.0000 0.0000 0.0000 0.0000 2.8897
#
#
#
# Elastic Compliance Matrix: (Units=1/GPa)
#
#
# Indices 1 2 3 4 5 6 
#
# 1 0.022824 -0.005082 -0.021310 0.000000 0.000000 0.000000
# 2 -0.005082 0.021199 -0.018796 0.000000 0.000000 0.000000
# 3 -0.021310 -0.018796 0.145252 0.000000 0.000000 0.000000
# 4 0.000000 0.000000 0.000000 0.027991 0.000000 0.000000
# 5 0.000000 0.000000 0.000000 0.000000 0.038690 0.000000
# 6 0.000000 0.000000 0.000000 0.000000 0.000000 0.346059
#
#
# Mechanical properties :
#
#
# Convention : Reuss Voigt Hill
#
# Bulk Modulus (GPa) = 10.11139 26.04034 18.07587
# Shear Modulus (GPa) = 6.89315 18.58377 12.73846
#
# Velocity S-wave (km/s) = 1.93985 3.18512 2.63705
# Velocity P-wave (km/s) = 3.24611 5.26710 4.37490
#
# Compressibility (1/GPa) = 0.09889840
#
# Stress axis : x y z
#
# Youngs Moduli (GPa) = 43.81361 47.17096 6.88461
#
# Poissons Ratio (x) = 0.23974 0.14671
# Poissons Ratio (y) = 0.22267 0.12940
# Poissons Ratio (z) = 0.93366 0.88663
#
# Static dielectric constant tensor:
#      x y z
#    x 1.629470 0.000000 0.000000 
#    y 0.000000 1.589990 0.000000 
#    z 0.000000 0.000000 1.620390 
# 
# From -- ./inp_files/7152.got.cif
#   From: 2010.05.17/outbox.cif.g08.bks.cpg/sg57_4_cif.got.tgz:7152.got - 2010.06.03 13:58:18.
