data_PCOD9436491
_publ_section_title
;
Structure prediction by ZEFSAII (Michael W. Deem and Ramdas Pophale) SiO2 
 PCOD9436491
Probable space group: P B C M
;
_chemical_formula_sum "Si O2"
_cell_formula_units_Z 56
_cell_length_a 13.976249
_cell_length_b 23.493215
_cell_length_c 7.777681
_cell_angle_alpha 90.000000
_cell_angle_beta 90.000000
_cell_angle_gamma 90.000000
_cell_volume 2553.778399
_symmetry_space_group_name_H-M "P B C M"
_symmetry_group_IT_number 57
_symmetry_cell_setting 'orthorhombic'
loop_
_space_group_symop_operation_xyz
x,y,z
-x,-y,1/2+z
x,1/2-y,-z
-x,1/2+y,1/2-z
-x,-y,-z
x,y,1/2-z
-x,1/2+y,z
x,1/2-y,1/2+z
loop_
_atom_site_type_symbol
_atom_site_label
_atom_site_fract_x
_atom_site_fract_y
_atom_site_fract_z
Si Si1 0.366875 0.612232 0.544956
Si Si2 0.642244 0.517702 0.454891
Si Si3 0.954522 0.616688 0.044394
Si Si4 0.860802 0.995156 0.955893
Si Si5 0.844525 0.375116 0.554887
Si Si6 0.566225 0.865300 0.051986
Si Si7 0.763936 0.684096 0.544924
O O1 0.378955 0.607996 0.750000
O O2 0.369348 0.546842 0.479717
O O3 0.260516 0.636508 0.518867
O O4 0.460419 0.644837 0.476214
O O5 0.622346 0.519464 0.250000
O O6 0.754599 0.530909 0.478462
O O7 0.581822 0.566468 0.545011
O O8 0.966934 0.610857 0.250000
O O9 0.933546 0.552637 0.978005
O O10 0.053505 0.643501 0.975271
O O11 0.859345 0.652767 0.017282
O O12 0.872218 0.004571 0.750000
O O13 0.857439 0.056147 0.045283
O O14 0.840284 0.354975 0.750000
O O15 0.564175 0.845733 0.250000
O O16 0.662607 0.839296 0.972366
O O17 0.770621 0.750000 0.500000
O O18 0.762153 0.675882 0.750000
#
# Coordination Sequence:
#
# PCOD9436491 Si02
#       7
#     8   8   8   8   8   8   8
#     4   9  19  34  49  72 110 148 179 214 261 318
#     4   9  16  27  47  74 106 144 177 210 261 317
#     4  10  20  36  55  76 108 143 178 225 273 318
#     4   9  17  30  48  73 109 149 181 215 265 318
#     4  10  20  31  49  79 111 145 184 220 255 310
#     4  10  20  34  53  76 103 137 179 224 267 317
#     4  11  24  40  60  84 106 134 177 228 279 326
#
# _framework density 21.928293
#
# number of rings (size 3 to 8) (size 9 to 14) (size 15 to 20)
#    0.000    2.286    1.429    2.571    0.000    5.143 
#    0.000    0.000    0.000    0.857    0.000    4.000 
#    0.000    0.000    0.000    0.000    0.000    0.000 
#
# Total GULP energy -312311.122174 kJ/mol
# GULP energy per Si atom -5576.984325 kJ/mol
# Density = 2.187838 g / cm^3
# Si number density = 21.928293 Si / 1000 Ang^3
#
#
#
# Elastic Constant Matrix: (Units=GPa)
#
#
# Indices 1 2 3 4 5 6 
#
# 1 206.1806 37.9220 9.9414 0.0000 0.0000 0.0000
# 2 37.9220 27.7947 -9.7568 0.0000 0.0000 0.0000
# 3 9.9414 -9.7568 28.4945 0.0000 0.0000 0.0000
# 4 0.0000 0.0000 0.0000 9.0681 0.0000 0.0000
# 5 0.0000 0.0000 0.0000 0.0000 18.1525 0.0000
# 6 0.0000 0.0000 0.0000 0.0000 0.0000 14.2942
#
#
#
# Elastic Compliance Matrix: (Units=1/GPa)
#
#
# Indices 1 2 3 4 5 6 
#
# 1 0.007526 -0.012719 -0.006981 0.000000 0.000000 0.000000
# 2 -0.012719 0.062387 0.025799 0.000000 0.000000 0.000000
# 3 -0.006981 0.025799 0.046364 0.000000 0.000000 0.000000
# 4 0.000000 0.000000 0.000000 0.110276 0.000000 0.000000
# 5 0.000000 0.000000 0.000000 0.000000 0.055089 0.000000
# 6 0.000000 0.000000 0.000000 0.000000 0.000000 0.069959
#
#
# Mechanical properties :
#
#
# Convention : Reuss Voigt Hill
#
# Bulk Modulus (GPa) = 7.78347 37.63145 22.70746
# Shear Modulus (GPa) = 13.08125 23.26051 18.17088
#
# Velocity S-wave (km/s) = 2.44508 3.26045 2.88175
# Velocity P-wave (km/s) = 3.39536 5.60111 4.63146
#
# Compressibility (1/GPa) = 0.12847748
#
# Stress axis : x y z
#
# Youngs Moduli (GPa) = 132.87277 16.02893 21.56844
#
# Poissons Ratio (x) = 0.20387 0.15056
# Poissons Ratio (y) = 1.68996 -0.55645
# Poissons Ratio (z) = 0.92755 -0.41354
#
# Static dielectric constant tensor:
#      x y z
#    x 1.928480 0.000000 0.000000 
#    y 0.000000 1.757010 0.000000 
#    z 0.000000 0.000000 1.791310 
# 
# From -- ./inp_files/5123.got.cif
#   From: 2010.05.17/outbox.cif.g08.bks.cpg/sg57_3_cif.got.tgz:5123.got - 2010.06.03 13:58:18.
