data_PCOD9436042
_publ_section_title
;
Structure prediction by ZEFSAII (Michael W. Deem and Ramdas Pophale) SiO2 
 PCOD9436042
Probable space group: P B C M
;
_chemical_formula_sum "Si O2"
_cell_formula_units_Z 48
_cell_length_a 6.477132
_cell_length_b 23.515086
_cell_length_c 17.715813
_cell_angle_alpha 90.000000
_cell_angle_beta 90.000000
_cell_angle_gamma 90.000000
_cell_volume 2698.301076
_symmetry_space_group_name_H-M "P B C M"
_symmetry_group_IT_number 57
_symmetry_cell_setting 'orthorhombic'
loop_
_space_group_symop_operation_xyz
x,y,z
-x,-y,1/2+z
x,1/2-y,-z
-x,1/2+y,1/2-z
-x,-y,-z
x,y,1/2-z
-x,1/2+y,z
x,1/2-y,1/2+z
loop_
_atom_site_type_symbol
_atom_site_label
_atom_site_fract_x
_atom_site_fract_y
_atom_site_fract_z
Si Si1 0.191492 0.774835 0.838602
Si Si2 0.185071 0.038788 0.468978
Si Si3 0.427310 0.564805 0.566696
Si Si4 0.500589 0.831745 0.337861
Si Si5 0.132775 0.211027 0.565885
Si Si6 0.869240 0.132163 0.042445
O O1 0.180683 0.787959 0.750000
O O2 0.357048 0.723889 0.848794
O O3 0.225190 0.830023 0.890662
O O4 0.978976 0.749385 0.871549
O O5 0.339596 0.056340 0.536779
O O6 0.066188 0.093057 0.434600
O O7 0.324353 0.996627 0.418410
O O8 0.000000 0.000000 0.500000
O O9 0.402501 0.608984 0.634807
O O10 0.303583 0.593514 0.496892
O O11 0.555414 0.834317 0.250000
O O12 0.696428 0.824531 0.391693
O O13 0.228934 0.250000 0.500000
O O14 0.961557 0.174031 0.521906
#
# Coordination Sequence:
#
# PCOD9436042 Si02
#       6
#     8   8   8   8   8   8
#     4  10  22  36  51  80 116 147 180 225 279 336
#     4   9  19  35  57  83 105 138 187 231 274 319
#     4  10  19  34  57  81 109 140 188 233 272 332
#     4  11  22  34  52  81 116 148 179 231 289 334
#     4  10  20  32  54  79 109 145 186 222 272 333
#     4  10  19  34  58  81 105 144 188 230 271 328
#
# _framework density 17.788971
#
# number of rings (size 3 to 8) (size 9 to 14) (size 15 to 20)
#    0.000    2.000    3.333    0.500    2.333    0.000 
#    0.000    0.833    0.000    9.000    0.000    0.000 
#    0.000    0.000    0.000    0.000    0.000    0.000 
#
# Total GULP energy -267369.731552 kJ/mol
# GULP energy per Si atom -5570.202741 kJ/mol
# Density = 1.774848 g / cm^3
# Si number density = 17.788971 Si / 1000 Ang^3
#
#
#
# Elastic Constant Matrix: (Units=GPa)
#
#
# Indices 1 2 3 4 5 6 
#
# 1 48.3093 14.0603 33.5279 0.0000 0.0000 0.0000
# 2 14.0603 78.7244 41.6063 0.0000 0.0000 0.0000
# 3 33.5279 41.6063 97.4743 0.0000 0.0000 0.0000
# 4 0.0000 0.0000 0.0000 13.1926 0.0000 0.0000
# 5 0.0000 0.0000 0.0000 0.0000 14.0000 0.0000
# 6 0.0000 0.0000 0.0000 0.0000 0.0000 31.6850
#
#
#
# Elastic Compliance Matrix: (Units=1/GPa)
#
#
# Indices 1 2 3 4 5 6 
#
# 1 0.027192 0.000112 -0.009401 0.000000 0.000000 0.000000
# 2 0.000112 0.016403 -0.007040 0.000000 0.000000 0.000000
# 3 -0.009401 -0.007040 0.016498 0.000000 0.000000 0.000000
# 4 0.000000 0.000000 0.000000 0.075800 0.000000 0.000000
# 5 0.000000 0.000000 0.000000 0.000000 0.071429 0.000000
# 6 0.000000 0.000000 0.000000 0.000000 0.000000 0.031561
#
#
# Mechanical properties :
#
#
# Convention : Reuss Voigt Hill
#
# Bulk Modulus (GPa) = 36.45018 44.76632 40.60825
# Shear Modulus (GPa) = 17.81355 20.79642 19.30498
#
# Velocity S-wave (km/s) = 3.16789 3.42286 3.29784
# Velocity P-wave (km/s) = 5.82371 6.39071 6.11378
#
# Compressibility (1/GPa) = 0.02743471
#
# Stress axis : x y z
#
# Youngs Moduli (GPa) = 36.77575 60.96328 60.61443
#
# Poissons Ratio (x) = -0.00682 0.56983
# Poissons Ratio (y) = -0.00411 0.42673
# Poissons Ratio (z) = 0.34572 0.42919
#
# Static dielectric constant tensor:
#      x y z
#    x 1.625490 0.000000 0.000000 
#    y 0.000000 1.677600 0.000000 
#    z 0.000000 0.000000 1.571840 
# 
# From -- ./inp_files/20178.got.cif
#   From: 2010.05.17/outbox.cif.g08.bks.cpg/sg57_11_cif.got.tgz:20178.got - 2010.06.03 13:58:18.
