data_PCOD9436281
_publ_section_title
;
Structure prediction by ZEFSAII (Michael W. Deem and Ramdas Pophale) SiO2 
 PCOD9436281
Probable space group: P B C M
;
_chemical_formula_sum "Si O2"
_cell_formula_units_Z 56
_cell_length_a 5.419412
_cell_length_b 14.513354
_cell_length_c 27.771408
_cell_angle_alpha 90.000000
_cell_angle_beta 90.000000
_cell_angle_gamma 90.000000
_cell_volume 2184.328015
_symmetry_space_group_name_H-M "P B C M"
_symmetry_group_IT_number 57
_symmetry_cell_setting 'orthorhombic'
loop_
_space_group_symop_operation_xyz
x,y,z
-x,-y,1/2+z
x,1/2-y,-z
-x,1/2+y,1/2-z
-x,-y,-z
x,y,1/2-z
-x,1/2+y,z
x,1/2-y,1/2+z
loop_
_atom_site_type_symbol
_atom_site_label
_atom_site_fract_x
_atom_site_fract_y
_atom_site_fract_z
Si Si1 0.057158 0.425107 0.041463
Si Si2 0.805139 0.653941 0.802519
Si Si3 0.682358 0.165368 0.851148
Si Si4 0.214315 0.568947 0.304824
Si Si5 0.440142 0.890737 0.493257
Si Si6 0.855237 0.969822 0.874583
Si Si7 0.463694 0.659611 0.400349
O O1 0.065213 0.481809 0.091739
O O2 0.795662 0.373656 0.040126
O O3 0.000000 0.500000 0.000000
O O4 0.294166 0.363903 0.029139
O O5 0.892383 0.682339 0.750000
O O6 0.523720 0.683696 0.810362
O O7 0.779724 0.542654 0.804042
O O8 0.030041 0.683368 0.837665
O O9 0.680974 0.056846 0.863545
O O10 0.572592 0.234468 0.889784
O O11 0.261065 0.600834 0.250000
O O12 0.358965 0.613391 0.350282
O O13 0.935120 0.577971 0.324800
O O14 0.365314 0.856367 0.545977
O O15 0.500000 0.000000 0.500000
O O16 0.728986 0.889334 0.904548
#
# Coordination Sequence:
#
# PCOD9436281 Si02
#       7
#     8   8   8   8   8   8   8
#     4  10  19  35  66  98 123 172 215 263 344 399
#     4  10  22  45  66  89 134 179 227 286 343 402
#     4  11  26  41  65 101 131 182 226 281 354 404
#     4  10  23  41  67  98 131 183 235 278 346 417
#     4  10  20  36  64  99 126 169 215 267 340 397
#     4  11  23  43  69  95 143 181 230 293 348 417
#     4  12  24  41  70  98 139 177 234 286 345 422
#
# _framework density 25.637174000000002
#
# number of rings (size 3 to 8) (size 9 to 14) (size 15 to 20)
#    0.000    1.429    4.286    2.143    2.000    2.286 
#    0.000    0.714    0.000    1.714    0.000    0.000 
#    0.000    0.000    0.000    0.000    0.000    0.000 
#
# Total GULP energy -312062.208383 kJ/mol
# GULP energy per Si atom -5572.539435 kJ/mol
# Density = 2.557882 g / cm^3
# Si number density = 25.637174 Si / 1000 Ang^3
#
#
#
# Elastic Constant Matrix: (Units=GPa)
#
#
# Indices 1 2 3 4 5 6 
#
# 1 135.1306 16.3375 33.6945 0.0000 0.0000 0.0000
# 2 16.3375 51.1523 11.9044 0.0000 0.0000 0.0000
# 3 33.6945 11.9044 127.8996 0.0000 0.0000 0.0000
# 4 0.0000 0.0000 0.0000 25.8707 0.0000 0.0000
# 5 0.0000 0.0000 0.0000 0.0000 41.9951 0.0000
# 6 0.0000 0.0000 0.0000 0.0000 0.0000 5.3548
#
#
#
# Elastic Compliance Matrix: (Units=1/GPa)
#
#
# Indices 1 2 3 4 5 6 
#
# 1 0.008145 -0.002149 -0.001946 0.000000 0.000000 0.000000
# 2 -0.002149 0.020549 -0.001347 0.000000 0.000000 0.000000
# 3 -0.001946 -0.001347 0.008457 0.000000 0.000000 0.000000
# 4 0.000000 0.000000 0.000000 0.038654 0.000000 0.000000
# 5 0.000000 0.000000 0.000000 0.000000 0.023812 0.000000
# 6 0.000000 0.000000 0.000000 0.000000 0.000000 0.186748
#
#
# Mechanical properties :
#
#
# Convention : Reuss Voigt Hill
#
# Bulk Modulus (GPa) = 38.06797 48.67280 43.37039
# Shear Modulus (GPa) = 16.33970 31.46052 23.90011
#
# Velocity S-wave (km/s) = 2.52731 3.50686 3.05658
# Velocity P-wave (km/s) = 4.83708 5.95180 5.42316
#
# Compressibility (1/GPa) = 0.02626880
#
# Stress axis : x y z
#
# Youngs Moduli (GPa) = 122.77150 48.66388 118.25107
#
# Poissons Ratio (x) = 0.10456 0.23010
# Poissons Ratio (y) = 0.26379 0.15923
# Poissons Ratio (z) = 0.23889 0.06553
#
# Static dielectric constant tensor:
#      x y z
#    x 2.338210 0.000000 0.000000 
#    y 0.000000 2.037010 0.000000 
#    z 0.000000 0.000000 2.094420 
# 
# From -- ./inp_files/29141.got.cif
#   From: 2010.05.17/outbox.cif.g08.bks.cpg/sg57_15_cif.got.tgz:29141.got - 2010.06.03 13:58:18.
