data_PCOD9436995
_publ_section_title
;
Structure prediction by ZEFSAII (Michael W. Deem and Ramdas Pophale) SiO2 
 PCOD9436995
Probable space group: P B C M
;
_chemical_formula_sum "Si O2"
_cell_formula_units_Z 56
_cell_length_a 5.739505
_cell_length_b 25.018325
_cell_length_c 21.610211
_cell_angle_alpha 90.000000
_cell_angle_beta 90.000000
_cell_angle_gamma 90.000000
_cell_volume 3103.070737
_symmetry_space_group_name_H-M "P B C M"
_symmetry_group_IT_number 57
_symmetry_cell_setting 'orthorhombic'
loop_
_space_group_symop_operation_xyz
x,y,z
-x,-y,1/2+z
x,1/2-y,-z
-x,1/2+y,1/2-z
-x,-y,-z
x,y,1/2-z
-x,1/2+y,z
x,1/2-y,1/2+z
loop_
_atom_site_type_symbol
_atom_site_label
_atom_site_fract_x
_atom_site_fract_y
_atom_site_fract_z
Si Si1 0.087360 0.357369 0.096538
Si Si2 0.537108 0.713865 0.062694
Si Si3 0.591232 0.709890 0.821660
Si Si4 0.037919 0.660229 0.463036
Si Si5 0.290215 0.601792 0.819167
Si Si6 0.815544 0.458358 0.973818
Si Si7 0.558537 0.550644 0.917225
O O1 0.179099 0.316388 0.147782
O O2 0.286959 0.396386 0.070705
O O3 0.917487 0.396190 0.132840
O O4 0.973889 0.329653 0.037416
O O5 0.523435 0.746966 0.126803
O O6 0.287922 0.683409 0.058728
O O7 0.788300 0.682252 0.062325
O O8 0.548605 0.750000 0.000000
O O9 0.620910 0.727220 0.750000
O O10 0.409428 0.660417 0.820945
O O11 0.063470 0.596372 0.453813
O O12 0.217672 0.589913 0.750000
O O13 0.467858 0.559843 0.848110
O O14 0.680958 0.493555 0.923249
O O15 0.636055 0.446852 0.029475
O O16 0.000000 0.500000 0.000000
#
# Coordination Sequence:
#
# PCOD9436995 Si02
#       7
#     8   8   8   8   8   8   8
#     4  11  19  36  57  93 123 157 199 260 313 383
#     4  12  25  40  61  91 127 166 206 263 312 368
#     4  10  23  40  60  87 124 170 211 253 317 381
#     4  12  24  38  61  93 128 159 211 255 316 372
#     4  10  20  35  59  87 120 157 203 257 313 379
#     4  11  21  35  59  87 120 160 194 251 309 378
#     4  10  20  34  56  87 125 155 195 248 313 371
#
# _framework density 18.04664
#
# number of rings (size 3 to 8) (size 9 to 14) (size 15 to 20)
#    0.000    1.143    4.286    2.571    4.000    0.571 
#    0.000    0.000    0.000    1.714    0.000    0.000 
#    0.000    0.000    0.000    0.000    0.000    0.000 
#
# Total GULP energy -312083.830659 kJ/mol
# GULP energy per Si atom -5572.925547 kJ/mol
# Density = 1.800556 g / cm^3
# Si number density = 18.046640 Si / 1000 Ang^3
#
#
#
# Elastic Constant Matrix: (Units=GPa)
#
#
# Indices 1 2 3 4 5 6 
#
# 1 98.9112 43.8470 40.4494 0.0000 0.0000 0.0000
# 2 43.8470 82.6938 48.4829 0.0000 0.0000 0.0000
# 3 40.4494 48.4829 125.0282 0.0000 0.0000 0.0000
# 4 0.0000 0.0000 0.0000 25.0454 0.0000 0.0000
# 5 0.0000 0.0000 0.0000 0.0000 9.0881 0.0000
# 6 0.0000 0.0000 0.0000 0.0000 0.0000 31.2406
#
#
#
# Elastic Compliance Matrix: (Units=1/GPa)
#
#
# Indices 1 2 3 4 5 6 
#
# 1 0.013622 -0.006004 -0.002079 0.000000 0.000000 0.000000
# 2 -0.006004 0.018297 -0.005153 0.000000 0.000000 0.000000
# 3 -0.002079 -0.005153 0.010669 0.000000 0.000000 0.000000
# 4 0.000000 0.000000 0.000000 0.039928 0.000000 0.000000
# 5 0.000000 0.000000 0.000000 0.000000 0.110034 0.000000
# 6 0.000000 0.000000 0.000000 0.000000 0.000000 0.032010
#
#
# Mechanical properties :
#
#
# Convention : Reuss Voigt Hill
#
# Bulk Modulus (GPa) = 62.04681 63.57688 62.81184
# Shear Modulus (GPa) = 19.50057 24.66508 22.08283
#
# Velocity S-wave (km/s) = 3.29076 3.70096 3.50187
# Velocity P-wave (km/s) = 6.99248 7.31905 7.15763
#
# Compressibility (1/GPa) = 0.01611686
#
# Stress axis : x y z
#
# Youngs Moduli (GPa) = 73.41240 54.65268 93.73061
#
# Poissons Ratio (x) = 0.32813 0.19484
# Poissons Ratio (y) = 0.44076 0.48298
# Poissons Ratio (z) = 0.15261 0.28162
#
# Static dielectric constant tensor:
#      x y z
#    x 1.734220 0.000000 0.000000 
#    y 0.000000 1.655750 0.000000 
#    z 0.000000 0.000000 1.601080 
# 
# From -- ./inp_files/23773.got.cif
#   From: 2010.05.17/outbox.cif.g08.bks.cpg/sg57_12_cif.got.tgz:23773.got - 2010.06.03 13:58:18.
