data_PCOD9436597
_publ_section_title
;
Structure prediction by ZEFSAII (Michael W. Deem and Ramdas Pophale) SiO2 
 PCOD9436597
Probable space group: P B C M
;
_chemical_formula_sum "Si O2"
_cell_formula_units_Z 56
_cell_length_a 20.019860
_cell_length_b 18.827630
_cell_length_c 8.877794
_cell_angle_alpha 90.000000
_cell_angle_beta 90.000000
_cell_angle_gamma 90.000000
_cell_volume 3346.275969
_symmetry_space_group_name_H-M "P B C M"
_symmetry_group_IT_number 57
_symmetry_cell_setting 'orthorhombic'
loop_
_space_group_symop_operation_xyz
x,y,z
-x,-y,1/2+z
x,1/2-y,-z
-x,1/2+y,1/2-z
-x,-y,-z
x,y,1/2-z
-x,1/2+y,z
x,1/2-y,1/2+z
loop_
_atom_site_type_symbol
_atom_site_label
_atom_site_fract_x
_atom_site_fract_y
_atom_site_fract_z
Si Si1 0.956040 0.063507 0.430637
Si Si2 0.151848 0.028134 0.068812
Si Si3 0.520192 0.326701 0.426317
Si Si4 0.637195 0.826314 0.073970
Si Si5 0.306500 0.460747 0.928467
Si Si6 0.931768 0.829230 0.568416
Si Si7 0.566172 0.035545 0.428307
O O1 0.955730 0.059156 0.250000
O O2 0.995116 0.136473 0.470132
O O3 0.884786 0.039746 0.495176
O O4 0.000000 0.000000 0.500000
O O5 0.143027 0.024488 0.250000
O O6 0.229999 0.023449 0.032477
O O7 0.119452 0.105648 0.024360
O O8 0.527480 0.250000 0.500000
O O9 0.538017 0.326811 0.250000
O O10 0.441358 0.346042 0.435861
O O11 0.561453 0.383296 0.520009
O O12 0.655366 0.826644 0.250000
O O13 0.644084 0.750000 0.000000
O O14 0.679933 0.880485 0.978189
O O15 0.315158 0.469498 0.750000
O O16 0.364673 0.503846 0.011580
O O17 0.921631 0.750000 0.500000
O O18 0.927414 0.822623 0.750000
O O19 0.562337 0.026854 0.250000
O O20 0.500000 0.000000 0.500000
#
# Coordination Sequence:
#
# PCOD9436597 Si02
#       7
#     8   8   8   8   8   8   8
#     4   9  17  31  52  76 103 136 175 216 253 302
#     4   9  20  36  52  75 107 142 179 218 263 316
#     4  10  20  35  55  78 103 133 170 218 273 327
#     4  10  20  33  50  72 102 137 175 215 263 324
#     4  11  22  36  54  76 107 143 179 225 276 325
#     4   9  18  32  51  79 110 139 174 211 253 303
#     4  12  23  36  55  79 106 138 181 232 278 327
#
# _framework density 16.735021
#
# number of rings (size 3 to 8) (size 9 to 14) (size 15 to 20)
#    0.000    2.000    1.429    3.857    0.000    5.714 
#    0.000    1.429    0.000    0.857    0.000    2.000 
#    0.000    0.000    0.000    0.000    0.000    0.000 
#
# Total GULP energy -312076.197500 kJ/mol
# GULP energy per Si atom -5572.789241 kJ/mol
# Density = 1.669693 g / cm^3
# Si number density = 16.735021 Si / 1000 Ang^3
#
#
#
# Elastic Constant Matrix: (Units=GPa)
#
#
# Indices 1 2 3 4 5 6 
#
# 1 113.0705 47.1758 60.9639 0.0000 0.0000 0.0000
# 2 47.1758 52.3958 30.0523 0.0000 0.0000 0.0000
# 3 60.9639 30.0523 72.0465 0.0000 0.0000 0.0000
# 4 0.0000 0.0000 0.0000 30.7531 0.0000 0.0000
# 5 0.0000 0.0000 0.0000 0.0000 23.6638 0.0000
# 6 0.0000 0.0000 0.0000 0.0000 0.0000 27.3844
#
#
#
# Elastic Compliance Matrix: (Units=1/GPa)
#
#
# Indices 1 2 3 4 5 6 
#
# 1 0.020153 -0.010995 -0.012467 0.000000 0.000000 0.000000
# 2 -0.010995 0.031086 -0.003663 0.000000 0.000000 0.000000
# 3 -0.012467 -0.003663 0.025957 0.000000 0.000000 0.000000
# 4 0.000000 0.000000 0.000000 0.032517 0.000000 0.000000
# 5 0.000000 0.000000 0.000000 0.000000 0.042259 0.000000
# 6 0.000000 0.000000 0.000000 0.000000 0.000000 0.036517
#
#
# Mechanical properties :
#
#
# Convention : Reuss Voigt Hill
#
# Bulk Modulus (GPa) = 43.57963 57.09964 50.33963
# Shear Modulus (GPa) = 19.96906 22.98163 21.47535
#
# Velocity S-wave (km/s) = 3.45809 3.70978 3.58615
# Velocity P-wave (km/s) = 6.48398 7.24872 6.87699
#
# Compressibility (1/GPa) = 0.02294650
#
# Stress axis : x y z
#
# Youngs Moduli (GPa) = 49.62042 32.16881 38.52524
#
# Poissons Ratio (x) = 0.35369 0.48029
# Poissons Ratio (y) = 0.54556 0.14113
# Poissons Ratio (z) = 0.61861 0.11784
#
# Static dielectric constant tensor:
#      x y z
#    x 1.131890 0.000000 0.000000 
#    y 0.000000 1.549210 0.000000 
#    z 0.000000 0.000000 1.556030 
# 
# From -- ./inp_files/8347.got.cif
#   From: 2010.05.17/outbox.cif.g08.bks.cpg/sg57_5_cif.got.tgz:8347.got - 2010.06.03 13:58:18.
