data_PCOD9436441
_publ_section_title
;
Structure prediction by ZEFSAII (Michael W. Deem and Ramdas Pophale) SiO2 
 PCOD9436441
Probable space group: P B C M
;
_chemical_formula_sum "Si O2"
_cell_formula_units_Z 64
_cell_length_a 18.489555
_cell_length_b 9.585624
_cell_length_c 15.826615
_cell_angle_alpha 90.000000
_cell_angle_beta 90.000000
_cell_angle_gamma 90.000000
_cell_volume 2805.013051
_symmetry_space_group_name_H-M "P B C M"
_symmetry_group_IT_number 57
_symmetry_cell_setting 'orthorhombic'
loop_
_space_group_symop_operation_xyz
x,y,z
-x,-y,1/2+z
x,1/2-y,-z
-x,1/2+y,1/2-z
-x,-y,-z
x,y,1/2-z
-x,1/2+y,z
x,1/2-y,1/2+z
loop_
_atom_site_type_symbol
_atom_site_label
_atom_site_fract_x
_atom_site_fract_y
_atom_site_fract_z
Si Si1 0.551401 0.226382 0.647049
Si Si2 0.417862 0.090426 0.353452
Si Si3 0.969928 0.219480 0.152411
Si Si4 0.819339 0.156745 0.851566
Si Si5 0.216856 0.368965 0.069387
Si Si6 0.303285 0.889566 0.851610
Si Si7 0.055011 0.057323 0.929636
Si Si8 0.254340 0.117954 0.347193
O O1 0.550553 0.221965 0.750000
O O2 0.477480 0.298310 0.617924
O O3 0.562698 0.067055 0.619345
O O4 0.619669 0.323669 0.624942
O O5 0.420304 0.092620 0.250000
O O6 0.336350 0.125815 0.380338
O O7 0.019345 0.754936 0.250000
O O8 0.896527 0.290665 0.116934
O O9 0.033460 0.287531 0.098522
O O10 0.959701 0.054780 0.144049
O O11 0.829356 0.146852 0.750000
O O12 0.757148 0.270485 0.864942
O O13 0.791366 0.009113 0.885741
O O14 0.277947 0.480350 0.092466
O O15 0.140001 0.439791 0.052369
O O16 0.213517 0.264171 0.149152
O O17 0.233015 0.250000 0.000000
O O18 0.304141 0.923478 0.750000
O O19 0.000000 0.000000 0.000000
O O20 0.264158 0.076320 0.250000
#
# Coordination Sequence:
#
# PCOD9436441 Si02
#       8
#     8   8   8   8   8   8   8   8
#     4   9  17  29  53  91 131 163 199 251 312 370
#     4   9  17  30  52  91 131 161 197 249 311 369
#     4  11  24  42  69  97 123 159 212 264 314 386
#     4   9  18  36  61  90 118 151 197 255 313 367
#     4  12  27  43  60  88 124 163 212 260 314 378
#     4  10  19  38  64  90 122 163 209 258 311 370
#     4  12  27  48  65  91 131 172 207 259 333 398
#     4  10  21  38  63  93 127 161 206 263 313 368
#
# _framework density 22.816293000000002
#
# number of rings (size 3 to 8) (size 9 to 14) (size 15 to 20)
#    0.000    1.750    2.500    1.875    5.250    1.500 
#    0.000    0.625    0.000    0.750    0.000    0.000 
#    0.000    0.000    0.000    0.000    0.000    0.000 
#
# Total GULP energy -357528.996857 kJ/mol
# GULP energy per Si atom -5586.390576 kJ/mol
# Density = 2.276436 g / cm^3
# Si number density = 22.816293 Si / 1000 Ang^3
#
#
#
# Elastic Constant Matrix: (Units=GPa)
#
#
# Indices 1 2 3 4 5 6 
#
# 1 65.2127 19.3240 26.6237 0.0000 0.0000 0.0000
# 2 19.3240 83.1444 13.6896 0.0000 0.0000 0.0000
# 3 26.6237 13.6896 37.9383 0.0000 0.0000 0.0000
# 4 0.0000 0.0000 0.0000 17.8313 0.0000 0.0000
# 5 0.0000 0.0000 0.0000 0.0000 18.1567 0.0000
# 6 0.0000 0.0000 0.0000 0.0000 0.0000 42.3445
#
#
#
# Elastic Compliance Matrix: (Units=1/GPa)
#
#
# Indices 1 2 3 4 5 6 
#
# 1 0.022064 -0.002742 -0.014495 0.000000 0.000000 0.000000
# 2 -0.002742 0.013128 -0.002813 0.000000 0.000000 0.000000
# 3 -0.014495 -0.002813 0.037545 0.000000 0.000000 0.000000
# 4 0.000000 0.000000 0.000000 0.056081 0.000000 0.000000
# 5 0.000000 0.000000 0.000000 0.000000 0.055076 0.000000
# 6 0.000000 0.000000 0.000000 0.000000 0.000000 0.023616
#
#
# Mechanical properties :
#
#
# Convention : Reuss Voigt Hill
#
# Bulk Modulus (GPa) = 30.63827 33.95220 32.29523
# Shear Modulus (GPa) = 19.34320 24.11038 21.72679
#
# Velocity S-wave (km/s) = 2.91483 3.25425 3.08920
# Velocity P-wave (km/s) = 4.97852 5.38824 5.18743
#
# Compressibility (1/GPa) = 0.03263892
#
# Stress axis : x y z
#
# Youngs Moduli (GPa) = 45.32182 76.17537 26.63436
#
# Poissons Ratio (x) = 0.20884 0.38606
# Poissons Ratio (y) = 0.12425 0.07492
# Poissons Ratio (z) = 0.65693 0.21428
#
# Static dielectric constant tensor:
#      x y z
#    x 1.821440 0.000000 0.000000 
#    y 0.000000 1.852690 0.000000 
#    z 0.000000 0.000000 1.993850 
# 
# From -- ./inp_files/25614.got.cif
#   From: 2010.05.17/outbox.cif.g08.bks.cpg/sg57_13_cif.got.tgz:25614.got - 2010.06.03 13:58:18.
