data_PCOD9436540
_publ_section_title
;
Structure prediction by ZEFSAII (Michael W. Deem and Ramdas Pophale) SiO2 
 PCOD9436540
Probable space group: P B C M
;
_chemical_formula_sum "Si O2"
_cell_formula_units_Z 56
_cell_length_a 5.087283
_cell_length_b 22.157422
_cell_length_c 19.436956
_cell_angle_alpha 90.000000
_cell_angle_beta 90.000000
_cell_angle_gamma 90.000000
_cell_volume 2190.954600
_symmetry_space_group_name_H-M "P B C M"
_symmetry_group_IT_number 57
_symmetry_cell_setting 'orthorhombic'
loop_
_space_group_symop_operation_xyz
x,y,z
-x,-y,1/2+z
x,1/2-y,-z
-x,1/2+y,1/2-z
-x,-y,-z
x,y,1/2-z
-x,1/2+y,z
x,1/2-y,1/2+z
loop_
_atom_site_type_symbol
_atom_site_label
_atom_site_fract_x
_atom_site_fract_y
_atom_site_fract_z
Si Si1 0.560113 0.576223 0.123570
Si Si2 0.802793 0.583129 0.750000
Si Si3 0.232694 0.409528 0.019399
Si Si4 0.693159 0.163428 0.750000
Si Si5 0.902609 0.196755 0.029280
Si Si6 0.605196 0.337198 0.397580
Si Si7 0.078144 0.537775 0.878115
Si Si8 0.070149 0.646872 0.170476
O O1 0.700820 0.511942 0.133237
O O2 0.282105 0.593286 0.156388
O O3 0.774229 0.623058 0.155745
O O4 0.551765 0.581535 0.039866
O O5 0.004629 0.640850 0.750000
O O6 0.885600 0.543771 0.814496
O O7 0.504539 0.605227 0.750000
O O8 0.330117 0.366199 0.080891
O O9 0.021668 0.369652 0.979796
O O10 0.110979 0.467648 0.055664
O O11 0.619663 0.193307 0.677099
O O12 0.697529 0.198757 0.965020
O O13 0.090505 0.250000 0.000000
O O14 0.859360 0.195897 0.110989
O O15 0.781444 0.397621 0.388741
O O16 0.090363 0.666587 0.250000
#
# Coordination Sequence:
#
# PCOD9436540 Si02
#       8
#     8   4   8   4   8   8   8   8
#     4  11  24  40  63  94 132 178 217 257 319 388
#     4  10  20  32  52  82 122 169 209 248 296 370
#     4  10  20  39  61  92 128 169 215 277 322 382
#     4  10  20  36  58  86 130 161 197 264 316 366
#     4  10  23  45  69  92 123 168 221 277 344 397
#     4  10  20  39  62  92 131 166 213 270 321 382
#     4  10  22  34  57  91 132 175 218 254 313 382
#     4  11  25  45  66  96 134 169 220 276 321 388
#
# _framework density 25.559636000000001
#
# number of rings (size 3 to 8) (size 9 to 14) (size 15 to 20)
#    0.000    1.714    2.857    0.857    4.000    1.143 
#    1.286    0.000    0.000    0.000    0.000    0.000 
#    0.000    0.000    0.000    0.000    0.000    0.000 
#
# Total GULP energy -312540.394319 kJ/mol
# GULP energy per Si atom -5581.078470 kJ/mol
# Density = 2.550146 g / cm^3
# Si number density = 25.559636 Si / 1000 Ang^3
#
#
#
# Elastic Constant Matrix: (Units=GPa)
#
#
# Indices 1 2 3 4 5 6 
#
# 1 86.3138 0.0192 18.6349 0.0000 0.0000 0.0000
# 2 0.0192 60.7700 50.3107 0.0000 0.0000 0.0000
# 3 18.6349 50.3107 225.1380 0.0000 0.0000 0.0000
# 4 0.0000 0.0000 0.0000 15.9380 0.0000 0.0000
# 5 0.0000 0.0000 0.0000 0.0000 13.9402 0.0000
# 6 0.0000 0.0000 0.0000 0.0000 0.0000 10.0366
#
#
#
# Elastic Compliance Matrix: (Units=1/GPa)
#
#
# Indices 1 2 3 4 5 6 
#
# 1 0.011845 0.000991 -0.001202 0.000000 0.000000 0.000000
# 2 0.000991 0.020274 -0.004613 0.000000 0.000000 0.000000
# 3 -0.001202 -0.004613 0.005572 0.000000 0.000000 0.000000
# 4 0.000000 0.000000 0.000000 0.062743 0.000000 0.000000
# 5 0.000000 0.000000 0.000000 0.000000 0.071735 0.000000
# 6 0.000000 0.000000 0.000000 0.000000 0.000000 0.099635
#
#
# Mechanical properties :
#
#
# Convention : Reuss Voigt Hill
#
# Bulk Modulus (GPa) = 35.65782 56.68350 46.17066
# Shear Modulus (GPa) = 17.19403 28.20010 22.69706
#
# Velocity S-wave (km/s) = 2.59646 3.32521 2.98317
# Velocity P-wave (km/s) = 4.79270 6.08011 5.47438
#
# Compressibility (1/GPa) = 0.02804434
#
# Stress axis : x y z
#
# Youngs Moduli (GPa) = 84.42451 49.32464 179.47015
#
# Poissons Ratio (x) = -0.04890 0.21571
# Poissons Ratio (y) = -0.08369 0.82782
# Poissons Ratio (z) = 0.10147 0.22751
#
# Static dielectric constant tensor:
#      x y z
#    x 2.086100 0.000000 0.000000 
#    y 0.000000 2.276930 0.000000 
#    z 0.000000 0.000000 2.103320 
# 
# From -- ./inp_files/23800.got.cif
#   From: 2010.05.17/outbox.cif.g08.bks.cpg/sg57_12_cif.got.tgz:23800.got - 2010.06.03 13:58:18.
