data_PCOD9436834
_publ_section_title
;
Structure prediction by ZEFSAII (Michael W. Deem and Ramdas Pophale) SiO2 
 PCOD9436834
Probable space group: P B C M
;
_chemical_formula_sum "Si O2"
_cell_formula_units_Z 64
_cell_length_a 26.130808
_cell_length_b 12.911495
_cell_length_c 8.114224
_cell_angle_alpha 90.000000
_cell_angle_beta 90.000000
_cell_angle_gamma 90.000000
_cell_volume 2737.640158
_symmetry_space_group_name_H-M "P B C M"
_symmetry_group_IT_number 57
_symmetry_cell_setting 'orthorhombic'
loop_
_space_group_symop_operation_xyz
x,y,z
-x,-y,1/2+z
x,1/2-y,-z
-x,1/2+y,1/2-z
-x,-y,-z
x,y,1/2-z
-x,1/2+y,z
x,1/2-y,1/2+z
loop_
_atom_site_type_symbol
_atom_site_label
_atom_site_fract_x
_atom_site_fract_y
_atom_site_fract_z
Si Si1 0.460125 0.361795 0.552264
Si Si2 0.791235 0.138456 0.060925
Si Si3 0.182006 0.413875 0.944498
Si Si4 0.072546 0.082713 0.446278
Si Si5 0.292007 0.141906 0.447651
Si Si6 0.682370 0.087685 0.556350
Si Si7 0.039551 0.639133 0.447660
Si Si8 0.573756 0.415794 0.556050
O O1 0.440098 0.250000 0.500000
O O2 0.458132 0.371899 0.750000
O O3 0.519688 0.369704 0.496600
O O4 0.432282 0.461254 0.477469
O O5 0.805686 0.123931 0.250000
O O6 0.809549 0.250000 0.000000
O O7 0.729329 0.137026 0.041793
O O8 0.810842 0.037901 0.963804
O O9 0.181419 0.390532 0.750000
O O10 0.127132 0.381619 0.016320
O O11 0.233741 0.365268 0.016057
O O12 0.073001 0.099940 0.250000
O O13 0.019596 0.130605 0.510295
O O14 0.067860 0.959938 0.478957
O O15 0.315789 0.250000 0.500000
O O16 0.290402 0.141227 0.250000
O O17 0.317540 0.033761 0.495057
O O18 0.695272 0.095233 0.750000
O O19 0.625060 0.125695 0.527640
O O20 0.060417 0.750000 0.500000
O O21 0.040042 0.629937 0.250000
O O22 0.578094 0.397385 0.750000
#
# Coordination Sequence:
#
# PCOD9436834 Si02
#       8
#     8   8   8   8   8   8   8   8
#     4  10  21  37  57  81 110 144 181 224 272 322
#     4  11  22  37  57  81 108 140 178 220 268 320
#     4   9  19  37  56  77 106 138 175 220 268 315
#     4   9  19  36  56  76 103 139 177 219 264 314
#     4   9  19  34  53  77 105 137 172 213 260 311
#     4  10  21  38  57  79 110 145 181 223 268 315
#     4  10  20  34  53  78 107 139 176 218 264 314
#     4  10  21  37  57  82 111 143 182 226 272 323
#
# _framework density 23.377799
#
# number of rings (size 3 to 8) (size 9 to 14) (size 15 to 20)
#    0.000    2.250    0.000    3.375    0.000    7.000 
#    0.000    2.500    0.000    0.000    0.000    0.000 
#    0.000    0.000    0.000    0.000    0.000    0.000 
#
# Total GULP energy -357726.167616 kJ/mol
# GULP energy per Si atom -5589.471369 kJ/mol
# Density = 2.332459 g / cm^3
# Si number density = 23.377799 Si / 1000 Ang^3
#
#
#
# Elastic Constant Matrix: (Units=GPa)
#
#
# Indices 1 2 3 4 5 6 
#
# 1 108.0216 -10.7596 0.1610 0.0000 0.0000 0.0000
# 2 -10.7596 102.1369 -18.3786 0.0000 0.0000 0.0000
# 3 0.1610 -18.3786 25.0752 0.0000 0.0000 0.0000
# 4 0.0000 0.0000 0.0000 21.1021 0.0000 0.0000
# 5 0.0000 0.0000 0.0000 0.0000 47.0841 0.0000
# 6 0.0000 0.0000 0.0000 0.0000 0.0000 -18.2167
#
#
#
# Elastic Compliance Matrix: (Units=1/GPa)
#
#
# Indices 1 2 3 4 5 6 
#
# 1 0.009368 0.001124 0.000764 0.000000 0.000000 0.000000
# 2 0.001124 0.011413 0.008358 0.000000 0.000000 0.000000
# 3 0.000764 0.008358 0.046001 0.000000 0.000000 0.000000
# 4 0.000000 0.000000 0.000000 0.047389 0.000000 0.000000
# 5 0.000000 0.000000 0.000000 0.000000 0.021239 0.000000
# 6 0.000000 0.000000 0.000000 0.000000 0.000000 -0.054895
#
#
# Mechanical properties :
#
#
# Convention : Reuss Voigt Hill
#
# Bulk Modulus (GPa) = 11.45803 19.69768 15.57786
# Shear Modulus (GPa) = 56.10782 27.60796 41.85789
#
# Velocity S-wave (km/s) = 4.90434 3.44022 4.23602
# Velocity P-wave (km/s) = 6.08128 4.92181 5.53201
#
# Compressibility (1/GPa) = 0.08727503
#
# Stress axis : x y z
#
# Youngs Moduli (GPa) = 106.74333 87.61810 21.73863
#
# Poissons Ratio (x) = -0.09851 -0.01661
# Poissons Ratio (y) = -0.12002 -0.18169
# Poissons Ratio (z) = -0.08155 -0.73231
#
# Static dielectric constant tensor:
#      x y z
#    x 1.939130 0.000000 0.000000 
#    y 0.000000 1.880130 0.000000 
#    z 0.000000 0.000000 1.822310 
# 
# From -- ./inp_files/10319.got.cif
#   From: 2010.05.17/outbox.cif.g08.bks.cpg/sg57_6_cif.got.tgz:10319.got - 2010.06.03 13:58:18.
