data_PCOD9436604
_publ_section_title
;
Structure prediction by ZEFSAII (Michael W. Deem and Ramdas Pophale) SiO2 
 PCOD9436604
Probable space group: P B C M
;
_chemical_formula_sum "Si O2"
_cell_formula_units_Z 64
_cell_length_a 30.096917
_cell_length_b 13.926420
_cell_length_c 9.061864
_cell_angle_alpha 90.000000
_cell_angle_beta 90.000000
_cell_angle_gamma 90.000000
_cell_volume 3798.210581
_symmetry_space_group_name_H-M "P B C M"
_symmetry_group_IT_number 57
_symmetry_cell_setting 'orthorhombic'
loop_
_space_group_symop_operation_xyz
x,y,z
-x,-y,1/2+z
x,1/2-y,-z
-x,1/2+y,1/2-z
-x,-y,-z
x,y,1/2-z
-x,1/2+y,z
x,1/2-y,1/2+z
loop_
_atom_site_type_symbol
_atom_site_label
_atom_site_fract_x
_atom_site_fract_y
_atom_site_fract_z
Si Si1 0.017540 0.146916 0.575336
Si Si2 0.140290 0.850696 0.577084
Si Si3 0.929571 0.481016 0.424589
Si Si4 0.246743 0.648198 0.423224
Si Si5 0.609860 0.346322 0.418108
Si Si6 0.625807 0.645393 0.927255
Si Si7 0.310025 0.998362 0.419484
Si Si8 0.547914 0.007050 0.426082
O O1 0.016994 0.250000 0.500000
O O2 0.025138 0.154916 0.750000
O O3 0.970096 0.094357 0.553328
O O4 0.054215 0.078350 0.501542
O O5 0.128231 0.750000 0.500000
O O6 0.128807 0.846705 0.750000
O O7 0.113654 0.935287 0.498364
O O8 0.193446 0.861953 0.564011
O O9 0.923631 0.494757 0.250000
O O10 0.258816 0.750000 0.500000
O O11 0.258648 0.652899 0.250000
O O12 0.270416 0.557551 0.499015
O O13 0.623200 0.250000 0.500000
O O14 0.595946 0.327215 0.250000
O O15 0.650878 0.419167 0.415274
O O16 0.571455 0.398768 0.509057
O O17 0.629787 0.652102 0.750000
O O18 0.581580 0.581553 0.960250
O O19 0.622466 0.750000 0.000000
O O20 0.667924 0.587492 0.994225
O O21 0.298814 0.023739 0.250000
O O22 0.543870 0.012613 0.250000
O O23 0.500000 0.000000 0.500000
#
# Coordination Sequence:
#
# PCOD9436604 Si02
#       8
#     8   8   8   8   8   8   8   8
#     4  10  20  33  50  73 101 133 172 216 260 307
#     4  10  20  33  50  74 105 139 173 210 253 304
#     4  10  20  33  51  74 101 135 173 214 259 307
#     4  10  20  33  51  77 108 140 172 207 252 306
#     4  10  20  33  50  73 100 130 163 199 242 291
#     4  10  21  37  57  79 103 134 172 213 256 301
#     4  10  20  34  54  78 104 133 166 207 251 297
#     4  10  21  36  53  74 102 134 168 207 248 293
#
# _framework density 16.850038999999999
#
# number of rings (size 3 to 8) (size 9 to 14) (size 15 to 20)
#    0.000    2.000    0.000    3.750    0.000    8.500 
#    0.000    1.250    0.000    0.750    0.000    0.000 
#    0.000    0.000    0.000    0.000    0.000    0.000 
#
# Total GULP energy -357262.484401 kJ/mol
# GULP energy per Si atom -5582.226319 kJ/mol
# Density = 1.681169 g / cm^3
# Si number density = 16.850039 Si / 1000 Ang^3
#
#
#
# Elastic Constant Matrix: (Units=GPa)
#
#
# Indices 1 2 3 4 5 6 
#
# 1 39.9349 20.2372 44.2469 0.0000 0.0000 0.0000
# 2 20.2372 101.1418 68.2524 0.0000 0.0000 0.0000
# 3 44.2469 68.2524 126.1664 0.0000 0.0000 0.0000
# 4 0.0000 0.0000 0.0000 34.3987 0.0000 0.0000
# 5 0.0000 0.0000 0.0000 0.0000 29.0506 0.0000
# 6 0.0000 0.0000 0.0000 0.0000 0.0000 16.1053
#
#
#
# Elastic Compliance Matrix: (Units=1/GPa)
#
#
# Indices 1 2 3 4 5 6 
#
# 1 0.041315 0.002380 -0.015777 0.000000 0.000000 0.000000
# 2 0.002380 0.015709 -0.009333 0.000000 0.000000 0.000000
# 3 -0.015777 -0.009333 0.018508 0.000000 0.000000 0.000000
# 4 0.000000 0.000000 0.000000 0.029071 0.000000 0.000000
# 5 0.000000 0.000000 0.000000 0.000000 0.034423 0.000000
# 6 0.000000 0.000000 0.000000 0.000000 0.000000 0.062091
#
#
# Mechanical properties :
#
#
# Convention : Reuss Voigt Hill
#
# Bulk Modulus (GPa) = 33.25315 59.19069 46.22192
# Shear Modulus (GPa) = 19.48566 24.87804 22.18185
#
# Velocity S-wave (km/s) = 3.40430 3.84661 3.63220
# Velocity P-wave (km/s) = 5.93548 7.41166 6.71427
#
# Compressibility (1/GPa) = 0.03007234
#
# Stress axis : x y z
#
# Youngs Moduli (GPa) = 24.20439 63.65885 54.03191
#
# Poissons Ratio (x) = -0.15149 0.85244
# Poissons Ratio (y) = -0.05760 0.50426
# Poissons Ratio (z) = 0.38186 0.59410
#
# Static dielectric constant tensor:
#      x y z
#    x 1.558970 0.000000 0.000000 
#    y 0.000000 1.537980 0.000000 
#    z 0.000000 0.000000 1.570720 
# 
# From -- ./inp_files/10281.got.cif
#   From: 2010.05.17/outbox.cif.g08.bks.cpg/sg57_6_cif.got.tgz:10281.got - 2010.06.03 13:58:18.
