data_PCOD9436165
_publ_section_title
;
Structure prediction by ZEFSAII (Michael W. Deem and Ramdas Pophale) SiO2 
 PCOD9436165
Probable space group: P B C M
;
_chemical_formula_sum "Si O2"
_cell_formula_units_Z 48
_cell_length_a 9.363935
_cell_length_b 31.798123
_cell_length_c 8.413012
_cell_angle_alpha 90.000000
_cell_angle_beta 90.000000
_cell_angle_gamma 90.000000
_cell_volume 2505.021073
_symmetry_space_group_name_H-M "P B C M"
_symmetry_group_IT_number 57
_symmetry_cell_setting 'orthorhombic'
loop_
_space_group_symop_operation_xyz
x,y,z
-x,-y,1/2+z
x,1/2-y,-z
-x,1/2+y,1/2-z
-x,-y,-z
x,y,1/2-z
-x,1/2+y,z
x,1/2-y,1/2+z
loop_
_atom_site_type_symbol
_atom_site_label
_atom_site_fract_x
_atom_site_fract_y
_atom_site_fract_z
Si Si1 0.586691 0.876830 0.944047
Si Si2 0.409952 0.795885 0.559410
Si Si3 0.913208 0.204042 0.560985
Si Si4 0.585602 0.040572 0.057707
Si Si5 0.914761 0.040703 0.057736
Si Si6 0.084829 0.123901 0.442385
O O1 0.586226 0.876872 0.750000
O O2 0.511242 0.833691 0.995526
O O3 0.495069 0.917121 0.995576
O O4 0.750901 0.879658 0.995196
O O5 0.456351 0.750000 0.500000
O O6 0.408272 0.795503 0.750000
O O7 0.247982 0.802961 0.501645
O O8 0.959801 0.250000 0.500000
O O9 0.909813 0.204840 0.750000
O O10 0.013065 0.166654 0.501345
O O11 0.586015 0.040626 0.250000
O O12 0.750160 0.039810 0.003829
O O13 0.500000 0.000000 0.000000
O O14 0.914919 0.040638 0.250000
O O15 0.993979 0.083334 0.004999
O O16 0.000000 0.000000 0.000000
O O17 0.083248 0.124397 0.250000
#
# Coordination Sequence:
#
# PCOD9436165 Si02
#       6
#     8   8   8   8   8   8
#     4   9  19  35  57  80 107 142 181 220 270 327
#     4  10  19  35  57  81 108 141 179 222 267 321
#     4  11  22  37  57  82 110 144 183 226 271 324
#     4  10  20  36  56  81 108 142 183 224 269 321
#     4  10  21  36  58  83 112 146 184 226 272 324
#     4  10  20  37  58  81 109 145 183 226 275 325
#
# _framework density 19.161515999999999
#
# number of rings (size 3 to 8) (size 9 to 14) (size 15 to 20)
#    0.000    2.000    0.000    5.000    0.000    6.000 
#    0.000    7.500    0.000    0.000    0.000    0.000 
#    0.000    0.000    0.000    0.000    0.000    0.000 
#
# Total GULP energy -268175.627446 kJ/mol
# GULP energy per Si atom -5586.992238 kJ/mol
# Density = 1.911790 g / cm^3
# Si number density = 19.161516 Si / 1000 Ang^3
#
#
#
# Elastic Constant Matrix: (Units=GPa)
#
#
# Indices 1 2 3 4 5 6 
#
# 1 189.5731 145.3331 28.5205 0.0000 0.0000 0.0000
# 2 145.3331 208.4383 27.4289 0.0000 0.0000 0.0000
# 3 28.5205 27.4289 31.6550 0.0000 0.0000 0.0000
# 4 0.0000 0.0000 0.0000 35.0313 0.0000 0.0000
# 5 0.0000 0.0000 0.0000 0.0000 21.8619 0.0000
# 6 0.0000 0.0000 0.0000 0.0000 0.0000 43.1409
#
#
#
# Elastic Compliance Matrix: (Units=1/GPa)
#
#
# Indices 1 2 3 4 5 6 
#
# 1 0.011752 -0.007676 -0.003937 0.000000 0.000000 0.000000
# 2 -0.007676 0.010429 -0.002121 0.000000 0.000000 0.000000
# 3 -0.003937 -0.002121 0.036975 0.000000 0.000000 0.000000
# 4 0.000000 0.000000 0.000000 0.028546 0.000000 0.000000
# 5 0.000000 0.000000 0.000000 0.000000 0.045742 0.000000
# 6 0.000000 0.000000 0.000000 0.000000 0.000000 0.023180
#
#
# Mechanical properties :
#
#
# Convention : Reuss Voigt Hill
#
# Bulk Modulus (GPa) = 31.55694 92.47017 62.01355
# Shear Modulus (GPa) = 25.68669 35.23242 30.45956
#
# Velocity S-wave (km/s) = 3.66530 4.29267 3.99133
# Velocity P-wave (km/s) = 5.86662 8.54004 7.32631
#
# Compressibility (1/GPa) = 0.03168875
#
# Stress axis : x y z
#
# Youngs Moduli (GPa) = 85.09224 95.88967 27.04510
#
# Poissons Ratio (x) = 0.73604 0.10648
# Poissons Ratio (y) = 0.65316 0.05735
# Poissons Ratio (z) = 0.33502 0.20334
#
# Static dielectric constant tensor:
#      x y z
#    x 1.646480 0.000000 0.000000 
#    y 0.000000 1.638920 0.000000 
#    z 0.000000 0.000000 1.666890 
# 
# From -- ./inp_files/2021.got.cif
#   From: 2010.05.17/outbox.cif.g08.bks.cpg/sg57_2_cif.got.tgz:2021.got - 2010.06.03 13:58:18.
