data_PCOD9436291
_publ_section_title
;
Structure prediction by ZEFSAII (Michael W. Deem and Ramdas Pophale) SiO2 
 PCOD9436291
Probable space group: P B C M
;
_chemical_formula_sum "Si O2"
_cell_formula_units_Z 36
_cell_length_a 9.272707
_cell_length_b 14.818915
_cell_length_c 12.646043
_cell_angle_alpha 90.000000
_cell_angle_beta 90.000000
_cell_angle_gamma 90.000000
_cell_volume 1737.711192
_symmetry_space_group_name_H-M "P B C M"
_symmetry_group_IT_number 57
_symmetry_cell_setting 'orthorhombic'
loop_
_space_group_symop_operation_xyz
x,y,z
-x,-y,1/2+z
x,1/2-y,-z
-x,1/2+y,1/2-z
-x,-y,-z
x,y,1/2-z
-x,1/2+y,z
x,1/2-y,1/2+z
loop_
_atom_site_type_symbol
_atom_site_label
_atom_site_fract_x
_atom_site_fract_y
_atom_site_fract_z
Si Si1 0.134931 0.750000 0.000000
Si Si2 0.339432 0.588294 0.488337
Si Si3 0.125958 0.471940 0.630304
Si Si4 0.400873 0.409441 0.368562
Si Si5 0.912974 0.627151 0.921100
O O1 0.236723 0.829658 0.957185
O O2 0.030512 0.705240 0.912626
O O3 0.253817 0.531534 0.578802
O O4 0.372174 0.514904 0.398120
O O5 0.485687 0.621907 0.543319
O O6 0.155315 0.445463 0.750000
O O7 0.102559 0.392379 0.546745
O O8 0.984934 0.536261 0.625053
O O9 0.457212 0.400123 0.250000
O O10 0.246399 0.360615 0.377663
#
# Coordination Sequence:
#
# PCOD9436291 Si02
#       5
#     4   8   8   8   8
#     4  10  20  38  52  78 116 142 176 228 280 328
#     4   9  20  35  57  80 109 144 179 224 275 326
#     4   9  16  32  52  74 101 139 180 215 258 324
#     4  10  19  36  57  80 105 143 189 227 267 327
#     4   9  19  31  51  76 105 139 176 222 271 317
#
# _framework density 20.716906000000002
#
# number of rings (size 3 to 8) (size 9 to 14) (size 15 to 20)
#    0.000    2.667    0.000    2.667    0.000    0.889 
#    0.000   13.333    0.000    0.000    0.000    0.000 
#    0.000    0.000    0.000    0.000    0.000    0.000 
#
# Total GULP energy -200795.536134 kJ/mol
# GULP energy per Si atom -5577.653781 kJ/mol
# Density = 2.066975 g / cm^3
# Si number density = 20.716906 Si / 1000 Ang^3
#
#
#
# Elastic Constant Matrix: (Units=GPa)
#
#
# Indices 1 2 3 4 5 6 
#
# 1 100.6636 17.7865 -17.2286 0.0000 0.0000 0.0000
# 2 17.7865 57.1368 7.0691 0.0000 0.0000 0.0000
# 3 -17.2286 7.0691 75.8936 0.0000 0.0000 0.0000
# 4 0.0000 0.0000 0.0000 -0.6327 0.0000 0.0000
# 5 0.0000 0.0000 0.0000 0.0000 12.3266 0.0000
# 6 0.0000 0.0000 0.0000 0.0000 0.0000 36.9978
#
#
#
# Elastic Compliance Matrix: (Units=1/GPa)
#
#
# Indices 1 2 3 4 5 6 
#
# 1 0.011099 -0.003811 0.002875 0.000000 0.000000 0.000000
# 2 -0.003811 0.019014 -0.002636 0.000000 0.000000 0.000000
# 3 0.002875 -0.002636 0.014074 0.000000 0.000000 0.000000
# 4 0.000000 0.000000 0.000000 -1.580451 0.000000 0.000000
# 5 0.000000 0.000000 0.000000 0.000000 0.081125 0.000000
# 6 0.000000 0.000000 0.000000 0.000000 0.000000 0.027029
#
#
# Mechanical properties :
#
#
# Convention : Reuss Voigt Hill
#
# Bulk Modulus (GPa) = 26.99541 27.66091 27.32816
# Shear Modulus (GPa) = -3.54958 24.80948 10.62995
#
# Velocity S-wave (km/s) = -1.31038 3.46431 2.26764
# Velocity P-wave (km/s) = 3.28168 5.42059 4.48064
#
# Compressibility (1/GPa) = 0.03704334
#
# Stress axis : x y z
#
# Youngs Moduli (GPa) = 90.09477 52.59193 71.05072
#
# Poissons Ratio (x) = 0.20042 -0.20425
# Poissons Ratio (y) = 0.34334 0.18730
# Poissons Ratio (z) = -0.25899 0.13864
#
# Static dielectric constant tensor:
#      x y z
#    x 1.802570 0.000000 0.000000 
#    y 0.000000 1.771330 0.000000 
#    z 0.000000 0.000000 1.723540 
# 
# From -- ./inp_files/16056.got.cif
#   From: 2010.05.17/outbox.cif.g08.bks.cpg/sg57_9_cif.got.tgz:16056.got - 2010.06.03 13:58:18.
