data_PCOD9436081
_publ_section_title
;
Structure prediction by ZEFSAII (Michael W. Deem and Ramdas Pophale) SiO2 
 PCOD9436081
Probable space group: P B C M
;
_chemical_formula_sum "Si O2"
_cell_formula_units_Z 48
_cell_length_a 8.885647
_cell_length_b 16.040761
_cell_length_c 17.417538
_cell_angle_alpha 90.000000
_cell_angle_beta 90.000000
_cell_angle_gamma 90.000000
_cell_volume 2482.565929
_symmetry_space_group_name_H-M "P B C M"
_symmetry_group_IT_number 57
_symmetry_cell_setting 'orthorhombic'
loop_
_space_group_symop_operation_xyz
x,y,z
-x,-y,1/2+z
x,1/2-y,-z
-x,1/2+y,1/2-z
-x,-y,-z
x,y,1/2-z
-x,1/2+y,z
x,1/2-y,1/2+z
loop_
_atom_site_type_symbol
_atom_site_label
_atom_site_fract_x
_atom_site_fract_y
_atom_site_fract_z
Si Si1 0.170665 0.646931 0.341172
Si Si2 0.624204 0.475396 0.435753
Si Si3 0.933206 0.891143 0.160152
Si Si4 0.349109 0.482971 0.340242
Si Si5 0.192652 0.696371 0.576055
Si Si6 0.937813 0.956805 0.921245
O O1 0.137730 0.641356 0.250000
O O2 0.284277 0.572607 0.365309
O O3 0.242188 0.736495 0.359805
O O4 0.024313 0.626330 0.394375
O O5 0.500000 0.500000 0.500000
O O6 0.520471 0.472526 0.361139
O O7 0.707133 0.385637 0.439904
O O8 0.758770 0.542265 0.430926
O O9 0.936531 0.866735 0.250000
O O10 0.764500 0.910916 0.131326
O O11 0.029168 0.831613 0.106340
O O12 0.018075 0.979568 0.147685
O O13 0.328225 0.481152 0.250000
O O14 0.187294 0.750000 0.500000
O O15 0.000000 0.000000 0.000000
#
# Coordination Sequence:
#
# PCOD9436081 Si02
#       6
#     8   8   8   8   8   8
#     4  10  20  37  59  85 115 150 193 249 301 347
#     4  11  22  36  58  85 116 155 196 236 287 354
#     4   9  18  35  57  81 108 145 189 232 278 344
#     4   9  19  36  58  82 113 148 185 230 288 352
#     4  11  22  36  57  83 112 149 196 246 296 345
#     4  10  19  34  58  82 109 147 193 235 279 340
#
# _framework density 19.334833
#
# number of rings (size 3 to 8) (size 9 to 14) (size 15 to 20)
#    0.000    2.000    0.000    7.000    0.000    4.000 
#    0.000    4.167    0.000    4.000    0.000    0.000 
#    0.000    0.000    0.000    0.000    0.000    0.000 
#
# Total GULP energy -267290.761529 kJ/mol
# GULP energy per Si atom -5568.557532 kJ/mol
# Density = 1.929083 g / cm^3
# Si number density = 19.334833 Si / 1000 Ang^3
#
#
#
# Elastic Constant Matrix: (Units=GPa)
#
#
# Indices 1 2 3 4 5 6 
#
# 1 120.9804 26.6619 31.6514 0.0000 0.0000 0.0000
# 2 26.6619 87.7248 25.2865 0.0000 0.0000 0.0000
# 3 31.6514 25.2865 67.7232 0.0000 0.0000 0.0000
# 4 0.0000 0.0000 0.0000 30.1136 0.0000 0.0000
# 5 0.0000 0.0000 0.0000 0.0000 31.3909 0.0000
# 6 0.0000 0.0000 0.0000 0.0000 0.0000 23.3865
#
#
#
# Elastic Compliance Matrix: (Units=1/GPa)
#
#
# Indices 1 2 3 4 5 6 
#
# 1 0.009674 -0.001834 -0.003836 0.000000 0.000000 0.000000
# 2 -0.001834 0.013122 -0.004042 0.000000 0.000000 0.000000
# 3 -0.003836 -0.004042 0.018068 0.000000 0.000000 0.000000
# 4 0.000000 0.000000 0.000000 0.033208 0.000000 0.000000
# 5 0.000000 0.000000 0.000000 0.000000 0.031856 0.000000
# 6 0.000000 0.000000 0.000000 0.000000 0.000000 0.042760
#
#
# Mechanical properties :
#
#
# Convention : Reuss Voigt Hill
#
# Bulk Modulus (GPa) = 46.64537 49.29199 47.96868
# Shear Modulus (GPa) = 28.52918 29.83342 29.18130
#
# Velocity S-wave (km/s) = 3.84543 3.93235 3.88913
# Velocity P-wave (km/s) = 6.62525 6.79464 6.71048
#
# Compressibility (1/GPa) = 0.02143835
#
# Stress axis : x y z
#
# Youngs Moduli (GPa) = 103.37298 76.20831 55.34590
#
# Poissons Ratio (x) = 0.13979 0.21232
# Poissons Ratio (y) = 0.18962 0.22372
# Poissons Ratio (z) = 0.39656 0.30805
#
# Static dielectric constant tensor:
#      x y z
#    x 1.717850 0.000000 0.000000 
#    y 0.000000 1.748070 0.000000 
#    z 0.000000 0.000000 1.763370 
# 
# From -- ./inp_files/20933.got.cif
#   From: 2010.05.17/outbox.cif.g08.bks.cpg/sg57_11_cif.got.tgz:20933.got - 2010.06.03 13:58:18.
