data_PCOD9436846
_publ_section_title
;
Structure prediction by ZEFSAII (Michael W. Deem and Ramdas Pophale) SiO2 
 PCOD9436846
Probable space group: P B C M
;
_chemical_formula_sum "Si O2"
_cell_formula_units_Z 48
_cell_length_a 18.654908
_cell_length_b 15.399436
_cell_length_c 8.593191
_cell_angle_alpha 90.000000
_cell_angle_beta 90.000000
_cell_angle_gamma 90.000000
_cell_volume 2468.609476
_symmetry_space_group_name_H-M "P B C M"
_symmetry_group_IT_number 57
_symmetry_cell_setting 'orthorhombic'
loop_
_space_group_symop_operation_xyz
x,y,z
-x,-y,1/2+z
x,1/2-y,-z
-x,1/2+y,1/2-z
-x,-y,-z
x,y,1/2-z
-x,1/2+y,z
x,1/2-y,1/2+z
loop_
_atom_site_type_symbol
_atom_site_label
_atom_site_fract_x
_atom_site_fract_y
_atom_site_fract_z
Si Si1 0.450398 0.655445 0.937363
Si Si2 0.389634 0.343978 0.936660
Si Si3 0.325992 0.523303 0.562663
Si Si4 0.172857 0.529701 0.062764
Si Si5 0.975937 0.406182 0.937099
Si Si6 0.118172 0.160439 0.935540
O O1 0.544928 0.342545 0.250000
O O2 0.529415 0.638371 0.004999
O O3 0.428469 0.750000 0.000000
O O4 0.392403 0.583774 0.985394
O O5 0.390448 0.340671 0.750000
O O6 0.340940 0.424360 0.988795
O O7 0.367470 0.250000 0.000000
O O8 0.324136 0.523978 0.750000
O O9 0.250030 0.554607 0.500160
O O10 0.174180 0.527338 0.250000
O O11 0.108005 0.594749 0.018510
O O12 0.153804 0.430558 0.009701
O O13 0.981470 0.402181 0.750000
O O14 0.000000 0.500000 0.000000
O O15 0.035035 0.344347 0.011387
O O16 0.121393 0.161756 0.750000
O O17 0.150280 0.250000 0.000000
#
# Coordination Sequence:
#
# PCOD9436846 Si02
#       6
#     8   8   8   8   8   8
#     4  10  20  36  56  79 103 134 177 224 269 317
#     4  10  20  35  54  79 107 139 177 219 264 315
#     4  10  22  36  53  78 109 143 179 216 265 321
#     4   9  20  35  52  75 104 136 172 210 257 311
#     4   9  17  32  52  74  98 129 168 208 249 300
#     4  10  20  34  53  79 105 135 173 215 261 312
#
# _framework density 19.444144999999999
#
# number of rings (size 3 to 8) (size 9 to 14) (size 15 to 20)
#    0.000    2.333    0.000    4.500    0.000    7.333 
#    0.000    4.167    0.000    2.000    0.000    0.000 
#    0.000    0.000    0.000    0.000    0.000    0.000 
#
# Total GULP energy -267746.024189 kJ/mol
# GULP energy per Si atom -5578.042171 kJ/mol
# Density = 1.939989 g / cm^3
# Si number density = 19.444145 Si / 1000 Ang^3
#
#
#
# Elastic Constant Matrix: (Units=GPa)
#
#
# Indices 1 2 3 4 5 6 
#
# 1 45.4352 -2.7530 -2.3808 0.0000 0.0000 0.0000
# 2 -2.7530 20.4057 -2.4624 0.0000 0.0000 0.0000
# 3 -2.3808 -2.4624 29.7207 0.0000 0.0000 0.0000
# 4 0.0000 0.0000 0.0000 24.6020 0.0000 0.0000
# 5 0.0000 0.0000 0.0000 0.0000 26.5490 0.0000
# 6 0.0000 0.0000 0.0000 0.0000 0.0000 5.8979
#
#
#
# Elastic Compliance Matrix: (Units=1/GPa)
#
#
# Indices 1 2 3 4 5 6 
#
# 1 0.022315 0.003259 0.002058 0.000000 0.000000 0.000000
# 2 0.003259 0.049977 0.004402 0.000000 0.000000 0.000000
# 3 0.002058 0.004402 0.034176 0.000000 0.000000 0.000000
# 4 0.000000 0.000000 0.000000 0.040647 0.000000 0.000000
# 5 0.000000 0.000000 0.000000 0.000000 0.037666 0.000000
# 6 0.000000 0.000000 0.000000 0.000000 0.000000 0.169551
#
#
# Mechanical properties :
#
#
# Convention : Reuss Voigt Hill
#
# Bulk Modulus (GPa) = 7.94260 8.92991 8.43626
# Shear Modulus (GPa) = 13.26742 18.28698 15.77720
#
# Velocity S-wave (km/s) = 2.61499 3.07006 2.85162
# Velocity P-wave (km/s) = 3.63473 4.14362 3.89749
#
# Compressibility (1/GPa) = 0.12590338
#
# Stress axis : x y z
#
# Youngs Moduli (GPa) = 44.81358 20.00934 29.26026
#
# Poissons Ratio (x) = -0.06521 -0.06020
# Poissons Ratio (y) = -0.14604 -0.12879
# Poissons Ratio (z) = -0.09221 -0.08807
#
# Static dielectric constant tensor:
#      x y z
#    x 1.683770 0.000000 0.000000 
#    y 0.000000 1.686680 0.000000 
#    z 0.000000 0.000000 1.662330 
# 
# From -- ./inp_files/6483.got.cif
#   From: 2010.05.17/outbox.cif.g08.bks.cpg/sg57_4_cif.got.tgz:6483.got - 2010.06.03 13:58:18.
