data_PCOD9436310
_publ_section_title
;
Structure prediction by ZEFSAII (Michael W. Deem and Ramdas Pophale) SiO2 
 PCOD9436310
Probable space group: P B C M
;
_chemical_formula_sum "Si O2"
_cell_formula_units_Z 64
_cell_length_a 22.227488
_cell_length_b 18.321016
_cell_length_c 8.592525
_cell_angle_alpha 90.000000
_cell_angle_beta 90.000000
_cell_angle_gamma 90.000000
_cell_volume 3499.135359
_symmetry_space_group_name_H-M "P B C M"
_symmetry_group_IT_number 57
_symmetry_cell_setting 'orthorhombic'
loop_
_space_group_symop_operation_xyz
x,y,z
-x,-y,1/2+z
x,1/2-y,-z
-x,1/2+y,1/2-z
-x,-y,-z
x,y,1/2-z
-x,1/2+y,z
x,1/2-y,1/2+z
loop_
_atom_site_type_symbol
_atom_site_label
_atom_site_fract_x
_atom_site_fract_y
_atom_site_fract_z
Si Si1 0.755850 0.097380 0.438314
Si Si2 0.503519 0.169245 0.563630
Si Si3 0.876632 0.172307 0.436652
Si Si4 0.378900 0.907791 0.561880
Si Si5 0.934782 0.479976 0.937097
Si Si6 0.270876 0.332006 0.437107
Si Si7 0.815475 0.950922 0.564401
Si Si8 0.611370 0.923313 0.060758
O O1 0.757448 0.091015 0.250000
O O2 0.808130 0.153277 0.486454
O O3 0.688187 0.117277 0.483932
O O4 0.774749 0.018664 0.504652
O O5 0.492743 0.250000 0.500000
O O6 0.502539 0.171157 0.750000
O O7 0.567514 0.139295 0.507361
O O8 0.450022 0.115562 0.509587
O O9 0.896325 0.250000 0.500000
O O10 0.877415 0.175058 0.250000
O O11 0.916205 0.102552 0.484814
O O12 0.382850 0.905092 0.750000
O O13 0.385240 0.992465 0.511904
O O14 0.933759 0.483293 0.750000
O O15 0.882263 0.532132 0.001952
O O16 0.000000 0.500000 0.000000
O O17 0.272275 0.250000 0.500000
O O18 0.270006 0.330995 0.250000
O O19 0.213970 0.377530 0.498443
O O20 0.330694 0.376427 0.488590
O O21 0.815744 0.949616 0.750000
O O22 0.612006 0.923766 0.250000
#
# Coordination Sequence:
#
# PCOD9436310 Si02
#       8
#     8   8   8   8   8   8   8   8
#     4   9  18  35  57  80 111 148 183 228 285 336
#     4  11  23  38  53  76 107 144 188 236 287 347
#     4   9  19  34  55  84 116 150 186 227 277 330
#     4  10  19  36  59  81 107 145 184 232 292 345
#     4  10  21  39  62  88 117 155 198 240 285 334
#     4  11  21  37  58  84 115 149 187 236 291 345
#     4  11  21  35  57  86 116 149 189 230 275 337
#     4   9  19  36  59  80 106 144 187 232 289 348
#
# _framework density 18.290232
#
# number of rings (size 3 to 8) (size 9 to 14) (size 15 to 20)
#    0.000    2.000    1.250    3.750    0.000    3.500 
#    0.000    4.375    0.000    1.500    0.000    0.000 
#    0.000    0.000    0.000    0.000    0.000    0.000 
#
# Total GULP energy -357372.364929 kJ/mol
# GULP energy per Si atom -5583.943202 kJ/mol
# Density = 1.824860 g / cm^3
# Si number density = 18.290232 Si / 1000 Ang^3
#
#
#
# Elastic Constant Matrix: (Units=GPa)
#
#
# Indices 1 2 3 4 5 6 
#
# 1 119.7093 13.9454 21.5382 0.0000 0.0000 0.0000
# 2 13.9454 42.5991 3.6117 0.0000 0.0000 0.0000
# 3 21.5382 3.6117 34.9710 0.0000 0.0000 0.0000
# 4 0.0000 0.0000 0.0000 30.1954 0.0000 0.0000
# 5 0.0000 0.0000 0.0000 0.0000 22.7666 0.0000
# 6 0.0000 0.0000 0.0000 0.0000 0.0000 17.8205
#
#
#
# Elastic Compliance Matrix: (Units=1/GPa)
#
#
# Indices 1 2 3 4 5 6 
#
# 1 0.009691 -0.002690 -0.005691 0.000000 0.000000 0.000000
# 2 -0.002690 0.024429 -0.000866 0.000000 0.000000 0.000000
# 3 -0.005691 -0.000866 0.032189 0.000000 0.000000 0.000000
# 4 0.000000 0.000000 0.000000 0.033118 0.000000 0.000000
# 5 0.000000 0.000000 0.000000 0.000000 0.043924 0.000000
# 6 0.000000 0.000000 0.000000 0.000000 0.000000 0.056115
#
#
# Mechanical properties :
#
#
# Convention : Reuss Voigt Hill
#
# Bulk Modulus (GPa) = 20.91381 30.60778 25.76079
# Shear Modulus (GPa) = 21.37688 24.70212 23.03950
#
# Velocity S-wave (km/s) = 3.42242 3.67899 3.55302
# Velocity P-wave (km/s) = 5.20351 5.90063 5.56300
#
# Compressibility (1/GPa) = 0.04781530
#
# Stress axis : x y z
#
# Youngs Moduli (GPa) = 103.19065 40.93545 31.06614
#
# Poissons Ratio (x) = 0.11011 0.17679
# Poissons Ratio (y) = 0.27758 0.02691
# Poissons Ratio (z) = 0.58722 0.03546
#
# Static dielectric constant tensor:
#      x y z
#    x 1.621930 0.000000 0.000000 
#    y 0.000000 1.605730 0.000000 
#    z 0.000000 0.000000 1.623680 
# 
# From -- ./inp_files/8412.got.cif
#   From: 2010.05.17/outbox.cif.g08.bks.cpg/sg57_5_cif.got.tgz:8412.got - 2010.06.03 13:58:18.
