data_PCOD9436888
_publ_section_title
;
Structure prediction by ZEFSAII (Michael W. Deem and Ramdas Pophale) SiO2 
 PCOD9436888
Probable space group: P B C M
;
_chemical_formula_sum "Si O2"
_cell_formula_units_Z 56
_cell_length_a 15.796678
_cell_length_b 23.776899
_cell_length_c 8.781362
_cell_angle_alpha 90.000000
_cell_angle_beta 90.000000
_cell_angle_gamma 90.000000
_cell_volume 3298.244594
_symmetry_space_group_name_H-M "P B C M"
_symmetry_group_IT_number 57
_symmetry_cell_setting 'orthorhombic'
loop_
_space_group_symop_operation_xyz
x,y,z
-x,-y,1/2+z
x,1/2-y,-z
-x,1/2+y,1/2-z
-x,-y,-z
x,y,1/2-z
-x,1/2+y,z
x,1/2-y,1/2+z
loop_
_atom_site_type_symbol
_atom_site_label
_atom_site_fract_x
_atom_site_fract_y
_atom_site_fract_z
Si Si1 0.686296 0.186981 0.568805
Si Si2 0.003817 0.189460 0.068741
Si Si3 0.324230 0.186895 0.432312
Si Si4 0.837681 0.115354 0.067904
Si Si5 0.512775 0.312874 0.567804
Si Si6 0.905554 0.995781 0.066279
Si Si7 0.163567 0.373939 0.432674
O O1 0.697386 0.250000 0.500000
O O2 0.682702 0.191937 0.750000
O O3 0.763124 0.147825 0.516580
O O4 0.597353 0.162332 0.506019
O O5 0.015949 0.193725 0.250000
O O6 0.926177 0.147345 0.039453
O O7 0.982955 0.250000 0.000000
O O8 0.088545 0.165835 0.992696
O O9 0.316072 0.250000 0.500000
O O10 0.316317 0.190941 0.250000
O O11 0.419083 0.164139 0.467034
O O12 0.251327 0.147885 0.499250
O O13 0.821626 0.117614 0.250000
O O14 0.852004 0.050753 0.021341
O O15 0.510253 0.250000 0.500000
O O16 0.522846 0.310863 0.750000
O O17 0.912614 0.996572 0.250000
O O18 0.861323 0.937448 0.021236
O O19 0.000000 0.000000 0.000000
O O20 0.167017 0.371252 0.250000
#
# Coordination Sequence:
#
# PCOD9436888 Si02
#       7
#     8   8   8   8   8   8   8
#     4  11  21  33  53  81 111 142 174 214 263 317
#     4  11  22  35  52  74 105 140 173 214 262 313
#     4  10  20  34  54  80 110 142 177 216 263 315
#     4  10  21  37  55  76 104 138 177 220 264 310
#     4   9  17  31  52  77 106 140 174 213 259 313
#     4  10  21  38  58  78 101 136 180 224 266 310
#     4  11  22  35  54  78 106 138 175 218 264 314
#
# _framework density 16.978728
#
# number of rings (size 3 to 8) (size 9 to 14) (size 15 to 20)
#    0.000    1.714    1.429    4.714    0.000    5.143 
#    0.000    0.000    0.000    0.857    0.000    0.000 
#    0.000    0.000    0.000    0.000    0.000    0.000 
#
# Total GULP energy -312602.761322 kJ/mol
# GULP energy per Si atom -5582.192166 kJ/mol
# Density = 1.694008 g / cm^3
# Si number density = 16.978728 Si / 1000 Ang^3
#
#
#
# Elastic Constant Matrix: (Units=GPa)
#
#
# Indices 1 2 3 4 5 6 
#
# 1 115.0962 16.3639 45.0482 0.0000 0.0000 0.0000
# 2 16.3639 57.4949 14.5990 0.0000 0.0000 0.0000
# 3 45.0482 14.5990 60.0448 0.0000 0.0000 0.0000
# 4 0.0000 0.0000 0.0000 15.5765 0.0000 0.0000
# 5 0.0000 0.0000 0.0000 0.0000 25.3930 0.0000
# 6 0.0000 0.0000 0.0000 0.0000 0.0000 5.0564
#
#
#
# Elastic Compliance Matrix: (Units=1/GPa)
#
#
# Indices 1 2 3 4 5 6 
#
# 1 0.012383 -0.001242 -0.008988 0.000000 0.000000 0.000000
# 2 -0.001242 0.018662 -0.003605 0.000000 0.000000 0.000000
# 3 -0.008988 -0.003605 0.024274 0.000000 0.000000 0.000000
# 4 0.000000 0.000000 0.000000 0.064199 0.000000 0.000000
# 5 0.000000 0.000000 0.000000 0.000000 0.039381 0.000000
# 6 0.000000 0.000000 0.000000 0.000000 0.000000 0.197768
#
#
# Mechanical properties :
#
#
# Convention : Reuss Voigt Hill
#
# Bulk Modulus (GPa) = 36.16973 42.73978 39.45475
# Shear Modulus (GPa) = 12.70470 19.64683 16.17577
#
# Velocity S-wave (km/s) = 2.73842 3.40537 3.08995
# Velocity P-wave (km/s) = 5.59891 6.37881 6.00155
#
# Compressibility (1/GPa) = 0.02764743
#
# Stress axis : x y z
#
# Youngs Moduli (GPa) = 80.75623 53.58521 41.19599
#
# Poissons Ratio (x) = 0.06656 0.37028
# Poissons Ratio (y) = 0.10031 0.14853
# Poissons Ratio (z) = 0.72586 0.19320
#
# Static dielectric constant tensor:
#      x y z
#    x 1.580290 0.000000 0.000000 
#    y 0.000000 1.549560 0.000000 
#    z 0.000000 0.000000 1.570940 
# 
# From -- ./inp_files/5232.got.cif
#   From: 2010.05.17/outbox.cif.g08.bks.cpg/sg57_3_cif.got.tgz:5232.got - 2010.06.03 13:58:18.
