data_PCOD9436422
_publ_section_title
;
Structure prediction by ZEFSAII (Michael W. Deem and Ramdas Pophale) SiO2 
 PCOD9436422
Probable space group: P B C M
;
_chemical_formula_sum "Si O2"
_cell_formula_units_Z 60
_cell_length_a 6.441291
_cell_length_b 17.659432
_cell_length_c 25.984239
_cell_angle_alpha 90.000000
_cell_angle_beta 90.000000
_cell_angle_gamma 90.000000
_cell_volume 2955.695244
_symmetry_space_group_name_H-M "P B C M"
_symmetry_group_IT_number 57
_symmetry_cell_setting 'orthorhombic'
loop_
_space_group_symop_operation_xyz
x,y,z
-x,-y,1/2+z
x,1/2-y,-z
-x,1/2+y,1/2-z
-x,-y,-z
x,y,1/2-z
-x,1/2+y,z
x,1/2-y,1/2+z
loop_
_atom_site_type_symbol
_atom_site_label
_atom_site_fract_x
_atom_site_fract_y
_atom_site_fract_z
Si Si1 0.654201 0.286598 0.858143
Si Si2 0.332097 0.414677 0.634448
Si Si3 0.980499 0.016618 0.691947
Si Si4 0.945510 0.122639 0.437406
Si Si5 0.896929 0.750000 0.000000
Si Si6 0.683617 0.686087 0.901255
Si Si7 0.709376 0.989958 0.096436
Si Si8 0.993360 0.192197 0.692469
O O1 0.471339 0.345628 0.844003
O O2 0.794927 0.331189 0.899085
O O3 0.540279 0.215741 0.884526
O O4 0.809286 0.252125 0.816189
O O5 0.205226 0.460527 0.677336
O O6 0.488912 0.471818 0.606372
O O7 0.162641 0.387640 0.592702
O O8 0.054142 0.002760 0.750000
O O9 0.159955 0.004411 0.649846
O O10 0.915149 0.105006 0.688637
O O11 0.972950 0.174803 0.487056
O O12 0.839003 0.040807 0.443727
O O13 0.761834 0.767533 0.049908
O O14 0.688057 0.597915 0.915414
O O15 0.838754 0.699749 0.853006
O O16 0.082604 0.201284 0.750000
#
# Coordination Sequence:
#
# PCOD9436422 Si02
#       8
#     8   8   8   8   4   8   8   8
#     4  11  20  38  62  89 125 166 207 251 313 369
#     4  10  19  38  58  84 124 161 204 257 300 373
#     4   9  19  35  58  86 121 163 207 257 309 366
#     4  10  22  41  62  89 126 163 201 255 310 371
#     4  12  22  42  68  90 128 166 208 262 320 372
#     4  11  23  41  64  96 123 166 212 258 312 375
#     4   9  21  39  62  86 125 162 207 255 309 371
#     4  10  21  39  61  91 127 164 209 259 313 372
#
# _framework density 20.299792
#
# number of rings (size 3 to 8) (size 9 to 14) (size 15 to 20)
#    0.000    1.867    2.667    0.800    0.000    2.667 
#    0.000   12.667    0.000    0.000    0.000    0.000 
#    0.000    0.000    0.000    0.000    0.000    0.000 
#
# Total GULP energy -334960.404718 kJ/mol
# GULP energy per Si atom -5582.673412 kJ/mol
# Density = 2.025359 g / cm^3
# Si number density = 20.299792 Si / 1000 Ang^3
#
#
#
# Elastic Constant Matrix: (Units=GPa)
#
#
# Indices 1 2 3 4 5 6 
#
# 1 79.1223 37.4632 6.8336 0.0000 0.0000 0.0000
# 2 37.4632 95.5182 14.0871 0.0000 0.0000 0.0000
# 3 6.8336 14.0871 56.1816 0.0000 0.0000 0.0000
# 4 0.0000 0.0000 0.0000 31.2115 0.0000 0.0000
# 5 0.0000 0.0000 0.0000 0.0000 -2.0578 0.0000
# 6 0.0000 0.0000 0.0000 0.0000 0.0000 33.5728
#
#
#
# Elastic Compliance Matrix: (Units=1/GPa)
#
#
# Indices 1 2 3 4 5 6 
#
# 1 0.015529 -0.006035 -0.000376 0.000000 0.000000 0.000000
# 2 -0.006035 0.013217 -0.002580 0.000000 0.000000 0.000000
# 3 -0.000376 -0.002580 0.018492 0.000000 0.000000 0.000000
# 4 0.000000 0.000000 0.000000 0.032039 0.000000 0.000000
# 5 0.000000 0.000000 0.000000 0.000000 -0.485956 0.000000
# 6 0.000000 0.000000 0.000000 0.000000 0.000000 0.029786
#
#
# Mechanical properties :
#
#
# Convention : Reuss Voigt Hill
#
# Bulk Modulus (GPa) = 34.18079 38.62110 36.40095
# Shear Modulus (GPa) = -14.32009 24.04117 4.86054
#
# Velocity S-wave (km/s) = -2.65888 3.44511 1.54906
# Velocity P-wave (km/s) = 2.72918 5.90692 4.60109
#
# Compressibility (1/GPa) = 0.02925620
#
# Stress axis : x y z
#
# Youngs Moduli (GPa) = 64.39726 75.66179 54.07748
#
# Poissons Ratio (x) = 0.45663 0.02031
# Poissons Ratio (y) = 0.38864 0.13951
# Poissons Ratio (z) = 0.02419 0.19520
#
# Static dielectric constant tensor:
#      x y z
#    x 1.705280 0.000000 0.000000 
#    y 0.000000 1.763860 0.000000 
#    z 0.000000 0.000000 1.709650 
# 
# From -- ./inp_files/28092.got.cif
#   From: 2010.05.17/outbox.cif.g08.bks.cpg/sg57_15_cif.got.tgz:28092.got - 2010.06.03 13:58:18.
