data_PCOD9436384
_publ_section_title
;
Structure prediction by ZEFSAII (Michael W. Deem and Ramdas Pophale) SiO2 
 PCOD9436384
Probable space group: P B C M
;
_chemical_formula_sum "Si O2"
_cell_formula_units_Z 64
_cell_length_a 19.803125
_cell_length_b 8.484173
_cell_length_c 16.054418
_cell_angle_alpha 90.000000
_cell_angle_beta 90.000000
_cell_angle_gamma 90.000000
_cell_volume 2697.353154
_symmetry_space_group_name_H-M "P B C M"
_symmetry_group_IT_number 57
_symmetry_cell_setting 'orthorhombic'
loop_
_space_group_symop_operation_xyz
x,y,z
-x,-y,1/2+z
x,1/2-y,-z
-x,1/2+y,1/2-z
-x,-y,-z
x,y,1/2-z
-x,1/2+y,z
x,1/2-y,1/2+z
loop_
_atom_site_type_symbol
_atom_site_label
_atom_site_fract_x
_atom_site_fract_y
_atom_site_fract_z
Si Si1 0.161142 0.185945 0.094428
Si Si2 0.767499 0.994123 0.153503
Si Si3 0.595627 0.654536 0.147893
Si Si4 0.090051 0.891797 0.846198
Si Si5 0.346092 0.683090 0.408660
Si Si6 0.270845 0.513095 0.847733
Si Si7 0.978580 0.701481 0.905488
Si Si8 0.465914 0.016909 0.650288
O O1 0.203155 0.319128 0.143590
O O2 0.202372 0.025439 0.103399
O O3 0.084079 0.189644 0.125410
O O4 0.158678 0.250000 0.000000
O O5 0.747133 0.016871 0.250000
O O6 0.831231 0.106161 0.131412
O O7 0.704555 0.034228 0.095782
O O8 0.596537 0.655538 0.250000
O O9 0.670616 0.607704 0.122723
O O10 0.540905 0.524343 0.119980
O O11 0.567653 0.822520 0.118576
O O12 0.088238 0.941997 0.750000
O O13 0.047429 0.734122 0.857293
O O14 0.050916 0.026551 0.897502
O O15 0.356407 0.750000 0.500000
O O16 0.416072 0.627480 0.369282
O O17 0.305249 0.817633 0.359373
O O18 0.256920 0.490463 0.750000
O O19 0.991927 0.750000 0.000000
O O20 0.470319 0.032597 0.750000
#
# Coordination Sequence:
#
# PCOD9436384 Si02
#       8
#     8   8   8   8   8   8   8   8
#     4  10  21  38  59  86 117 150 187 232 284 342
#     4  10  21  39  59  80 110 152 193 233 285 344
#     4   9  19  35  61  90 114 146 189 234 281 337
#     4  10  21  36  57  84 113 145 190 241 285 332
#     4  12  25  39  56  83 116 151 191 240 292 340
#     4  11  22  37  58  86 115 149 195 241 282 335
#     4  10  21  37  58  83 116 154 189 227 284 348
#     4  10  19  37  61  84 113 149 188 232 283 344
#
# _framework density 23.726965
#
# number of rings (size 3 to 8) (size 9 to 14) (size 15 to 20)
#    0.000    1.750    0.000    4.500    0.000    6.000 
#    0.000    3.125    0.000    0.000    0.000    0.000 
#    0.000    0.000    0.000    0.000    0.000    0.000 
#
# Total GULP energy -358019.827741 kJ/mol
# GULP energy per Si atom -5594.059808 kJ/mol
# Density = 2.367296 g / cm^3
# Si number density = 23.726965 Si / 1000 Ang^3
#
#
#
# Elastic Constant Matrix: (Units=GPa)
#
#
# Indices 1 2 3 4 5 6 
#
# 1 82.8202 2.3990 -2.6609 0.0000 0.0000 0.0000
# 2 2.3990 50.8541 -2.6140 0.0000 0.0000 0.0000
# 3 -2.6609 -2.6140 27.6798 0.0000 0.0000 0.0000
# 4 0.0000 0.0000 0.0000 21.4838 0.0000 0.0000
# 5 0.0000 0.0000 0.0000 0.0000 13.9487 0.0000
# 6 0.0000 0.0000 0.0000 0.0000 0.0000 36.8204
#
#
#
# Elastic Compliance Matrix: (Units=1/GPa)
#
#
# Indices 1 2 3 4 5 6 
#
# 1 0.012125 -0.000515 0.001117 0.000000 0.000000 0.000000
# 2 -0.000515 0.019782 0.001819 0.000000 0.000000 0.000000
# 3 0.001117 0.001819 0.036407 0.000000 0.000000 0.000000
# 4 0.000000 0.000000 0.000000 0.046547 0.000000 0.000000
# 5 0.000000 0.000000 0.000000 0.000000 0.071691 0.000000
# 6 0.000000 0.000000 0.000000 0.000000 0.000000 0.027159
#
#
# Mechanical properties :
#
#
# Convention : Reuss Voigt Hill
#
# Bulk Modulus (GPa) = 13.66946 17.28914 15.47930
# Shear Modulus (GPa) = 21.43590 25.39924 23.41757
#
# Velocity S-wave (km/s) = 3.00899 3.27537 3.14500
# Velocity P-wave (km/s) = 4.22441 4.64829 4.44141
#
# Compressibility (1/GPa) = 0.07315579
#
# Stress axis : x y z
#
# Youngs Moduli (GPa) = 82.47322 50.55134 27.46755
#
# Poissons Ratio (x) = 0.02601 -0.03068
# Poissons Ratio (y) = 0.04244 -0.04995
# Poissons Ratio (z) = -0.09212 -0.09193
#
# Static dielectric constant tensor:
#      x y z
#    x 1.879880 0.000000 0.000000 
#    y 0.000000 1.961280 0.000000 
#    z 0.000000 0.000000 1.865040 
# 
# From -- ./inp_files/23080.got.cif
#   From: 2010.05.17/outbox.cif.g08.bks.cpg/sg57_12_cif.got.tgz:23080.got - 2010.06.03 13:58:18.
