data_PCOD9436361
_publ_section_title
;
Structure prediction by ZEFSAII (Michael W. Deem and Ramdas Pophale) SiO2 
 PCOD9436361
Probable space group: P B C M
;
_chemical_formula_sum "Si O2"
_cell_formula_units_Z 64
_cell_length_a 11.838025
_cell_length_b 16.601758
_cell_length_c 14.423088
_cell_angle_alpha 90.000000
_cell_angle_beta 90.000000
_cell_angle_gamma 90.000000
_cell_volume 2834.598709
_symmetry_space_group_name_H-M "P B C M"
_symmetry_group_IT_number 57
_symmetry_cell_setting 'orthorhombic'
loop_
_space_group_symop_operation_xyz
x,y,z
-x,-y,1/2+z
x,1/2-y,-z
-x,1/2+y,1/2-z
-x,-y,-z
x,y,1/2-z
-x,1/2+y,z
x,1/2-y,1/2+z
loop_
_atom_site_type_symbol
_atom_site_label
_atom_site_fract_x
_atom_site_fract_y
_atom_site_fract_z
Si Si1 0.310727 0.436866 0.144814
Si Si2 0.712112 0.168020 0.638057
Si Si3 0.468684 0.915169 0.647980
Si Si4 0.928414 0.891429 0.636792
Si Si5 0.717198 0.986057 0.640405
Si Si6 0.052405 0.771795 0.363019
Si Si7 0.516256 0.828556 0.464913
Si Si8 0.947465 0.556450 0.637154
O O1 0.311516 0.403114 0.250000
O O2 0.363459 0.525354 0.149777
O O3 0.396039 0.387419 0.082213
O O4 0.183432 0.440233 0.111177
O O5 0.708817 0.165758 0.750000
O O6 0.815006 0.226358 0.611282
O O7 0.588343 0.189525 0.602318
O O8 0.737347 0.076172 0.603583
O O9 0.477782 0.875640 0.750000
O O10 0.585404 0.964963 0.633203
O O11 0.460915 0.862604 0.557780
O O12 0.931792 0.886959 0.750000
O O13 0.983005 0.806935 0.604868
O O14 0.800159 0.914789 0.608031
O O15 0.996994 0.971900 0.607814
O O16 0.741790 0.992561 0.750000
O O17 0.047599 0.771046 0.250000
O O18 0.003791 0.859184 0.391850
O O19 0.580278 0.750000 0.500000
O O20 0.953892 0.555062 0.750000
#
# Coordination Sequence:
#
# PCOD9436361 Si02
#       8
#     8   8   8   8   8   8   8   8
#     4  10  21  39  64  91 127 168 209 256 316 380
#     4  10  19  36  63  91 124 168 212 258 320 382
#     4  10  22  41  65  91 117 161 220 272 316 375
#     4   9  16  28  52  90 125 160 212 261 310 372
#     4   9  16  31  60  90 117 158 215 263 309 377
#     4   9  17  30  54  89 127 163 206 261 309 369
#     4  12  26  40  60  91 128 168 208 265 319 386
#     4   9  17  31  54  87 125 164 202 249 310 373
#
# _framework density 22.578150000000001
#
# number of rings (size 3 to 8) (size 9 to 14) (size 15 to 20)
#    0.000    2.250    2.500    0.750    0.000    3.000 
#    0.000    5.000    0.000    5.250    0.000    0.000 
#    0.000    0.000    0.000    0.000    0.000    0.000 
#
# Total GULP energy -357386.564942 kJ/mol
# GULP energy per Si atom -5584.165077 kJ/mol
# Density = 2.252676 g / cm^3
# Si number density = 22.578150 Si / 1000 Ang^3
#
#
#
# Elastic Constant Matrix: (Units=GPa)
#
#
# Indices 1 2 3 4 5 6 
#
# 1 68.8437 -7.0879 1.9933 0.0000 0.0000 0.0000
# 2 -7.0879 66.5100 5.2231 0.0000 0.0000 0.0000
# 3 1.9933 5.2231 59.5202 0.0000 0.0000 0.0000
# 4 0.0000 0.0000 0.0000 4.2382 0.0000 0.0000
# 5 0.0000 0.0000 0.0000 0.0000 -120.8378 0.0000
# 6 0.0000 0.0000 0.0000 0.0000 0.0000 66.3431
#
#
#
# Elastic Compliance Matrix: (Units=1/GPa)
#
#
# Indices 1 2 3 4 5 6 
#
# 1 0.014711 0.001618 -0.000635 0.000000 0.000000 0.000000
# 2 0.001618 0.015318 -0.001398 0.000000 0.000000 0.000000
# 3 -0.000635 -0.001398 0.016945 0.000000 0.000000 0.000000
# 4 0.000000 0.000000 0.000000 0.235947 0.000000 0.000000
# 5 0.000000 0.000000 0.000000 0.000000 -0.008276 0.000000
# 6 0.000000 0.000000 0.000000 0.000000 0.000000 0.015073
#
#
# Mechanical properties :
#
#
# Convention : Reuss Voigt Hill
#
# Bulk Modulus (GPa) = 21.67210 21.68121 21.67665
# Shear Modulus (GPa) = 16.34364 2.93173 9.63768
#
# Velocity S-wave (km/s) = 2.69340 1.14074 2.06830
# Velocity P-wave (km/s) = 4.39228 3.37026 3.91476
#
# Compressibility (1/GPa) = 0.04614227
#
# Stress axis : x y z
#
# Youngs Moduli (GPa) = 67.97834 65.28469 59.01456
#
# Poissons Ratio (x) = -0.10560 0.03745
# Poissons Ratio (y) = -0.10996 0.08252
# Poissons Ratio (z) = 0.04314 0.09129
#
# Static dielectric constant tensor:
#      x y z
#    x 1.801870 0.000000 0.000000 
#    y 0.000000 1.746090 0.000000 
#    z 0.000000 0.000000 1.859590 
# 
# From -- ./inp_files/17977.got.cif
#   From: 2010.05.17/outbox.cif.g08.bks.cpg/sg57_9_cif.got.tgz:17977.got - 2010.06.03 13:58:18.
