data_PCOD9436635
_publ_section_title
;
Structure prediction by ZEFSAII (Michael W. Deem and Ramdas Pophale) SiO2 
 PCOD9436635
Probable space group: P B C M
;
_chemical_formula_sum "Si O2"
_cell_formula_units_Z 48
_cell_length_a 18.563364
_cell_length_b 16.550702
_cell_length_c 9.395116
_cell_angle_alpha 90.000000
_cell_angle_beta 90.000000
_cell_angle_gamma 90.000000
_cell_volume 2886.524489
_symmetry_space_group_name_H-M "P B C M"
_symmetry_group_IT_number 57
_symmetry_cell_setting 'orthorhombic'
loop_
_space_group_symop_operation_xyz
x,y,z
-x,-y,1/2+z
x,1/2-y,-z
-x,1/2+y,1/2-z
-x,-y,-z
x,y,1/2-z
-x,1/2+y,z
x,1/2-y,1/2+z
loop_
_atom_site_type_symbol
_atom_site_label
_atom_site_fract_x
_atom_site_fract_y
_atom_site_fract_z
Si Si1 0.924919 0.005503 0.581632
Si Si2 0.575369 0.992719 0.421326
Si Si3 0.803715 0.577143 0.587233
Si Si4 0.663686 0.668915 0.920743
Si Si5 0.164223 0.670713 0.918097
Si Si6 0.287440 0.590153 0.087066
O O1 0.934227 0.993903 0.750000
O O2 0.887709 0.093390 0.559351
O O3 0.869728 0.940115 0.516180
O O4 0.000000 0.000000 0.500000
O O5 0.566708 0.994914 0.250000
O O6 0.613420 0.907418 0.457509
O O7 0.500000 0.000000 0.500000
O O8 0.632337 0.063938 0.457805
O O9 0.827865 0.592227 0.750000
O O10 0.746085 0.644538 0.542438
O O11 0.756648 0.494509 0.590752
O O12 0.660958 0.678579 0.750000
O O13 0.642177 0.750000 0.000000
O O14 0.169524 0.685303 0.750000
O O15 0.137732 0.750000 0.000000
O O16 0.241933 0.647062 0.984145
O O17 0.288508 0.621189 0.250000
#
# Coordination Sequence:
#
# PCOD9436635 Si02
#       6
#     8   8   8   8   8   8
#     4  10  20  33  51  75 100 128 163 199 239 290
#     4   9  18  32  50  73 100 131 166 202 243 292
#     4   8  15  30  50  69  92 123 158 196 236 282
#     4   9  18  32  50  73  99 127 162 203 246 291
#     4  10  20  33  51  75  99 125 161 203 245 290
#     4   8  15  30  50  69  92 124 160 197 238 283
#
# _framework density 16.628995
#
# number of rings (size 3 to 8) (size 9 to 14) (size 15 to 20)
#    0.000    3.000    0.000    3.000    0.000    4.000 
#    0.000    5.000    0.000    2.000    0.000    0.000 
#    0.000    0.000    0.000    0.000    0.000    0.000 
#
# Total GULP energy -267383.619219 kJ/mol
# GULP energy per Si atom -5570.492067 kJ/mol
# Density = 1.659115 g / cm^3
# Si number density = 16.628995 Si / 1000 Ang^3
#
#
#
# Elastic Constant Matrix: (Units=GPa)
#
#
# Indices 1 2 3 4 5 6 
#
# 1 128.3750 30.7682 69.8661 0.0000 0.0000 0.0000
# 2 30.7682 60.5654 43.2933 0.0000 0.0000 0.0000
# 3 69.8661 43.2933 79.0545 0.0000 0.0000 0.0000
# 4 0.0000 0.0000 0.0000 28.1513 0.0000 0.0000
# 5 0.0000 0.0000 0.0000 0.0000 33.0999 0.0000
# 6 0.0000 0.0000 0.0000 0.0000 0.0000 12.4046
#
#
#
# Elastic Compliance Matrix: (Units=1/GPa)
#
#
# Indices 1 2 3 4 5 6 
#
# 1 0.015360 0.003123 -0.015284 0.000000 0.000000 0.000000
# 2 0.003123 0.027767 -0.017966 0.000000 0.000000 0.000000
# 3 -0.015284 -0.017966 0.035996 0.000000 0.000000 0.000000
# 4 0.000000 0.000000 0.000000 0.035522 0.000000 0.000000
# 5 0.000000 0.000000 0.000000 0.000000 0.030212 0.000000
# 6 0.000000 0.000000 0.000000 0.000000 0.000000 0.080615
#
#
# Mechanical properties :
#
#
# Convention : Reuss Voigt Hill
#
# Bulk Modulus (GPa) = 53.00145 61.76112 57.38129
# Shear Modulus (GPa) = 17.12229 23.00232 20.06230
#
# Velocity S-wave (km/s) = 3.21232 3.72326 3.47719
# Velocity P-wave (km/s) = 6.76023 7.46357 7.12059
#
# Compressibility (1/GPa) = 0.01886741
#
# Stress axis : x y z
#
# Youngs Moduli (GPa) = 65.10603 36.01364 27.78057
#
# Poissons Ratio (x) = -0.11246 0.42461
# Poissons Ratio (y) = -0.20331 0.49911
# Poissons Ratio (z) = 0.99511 0.64703
#
# Static dielectric constant tensor:
#      x y z
#    x 1.554440 0.000000 0.000000 
#    y 0.000000 1.567680 0.000000 
#    z 0.000000 0.000000 1.550920 
# 
# From -- ./inp_files/6576.got.cif
#   From: 2010.05.17/outbox.cif.g08.bks.cpg/sg57_4_cif.got.tgz:6576.got - 2010.06.03 13:58:18.
