data_PCOD9436782
_publ_section_title
;
Structure prediction by ZEFSAII (Michael W. Deem and Ramdas Pophale) SiO2 
 PCOD9436782
Probable space group: P B C M
;
_chemical_formula_sum "Si O2"
_cell_formula_units_Z 64
_cell_length_a 8.884037
_cell_length_b 21.158380
_cell_length_c 14.855371
_cell_angle_alpha 90.000000
_cell_angle_beta 90.000000
_cell_angle_gamma 90.000000
_cell_volume 2792.391284
_symmetry_space_group_name_H-M "P B C M"
_symmetry_group_IT_number 57
_symmetry_cell_setting 'orthorhombic'
loop_
_space_group_symop_operation_xyz
x,y,z
-x,-y,1/2+z
x,1/2-y,-z
-x,1/2+y,1/2-z
-x,-y,-z
x,y,1/2-z
-x,1/2+y,z
x,1/2-y,1/2+z
loop_
_atom_site_type_symbol
_atom_site_label
_atom_site_fract_x
_atom_site_fract_y
_atom_site_fract_z
Si Si1 0.363269 0.625977 0.388294
Si Si2 0.122571 0.293119 0.856807
Si Si3 0.530052 0.506383 0.894206
Si Si4 0.630335 0.128245 0.606277
Si Si5 0.032975 0.829768 0.356530
Si Si6 0.130506 0.046452 0.640795
Si Si7 0.538783 0.748865 0.391785
Si Si8 0.022368 0.915250 0.645229
O O1 0.460085 0.564961 0.356892
O O2 0.370501 0.625684 0.497230
O O3 0.429529 0.692919 0.358178
O O4 0.191122 0.613931 0.360382
O O5 0.092489 0.298890 0.750000
O O6 0.291828 0.269554 0.868363
O O7 0.013644 0.238356 0.893874
O O8 0.087963 0.362588 0.895066
O O9 0.413101 0.558581 0.859219
O O10 0.696257 0.535306 0.882705
O O11 0.500000 0.500000 0.000000
O O12 0.794531 0.152088 0.631919
O O13 0.512730 0.181685 0.638132
O O14 0.001088 0.826682 0.250000
O O15 0.933949 0.887564 0.393041
O O16 0.121752 0.046116 0.750000
O O17 0.036269 0.985703 0.606548
O O18 0.527757 0.750000 0.500000
O O19 0.982235 0.924220 0.750000
#
# Coordination Sequence:
#
# PCOD9436782 Si02
#       8
#     8   8   8   8   8   8   8   8
#     4   9  19  35  52  74 101 131 166 205 250 298
#     4  10  21  35  51  74 102 131 166 208 252 298
#     4   9  18  34  53  75 104 134 167 207 251 300
#     4  10  20  34  52  75 103 133 168 209 249 297
#     4  10  21  35  52  76 104 134 170 209 250 300
#     4   9  18  34  54  75 103 137 169 206 253 300
#     4  10  21  35  52  74 102 133 168 210 251 297
#     4   9  18  34  54  75 101 131 165 206 250 298
#
# _framework density 22.919423999999999
#
# number of rings (size 3 to 8) (size 9 to 14) (size 15 to 20)
#    0.000    2.500    0.000    1.500    0.000    3.500 
#    0.000    5.625    0.000    0.000    0.000    0.000 
#    0.000    0.000    0.000    0.000    0.000    0.000 
#
# Total GULP energy -357532.939690 kJ/mol
# GULP energy per Si atom -5586.452183 kJ/mol
# Density = 2.286726 g / cm^3
# Si number density = 22.919424 Si / 1000 Ang^3
#
#
#
# Elastic Constant Matrix: (Units=GPa)
#
#
# Indices 1 2 3 4 5 6 
#
# 1 -9.7410 -69.6396 11.8912 0.0000 0.0000 0.0000
# 2 -69.6396 -76.8308 57.1924 0.0000 0.0000 0.0000
# 3 11.8912 57.1924 60.8386 0.0000 0.0000 0.0000
# 4 0.0000 0.0000 0.0000 5.4237 0.0000 0.0000
# 5 0.0000 0.0000 0.0000 0.0000 27.8359 0.0000
# 6 0.0000 0.0000 0.0000 0.0000 0.0000 43.4133
#
#
#
# Elastic Compliance Matrix: (Units=1/GPa)
#
#
# Indices 1 2 3 4 5 6 
#
# 1 0.026351 -0.016307 0.010180 0.000000 0.000000 0.000000
# 2 -0.016307 0.002434 0.000899 0.000000 0.000000 0.000000
# 3 0.010180 0.000899 0.013602 0.000000 0.000000 0.000000
# 4 0.000000 0.000000 0.000000 0.184377 0.000000 0.000000
# 5 0.000000 0.000000 0.000000 0.000000 0.035925 0.000000
# 6 0.000000 0.000000 0.000000 0.000000 0.000000 0.023034
#
#
# Mechanical properties :
#
#
# Convention : Reuss Voigt Hill
#
# Bulk Modulus (GPa) = 31.31841 -2.98278 14.16781
# Shear Modulus (GPa) = 16.29588 13.65611 14.97599
#
# Velocity S-wave (km/s) = 2.66937 2.44361 2.55898
# Velocity P-wave (km/s) = 4.81611 2.58020 3.86344
#
# Compressibility (1/GPa) = 0.03193011
#
# Stress axis : x y z
#
# Youngs Moduli (GPa) = 37.94863 410.76296 73.51658
#
# Poissons Ratio (x) = 6.69848 -0.74836
# Poissons Ratio (y) = 0.61884 -0.06607
# Poissons Ratio (z) = -0.38630 -0.36918
#
# Static dielectric constant tensor:
#      x y z
#    x 1.789700 0.000000 0.000000 
#    y 0.000000 1.846090 0.000000 
#    z 0.000000 0.000000 1.867220 
# 
# From -- ./inp_files/24576.got.cif
#   From: 2010.05.17/outbox.cif.g08.bks.cpg/sg57_13_cif.got.tgz:24576.got - 2010.06.03 13:58:18.
