data_PCOD9436268
_publ_section_title
;
Structure prediction by ZEFSAII (Michael W. Deem and Ramdas Pophale) SiO2 
 PCOD9436268
Probable space group: P B C M
;
_chemical_formula_sum "Si O2"
_cell_formula_units_Z 64
_cell_length_a 12.132263
_cell_length_b 31.571057
_cell_length_c 8.733212
_cell_angle_alpha 90.000000
_cell_angle_beta 90.000000
_cell_angle_gamma 90.000000
_cell_volume 3345.067929
_symmetry_space_group_name_H-M "P B C M"
_symmetry_group_IT_number 57
_symmetry_cell_setting 'orthorhombic'
loop_
_space_group_symop_operation_xyz
x,y,z
-x,-y,1/2+z
x,1/2-y,-z
-x,1/2+y,1/2-z
-x,-y,-z
x,y,1/2-z
-x,1/2+y,z
x,1/2-y,1/2+z
loop_
_atom_site_type_symbol
_atom_site_label
_atom_site_fract_x
_atom_site_fract_y
_atom_site_fract_z
Si Si1 0.489760 0.076529 0.067922
Si Si2 0.259213 0.049076 0.567051
Si Si3 0.269257 0.545914 0.436173
Si Si4 0.502162 0.678186 0.431344
Si Si5 0.264534 0.205279 0.567692
Si Si6 0.868586 0.127635 0.434589
Si Si7 0.730994 0.205281 0.932209
Si Si8 0.872459 0.872518 0.567331
O O1 0.474654 0.068385 0.250000
O O2 0.605237 0.056136 0.017081
O O3 0.497253 0.127266 0.048868
O O4 0.385453 0.059052 0.977340
O O5 0.246352 0.052029 0.750000
O O6 0.183866 0.084188 0.487944
O O7 0.234402 0.001038 0.515851
O O8 0.269709 0.546103 0.250000
O O9 0.189821 0.583975 0.485050
O O10 0.501796 0.687226 0.250000
O O11 0.612336 0.696609 0.505690
O O12 0.392194 0.696542 0.506145
O O13 0.225523 0.250000 0.500000
O O14 0.266018 0.207033 0.750000
O O15 0.188987 0.166701 0.511360
O O16 0.855071 0.130936 0.250000
O O17 0.807149 0.167063 0.510146
O O18 0.998015 0.127409 0.468802
O O19 0.729933 0.207079 0.750000
O O20 0.769665 0.250000 0.000000
O O21 0.858328 0.868678 0.750000
#
# Coordination Sequence:
#
# PCOD9436268 Si02
#       8
#     8   8   8   8   8   8   8   8
#     4  10  19  35  62  88 122 162 201 244 301 367
#     4  11  22  36  60  91 127 161 201 251 304 364
#     4   9  19  38  62  90 121 161 201 248 306 361
#     4  11  21  38  65  93 126 163 202 246 301 365
#     4  12  25  42  65  92 125 159 200 251 305 367
#     4  10  22  44  67  86 117 162 211 258 306 359
#     4  12  25  41  64  94 127 161 202 249 304 366
#     4  11  24  42  64  88 119 162 209 256 307 362
#
# _framework density 19.132645
#
# number of rings (size 3 to 8) (size 9 to 14) (size 15 to 20)
#    0.000    1.250    2.500    4.125    0.000    2.500 
#    0.000    1.875    0.000    0.000    0.000    0.000 
#    0.000    0.000    0.000    0.000    0.000    0.000 
#
# Total GULP energy -357963.708480 kJ/mol
# GULP energy per Si atom -5593.182945 kJ/mol
# Density = 1.908910 g / cm^3
# Si number density = 19.132645 Si / 1000 Ang^3
#
#
#
# Elastic Constant Matrix: (Units=GPa)
#
#
# Indices 1 2 3 4 5 6 
#
# 1 124.7000 83.9561 63.8438 0.0000 0.0000 0.0000
# 2 83.9561 177.4762 65.8781 0.0000 0.0000 0.0000
# 3 63.8438 65.8781 80.7744 0.0000 0.0000 0.0000
# 4 0.0000 0.0000 0.0000 26.5356 0.0000 0.0000
# 5 0.0000 0.0000 0.0000 0.0000 -8.2839 0.0000
# 6 0.0000 0.0000 0.0000 0.0000 0.0000 -8.2343
#
#
#
# Elastic Compliance Matrix: (Units=1/GPa)
#
#
# Indices 1 2 3 4 5 6 
#
# 1 0.015146 -0.003903 -0.008789 0.000000 0.000000 0.000000
# 2 -0.003903 0.009087 -0.004326 0.000000 0.000000 0.000000
# 3 -0.008789 -0.004326 0.022855 0.000000 0.000000 0.000000
# 4 0.000000 0.000000 0.000000 0.037685 0.000000 0.000000
# 5 0.000000 0.000000 0.000000 0.000000 -0.120716 0.000000
# 6 0.000000 0.000000 0.000000 0.000000 0.000000 -0.121444
#
#
# Mechanical properties :
#
#
# Convention : Reuss Voigt Hill
#
# Bulk Modulus (GPa) = 76.61126 90.03408 83.32267
# Shear Modulus (GPa) = -42.01690 13.28832 -14.36429
#
# Velocity S-wave (km/s) = -4.69132 2.63827 -2.74300
# Velocity P-wave (km/s) = 3.28396 7.51269 5.79763
#
# Compressibility (1/GPa) = 0.01305291
#
# Stress axis : x y z
#
# Youngs Moduli (GPa) = 66.02188 110.05165 43.75416
#
# Poissons Ratio (x) = 0.42951 0.38454
# Poissons Ratio (y) = 0.25767 0.18929
# Poissons Ratio (z) = 0.58024 0.47610
#
# Static dielectric constant tensor:
#      x y z
#    x 1.632020 0.000000 0.000000 
#    y 0.000000 1.661260 0.000000 
#    z 0.000000 0.000000 1.641800 
# 
# From -- ./inp_files/3740.got.cif
#   From: 2010.05.17/outbox.cif.g08.bks.cpg/sg57_2_cif.got.tgz:3740.got - 2010.06.03 13:58:18.
