data_PCOD9436434
_publ_section_title
;
Structure prediction by ZEFSAII (Michael W. Deem and Ramdas Pophale) SiO2 
 PCOD9436434
Probable space group: P B C M
;
_chemical_formula_sum "Si O2"
_cell_formula_units_Z 48
_cell_length_a 8.699219
_cell_length_b 18.200232
_cell_length_c 14.648732
_cell_angle_alpha 90.000000
_cell_angle_beta 90.000000
_cell_angle_gamma 90.000000
_cell_volume 2319.301569
_symmetry_space_group_name_H-M "P B C M"
_symmetry_group_IT_number 57
_symmetry_cell_setting 'orthorhombic'
loop_
_space_group_symop_operation_xyz
x,y,z
-x,-y,1/2+z
x,1/2-y,-z
-x,1/2+y,1/2-z
-x,-y,-z
x,y,1/2-z
-x,1/2+y,z
x,1/2-y,1/2+z
loop_
_atom_site_type_symbol
_atom_site_label
_atom_site_fract_x
_atom_site_fract_y
_atom_site_fract_z
Si Si1 0.256088 0.620989 0.856008
Si Si2 0.209084 0.889815 0.846425
Si Si3 0.933328 0.522053 0.098607
Si Si4 0.260616 0.168291 0.362605
Si Si5 0.437719 0.834952 0.512193
Si Si6 0.016558 0.738232 0.854214
O O1 0.282726 0.639414 0.750000
O O2 0.174122 0.542626 0.864403
O O3 0.126223 0.676979 0.897254
O O4 0.414575 0.630914 0.911508
O O5 0.295013 0.889934 0.750000
O O6 0.322050 0.885602 0.930193
O O7 0.089235 0.956098 0.849103
O O8 0.112309 0.814022 0.851157
O O9 0.831696 0.595502 0.107147
O O10 0.000000 0.500000 0.000000
O O11 0.280918 0.167535 0.250000
O O12 0.410959 0.168972 0.425378
O O13 0.151244 0.237905 0.387286
O O14 0.390367 0.750000 0.500000
O O15 0.992833 0.712879 0.750000
#
# Coordination Sequence:
#
# PCOD9436434 Si02
#       6
#     8   8   8   8   8   8
#     4  11  22  39  64  94 131 168 212 275 330 372
#     4  10  19  38  63  89 124 167 213 257 317 393
#     4  11  22  40  66  95 124 167 222 268 314 381
#     4  10  23  43  66  95 134 174 212 262 329 401
#     4  12  24  38  63  99 126 169 216 266 324 391
#     4   8  17  36  65  89 117 162 211 261 316 373
#
# _framework density 20.695885000000001
#
# number of rings (size 3 to 8) (size 9 to 14) (size 15 to 20)
#    0.000    1.667    3.333    3.000    0.000    2.667 
#    0.000    0.000    0.000    2.000    0.000    0.000 
#    0.000    0.000    0.000    0.000    0.000    0.000 
#
# Total GULP energy -267349.241134 kJ/mol
# GULP energy per Si atom -5569.775857 kJ/mol
# Density = 2.064878 g / cm^3
# Si number density = 20.695885 Si / 1000 Ang^3
#
#
#
# Elastic Constant Matrix: (Units=GPa)
#
#
# Indices 1 2 3 4 5 6 
#
# 1 75.5876 1.5175 44.2411 0.0000 0.0000 0.0000
# 2 1.5175 53.1115 11.3234 0.0000 0.0000 0.0000
# 3 44.2411 11.3234 126.0758 0.0000 0.0000 0.0000
# 4 0.0000 0.0000 0.0000 20.5781 0.0000 0.0000
# 5 0.0000 0.0000 0.0000 0.0000 33.6236 0.0000
# 6 0.0000 0.0000 0.0000 0.0000 0.0000 13.2570
#
#
#
# Elastic Compliance Matrix: (Units=1/GPa)
#
#
# Indices 1 2 3 4 5 6 
#
# 1 0.016681 0.000786 -0.005924 0.000000 0.000000 0.000000
# 2 0.000786 0.019233 -0.002003 0.000000 0.000000 0.000000
# 3 -0.005924 -0.002003 0.010191 0.000000 0.000000 0.000000
# 4 0.000000 0.000000 0.000000 0.048595 0.000000 0.000000
# 5 0.000000 0.000000 0.000000 0.000000 0.029741 0.000000
# 6 0.000000 0.000000 0.000000 0.000000 0.000000 0.075432
#
#
# Mechanical properties :
#
#
# Convention : Reuss Voigt Hill
#
# Bulk Modulus (GPa) = 31.42434 40.99322 36.20878
# Shear Modulus (GPa) = 22.24565 26.67126 24.45845
#
# Velocity S-wave (km/s) = 3.28210 3.59377 3.44147
# Velocity P-wave (km/s) = 5.43872 6.08857 5.77280
#
# Compressibility (1/GPa) = 0.03182246
#
# Stress axis : x y z
#
# Youngs Moduli (GPa) = 59.94722 51.99407 98.13025
#
# Poissons Ratio (x) = -0.04089 0.58135
# Poissons Ratio (y) = -0.04714 0.19659
# Poissons Ratio (z) = 0.35514 0.10416
#
# Static dielectric constant tensor:
#      x y z
#    x 1.774890 0.000000 0.000000 
#    y 0.000000 1.724170 0.000000 
#    z 0.000000 0.000000 1.811310 
# 
# From -- ./inp_files/16330.got.cif
#   From: 2010.05.17/outbox.cif.g08.bks.cpg/sg57_9_cif.got.tgz:16330.got - 2010.06.03 13:58:18.
