data_PCOD9436533
_publ_section_title
;
Structure prediction by ZEFSAII (Michael W. Deem and Ramdas Pophale) SiO2 
 PCOD9436533
Probable space group: P B C M
;
_chemical_formula_sum "Si O2"
_cell_formula_units_Z 48
_cell_length_a 32.596767
_cell_length_b 9.451001
_cell_length_c 8.650909
_cell_angle_alpha 90.000000
_cell_angle_beta 90.000000
_cell_angle_gamma 90.000000
_cell_volume 2665.103508
_symmetry_space_group_name_H-M "P B C M"
_symmetry_group_IT_number 57
_symmetry_cell_setting 'orthorhombic'
loop_
_space_group_symop_operation_xyz
x,y,z
-x,-y,1/2+z
x,1/2-y,-z
-x,1/2+y,1/2-z
-x,-y,-z
x,y,1/2-z
-x,1/2+y,z
x,1/2-y,1/2+z
loop_
_atom_site_type_symbol
_atom_site_label
_atom_site_fract_x
_atom_site_fract_y
_atom_site_fract_z
Si Si1 0.962439 0.090013 0.065274
Si Si2 0.462611 0.090798 0.434929
Si Si3 0.787856 0.410497 0.435054
Si Si4 0.624136 0.908363 0.064169
Si Si5 0.296591 0.908851 0.565166
Si Si6 0.122616 0.910642 0.064298
O O1 0.963241 0.094334 0.250000
O O2 0.965286 0.250000 0.000000
O O3 0.918688 0.027374 0.008454
O O4 0.000000 0.000000 0.000000
O O5 0.466119 0.250000 0.500000
O O6 0.463202 0.093201 0.250000
O O7 0.418522 0.035334 0.494135
O O8 0.500000 0.000000 0.500000
O O9 0.788424 0.250000 0.500000
O O10 0.784919 0.404740 0.250000
O O11 0.746081 0.473961 0.502432
O O12 0.832584 0.474289 0.474992
O O13 0.620597 0.903679 0.250000
O O14 0.663477 0.001572 0.021517
O O15 0.629508 0.750000 0.000000
O O16 0.300390 0.750000 0.500000
O O17 0.294082 0.901559 0.750000
O O18 0.118667 0.906804 0.250000
O O19 0.123874 0.750000 0.000000
#
# Coordination Sequence:
#
# PCOD9436533 Si02
#       6
#     8   8   8   8   8   8
#     4  11  21  34  52  75 102 134 170 211 256 307
#     4  11  22  38  59  82 108 139 174 215 259 307
#     4   9  16  26  44  69  99 130 163 205 252 297
#     4  10  21  37  55  77 104 138 176 212 252 304
#     4  10  20  32  50  76 105 133 167 209 253 300
#     4   9  16  27  44  69  97 128 165 206 250 301
#
# _framework density 18.010558
#
# number of rings (size 3 to 8) (size 9 to 14) (size 15 to 20)
#    0.000    2.000    0.000    8.000    0.000    5.333 
#    0.000    1.667    0.000    1.000    0.000    2.333 
#    0.000    0.000    0.000    0.000    0.000    0.000 
#
# Total GULP energy -267704.610712 kJ/mol
# GULP energy per Si atom -5577.179390 kJ/mol
# Density = 1.796956 g / cm^3
# Si number density = 18.010558 Si / 1000 Ang^3
#
#
#
# Elastic Constant Matrix: (Units=GPa)
#
#
# Indices 1 2 3 4 5 6 
#
# 1 236.2110 58.4332 82.7271 0.0000 0.0000 0.0000
# 2 58.4332 29.3674 24.6605 0.0000 0.0000 0.0000
# 3 82.7271 24.6605 118.7749 0.0000 0.0000 0.0000
# 4 0.0000 0.0000 0.0000 21.5188 0.0000 0.0000
# 5 0.0000 0.0000 0.0000 0.0000 33.2913 0.0000
# 6 0.0000 0.0000 0.0000 0.0000 0.0000 27.9029
#
#
#
# Elastic Compliance Matrix: (Units=1/GPa)
#
#
# Indices 1 2 3 4 5 6 
#
# 1 0.009226 -0.015698 -0.003167 0.000000 0.000000 0.000000
# 2 -0.015698 0.067952 -0.003175 0.000000 0.000000 0.000000
# 3 -0.003167 -0.003175 0.011284 0.000000 0.000000 0.000000
# 4 0.000000 0.000000 0.000000 0.046471 0.000000 0.000000
# 5 0.000000 0.000000 0.000000 0.000000 0.030038 0.000000
# 6 0.000000 0.000000 0.000000 0.000000 0.000000 0.035839
#
#
# Mechanical properties :
#
#
# Convention : Reuss Voigt Hill
#
# Bulk Modulus (GPa) = 22.53107 79.55498 51.04302
# Shear Modulus (GPa) = 19.25434 31.11143 25.18289
#
# Velocity S-wave (km/s) = 3.27319 4.16071 3.74335
# Velocity P-wave (km/s) = 5.17901 8.20666 6.86190
#
# Compressibility (1/GPa) = 0.04438316
#
# Stress axis : x y z
#
# Youngs Moduli (GPa) = 108.39181 14.71632 88.62123
#
# Poissons Ratio (x) = 0.23101 0.28062
# Poissons Ratio (y) = 1.70151 0.28136
# Poissons Ratio (z) = 0.34323 0.04672
#
# Static dielectric constant tensor:
#      x y z
#    x 1.677220 0.000000 0.000000 
#    y 0.000000 1.594960 0.000000 
#    z 0.000000 0.000000 1.600170 
# 
# From -- ./inp_files/10234.got.cif
#   From: 2010.05.17/outbox.cif.g08.bks.cpg/sg57_6_cif.got.tgz:10234.got - 2010.06.03 13:58:18.
