data_PCOD9436283
_publ_section_title
;
Structure prediction by ZEFSAII (Michael W. Deem and Ramdas Pophale) SiO2 
 PCOD9436283
Probable space group: P B C M
;
_chemical_formula_sum "Si O2"
_cell_formula_units_Z 56
_cell_length_a 12.914398
_cell_length_b 10.184791
_cell_length_c 27.814895
_cell_angle_alpha 90.000000
_cell_angle_beta 90.000000
_cell_angle_gamma 90.000000
_cell_volume 3658.505504
_symmetry_space_group_name_H-M "P B C M"
_symmetry_group_IT_number 57
_symmetry_cell_setting 'orthorhombic'
loop_
_space_group_symop_operation_xyz
x,y,z
-x,-y,1/2+z
x,1/2-y,-z
-x,1/2+y,1/2-z
-x,-y,-z
x,y,1/2-z
-x,1/2+y,z
x,1/2-y,1/2+z
loop_
_atom_site_type_symbol
_atom_site_label
_atom_site_fract_x
_atom_site_fract_y
_atom_site_fract_z
Si Si1 0.876597 0.621814 0.531252
Si Si2 0.506718 0.873563 0.465938
Si Si3 0.591523 0.220449 0.804637
Si Si4 0.397479 0.473526 0.195946
Si Si5 0.115225 0.629956 0.536613
Si Si6 0.696688 0.971055 0.096829
Si Si7 0.306539 0.785828 0.405206
O O1 0.852628 0.750000 0.500000
O O2 0.868923 0.501547 0.493922
O O3 0.796702 0.594296 0.573532
O O4 0.994244 0.632206 0.550551
O O5 0.531296 0.750000 0.500000
O O6 0.596717 0.905517 0.428028
O O7 0.400021 0.842862 0.437805
O O8 0.500000 0.000000 0.500000
O O9 0.632355 0.201169 0.750000
O O10 0.491756 0.127725 0.809730
O O11 0.563816 0.375377 0.808900
O O12 0.667081 0.191666 0.849157
O O13 0.355802 0.458841 0.250000
O O14 0.315538 0.452872 0.153769
O O15 0.131956 0.750000 0.500000
O O16 0.199255 0.649427 0.578099
O O17 0.697343 0.127989 0.086827
#
# Coordination Sequence:
#
# PCOD9436283 Si02
#       7
#     8   8   8   8   8   8   8
#     4  10  21  35  52  77  98 132 177 215 241 295
#     4  12  22  31  45  73 105 135 166 196 244 302
#     4   9  18  33  52  74  99 130 170 206 245 300
#     4   9  18  33  52  73  99 131 168 206 247 301
#     4  10  19  36  56  70  99 137 173 204 252 298
#     4  11  20  34  52  74 102 134 167 206 252 300
#     4  11  20  34  53  73 101 139 164 202 258 301
#
# _framework density 15.306797
#
# number of rings (size 3 to 8) (size 9 to 14) (size 15 to 20)
#    0.000    1.714    4.286    1.714    0.000    0.000 
#    2.571    0.000    0.000    0.857    0.000    0.000 
#    0.000    0.000    0.000    0.000    0.000    0.000 
#
# Total GULP energy -312249.766112 kJ/mol
# GULP energy per Si atom -5575.888681 kJ/mol
# Density = 1.527196 g / cm^3
# Si number density = 15.306797 Si / 1000 Ang^3
#
#
#
# Elastic Constant Matrix: (Units=GPa)
#
#
# Indices 1 2 3 4 5 6 
#
# 1 92.8554 36.3933 77.3828 0.0000 0.0000 0.0000
# 2 36.3933 88.4157 53.0077 0.0000 0.0000 0.0000
# 3 77.3828 53.0077 126.7871 0.0000 0.0000 0.0000
# 4 0.0000 0.0000 0.0000 22.0733 0.0000 0.0000
# 5 0.0000 0.0000 0.0000 0.0000 17.3645 0.0000
# 6 0.0000 0.0000 0.0000 0.0000 0.0000 27.9951
#
#
#
# Elastic Compliance Matrix: (Units=1/GPa)
#
#
# Indices 1 2 3 4 5 6 
#
# 1 0.022036 -0.001344 -0.012888 0.000000 0.000000 0.000000
# 2 -0.001344 0.015175 -0.005524 0.000000 0.000000 0.000000
# 3 -0.012888 -0.005524 0.018063 0.000000 0.000000 0.000000
# 4 0.000000 0.000000 0.000000 0.045304 0.000000 0.000000
# 5 0.000000 0.000000 0.000000 0.000000 0.057589 0.000000
# 6 0.000000 0.000000 0.000000 0.000000 0.000000 0.035721
#
#
# Mechanical properties :
#
#
# Convention : Reuss Voigt Hill
#
# Bulk Modulus (GPa) = 63.44181 71.29177 67.36679
# Shear Modulus (GPa) = 20.95084 22.90486 21.92785
#
# Velocity S-wave (km/s) = 3.70365 3.87251 3.78902
# Velocity P-wave (km/s) = 7.73474 8.16526 7.95291
#
# Compressibility (1/GPa) = 0.01576248
#
# Stress axis : x y z
#
# Youngs Moduli (GPa) = 45.37936 65.89616 55.36254
#
# Poissons Ratio (x) = 0.08856 0.71350
# Poissons Ratio (y) = 0.06099 0.30584
# Poissons Ratio (z) = 0.58484 0.36403
#
# Static dielectric constant tensor:
#      x y z
#    x 1.493990 0.000000 0.000000 
#    y 0.000000 1.500100 0.000000 
#    z 0.000000 0.000000 1.522890 
# 
# From -- ./inp_files/27229.got.cif
#   From: 2010.05.17/outbox.cif.g08.bks.cpg/sg57_14_cif.got.tgz:27229.got - 2010.06.03 13:58:18.
