data_PCOD9436179
_publ_section_title
;
Structure prediction by ZEFSAII (Michael W. Deem and Ramdas Pophale) SiO2 
 PCOD9436179
Probable space group: P B C M
;
_chemical_formula_sum "Si O2"
_cell_formula_units_Z 64
_cell_length_a 20.925084
_cell_length_b 19.910868
_cell_length_c 8.733265
_cell_angle_alpha 90.000000
_cell_angle_beta 90.000000
_cell_angle_gamma 90.000000
_cell_volume 3638.597709
_symmetry_space_group_name_H-M "P B C M"
_symmetry_group_IT_number 57
_symmetry_cell_setting 'orthorhombic'
loop_
_space_group_symop_operation_xyz
x,y,z
-x,-y,1/2+z
x,1/2-y,-z
-x,1/2+y,1/2-z
-x,-y,-z
x,y,1/2-z
-x,1/2+y,z
x,1/2-y,1/2+z
loop_
_atom_site_type_symbol
_atom_site_label
_atom_site_fract_x
_atom_site_fract_y
_atom_site_fract_z
Si Si1 0.185532 0.457069 0.932473
Si Si2 0.764005 0.677270 0.566232
Si Si3 0.063268 0.533894 0.065781
Si Si4 0.890443 0.321297 0.565680
Si Si5 0.438167 0.463616 0.065357
Si Si6 0.258441 0.820477 0.933555
Si Si7 0.306295 0.536187 0.064834
Si Si8 0.386142 0.322277 0.434019
O O1 0.180412 0.457753 0.750000
O O2 0.194283 0.381583 0.993819
O O3 0.124790 0.493702 0.005894
O O4 0.248813 0.496209 0.987111
O O5 0.781170 0.750000 0.500000
O O6 0.769185 0.676325 0.750000
O O7 0.688773 0.665738 0.526515
O O8 0.062446 0.531896 0.250000
O O9 0.071460 0.612109 0.018502
O O10 0.000000 0.500000 0.000000
O O11 0.912933 0.250000 0.500000
O O12 0.891647 0.317663 0.750000
O O13 0.815847 0.330139 0.518260
O O14 0.442089 0.463128 0.250000
O O15 0.374190 0.504625 0.023554
O O16 0.427124 0.386462 0.014180
O O17 0.500000 0.500000 0.000000
O O18 0.258661 0.816189 0.750000
O O19 0.298655 0.885754 0.977615
O O20 0.281377 0.750000 0.000000
O O21 0.298607 0.530231 0.250000
O O22 0.405154 0.250000 0.500000
O O23 0.389299 0.318930 0.250000
#
# Coordination Sequence:
#
# PCOD9436179 Si02
#       8
#     8   8   8   8   8   8   8   8
#     4  12  23  35  57  88 115 147 190 234 282 340
#     4  10  19  35  57  84 117 149 186 236 288 341
#     4  11  23  41  60  84 117 154 192 237 287 339
#     4   9  18  33  56  82 111 144 182 227 278 335
#     4  10  21  37  56  80 112 151 189 232 285 338
#     4   9  17  31  53  80 109 143 181 226 282 335
#     4  10  19  37  58  78 110 150 186 230 289 337
#     4   9  18  33  55  80 108 144 185 229 281 338
#
# _framework density 17.589193000000002
#
# number of rings (size 3 to 8) (size 9 to 14) (size 15 to 20)
#    0.000    2.000    2.500    1.875    0.000    3.000 
#    0.000    1.250    0.000    4.500    0.000    0.000 
#    0.000    0.000    0.000    0.000    0.000    0.000 
#
# Total GULP energy -357209.061509 kJ/mol
# GULP energy per Si atom -5581.391586 kJ/mol
# Density = 1.754916 g / cm^3
# Si number density = 17.589193 Si / 1000 Ang^3
#
#
#
# Elastic Constant Matrix: (Units=GPa)
#
#
# Indices 1 2 3 4 5 6 
#
# 1 108.0027 84.6645 37.8956 0.0000 0.0000 0.0000
# 2 84.6645 199.9768 49.3087 0.0000 0.0000 0.0000
# 3 37.8956 49.3087 41.3338 0.0000 0.0000 0.0000
# 4 0.0000 0.0000 0.0000 33.6192 0.0000 0.0000
# 5 0.0000 0.0000 0.0000 0.0000 23.3088 0.0000
# 6 0.0000 0.0000 0.0000 0.0000 0.0000 27.0794
#
#
#
# Elastic Compliance Matrix: (Units=1/GPa)
#
#
# Indices 1 2 3 4 5 6 
#
# 1 0.016070 -0.004492 -0.009374 0.000000 0.000000 0.000000
# 2 -0.004492 0.008340 -0.005831 0.000000 0.000000 0.000000
# 3 -0.009374 -0.005831 0.039744 0.000000 0.000000 0.000000
# 4 0.000000 0.000000 0.000000 0.029745 0.000000 0.000000
# 5 0.000000 0.000000 0.000000 0.000000 0.042902 0.000000
# 6 0.000000 0.000000 0.000000 0.000000 0.000000 0.036928
#
#
# Mechanical properties :
#
#
# Convention : Reuss Voigt Hill
#
# Bulk Modulus (GPa) = 40.38920 77.00566 58.69743
# Shear Modulus (GPa) = 22.58601 28.63111 25.60856
#
# Velocity S-wave (km/s) = 3.58730 4.03894 3.81980
# Velocity P-wave (km/s) = 6.33803 8.10098 7.27312
#
# Compressibility (1/GPa) = 0.02475909
#
# Stress axis : x y z
#
# Youngs Moduli (GPa) = 62.22960 119.90282 25.16127
#
# Poissons Ratio (x) = 0.53860 0.23587
# Poissons Ratio (y) = 0.27953 0.14671
# Poissons Ratio (z) = 0.58335 0.69914
#
# Static dielectric constant tensor:
#      x y z
#    x 1.570070 0.000000 0.000000 
#    y 0.000000 1.611500 0.000000 
#    z 0.000000 0.000000 1.592430 
# 
# From -- ./inp_files/7187.got.cif
#   From: 2010.05.17/outbox.cif.g08.bks.cpg/sg57_4_cif.got.tgz:7187.got - 2010.06.03 13:58:18.
