data_PCOD9436433
_publ_section_title
;
Structure prediction by ZEFSAII (Michael W. Deem and Ramdas Pophale) SiO2 
 PCOD9436433
Probable space group: P B C M
;
_chemical_formula_sum "Si O2"
_cell_formula_units_Z 56
_cell_length_a 5.329256
_cell_length_b 29.907387
_cell_length_c 16.407005
_cell_angle_alpha 90.000000
_cell_angle_beta 90.000000
_cell_angle_gamma 90.000000
_cell_volume 2615.016080
_symmetry_space_group_name_H-M "P B C M"
_symmetry_group_IT_number 57
_symmetry_cell_setting 'orthorhombic'
loop_
_space_group_symop_operation_xyz
x,y,z
-x,-y,1/2+z
x,1/2-y,-z
-x,1/2+y,1/2-z
-x,-y,-z
x,y,1/2-z
-x,1/2+y,z
x,1/2-y,1/2+z
loop_
_atom_site_type_symbol
_atom_site_label
_atom_site_fract_x
_atom_site_fract_y
_atom_site_fract_z
Si Si1 0.156013 0.829199 0.660674
Si Si2 0.399809 0.799328 0.501268
Si Si3 0.625137 0.350048 0.342126
Si Si4 0.107469 0.102343 0.604592
Si Si5 0.428039 0.926178 0.658007
Si Si6 0.753804 0.504586 0.945387
Si Si7 0.221809 0.127310 0.434458
O O1 0.192870 0.808953 0.750000
O O2 0.216049 0.800750 0.579846
O O3 0.300721 0.876966 0.658165
O O4 0.876558 0.846359 0.643993
O O5 0.514075 0.750000 0.500000
O O6 0.307969 0.813186 0.411329
O O7 0.587345 0.838847 0.523835
O O8 0.627958 0.332486 0.250000
O O9 0.345014 0.369381 0.360621
O O10 0.846902 0.387184 0.350118
O O11 0.042944 0.115371 0.509796
O O12 0.211927 0.052035 0.599891
O O13 0.501153 0.937081 0.750000
O O14 0.258901 0.964407 0.619720
O O15 0.659706 0.918076 0.597886
O O16 0.500000 0.500000 0.000000
O O17 0.000000 0.500000 0.000000
#
# Coordination Sequence:
#
# PCOD9436433 Si02
#       7
#     8   8   8   8   8   8   8
#     4  10  20  38  64  92 124 161 207 258 324 392
#     4  10  23  40  64  92 125 163 209 267 326 390
#     4  11  24  44  67  93 130 175 219 266 322 387
#     4  11  22  41  67  92 126 174 221 264 316 384
#     4  10  22  37  58  91 125 163 205 263 321 376
#     4  12  24  39  64  93 127 169 219 265 314 373
#     4  10  19  38  63  88 123 163 207 258 323 389
#
# _framework density 21.414781000000001
#
# number of rings (size 3 to 8) (size 9 to 14) (size 15 to 20)
#    0.000    1.429    2.857    2.571    2.000    2.857 
#    0.000    0.000    0.000    0.000    0.000    0.000 
#    0.000    0.000    0.000    0.000    0.000    0.000 
#
# Total GULP energy -312063.041498 kJ/mol
# GULP energy per Si atom -5572.554312 kJ/mol
# Density = 2.136604 g / cm^3
# Si number density = 21.414781 Si / 1000 Ang^3
#
#
#
# Elastic Constant Matrix: (Units=GPa)
#
#
# Indices 1 2 3 4 5 6 
#
# 1 65.2193 -7.2927 22.1113 0.0000 0.0000 0.0000
# 2 -7.2927 47.6455 34.9933 0.0000 0.0000 0.0000
# 3 22.1113 34.9933 164.7037 0.0000 0.0000 0.0000
# 4 0.0000 0.0000 0.0000 7.0906 0.0000 0.0000
# 5 0.0000 0.0000 0.0000 0.0000 24.0278 0.0000
# 6 0.0000 0.0000 0.0000 0.0000 0.0000 1.5490
#
#
#
# Elastic Compliance Matrix: (Units=1/GPa)
#
#
# Indices 1 2 3 4 5 6 
#
# 1 0.017043 0.005082 -0.003368 0.000000 0.000000 0.000000
# 2 0.005082 0.026384 -0.006288 0.000000 0.000000 0.000000
# 3 -0.003368 -0.006288 0.007860 0.000000 0.000000 0.000000
# 4 0.000000 0.000000 0.000000 0.141032 0.000000 0.000000
# 5 0.000000 0.000000 0.000000 0.000000 0.041619 0.000000
# 6 0.000000 0.000000 0.000000 0.000000 0.000000 0.645589
#
#
# Mechanical properties :
#
#
# Convention : Reuss Voigt Hill
#
# Bulk Modulus (GPa) = 23.73063 41.91026 32.82044
# Shear Modulus (GPa) = 5.53881 21.71724 13.62803
#
# Velocity S-wave (km/s) = 1.60999 3.18799 2.52540
# Velocity P-wave (km/s) = 3.81596 5.75884 4.88497
#
# Compressibility (1/GPa) = 0.04213964
#
# Stress axis : x y z
#
# Youngs Moduli (GPa) = 58.67537 37.90120 127.23339
#
# Poissons Ratio (x) = -0.19262 0.42849
# Poissons Ratio (y) = -0.29819 0.80004
# Poissons Ratio (z) = 0.19760 0.23832
#
# Static dielectric constant tensor:
#      x y z
#    x 1.878230 0.000000 0.000000 
#    y 0.000000 1.766220 0.000000 
#    z 0.000000 0.000000 1.813120 
# 
# From -- ./inp_files/15277.got.cif
#   From: 2010.05.17/outbox.cif.g08.bks.cpg/sg57_8_cif.got.tgz:15277.got - 2010.06.03 13:58:18.
