data_PCOD9436864
_publ_section_title
;
Structure prediction by ZEFSAII (Michael W. Deem and Ramdas Pophale) SiO2 
 PCOD9436864
Probable space group: P B C M
;
_chemical_formula_sum "Si O2"
_cell_formula_units_Z 40
_cell_length_a 26.545351
_cell_length_b 9.821212
_cell_length_c 8.741336
_cell_angle_alpha 90.000000
_cell_angle_beta 90.000000
_cell_angle_gamma 90.000000
_cell_volume 2278.932028
_symmetry_space_group_name_H-M "P B C M"
_symmetry_group_IT_number 57
_symmetry_cell_setting 'orthorhombic'
loop_
_space_group_symop_operation_xyz
x,y,z
-x,-y,1/2+z
x,1/2-y,-z
-x,1/2+y,1/2-z
-x,-y,-z
x,y,1/2-z
-x,1/2+y,z
x,1/2-y,1/2+z
loop_
_atom_site_type_symbol
_atom_site_label
_atom_site_fract_x
_atom_site_fract_y
_atom_site_fract_z
Si Si1 0.458544 0.400106 0.067392
Si Si2 0.656979 0.598483 0.566344
Si Si3 0.957388 0.402765 0.566781
Si Si4 0.258218 0.596888 0.567264
Si Si5 0.845287 0.097133 0.066765
O O1 0.462915 0.395310 0.250000
O O2 0.400910 0.441576 0.030034
O O3 0.466064 0.250000 0.000000
O O4 0.500000 0.500000 0.000000
O O5 0.664781 0.750000 0.500000
O O6 0.662617 0.600948 0.750000
O O7 0.696374 0.494852 0.493341
O O8 0.961777 0.250000 0.500000
O O9 0.961552 0.394750 0.750000
O O10 0.900955 0.458841 0.531102
O O11 0.000000 0.500000 0.500000
O O12 0.262731 0.750000 0.500000
O O13 0.257934 0.604085 0.750000
O O14 0.204794 0.536204 0.508205
O O15 0.839148 0.101132 0.250000
O O16 0.846938 0.250000 0.000000
#
# Coordination Sequence:
#
# PCOD9436864 Si02
#       5
#     8   8   8   8   8
#     4  10  21  37  58  81 108 141 177 217 262 311
#     4  10  21  38  57  79 108 142 176 214 263 317
#     4  10  20  34  54  78 106 139 175 216 263 313
#     4  11  21  34  55  81 107 138 176 220 262 307
#     4   9  17  31  51  75 103 136 173 215 262 312
#
# _framework density 17.552081999999999
#
# number of rings (size 3 to 8) (size 9 to 14) (size 15 to 20)
#    0.000    2.000    0.000    5.400    0.000    5.600 
#    0.000    1.000    0.000    4.800    0.000    0.000 
#    0.000    0.000    0.000    0.000    0.000    0.000 
#
# Total GULP energy -223178.791041 kJ/mol
# GULP energy per Si atom -5579.469776 kJ/mol
# Density = 1.751213 g / cm^3
# Si number density = 17.552082 Si / 1000 Ang^3
#
#
#
# Elastic Constant Matrix: (Units=GPa)
#
#
# Indices 1 2 3 4 5 6 
#
# 1 203.8137 95.4841 94.4658 0.0000 0.0000 0.0000
# 2 95.4841 68.0952 48.5905 0.0000 0.0000 0.0000
# 3 94.4658 48.5905 114.0034 0.0000 0.0000 0.0000
# 4 0.0000 0.0000 0.0000 31.5567 0.0000 0.0000
# 5 0.0000 0.0000 0.0000 0.0000 32.1448 0.0000
# 6 0.0000 0.0000 0.0000 0.0000 0.0000 35.6593
#
#
#
# Elastic Compliance Matrix: (Units=1/GPa)
#
#
# Indices 1 2 3 4 5 6 
#
# 1 0.016344 -0.019047 -0.005425 0.000000 0.000000 0.000000
# 2 -0.019047 0.043300 -0.002673 0.000000 0.000000 0.000000
# 3 -0.005425 -0.002673 0.014406 0.000000 0.000000 0.000000
# 4 0.000000 0.000000 0.000000 0.031689 0.000000 0.000000
# 5 0.000000 0.000000 0.000000 0.000000 0.031109 0.000000
# 6 0.000000 0.000000 0.000000 0.000000 0.000000 0.028043
#
#
# Mechanical properties :
#
#
# Convention : Reuss Voigt Hill
#
# Bulk Modulus (GPa) = 50.60396 95.88813 73.24605
# Shear Modulus (GPa) = 22.14667 29.69696 25.92182
#
# Velocity S-wave (km/s) = 3.55599 4.11777 3.84715
# Velocity P-wave (km/s) = 6.76413 8.79530 7.84572
#
# Compressibility (1/GPa) = 0.01976130
#
# Stress axis : x y z
#
# Youngs Moduli (GPa) = 61.18457 23.09463 69.41518
#
# Poissons Ratio (x) = 0.43988 0.37657
# Poissons Ratio (y) = 1.16537 0.18553
# Poissons Ratio (z) = 0.33192 0.06173
#
# Static dielectric constant tensor:
#      x y z
#    x 1.629890 0.000000 0.000000 
#    y 0.000000 1.546740 0.000000 
#    z 0.000000 0.000000 1.583850 
# 
# From -- ./inp_files/8914.got.cif
#   From: 2010.05.17/outbox.cif.g08.bks.cpg/sg57_5_cif.got.tgz:8914.got - 2010.06.03 13:58:18.
