data_PCOD9436999
_publ_section_title
;
Structure prediction by ZEFSAII (Michael W. Deem and Ramdas Pophale) SiO2 
 PCOD9436999
Probable space group: P B C M
;
_chemical_formula_sum "Si O2"
_cell_formula_units_Z 64
_cell_length_a 24.220832
_cell_length_b 15.021962
_cell_length_c 9.150009
_cell_angle_alpha 90.000000
_cell_angle_beta 90.000000
_cell_angle_gamma 90.000000
_cell_volume 3329.179698
_symmetry_space_group_name_H-M "P B C M"
_symmetry_group_IT_number 57
_symmetry_cell_setting 'orthorhombic'
loop_
_space_group_symop_operation_xyz
x,y,z
-x,-y,1/2+z
x,1/2-y,-z
-x,1/2+y,1/2-z
-x,-y,-z
x,y,1/2-z
-x,1/2+y,z
x,1/2-y,1/2+z
loop_
_atom_site_type_symbol
_atom_site_label
_atom_site_fract_x
_atom_site_fract_y
_atom_site_fract_z
Si Si1 0.739443 0.837576 0.584714
Si Si2 0.039651 0.843978 0.424273
Si Si3 0.606917 0.663132 0.416088
Si Si4 0.352192 0.653895 0.425650
Si Si5 0.250631 0.973713 0.575108
Si Si6 0.440578 0.993768 0.574771
Si Si7 0.127840 0.532031 0.075469
Si Si8 0.910800 0.658100 0.576575
O O1 0.760402 0.750000 0.500000
O O2 0.761485 0.840632 0.750000
O O3 0.672935 0.827521 0.593865
O O4 0.747295 0.930683 0.502210
O O5 0.052200 0.750000 0.500000
O O6 0.045581 0.837622 0.250000
O O7 0.081044 0.915794 0.489654
O O8 0.975207 0.863695 0.456584
O O9 0.584876 0.750000 0.500000
O O10 0.585145 0.656213 0.250000
O O11 0.593604 0.576157 0.509490
O O12 0.351561 0.750000 0.500000
O O13 0.349415 0.664547 0.250000
O O14 0.299789 0.592396 0.470134
O O15 0.407076 0.596576 0.459813
O O16 0.255744 0.988144 0.750000
O O17 0.189730 0.934306 0.546874
O O18 0.444647 0.000927 0.750000
O O19 0.500000 0.000000 0.500000
O O20 0.117159 0.538329 0.250000
O O21 0.124489 0.427745 0.035055
O O22 0.896373 0.750000 0.500000
O O23 0.906241 0.670783 0.750000
#
# Coordination Sequence:
#
# PCOD9436999 Si02
#       8
#     8   8   8   8   8   8   8   8
#     4  10  20  34  57  85 113 148 188 232 282 342
#     4  10  20  35  56  80 110 147 192 241 292 348
#     4  10  20  35  58  87 116 149 187 230 282 339
#     4  10  23  42  64  86 114 154 196 238 287 338
#     4  10  21  39  59  83 117 154 193 240 291 344
#     4  11  23  40  62  89 121 154 192 241 292 347
#     4  10  21  36  56  83 116 150 190 240 293 345
#     4   9  19  35  55  81 112 151 191 236 291 348
#
# _framework density 19.223953999999999
#
# number of rings (size 3 to 8) (size 9 to 14) (size 15 to 20)
#    0.000    2.000    1.250    1.875    0.000    5.500 
#    0.000    3.750    0.000    0.000    0.000    0.000 
#    0.000    0.000    0.000    0.000    0.000    0.000 
#
# Total GULP energy -357374.143310 kJ/mol
# GULP energy per Si atom -5583.970989 kJ/mol
# Density = 1.918020 g / cm^3
# Si number density = 19.223954 Si / 1000 Ang^3
#
#
#
# Elastic Constant Matrix: (Units=GPa)
#
#
# Indices 1 2 3 4 5 6 
#
# 1 94.4145 53.4482 44.2325 0.0000 0.0000 0.0000
# 2 53.4482 131.8340 54.3774 0.0000 0.0000 0.0000
# 3 44.2325 54.3774 66.7728 0.0000 0.0000 0.0000
# 4 0.0000 0.0000 0.0000 39.5767 0.0000 0.0000
# 5 0.0000 0.0000 0.0000 0.0000 6.2469 0.0000
# 6 0.0000 0.0000 0.0000 0.0000 0.0000 -2.7555
#
#
#
# Elastic Compliance Matrix: (Units=1/GPa)
#
#
# Indices 1 2 3 4 5 6 
#
# 1 0.016222 -0.003229 -0.008116 0.000000 0.000000 0.000000
# 2 -0.003229 0.012065 -0.007686 0.000000 0.000000 0.000000
# 3 -0.008116 -0.007686 0.026612 0.000000 0.000000 0.000000
# 4 0.000000 0.000000 0.000000 0.025267 0.000000 0.000000
# 5 0.000000 0.000000 0.000000 0.000000 0.160080 0.000000
# 6 0.000000 0.000000 0.000000 0.000000 0.000000 -0.362913
#
#
# Mechanical properties :
#
#
# Convention : Reuss Voigt Hill
#
# Bulk Modulus (GPa) = 59.39740 66.34860 62.87300
# Shear Modulus (GPa) = -63.29733 18.01117 -22.64308
#
# Velocity S-wave (km/s) = -5.74437 3.06422 -3.43572
# Velocity P-wave (km/s) = 3.61003 6.86351 4.12767
#
# Compressibility (1/GPa) = 0.01683575
#
# Stress axis : x y z
#
# Youngs Moduli (GPa) = 61.64471 82.88699 37.57702
#
# Poissons Ratio (x) = 0.26764 0.30499
# Poissons Ratio (y) = 0.19905 0.28882
# Poissons Ratio (z) = 0.50034 0.63707
#
# Static dielectric constant tensor:
#      x y z
#    x 1.692630 0.000000 0.000000 
#    y 0.000000 1.641140 0.000000 
#    z 0.000000 0.000000 1.653040 
# 
# From -- ./inp_files/9431.got.cif
#   From: 2010.05.17/outbox.cif.g08.bks.cpg/sg57_5_cif.got.tgz:9431.got - 2010.06.03 13:58:18.
