data_PCOD9436528
_publ_section_title
;
Structure prediction by ZEFSAII (Michael W. Deem and Ramdas Pophale) SiO2 
 PCOD9436528
Probable space group: P B C M
;
_chemical_formula_sum "Si O2"
_cell_formula_units_Z 48
_cell_length_a 15.386657
_cell_length_b 20.886562
_cell_length_c 8.908056
_cell_angle_alpha 90.000000
_cell_angle_beta 90.000000
_cell_angle_gamma 90.000000
_cell_volume 2862.820844
_symmetry_space_group_name_H-M "P B C M"
_symmetry_group_IT_number 57
_symmetry_cell_setting 'orthorhombic'
loop_
_space_group_symop_operation_xyz
x,y,z
-x,-y,1/2+z
x,1/2-y,-z
-x,1/2+y,1/2-z
-x,-y,-z
x,y,1/2-z
-x,1/2+y,z
x,1/2-y,1/2+z
loop_
_atom_site_type_symbol
_atom_site_label
_atom_site_fract_x
_atom_site_fract_y
_atom_site_fract_z
Si Si1 0.116652 0.815363 0.427704
Si Si2 0.743386 0.008529 0.423332
Si Si3 0.077390 0.959204 0.070503
Si Si4 0.504664 0.183878 0.429937
Si Si5 0.564450 0.946671 0.431245
Si Si6 0.704350 0.342282 0.922104
O O1 0.081339 0.750000 0.500000
O O2 0.106880 0.811650 0.250000
O O3 0.078039 0.884100 0.479593
O O4 0.218609 0.819647 0.471141
O O5 0.766293 0.993815 0.250000
O O6 0.830543 0.010744 0.520027
O O7 0.705541 0.080655 0.425837
O O8 0.664022 0.963784 0.471901
O O9 0.071140 0.959734 0.250000
O O10 0.000000 0.000000 0.000000
O O11 0.471476 0.250000 0.500000
O O12 0.494159 0.182386 0.250000
O O13 0.461664 0.122078 0.504750
O O14 0.608154 0.179660 0.461997
O O15 0.557596 0.948608 0.250000
O O16 0.500000 0.000000 0.500000
O O17 0.724253 0.322524 0.750000
#
# Coordination Sequence:
#
# PCOD9436528 Si02
#       6
#     8   8   8   8   8   8
#     4  10  20  32  49  76 106 138 173 209 258 318
#     4   9  18  34  54  78 106 138 176 219 266 315
#     4  10  21  36  56  82 108 138 176 218 268 321
#     4  11  22  35  49  73 106 145 187 228 274 321
#     4  11  21  35  55  79 107 143 184 226 268 318
#     4   9  17  31  49  72 104 139 174 212 259 313
#
# _framework density 16.766679
#
# number of rings (size 3 to 8) (size 9 to 14) (size 15 to 20)
#    0.000    2.000    1.667    2.500    0.000    6.000 
#    0.000    0.000    0.000    1.000    0.000    4.667 
#    0.000    0.000    0.000    0.000    0.000    0.000 
#
# Total GULP energy -267816.085760 kJ/mol
# GULP energy per Si atom -5579.501787 kJ/mol
# Density = 1.672852 g / cm^3
# Si number density = 16.766679 Si / 1000 Ang^3
#
#
#
# Elastic Constant Matrix: (Units=GPa)
#
#
# Indices 1 2 3 4 5 6 
#
# 1 86.4051 69.5207 46.7021 0.0000 0.0000 0.0000
# 2 69.5207 142.2264 55.1120 0.0000 0.0000 0.0000
# 3 46.7021 55.1120 52.8690 0.0000 0.0000 0.0000
# 4 0.0000 0.0000 0.0000 28.9617 0.0000 0.0000
# 5 0.0000 0.0000 0.0000 0.0000 25.9582 0.0000
# 6 0.0000 0.0000 0.0000 0.0000 0.0000 17.9589
#
#
#
# Elastic Compliance Matrix: (Units=1/GPa)
#
#
# Indices 1 2 3 4 5 6 
#
# 1 0.024982 -0.006140 -0.015667 0.000000 0.000000 0.000000
# 2 -0.006140 0.013305 -0.008445 0.000000 0.000000 0.000000
# 3 -0.015667 -0.008445 0.041558 0.000000 0.000000 0.000000
# 4 0.000000 0.000000 0.000000 0.034528 0.000000 0.000000
# 5 0.000000 0.000000 0.000000 0.000000 0.038524 0.000000
# 6 0.000000 0.000000 0.000000 0.000000 0.000000 0.055683
#
#
# Mechanical properties :
#
#
# Convention : Reuss Voigt Hill
#
# Bulk Modulus (GPa) = 51.70815 69.35222 60.53018
# Shear Modulus (GPa) = 18.14675 21.92014 20.03345
#
# Velocity S-wave (km/s) = 3.29342 3.61967 3.46039
# Velocity P-wave (km/s) = 6.73564 7.67608 7.22119
#
# Compressibility (1/GPa) = 0.01933931
#
# Stress axis : x y z
#
# Youngs Moduli (GPa) = 40.02897 75.15980 24.06278
#
# Poissons Ratio (x) = 0.46151 0.37699
# Poissons Ratio (y) = 0.24579 0.20322
# Poissons Ratio (z) = 0.62714 0.63475
#
# Static dielectric constant tensor:
#      x y z
#    x 1.539290 0.000000 0.000000 
#    y 0.000000 1.591630 0.000000 
#    z 0.000000 0.000000 1.573000 
# 
# From -- ./inp_files/4854.got.cif
#   From: 2010.05.17/outbox.cif.g08.bks.cpg/sg57_3_cif.got.tgz:4854.got - 2010.06.03 13:58:18.
