data_PCOD9436340
_publ_section_title
;
Structure prediction by ZEFSAII (Michael W. Deem and Ramdas Pophale) SiO2 
 PCOD9436340
Probable space group: P B C M
;
_chemical_formula_sum "Si O2"
_cell_formula_units_Z 56
_cell_length_a 9.266474
_cell_length_b 21.847500
_cell_length_c 14.205931
_cell_angle_alpha 90.000000
_cell_angle_beta 90.000000
_cell_angle_gamma 90.000000
_cell_volume 2875.980655
_symmetry_space_group_name_H-M "P B C M"
_symmetry_group_IT_number 57
_symmetry_cell_setting 'orthorhombic'
loop_
_space_group_symop_operation_xyz
x,y,z
-x,-y,1/2+z
x,1/2-y,-z
-x,1/2+y,1/2-z
-x,-y,-z
x,y,1/2-z
-x,1/2+y,z
x,1/2-y,1/2+z
loop_
_atom_site_type_symbol
_atom_site_label
_atom_site_fract_x
_atom_site_fract_y
_atom_site_fract_z
Si Si1 0.842955 0.968789 0.492371
Si Si2 0.195989 0.823183 0.140534
Si Si3 0.772524 0.401088 0.539395
Si Si4 0.863415 0.851408 0.139819
Si Si5 0.711415 0.732354 0.364503
Si Si6 0.387451 0.704867 0.137097
Si Si7 0.084977 0.381042 0.637508
O O1 0.851109 0.913709 0.418094
O O2 0.820810 0.936264 0.592988
O O3 0.746786 0.026201 0.461646
O O4 0.000000 0.000000 0.500000
O O5 0.232799 0.836080 0.250000
O O6 0.277805 0.760562 0.112692
O O7 0.022341 0.820816 0.134539
O O8 0.233602 0.876465 0.067428
O O9 0.663407 0.359344 0.596568
O O10 0.929279 0.385390 0.586482
O O11 0.836472 0.864253 0.250000
O O12 0.755740 0.799657 0.103112
O O13 0.710468 0.734674 0.250000
O O14 0.550063 0.717383 0.394911
O O15 0.831421 0.681412 0.386693
O O16 0.385621 0.701825 0.250000
O O17 0.067875 0.385604 0.750000
#
# Coordination Sequence:
#
# PCOD9436340 Si02
#       7
#     8   8   8   8   8   8   8
#     4  10  21  36  53  87 119 149 194 233 282 351
#     4  10  20  36  58  84 116 149 190 244 291 336
#     4  11  21  38  56  88 117 151 194 236 284 354
#     4  10  19  36  61  85 113 149 191 243 293 341
#     4   9  20  38  60  86 114 149 194 241 293 342
#     4  10  21  38  60  86 116 149 190 240 293 345
#     4  10  20  37  61  86 116 152 193 244 293 342
#
# _framework density 19.471620000000001
#
# number of rings (size 3 to 8) (size 9 to 14) (size 15 to 20)
#    0.000    2.000    2.857    1.714    0.000    6.286 
#    5.143    0.714    0.000    0.000    0.000    0.000 
#    0.000    0.000    0.000    0.000    0.000    0.000 
#
# Total GULP energy -312430.192992 kJ/mol
# GULP energy per Si atom -5579.110589 kJ/mol
# Density = 1.942730 g / cm^3
# Si number density = 19.471620 Si / 1000 Ang^3
#
#
#
# Elastic Constant Matrix: (Units=GPa)
#
#
# Indices 1 2 3 4 5 6 
#
# 1 46.3442 49.7651 22.3846 0.0000 0.0000 0.0000
# 2 49.7651 164.9654 48.2817 0.0000 0.0000 0.0000
# 3 22.3846 48.2817 100.1180 0.0000 0.0000 0.0000
# 4 0.0000 0.0000 0.0000 17.0668 0.0000 0.0000
# 5 0.0000 0.0000 0.0000 0.0000 12.0809 0.0000
# 6 0.0000 0.0000 0.0000 0.0000 0.0000 16.6367
#
#
#
# Elastic Compliance Matrix: (Units=1/GPa)
#
#
# Indices 1 2 3 4 5 6 
#
# 1 0.032658 -0.008983 -0.002970 0.000000 0.000000 0.000000
# 2 -0.008983 0.009529 -0.002587 0.000000 0.000000 0.000000
# 3 -0.002970 -0.002587 0.011900 0.000000 0.000000 0.000000
# 4 0.000000 0.000000 0.000000 0.058593 0.000000 0.000000
# 5 0.000000 0.000000 0.000000 0.000000 0.082775 0.000000
# 6 0.000000 0.000000 0.000000 0.000000 0.000000 0.060108
#
#
# Mechanical properties :
#
#
# Convention : Reuss Voigt Hill
#
# Bulk Modulus (GPa) = 39.98785 61.36560 50.67673
# Shear Modulus (GPa) = 17.06613 21.88995 19.47804
#
# Velocity S-wave (km/s) = 2.96372 3.35654 3.16623
# Velocity P-wave (km/s) = 5.68266 6.82683 6.28085
#
# Compressibility (1/GPa) = 0.02500760
#
# Stress axis : x y z
#
# Youngs Moduli (GPa) = 30.62053 104.94500 84.03547
#
# Poissons Ratio (x) = 0.94269 0.24957
# Poissons Ratio (y) = 0.27505 0.21739
# Poissons Ratio (z) = 0.09094 0.27148
#
# Static dielectric constant tensor:
#      x y z
#    x 1.608670 0.000000 0.000000 
#    y 0.000000 1.675100 0.000000 
#    z 0.000000 0.000000 1.723380 
# 
# From -- ./inp_files/16689.got.cif
#   From: 2010.05.17/outbox.cif.g08.bks.cpg/sg57_9_cif.got.tgz:16689.got - 2010.06.03 13:58:18.
