data_PCOD9436067
_publ_section_title
;
Structure prediction by ZEFSAII (Michael W. Deem and Ramdas Pophale) SiO2 
 PCOD9436067
Probable space group: P B C M
;
_chemical_formula_sum "Si O2"
_cell_formula_units_Z 48
_cell_length_a 15.001421
_cell_length_b 18.622195
_cell_length_c 8.831754
_cell_angle_alpha 90.000000
_cell_angle_beta 90.000000
_cell_angle_gamma 90.000000
_cell_volume 2467.233385
_symmetry_space_group_name_H-M "P B C M"
_symmetry_group_IT_number 57
_symmetry_cell_setting 'orthorhombic'
loop_
_space_group_symop_operation_xyz
x,y,z
-x,-y,1/2+z
x,1/2-y,-z
-x,1/2+y,1/2-z
-x,-y,-z
x,y,1/2-z
-x,1/2+y,z
x,1/2-y,1/2+z
loop_
_atom_site_type_symbol
_atom_site_label
_atom_site_fract_x
_atom_site_fract_y
_atom_site_fract_z
Si Si1 0.881901 0.939398 0.068381
Si Si2 0.776155 0.177411 0.927915
Si Si3 0.474154 0.172531 0.068926
Si Si4 0.061128 0.601733 0.069531
Si Si5 0.676888 0.914926 0.432006
Si Si6 0.381178 0.934774 0.069684
O O1 0.890200 0.934621 0.250000
O O2 0.781612 0.917748 0.027249
O O3 0.900827 0.022596 0.025778
O O4 0.961029 0.894391 0.992936
O O5 0.786678 0.187663 0.750000
O O6 0.708328 0.112025 0.952834
O O7 0.738916 0.250000 0.000000
O O8 0.870640 0.158544 0.001549
O O9 0.479148 0.174293 0.250000
O O10 0.497243 0.250000 0.000000
O O11 0.376468 0.148897 0.011800
O O12 0.540383 0.112197 0.002692
O O13 0.060934 0.606440 0.250000
O O14 0.668916 0.909963 0.250000
O O15 0.633079 0.989223 0.489410
O O16 0.396011 0.944311 0.250000
#
# Coordination Sequence:
#
# PCOD9436067 Si02
#       6
#     8   8   8   8   8   8
#     4   9  19  35  58  87 118 154 195 243 293 347
#     4  11  23  37  57  85 122 161 202 250 304 364
#     4  12  26  44  64  88 121 160 202 250 306 366
#     4  10  19  34  57  85 118 155 196 243 295 351
#     4  11  22  40  65  93 124 159 202 252 300 357
#     4  11  23  40  63  92 122 159 203 251 303 360
#
# _framework density 19.454989000000001
#
# number of rings (size 3 to 8) (size 9 to 14) (size 15 to 20)
#    0.000    1.333    1.667    4.500    0.000    5.333 
#    0.000    0.833    0.000    4.000    0.000    0.000 
#    0.000    0.000    0.000    0.000    0.000    0.000 
#
# Total GULP energy -268403.056894 kJ/mol
# GULP energy per Si atom -5591.730352 kJ/mol
# Density = 1.941071 g / cm^3
# Si number density = 19.454989 Si / 1000 Ang^3
#
#
#
# Elastic Constant Matrix: (Units=GPa)
#
#
# Indices 1 2 3 4 5 6 
#
# 1 113.8350 12.3278 44.5040 0.0000 0.0000 0.0000
# 2 12.3278 32.5729 22.9555 0.0000 0.0000 0.0000
# 3 44.5040 22.9555 59.7048 0.0000 0.0000 0.0000
# 4 0.0000 0.0000 0.0000 32.8613 0.0000 0.0000
# 5 0.0000 0.0000 0.0000 0.0000 29.8245 0.0000
# 6 0.0000 0.0000 0.0000 0.0000 0.0000 12.0916
#
#
#
# Elastic Compliance Matrix: (Units=1/GPa)
#
#
# Indices 1 2 3 4 5 6 
#
# 1 0.012547 0.002527 -0.010325 0.000000 0.000000 0.000000
# 2 0.002527 0.042620 -0.018271 0.000000 0.000000 0.000000
# 3 -0.010325 -0.018271 0.031470 0.000000 0.000000 0.000000
# 4 0.000000 0.000000 0.000000 0.030431 0.000000 0.000000
# 5 0.000000 0.000000 0.000000 0.000000 0.033529 0.000000
# 6 0.000000 0.000000 0.000000 0.000000 0.000000 0.082702
#
#
# Mechanical properties :
#
#
# Convention : Reuss Voigt Hill
#
# Bulk Modulus (GPa) = 28.98422 40.63193 34.80807
# Shear Modulus (GPa) = 16.83868 23.37716 20.10792
#
# Velocity S-wave (km/s) = 2.94516 3.47017 3.21839
# Velocity P-wave (km/s) = 5.14740 6.08166 5.63393
#
# Compressibility (1/GPa) = 0.03450154
#
# Stress axis : x y z
#
# Youngs Moduli (GPa) = 79.69810 23.46319 31.77653
#
# Poissons Ratio (x) = -0.05930 0.32808
# Poissons Ratio (y) = -0.20143 0.58058
# Poissons Ratio (z) = 0.82285 0.42869
#
# Static dielectric constant tensor:
#      x y z
#    x 1.692430 0.000000 0.000000 
#    y 0.000000 1.666290 0.000000 
#    z 0.000000 0.000000 1.643860 
# 
# From -- ./inp_files/4704.got.cif
#   From: 2010.05.17/outbox.cif.g08.bks.cpg/sg57_3_cif.got.tgz:4704.got - 2010.06.03 13:58:18.
