data_PCOD9436392
_publ_section_title
;
Structure prediction by ZEFSAII (Michael W. Deem and Ramdas Pophale) SiO2 
 PCOD9436392
Probable space group: P B C M
;
_chemical_formula_sum "Si O2"
_cell_formula_units_Z 32
_cell_length_a 8.694764
_cell_length_b 8.521451
_cell_length_c 22.427573
_cell_angle_alpha 90.000000
_cell_angle_beta 90.000000
_cell_angle_gamma 90.000000
_cell_volume 1661.703859
_symmetry_space_group_name_H-M "P B C M"
_symmetry_group_IT_number 57
_symmetry_cell_setting 'orthorhombic'
loop_
_space_group_symop_operation_xyz
x,y,z
-x,-y,1/2+z
x,1/2-y,-z
-x,1/2+y,1/2-z
-x,-y,-z
x,y,1/2-z
-x,1/2+y,z
x,1/2-y,1/2+z
loop_
_atom_site_type_symbol
_atom_site_label
_atom_site_fract_x
_atom_site_fract_y
_atom_site_fract_z
Si Si1 0.132844 0.823038 0.388418
Si Si2 0.894005 0.488272 0.679474
Si Si3 0.196482 0.318102 0.420502
Si Si4 0.670419 0.986160 0.974784
O O1 0.161095 0.680507 0.343528
O O2 0.982395 0.772189 0.426360
O O3 0.267965 0.877565 0.431750
O O4 0.061133 0.967739 0.349429
O O5 0.897750 0.499147 0.750000
O O6 0.788894 0.618171 0.646504
O O7 0.304844 0.175344 0.438043
O O8 0.225712 0.459547 0.466531
O O9 0.500000 0.000000 0.000000
#
# Coordination Sequence:
#
# PCOD9436392 Si02
#       4
#     8   8   8   8
#     4  10  19  37  61  91 124 157 210 259 311 369
#     4  10  20  35  64  92 122 162 216 260 300 363
#     4   9  21  39  57  88 128 157 211 254 312 374
#     4  11  22  38  61  92 127 166 202 262 327 382
#
# _framework density 19.257342000000001
#
# number of rings (size 3 to 8) (size 9 to 14) (size 15 to 20)
#    1.500    0.500    2.500    1.500    0.000    5.000 
#    0.000    0.000    0.000    7.500    0.000    0.000 
#    0.000    0.000    0.000    0.000    0.000    0.000 
#
# Total GULP energy -178152.318050 kJ/mol
# GULP energy per Si atom -5567.259939 kJ/mol
# Density = 1.921351 g / cm^3
# Si number density = 19.257342 Si / 1000 Ang^3
#
#
#
# Elastic Constant Matrix: (Units=GPa)
#
#
# Indices 1 2 3 4 5 6 
#
# 1 81.0906 50.0716 70.1111 0.0000 0.0000 0.0000
# 2 50.0716 82.1680 44.4052 0.0000 0.0000 0.0000
# 3 70.1111 44.4052 142.0466 0.0000 0.0000 0.0000
# 4 0.0000 0.0000 0.0000 34.1402 0.0000 0.0000
# 5 0.0000 0.0000 0.0000 0.0000 -0.9761 0.0000
# 6 0.0000 0.0000 0.0000 0.0000 0.0000 21.2788
#
#
#
# Elastic Compliance Matrix: (Units=1/GPa)
#
#
# Indices 1 2 3 4 5 6 
#
# 1 0.028672 -0.011821 -0.010456 0.000000 0.000000 0.000000
# 2 -0.011821 0.019518 -0.000267 0.000000 0.000000 0.000000
# 3 -0.010456 -0.000267 0.012284 0.000000 0.000000 0.000000
# 4 0.000000 0.000000 0.000000 0.029291 0.000000 0.000000
# 5 0.000000 0.000000 0.000000 0.000000 -1.024470 0.000000
# 6 0.000000 0.000000 0.000000 0.000000 0.000000 0.046995
#
#
# Mechanical properties :
#
#
# Convention : Reuss Voigt Hill
#
# Bulk Modulus (GPa) = 64.99669 70.49789 67.74729
# Shear Modulus (GPa) = -5.97020 20.26973 7.14977
#
# Velocity S-wave (km/s) = -1.76265 3.24786 1.92894
# Velocity P-wave (km/s) = 5.44815 7.12408 6.34172
#
# Compressibility (1/GPa) = 0.01538540
#
# Stress axis : x y z
#
# Youngs Moduli (GPa) = 34.87744 51.23476 81.40409
#
# Poissons Ratio (x) = 0.60566 0.85119
# Poissons Ratio (y) = 0.41229 0.02172
# Poissons Ratio (z) = 0.36469 0.01367
#
# Static dielectric constant tensor:
#      x y z
#    x 1.685390 0.000000 0.000000 
#    y 0.000000 1.771260 0.000000 
#    z 0.000000 0.000000 1.664790 
# 
# From -- ./inp_files/20474.got.cif
#   From: 2010.05.17/outbox.cif.g08.bks.cpg/sg57_11_cif.got.tgz:20474.got - 2010.06.03 13:58:18.
