data_PCOD9436091
_publ_section_title
;
Structure prediction by ZEFSAII (Michael W. Deem and Ramdas Pophale) SiO2 
 PCOD9436091
Probable space group: P B C M
;
_chemical_formula_sum "Si O2"
_cell_formula_units_Z 64
_cell_length_a 24.208555
_cell_length_b 15.702977
_cell_length_c 9.050513
_cell_angle_alpha 90.000000
_cell_angle_beta 90.000000
_cell_angle_gamma 90.000000
_cell_volume 3440.519776
_symmetry_space_group_name_H-M "P B C M"
_symmetry_group_IT_number 57
_symmetry_cell_setting 'orthorhombic'
loop_
_space_group_symop_operation_xyz
x,y,z
-x,-y,1/2+z
x,1/2-y,-z
-x,1/2+y,1/2-z
-x,-y,-z
x,y,1/2-z
-x,1/2+y,z
x,1/2-y,1/2+z
loop_
_atom_site_type_symbol
_atom_site_label
_atom_site_fract_x
_atom_site_fract_y
_atom_site_fract_z
Si Si1 0.631282 0.507427 0.927609
Si Si2 0.942141 0.896035 0.577068
Si Si3 0.822916 0.338391 0.072982
Si Si4 0.434992 0.660794 0.073228
Si Si5 0.168777 0.163435 0.573810
Si Si6 0.435767 0.340206 0.926811
Si Si7 0.055130 0.601195 0.576362
Si Si8 0.239001 0.504245 0.073147
O O1 0.624460 0.516897 0.750000
O O2 0.602417 0.418729 0.972149
O O3 0.696297 0.504963 0.959772
O O4 0.601154 0.584850 0.007972
O O5 0.936371 0.876162 0.750000
O O6 0.892663 0.854573 0.486305
O O7 0.002367 0.870729 0.517540
O O8 0.938220 0.998836 0.558802
O O9 0.819109 0.334470 0.250000
O O10 0.887177 0.356171 0.033509
O O11 0.805188 0.250000 0.000000
O O12 0.787609 0.416720 0.011559
O O13 0.431019 0.669775 0.250000
O O14 0.499430 0.643749 0.037046
O O15 0.418820 0.750000 0.000000
O O16 0.189709 0.250000 0.500000
O O17 0.167889 0.172256 0.750000
O O18 0.206310 0.082096 0.534933
O O19 0.430533 0.335284 0.750000
O O20 0.420819 0.250000 0.000000
O O21 0.044564 0.617076 0.750000
O O22 0.232914 0.517781 0.250000
#
# Coordination Sequence:
#
# PCOD9436091 Si02
#       8
#     8   8   8   8   8   8   8   8
#     4  10  21  38  59  85 117 152 193 241 288 339
#     4  10  19  34  58  86 115 147 184 230 284 343
#     4  11  23  40  62  86 115 151 193 238 287 343
#     4   9  19  35  57  85 120 155 190 235 284 339
#     4  11  23  39  60  83 111 148 190 237 288 345
#     4  10  20  35  57  87 119 155 193 233 285 340
#     4   9  19  35  56  84 116 150 185 227 283 343
#     4  10  23  42  61  83 114 152 195 242 290 336
#
# _framework density 18.601839999999999
#
# number of rings (size 3 to 8) (size 9 to 14) (size 15 to 20)
#    0.000    2.000    1.250    1.875    0.000    5.000 
#    0.000    3.750    0.000    0.000    0.000    0.000 
#    0.000    0.000    0.000    0.000    0.000    0.000 
#
# Total GULP energy -357606.501446 kJ/mol
# GULP energy per Si atom -5587.601585 kJ/mol
# Density = 1.855950 g / cm^3
# Si number density = 18.601840 Si / 1000 Ang^3
#
#
#
# Elastic Constant Matrix: (Units=GPa)
#
#
# Indices 1 2 3 4 5 6 
#
# 1 111.1598 92.1269 56.4079 0.0000 0.0000 0.0000
# 2 92.1269 153.9279 71.4140 0.0000 0.0000 0.0000
# 3 56.4079 71.4140 54.8544 0.0000 0.0000 0.0000
# 4 0.0000 0.0000 0.0000 34.6677 0.0000 0.0000
# 5 0.0000 0.0000 0.0000 0.0000 22.4416 0.0000
# 6 0.0000 0.0000 0.0000 0.0000 0.0000 -12.8066
#
#
#
# Elastic Compliance Matrix: (Units=1/GPa)
#
#
# Indices 1 2 3 4 5 6 
#
# 1 0.021087 -0.006466 -0.013266 0.000000 0.000000 0.000000
# 2 -0.006466 0.018388 -0.017290 0.000000 0.000000 0.000000
# 3 -0.013266 -0.017290 0.054382 0.000000 0.000000 0.000000
# 4 0.000000 0.000000 0.000000 0.028845 0.000000 0.000000
# 5 0.000000 0.000000 0.000000 0.000000 0.044560 0.000000
# 6 0.000000 0.000000 0.000000 0.000000 0.000000 -0.078084
#
#
# Mechanical properties :
#
#
# Convention : Reuss Voigt Hill
#
# Bulk Modulus (GPa) = 50.47399 84.42665 67.45032
# Shear Modulus (GPa) = 29.44192 15.52674 22.48433
#
# Velocity S-wave (km/s) = 3.98269 2.89223 3.48043
# Velocity P-wave (km/s) = 6.95283 7.52583 7.24499
#
# Compressibility (1/GPa) = 0.01981218
#
# Stress axis : x y z
#
# Youngs Moduli (GPa) = 47.42349 54.38320 18.38849
#
# Poissons Ratio (x) = 0.35163 0.24395
# Poissons Ratio (y) = 0.30663 0.31794
# Poissons Ratio (z) = 0.62913 0.94030
#
# Static dielectric constant tensor:
#      x y z
#    x 1.616890 0.000000 0.000000 
#    y 0.000000 1.631870 0.000000 
#    z 0.000000 0.000000 1.615200 
# 
# From -- ./inp_files/9392.got.cif
#   From: 2010.05.17/outbox.cif.g08.bks.cpg/sg57_5_cif.got.tgz:9392.got - 2010.06.03 13:58:18.
