data_PCOD9436583
_publ_section_title
;
Structure prediction by ZEFSAII (Michael W. Deem and Ramdas Pophale) SiO2 
 PCOD9436583
Probable space group: P B C M
;
_chemical_formula_sum "Si O2"
_cell_formula_units_Z 48
_cell_length_a 16.898423
_cell_length_b 19.154088
_cell_length_c 8.280300
_cell_angle_alpha 90.000000
_cell_angle_beta 90.000000
_cell_angle_gamma 90.000000
_cell_volume 2680.116839
_symmetry_space_group_name_H-M "P B C M"
_symmetry_group_IT_number 57
_symmetry_cell_setting 'orthorhombic'
loop_
_space_group_symop_operation_xyz
x,y,z
-x,-y,1/2+z
x,1/2-y,-z
-x,1/2+y,1/2-z
-x,-y,-z
x,y,1/2-z
-x,1/2+y,z
x,1/2-y,1/2+z
loop_
_atom_site_type_symbol
_atom_site_label
_atom_site_fract_x
_atom_site_fract_y
_atom_site_fract_z
Si Si1 0.674228 0.598092 0.947036
Si Si2 0.661176 0.328527 0.442495
Si Si3 0.835439 0.827953 0.444585
Si Si4 0.243179 0.957966 0.944455
Si Si5 0.916884 0.530585 0.944881
Si Si6 0.483906 0.170678 0.945313
O O1 0.673453 0.598762 0.750000
O O2 0.746678 0.648782 0.996624
O O3 0.698145 0.520252 0.998200
O O4 0.588850 0.623705 0.003988
O O5 0.677148 0.250000 0.500000
O O6 0.659275 0.328193 0.250000
O O7 0.725137 0.384123 0.498970
O O8 0.572412 0.348806 0.501578
O O9 0.854553 0.750000 0.500000
O O10 0.835718 0.828414 0.250000
O O11 0.894191 0.890459 0.498545
O O12 0.242549 0.958329 0.750000
O O13 0.155724 0.981010 0.998680
O O14 0.916305 0.531686 0.750000
O O15 0.000000 0.500000 0.000000
O O16 0.483769 0.168707 0.750000
O O17 0.469819 0.250000 0.000000
#
# Coordination Sequence:
#
# PCOD9436583 Si02
#       6
#     8   8   8   8   8   8
#     4   8  15  29  48  69  97 130 159 192 236 284
#     4  10  20  33  49  70  96 127 165 205 241 280
#     4   9  17  30  49  74 101 128 158 191 232 284
#     4   9  18  34  53  71  94 126 160 195 242 292
#     4   9  19  35  54  75  99 127 159 196 240 290
#     4   9  17  29  45  67  96 130 165 199 236 277
#
# _framework density 17.909666999999999
#
# number of rings (size 3 to 8) (size 9 to 14) (size 15 to 20)
#    0.000    3.000    0.000    3.000    0.000    2.667 
#    0.000    4.167    0.000    2.000    0.000    0.000 
#    0.000    0.000    0.000    0.000    0.000    0.000 
#
# Total GULP energy -267490.286323 kJ/mol
# GULP energy per Si atom -5572.714298 kJ/mol
# Density = 1.786890 g / cm^3
# Si number density = 17.909667 Si / 1000 Ang^3
#
#
#
# Elastic Constant Matrix: (Units=GPa)
#
#
# Indices 1 2 3 4 5 6 
#
# 1 132.3956 110.0348 19.8110 0.0000 0.0000 0.0000
# 2 110.0348 144.1258 18.6029 0.0000 0.0000 0.0000
# 3 19.8110 18.6029 8.7326 0.0000 0.0000 0.0000
# 4 0.0000 0.0000 0.0000 26.7896 0.0000 0.0000
# 5 0.0000 0.0000 0.0000 0.0000 17.5649 0.0000
# 6 0.0000 0.0000 0.0000 0.0000 0.0000 24.5684
#
#
#
# Elastic Compliance Matrix: (Units=1/GPa)
#
#
# Indices 1 2 3 4 5 6 
#
# 1 0.023031 -0.014950 -0.020401 0.000000 0.000000 0.000000
# 2 -0.014950 0.019274 -0.007144 0.000000 0.000000 0.000000
# 3 -0.020401 -0.007144 0.176014 0.000000 0.000000 0.000000
# 4 0.000000 0.000000 0.000000 0.037328 0.000000 0.000000
# 5 0.000000 0.000000 0.000000 0.000000 0.056932 0.000000
# 6 0.000000 0.000000 0.000000 0.000000 0.000000 0.040703
#
#
# Mechanical properties :
#
#
# Convention : Reuss Voigt Hill
#
# Bulk Modulus (GPa) = 7.50018 64.68349 36.09184
# Shear Modulus (GPa) = 10.35813 22.90494 16.63153
#
# Velocity S-wave (km/s) = 2.40751 3.58007 3.05066
# Velocity P-wave (km/s) = 3.45326 7.29960 5.71004
#
# Compressibility (1/GPa) = 0.13333005
#
# Stress axis : x y z
#
# Youngs Moduli (GPa) = 43.42022 51.88286 5.68138
#
# Poissons Ratio (x) = 0.77565 0.11590
# Poissons Ratio (y) = 0.64913 0.04059
# Poissons Ratio (z) = 0.88580 0.37064
#
# Static dielectric constant tensor:
#      x y z
#    x 1.618890 0.000000 0.000000 
#    y 0.000000 1.602940 0.000000 
#    z 0.000000 0.000000 1.623560 
# 
# From -- ./inp_files/6702.got.cif
#   From: 2010.05.17/outbox.cif.g08.bks.cpg/sg57_4_cif.got.tgz:6702.got - 2010.06.03 13:58:18.
