data_PCOD9436276
_publ_section_title
;
Structure prediction by ZEFSAII (Michael W. Deem and Ramdas Pophale) SiO2 
 PCOD9436276
Probable space group: P B C M
;
_chemical_formula_sum "Si O2"
_cell_formula_units_Z 48
_cell_length_a 7.430010
_cell_length_b 17.605488
_cell_length_c 16.310269
_cell_angle_alpha 90.000000
_cell_angle_beta 90.000000
_cell_angle_gamma 90.000000
_cell_volume 2133.529193
_symmetry_space_group_name_H-M "P B C M"
_symmetry_group_IT_number 57
_symmetry_cell_setting 'orthorhombic'
loop_
_space_group_symop_operation_xyz
x,y,z
-x,-y,1/2+z
x,1/2-y,-z
-x,1/2+y,1/2-z
-x,-y,-z
x,y,1/2-z
-x,1/2+y,z
x,1/2-y,1/2+z
loop_
_atom_site_type_symbol
_atom_site_label
_atom_site_fract_x
_atom_site_fract_y
_atom_site_fract_z
Si Si1 0.713408 0.558540 0.250000
Si Si2 0.315109 0.999789 0.750000
Si Si3 0.853927 0.195619 0.426645
Si Si4 0.676619 0.558259 0.420104
Si Si5 0.333797 0.322417 0.250000
Si Si6 0.040878 0.290660 0.750000
Si Si7 0.569669 0.773619 0.909423
Si Si8 0.754898 0.029763 0.428777
O O1 0.490895 0.556552 0.250000
O O2 0.752168 0.519566 0.337438
O O3 0.817919 0.638780 0.250000
O O4 0.371584 0.088285 0.750000
O O5 0.206514 0.987034 0.833722
O O6 0.922783 0.250000 0.500000
O O7 0.937412 0.203228 0.336282
O O8 0.643114 0.213569 0.414478
O O9 0.852720 0.107449 0.452434
O O10 0.673126 0.647139 0.400304
O O11 0.777650 0.533643 0.501918
O O12 0.463507 0.540536 0.428701
O O13 0.402551 0.283578 0.334173
O O14 0.128946 0.293136 0.250000
O O15 0.627717 0.750000 0.000000
#
# Coordination Sequence:
#
# PCOD9436276 Si02
#       8
#     4   4   8   8   4   4   8   8
#     4  10  20  37  59  85 126 170 205 261 336 382
#     4  10  21  37  64 100 126 157 215 282 329 378
#     4  10  23  42  66  93 131 180 220 259 326 405
#     4   9  16  33  58  94 120 154 208 268 321 369
#     4  12  23  37  66  99 124 164 223 279 329 373
#     4  12  24  43  65  92 136 177 213 264 336 401
#     4  10  19  35  63  95 123 164 218 277 324 378
#     4   9  18  35  64  88 127 162 206 267 320 378
#
# _framework density 22.497934999999998
#
# number of rings (size 3 to 8) (size 9 to 14) (size 15 to 20)
#    0.000    2.000    1.667    2.000    0.000    6.000 
#    3.000    1.667   11.000    0.000    0.000    0.000 
#    0.000    0.000    0.000    0.000    0.000    0.000 
#
# Total GULP energy -267622.208703 kJ/mol
# GULP energy per Si atom -5575.462681 kJ/mol
# Density = 2.244673 g / cm^3
# Si number density = 22.497935 Si / 1000 Ang^3
#
#
#
# Elastic Constant Matrix: (Units=GPa)
#
#
# Indices 1 2 3 4 5 6 
#
# 1 62.1407 32.1033 53.1262 0.0000 0.0000 0.0000
# 2 32.1033 101.2756 66.2823 0.0000 0.0000 0.0000
# 3 53.1262 66.2823 211.4209 0.0000 0.0000 0.0000
# 4 0.0000 0.0000 0.0000 38.8854 0.0000 0.0000
# 5 0.0000 0.0000 0.0000 0.0000 28.0327 0.0000
# 6 0.0000 0.0000 0.0000 0.0000 0.0000 14.0179
#
#
#
# Elastic Compliance Matrix: (Units=1/GPa)
#
#
# Indices 1 2 3 4 5 6 
#
# 1 0.021821 -0.004188 -0.004170 0.000000 0.000000 0.000000
# 2 -0.004188 0.013227 -0.003094 0.000000 0.000000 0.000000
# 3 -0.004170 -0.003094 0.006748 0.000000 0.000000 0.000000
# 4 0.000000 0.000000 0.000000 0.025717 0.000000 0.000000
# 5 0.000000 0.000000 0.000000 0.000000 0.035673 0.000000
# 6 0.000000 0.000000 0.000000 0.000000 0.000000 0.071338
#
#
# Mechanical properties :
#
#
# Convention : Reuss Voigt Hill
#
# Bulk Modulus (GPa) = 52.93518 75.31785 64.12652
# Shear Modulus (GPa) = 24.54288 31.07555 27.80922
#
# Velocity S-wave (km/s) = 3.30645 3.72057 3.51961
# Velocity P-wave (km/s) = 6.17712 7.21160 6.71431
#
# Compressibility (1/GPa) = 0.01889103
#
# Stress axis : x y z
#
# Youngs Moduli (GPa) = 45.82647 75.60458 148.19261
#
# Poissons Ratio (x) = 0.31661 0.61803
# Poissons Ratio (y) = 0.19191 0.45857
# Poissons Ratio (z) = 0.19112 0.23395
#
# Static dielectric constant tensor:
#      x y z
#    x 1.866300 0.000000 0.000000 
#    y 0.000000 1.865460 0.000000 
#    z 0.000000 0.000000 1.866370 
# 
# From -- ./inp_files/16470.got.cif
#   From: 2010.05.17/outbox.cif.g08.bks.cpg/sg57_9_cif.got.tgz:16470.got - 2010.06.03 13:58:18.
