data_PCOD9436114
_publ_section_title
;
Structure prediction by ZEFSAII (Michael W. Deem and Ramdas Pophale) SiO2 
 PCOD9436114
Probable space group: P B C M
;
_chemical_formula_sum "Si O2"
_cell_formula_units_Z 40
_cell_length_a 14.655190
_cell_length_b 15.816223
_cell_length_c 8.697876
_cell_angle_alpha 90.000000
_cell_angle_beta 90.000000
_cell_angle_gamma 90.000000
_cell_volume 2016.078531
_symmetry_space_group_name_H-M "P B C M"
_symmetry_group_IT_number 57
_symmetry_cell_setting 'orthorhombic'
loop_
_space_group_symop_operation_xyz
x,y,z
-x,-y,1/2+z
x,1/2-y,-z
-x,1/2+y,1/2-z
-x,-y,-z
x,y,1/2-z
-x,1/2+y,z
x,1/2-y,1/2+z
loop_
_atom_site_type_symbol
_atom_site_label
_atom_site_fract_x
_atom_site_fract_y
_atom_site_fract_z
Si Si1 0.601705 0.999238 0.566480
Si Si2 0.289714 0.160427 0.932109
Si Si3 0.895174 0.600312 0.068068
Si Si4 0.098585 0.586923 0.433714
Si Si5 0.292813 0.660157 0.066774
O O1 0.599787 0.997855 0.750000
O O2 0.655565 0.917331 0.505569
O O3 0.500000 0.000000 0.500000
O O4 0.653490 0.082678 0.508097
O O5 0.301050 0.159022 0.750000
O O6 0.320451 0.250000 0.000000
O O7 0.183501 0.147029 0.975384
O O8 0.879375 0.611691 0.250000
O O9 0.999408 0.625352 0.030143
O O10 0.890190 0.500813 0.025006
O O11 0.098345 0.567163 0.250000
O O12 0.185332 0.644928 0.465573
O O13 0.305751 0.658054 0.250000
O O14 0.321909 0.750000 0.000000
#
# Coordination Sequence:
#
# PCOD9436114 Si02
#       5
#     8   8   8   8   8
#     4  12  26  47  72  98 126 163 207 262 325 388
#     4  12  25  43  66  96 131 170 214 266 319 380
#     4  10  19  34  59  92 128 172 217 261 313 373
#     4   9  19  35  58  89 129 173 217 261 311 371
#     4  11  23  41  65  96 132 171 215 264 315 375
#
# _framework density 19.840496999999999
#
# number of rings (size 3 to 8) (size 9 to 14) (size 15 to 20)
#    0.000    1.200    2.000    4.800    0.000    3.200 
#    0.000    6.000    0.000    0.000    0.000    0.000 
#    0.000    0.000    0.000    0.000    0.000    0.000 
#
# Total GULP energy -223747.822693 kJ/mol
# GULP energy per Si atom -5593.695567 kJ/mol
# Density = 1.979534 g / cm^3
# Si number density = 19.840497 Si / 1000 Ang^3
#
#
#
# Elastic Constant Matrix: (Units=GPa)
#
#
# Indices 1 2 3 4 5 6 
#
# 1 124.2307 75.1249 70.2212 0.0000 0.0000 0.0000
# 2 75.1249 159.7895 77.5680 0.0000 0.0000 0.0000
# 3 70.2212 77.5680 139.2202 0.0000 0.0000 0.0000
# 4 0.0000 0.0000 0.0000 32.4516 0.0000 0.0000
# 5 0.0000 0.0000 0.0000 0.0000 30.7621 0.0000
# 6 0.0000 0.0000 0.0000 0.0000 0.0000 -7.4637
#
#
#
# Elastic Compliance Matrix: (Units=1/GPa)
#
#
# Indices 1 2 3 4 5 6 
#
# 1 0.012871 -0.003975 -0.004277 0.000000 0.000000 0.000000
# 2 -0.003975 0.009806 -0.003459 0.000000 0.000000 0.000000
# 3 -0.004277 -0.003459 0.011267 0.000000 0.000000 0.000000
# 4 0.000000 0.000000 0.000000 0.030815 0.000000 0.000000
# 5 0.000000 0.000000 0.000000 0.000000 0.032508 0.000000
# 6 0.000000 0.000000 0.000000 0.000000 0.000000 -0.133982
#
#
# Mechanical properties :
#
#
# Convention : Reuss Voigt Hill
#
# Bulk Modulus (GPa) = 95.03358 96.56315 95.79837
# Shear Modulus (GPa) = -510.94264 24.50509 -243.21878
#
# Velocity S-wave (km/s) = -16.06500 3.51822 -11.08391
# Velocity P-wave (km/s) = 17.20783 8.07955 10.74314
#
# Compressibility (1/GPa) = 0.01052260
#
# Stress axis : x y z
#
# Youngs Moduli (GPa) = 77.69398 101.97871 88.75236
#
# Poissons Ratio (x) = 0.40536 0.37962
# Poissons Ratio (y) = 0.30883 0.30696
# Poissons Ratio (z) = 0.33232 0.35270
#
# Static dielectric constant tensor:
#      x y z
#    x 1.704400 0.000000 0.000000 
#    y 0.000000 1.673390 0.000000 
#    z 0.000000 0.000000 1.662640 
# 
# From -- ./inp_files/4296.got.cif
#   From: 2010.05.17/outbox.cif.g08.bks.cpg/sg57_3_cif.got.tgz:4296.got - 2010.06.03 13:58:18.
