data_PCOD9436760
_publ_section_title
;
Structure prediction by ZEFSAII (Michael W. Deem and Ramdas Pophale) SiO2 
 PCOD9436760
Probable space group: P B C M
;
_chemical_formula_sum "Si O2"
_cell_formula_units_Z 48
_cell_length_a 15.311405
_cell_length_b 21.130768
_cell_length_c 8.760895
_cell_angle_alpha 90.000000
_cell_angle_beta 90.000000
_cell_angle_gamma 90.000000
_cell_volume 2834.515272
_symmetry_space_group_name_H-M "P B C M"
_symmetry_group_IT_number 57
_symmetry_cell_setting 'orthorhombic'
loop_
_space_group_symop_operation_xyz
x,y,z
-x,-y,1/2+z
x,1/2-y,-z
-x,1/2+y,1/2-z
-x,-y,-z
x,y,1/2-z
-x,1/2+y,z
x,1/2-y,1/2+z
loop_
_atom_site_type_symbol
_atom_site_label
_atom_site_fract_x
_atom_site_fract_y
_atom_site_fract_z
Si Si1 0.191568 0.155267 0.570059
Si Si2 0.225971 0.476338 0.930497
Si Si3 0.939857 0.055766 0.569348
Si Si4 0.425038 0.043672 0.067761
Si Si5 0.380131 0.315309 0.933378
Si Si6 0.005913 0.185669 0.431424
O O1 0.191350 0.168354 0.750000
O O2 0.191448 0.080425 0.534903
O O3 0.280808 0.179413 0.494127
O O4 0.105299 0.181525 0.491486
O O5 0.220472 0.456926 0.750000
O O6 0.160898 0.534693 0.949822
O O7 0.328204 0.483793 0.966440
O O8 0.958358 0.060593 0.750000
O O9 0.960208 0.122043 0.490345
O O10 0.000000 0.000000 0.500000
O O11 0.434410 0.043893 0.250000
O O12 0.424401 0.117864 0.018776
O O13 0.500000 0.000000 0.000000
O O14 0.379468 0.312620 0.750000
O O15 0.417962 0.250000 0.000000
O O16 0.966626 0.250000 0.500000
O O17 0.005275 0.187892 0.250000
#
# Coordination Sequence:
#
# PCOD9436760 Si02
#       6
#     8   8   8   8   8   8
#     4  11  20  31  50  76 106 140 178 214 261 320
#     4   9  19  35  54  77 108 141 175 218 267 316
#     4  11  21  35  56  80 107 142 183 223 265 315
#     4   9  19  35  55  80 108 139 174 218 267 317
#     4  10  20  34  51  75 108 140 173 213 266 322
#     4  12  24  37  51  72 106 144 184 229 273 320
#
# _framework density 16.934111999999999
#
# number of rings (size 3 to 8) (size 9 to 14) (size 15 to 20)
#    0.000    1.667    1.667    5.500    0.000    4.000 
#    0.000    0.000    0.000    1.000    0.000    2.333 
#    0.000    0.000    0.000    0.000    0.000    0.000 
#
# Total GULP energy -267923.574223 kJ/mol
# GULP energy per Si atom -5581.741130 kJ/mol
# Density = 1.689557 g / cm^3
# Si number density = 16.934112 Si / 1000 Ang^3
#
#
#
# Elastic Constant Matrix: (Units=GPa)
#
#
# Indices 1 2 3 4 5 6 
#
# 1 74.9767 64.9292 35.3026 0.0000 0.0000 0.0000
# 2 64.9292 153.1010 60.3043 0.0000 0.0000 0.0000
# 3 35.3026 60.3043 98.1491 0.0000 0.0000 0.0000
# 4 0.0000 0.0000 0.0000 32.2657 0.0000 0.0000
# 5 0.0000 0.0000 0.0000 0.0000 25.2343 0.0000
# 6 0.0000 0.0000 0.0000 0.0000 0.0000 18.7566
#
#
#
# Elastic Compliance Matrix: (Units=1/GPa)
#
#
# Indices 1 2 3 4 5 6 
#
# 1 0.021660 -0.008070 -0.002832 0.000000 0.000000 0.000000
# 2 -0.008070 0.011624 -0.004239 0.000000 0.000000 0.000000
# 3 -0.002832 -0.004239 0.013812 0.000000 0.000000 0.000000
# 4 0.000000 0.000000 0.000000 0.030993 0.000000 0.000000
# 5 0.000000 0.000000 0.000000 0.000000 0.039629 0.000000
# 6 0.000000 0.000000 0.000000 0.000000 0.000000 0.053314
#
#
# Mechanical properties :
#
#
# Convention : Reuss Voigt Hill
#
# Bulk Modulus (GPa) = 59.47999 71.92213 65.70106
# Shear Modulus (GPa) = 24.16410 26.29738 25.23074
#
# Velocity S-wave (km/s) = 3.78159 3.94499 3.86416
# Velocity P-wave (km/s) = 7.36667 7.95704 7.66754
#
# Compressibility (1/GPa) = 0.01681238
#
# Stress axis : x y z
#
# Youngs Moduli (GPa) = 46.16856 86.02941 72.40135
#
# Poissons Ratio (x) = 0.69428 0.20505
# Poissons Ratio (y) = 0.37259 0.30692
# Poissons Ratio (z) = 0.13076 0.36470
#
# Static dielectric constant tensor:
#      x y z
#    x 1.562780 0.000000 0.000000 
#    y 0.000000 1.615390 0.000000 
#    z 0.000000 0.000000 1.566560 
# 
# From -- ./inp_files/4852.got.cif
#   From: 2010.05.17/outbox.cif.g08.bks.cpg/sg57_3_cif.got.tgz:4852.got - 2010.06.03 13:58:18.
