data_PCOD9436314
_publ_section_title
;
Structure prediction by ZEFSAII (Michael W. Deem and Ramdas Pophale) SiO2 
 PCOD9436314
Probable space group: P B C M
;
_chemical_formula_sum "Si O2"
_cell_formula_units_Z 56
_cell_length_a 11.845580
_cell_length_b 11.027142
_cell_length_c 22.795664
_cell_angle_alpha 90.000000
_cell_angle_beta 90.000000
_cell_angle_gamma 90.000000
_cell_volume 2977.635573
_symmetry_space_group_name_H-M "P B C M"
_symmetry_group_IT_number 57
_symmetry_cell_setting 'orthorhombic'
loop_
_space_group_symop_operation_xyz
x,y,z
-x,-y,1/2+z
x,1/2-y,-z
-x,1/2+y,1/2-z
-x,-y,-z
x,y,1/2-z
-x,1/2+y,z
x,1/2-y,1/2+z
loop_
_atom_site_type_symbol
_atom_site_label
_atom_site_fract_x
_atom_site_fract_y
_atom_site_fract_z
Si Si1 0.815472 0.825569 0.413502
Si Si2 0.282410 0.777915 0.931226
Si Si3 0.396142 0.934220 0.120165
Si Si4 0.781339 0.930415 0.959273
Si Si5 0.342979 0.501864 0.364544
Si Si6 0.595729 0.369847 0.750000
Si Si7 0.938383 0.340895 0.054820
Si Si8 0.600959 0.077592 0.750000
O O1 0.768097 0.872423 0.476544
O O2 0.814695 0.680605 0.417019
O O3 0.945971 0.864772 0.411715
O O4 0.735794 0.883790 0.364291
O O5 0.381377 0.703689 0.900452
O O6 0.298043 0.916447 0.917571
O O7 0.160895 0.728689 0.910352
O O8 0.285374 0.750000 0.000000
O O9 0.344250 0.942015 0.185943
O O10 0.327898 0.009959 0.071452
O O11 0.526980 0.967924 0.124609
O O12 0.878010 0.033670 0.963505
O O13 0.337024 0.588551 0.307885
O O14 0.567426 0.224260 0.750000
O O15 0.493050 0.469025 0.750000
O O16 0.965542 0.250000 0.000000
#
# Coordination Sequence:
#
# PCOD9436314 Si02
#       8
#     8   8   8   8   8   4   8   4
#     4  11  22  34  58  88 123 157 197 247 306 355
#     4  10  21  35  57  87 117 155 193 236 302 359
#     4  10  22  38  57  86 120 155 201 240 298 360
#     4  10  22  36  56  92 121 158 195 247 307 357
#     4  11  23  37  60  86 119 159 201 246 302 363
#     4  10  22  40  66  87 117 162 220 255 296 360
#     4  10  19  36  59  84 117 155 204 244 284 370
#     4  10  20  40  66  87 113 166 210 259 292 354
#
# _framework density 18.806868999999999
#
# number of rings (size 3 to 8) (size 9 to 14) (size 15 to 20)
#    0.000    1.714    2.857    3.000    4.000    3.429 
#    0.000    0.000    0.000    4.286    0.000    0.000 
#    0.000    0.000    0.000    0.000    0.000    0.000 
#
# Total GULP energy -311825.270101 kJ/mol
# GULP energy per Si atom -5568.308395 kJ/mol
# Density = 1.876406 g / cm^3
# Si number density = 18.806869 Si / 1000 Ang^3
#
#
#
# Elastic Constant Matrix: (Units=GPa)
#
#
# Indices 1 2 3 4 5 6 
#
# 1 78.6538 23.6796 21.6412 0.0000 0.0000 0.0000
# 2 23.6796 97.9461 8.5711 0.0000 0.0000 0.0000
# 3 21.6412 8.5711 48.2712 0.0000 0.0000 0.0000
# 4 0.0000 0.0000 0.0000 27.4294 0.0000 0.0000
# 5 0.0000 0.0000 0.0000 0.0000 5.2626 0.0000
# 6 0.0000 0.0000 0.0000 0.0000 0.0000 20.3625
#
#
#
# Elastic Compliance Matrix: (Units=1/GPa)
#
#
# Indices 1 2 3 4 5 6 
#
# 1 0.015415 -0.003171 -0.006348 0.000000 0.000000 0.000000
# 2 -0.003171 0.011023 -0.000536 0.000000 0.000000 0.000000
# 3 -0.006348 -0.000536 0.023657 0.000000 0.000000 0.000000
# 4 0.000000 0.000000 0.000000 0.036457 0.000000 0.000000
# 5 0.000000 0.000000 0.000000 0.000000 0.190020 0.000000
# 6 0.000000 0.000000 0.000000 0.000000 0.000000 0.049110
#
#
# Mechanical properties :
#
#
# Convention : Reuss Voigt Hill
#
# Bulk Modulus (GPa) = 33.34861 36.96167 35.15514
# Shear Modulus (GPa) = 14.05332 22.00952 18.03142
#
# Velocity S-wave (km/s) = 2.73654 3.42466 3.09976
# Velocity P-wave (km/s) = 5.26835 5.94422 5.61646
#
# Compressibility (1/GPa) = 0.02998626
#
# Stress axis : x y z
#
# Youngs Moduli (GPa) = 64.87052 90.71724 42.27020
#
# Poissons Ratio (x) = 0.28769 0.26833
# Poissons Ratio (y) = 0.20573 0.02264
# Poissons Ratio (z) = 0.41180 0.04858
#
# Static dielectric constant tensor:
#      x y z
#    x 1.660880 0.000000 0.000000 
#    y 0.000000 1.703290 0.000000 
#    z 0.000000 0.000000 1.690620 
# 
# From -- ./inp_files/27250.got.cif
#   From: 2010.05.17/outbox.cif.g08.bks.cpg/sg57_14_cif.got.tgz:27250.got - 2010.06.03 13:58:18.
