data_PCOD9436977
_publ_section_title
;
Structure prediction by ZEFSAII (Michael W. Deem and Ramdas Pophale) SiO2 
 PCOD9436977
Probable space group: P B C M
;
_chemical_formula_sum "Si O2"
_cell_formula_units_Z 56
_cell_length_a 16.909143
_cell_length_b 21.559679
_cell_length_c 8.733870
_cell_angle_alpha 90.000000
_cell_angle_beta 90.000000
_cell_angle_gamma 90.000000
_cell_volume 3183.982050
_symmetry_space_group_name_H-M "P B C M"
_symmetry_group_IT_number 57
_symmetry_cell_setting 'orthorhombic'
loop_
_space_group_symop_operation_xyz
x,y,z
-x,-y,1/2+z
x,1/2-y,-z
-x,1/2+y,1/2-z
-x,-y,-z
x,y,1/2-z
-x,1/2+y,z
x,1/2-y,1/2+z
loop_
_atom_site_type_symbol
_atom_site_label
_atom_site_fract_x
_atom_site_fract_y
_atom_site_fract_z
Si Si1 0.545266 0.682611 0.932490
Si Si2 0.458139 0.561920 0.067357
Si Si3 0.298215 0.520148 0.931565
Si Si4 0.145037 0.317721 0.068985
Si Si5 0.875143 0.021374 0.067582
Si Si6 0.028941 0.094927 0.069106
Si Si7 0.300205 0.373695 0.569201
O O1 0.538020 0.683622 0.750000
O O2 0.523418 0.750000 0.000000
O O3 0.495717 0.624883 0.000488
O O4 0.635324 0.666943 0.981086
O O5 0.467874 0.561428 0.250000
O O6 0.500000 0.500000 0.000000
O O7 0.366583 0.556929 0.018845
O O8 0.300950 0.532769 0.750000
O O9 0.315788 0.446724 0.952860
O O10 0.210711 0.531982 0.996539
O O11 0.154658 0.317338 0.250000
O O12 0.153785 0.250000 0.000000
O O13 0.061170 0.346439 0.021573
O O14 0.213572 0.359068 0.993407
O O15 0.868621 0.009778 0.250000
O O16 0.937679 0.077027 0.044178
O O17 0.917910 0.962756 0.988862
O O18 0.042021 0.103163 0.250000
O O19 0.304713 0.360175 0.750000
#
# Coordination Sequence:
#
# PCOD9436977 Si02
#       7
#     8   8   8   8   8   8   8
#     4  12  25  42  63  87 119 158 200 245 295 355
#     4  12  24  40  62  89 120 155 199 246 297 353
#     4  11  22  36  59  87 120 155 192 240 293 346
#     4  12  24  37  55  79 113 154 194 234 284 342
#     4  10  20  34  56  83 112 146 184 230 284 335
#     4  10  20  35  54  80 112 146 187 231 276 333
#     4  11  22  37  57  84 119 156 195 237 288 348
#
# _framework density 17.588038999999998
#
# number of rings (size 3 to 8) (size 9 to 14) (size 15 to 20)
#    0.000    0.857    2.857    6.000    0.000    2.857 
#    0.000    0.000    0.000    0.857    0.000    2.000 
#    0.000    0.000    0.000    0.000    0.000    0.000 
#
# Total GULP energy -313080.088529 kJ/mol
# GULP energy per Si atom -5590.715867 kJ/mol
# Density = 1.754801 g / cm^3
# Si number density = 17.588039 Si / 1000 Ang^3
#
#
#
# Elastic Constant Matrix: (Units=GPa)
#
#
# Indices 1 2 3 4 5 6 
#
# 1 97.8872 35.8263 44.0762 0.0000 0.0000 0.0000
# 2 35.8263 82.2807 55.8767 0.0000 0.0000 0.0000
# 3 44.0762 55.8767 127.8253 0.0000 0.0000 0.0000
# 4 0.0000 0.0000 0.0000 28.3665 0.0000 0.0000
# 5 0.0000 0.0000 0.0000 0.0000 31.1926 0.0000
# 6 0.0000 0.0000 0.0000 0.0000 0.0000 14.2471
#
#
#
# Elastic Compliance Matrix: (Units=1/GPa)
#
#
# Indices 1 2 3 4 5 6 
#
# 1 0.012829 -0.003672 -0.002819 0.000000 0.000000 0.000000
# 2 -0.003672 0.018335 -0.006749 0.000000 0.000000 0.000000
# 3 -0.002819 -0.006749 0.011745 0.000000 0.000000 0.000000
# 4 0.000000 0.000000 0.000000 0.035253 0.000000 0.000000
# 5 0.000000 0.000000 0.000000 0.000000 0.032059 0.000000
# 6 0.000000 0.000000 0.000000 0.000000 0.000000 0.070190
#
#
# Mechanical properties :
#
#
# Convention : Reuss Voigt Hill
#
# Bulk Modulus (GPa) = 60.86065 64.39462 62.62764
# Shear Modulus (GPa) = 23.54419 26.24218 24.89319
#
# Velocity S-wave (km/s) = 3.66272 3.86689 3.76619
# Velocity P-wave (km/s) = 7.25024 7.52525 7.38902
#
# Compressibility (1/GPa) = 0.01643098
#
# Stress axis : x y z
#
# Youngs Moduli (GPa) = 77.94949 54.53908 85.14093
#
# Poissons Ratio (x) = 0.20026 0.23997
# Poissons Ratio (y) = 0.28622 0.57461
# Poissons Ratio (z) = 0.21970 0.36808
#
# Static dielectric constant tensor:
#      x y z
#    x 1.597480 0.000000 0.000000 
#    y 0.000000 1.583200 0.000000 
#    z 0.000000 0.000000 1.584370 
# 
# From -- ./inp_files/5096.got.cif
#   From: 2010.05.17/outbox.cif.g08.bks.cpg/sg57_3_cif.got.tgz:5096.got - 2010.06.03 13:58:18.
