data_PCOD9436513
_publ_section_title
;
Structure prediction by ZEFSAII (Michael W. Deem and Ramdas Pophale) SiO2 
 PCOD9436513
Probable space group: P B C M
;
_chemical_formula_sum "Si O2"
_cell_formula_units_Z 64
_cell_length_a 16.643522
_cell_length_b 24.379941
_cell_length_c 8.965490
_cell_angle_alpha 90.000000
_cell_angle_beta 90.000000
_cell_angle_gamma 90.000000
_cell_volume 3637.909703
_symmetry_space_group_name_H-M "P B C M"
_symmetry_group_IT_number 57
_symmetry_cell_setting 'orthorhombic'
loop_
_space_group_symop_operation_xyz
x,y,z
-x,-y,1/2+z
x,1/2-y,-z
-x,1/2+y,1/2-z
-x,-y,-z
x,y,1/2-z
-x,1/2+y,z
x,1/2-y,1/2+z
loop_
_atom_site_type_symbol
_atom_site_label
_atom_site_fract_x
_atom_site_fract_y
_atom_site_fract_z
Si Si1 0.608278 0.036705 0.071706
Si Si2 0.935540 0.034903 0.583510
Si Si3 0.552117 0.585248 0.570913
Si Si4 0.169838 0.309378 0.572598
Si Si5 0.848297 0.195389 0.570266
Si Si6 0.771361 0.079065 0.931131
Si Si7 0.984547 0.654345 0.580900
Si Si8 0.643898 0.689047 0.069887
O O1 0.602451 0.043134 0.250000
O O2 0.601256 0.971281 0.039282
O O3 0.535199 0.069506 0.994422
O O4 0.690646 0.060204 0.007972
O O5 0.926148 0.012839 0.750000
O O6 0.846610 0.041572 0.518954
O O7 0.974118 0.095171 0.591213
O O8 0.000000 0.000000 0.500000
O O9 0.548396 0.592429 0.750000
O O10 0.589999 0.639807 0.497107
O O11 0.155921 0.250000 0.500000
O O12 0.164067 0.305939 0.750000
O O13 0.097545 0.346020 0.510098
O O14 0.262062 0.324831 0.535944
O O15 0.813090 0.250000 0.500000
O O16 0.851539 0.198481 0.750000
O O17 0.797534 0.141289 0.532516
O O18 0.940940 0.189114 0.516470
O O19 0.765529 0.075571 0.750000
O O20 0.966133 0.673122 0.750000
O O21 0.634716 0.691947 0.250000
O O22 0.628166 0.750000 0.000000
#
# Coordination Sequence:
#
# PCOD9436513 Si02
#       8
#     8   8   8   8   8   8   8   8
#     4  10  21  37  59  86 110 135 175 222 264 313
#     4   9  19  34  50  70 100 137 174 214 260 310
#     4  10  21  38  60  84 110 140 173 214 266 319
#     4  10  20  32  48  72 101 134 171 211 254 301
#     4   9  18  32  50  72  99 134 174 216 264 313
#     4   9  19  36  54  74 105 141 174 215 269 321
#     4   9  18  32  48  68  97 133 173 216 259 303
#     4  10  21  37  56  80 112 146 180 219 265 319
#
# _framework density 17.59252
#
# number of rings (size 3 to 8) (size 9 to 14) (size 15 to 20)
#    0.000    2.500    0.000    3.375    0.000    7.000 
#    0.000    8.125    0.000    1.500    0.000    0.000 
#    0.000    0.000    0.000    0.000    0.000    0.000 
#
# Total GULP energy -356611.178125 kJ/mol
# GULP energy per Si atom -5572.049658 kJ/mol
# Density = 1.755248 g / cm^3
# Si number density = 17.592520 Si / 1000 Ang^3
#
#
#
# Elastic Constant Matrix: (Units=GPa)
#
#
# Indices 1 2 3 4 5 6 
#
# 1 137.0047 76.0619 56.3182 0.0000 0.0000 0.0000
# 2 76.0619 86.4132 43.8063 0.0000 0.0000 0.0000
# 3 56.3182 43.8063 56.2953 0.0000 0.0000 0.0000
# 4 0.0000 0.0000 0.0000 29.3631 0.0000 0.0000
# 5 0.0000 0.0000 0.0000 0.0000 28.2499 0.0000
# 6 0.0000 0.0000 0.0000 0.0000 0.0000 15.3254
#
#
#
# Elastic Compliance Matrix: (Units=1/GPa)
#
#
# Indices 1 2 3 4 5 6 
#
# 1 0.016447 -0.010133 -0.008569 0.000000 0.000000 0.000000
# 2 -0.010133 0.025354 -0.009592 0.000000 0.000000 0.000000
# 3 -0.008569 -0.009592 0.033800 0.000000 0.000000 0.000000
# 4 0.000000 0.000000 0.000000 0.034056 0.000000 0.000000
# 5 0.000000 0.000000 0.000000 0.000000 0.035398 0.000000
# 6 0.000000 0.000000 0.000000 0.000000 0.000000 0.065251
#
#
# Mechanical properties :
#
#
# Convention : Reuss Voigt Hill
#
# Bulk Modulus (GPa) = 52.59519 70.23176 61.41348
# Shear Modulus (GPa) = 18.29948 21.48949 19.89448
#
# Velocity S-wave (km/s) = 3.22869 3.49881 3.36646
# Velocity P-wave (km/s) = 6.62272 7.50535 7.07781
#
# Compressibility (1/GPa) = 0.01901315
#
# Stress axis : x y z
#
# Youngs Moduli (GPa) = 60.80183 39.44122 29.58600
#
# Poissons Ratio (x) = 0.39966 0.25351
# Poissons Ratio (y) = 0.61610 0.28380
# Poissons Ratio (z) = 0.52098 0.37833
#
# Static dielectric constant tensor:
#      x y z
#    x 1.595490 0.000000 0.000000 
#    y 0.000000 1.633170 0.000000 
#    z 0.000000 0.000000 1.588340 
# 
# From -- ./inp_files/5749.got.cif
#   From: 2010.05.17/outbox.cif.g08.bks.cpg/sg57_3_cif.got.tgz:5749.got - 2010.06.03 13:58:18.
