data_PCOD9436385
_publ_section_title
;
Structure prediction by ZEFSAII (Michael W. Deem and Ramdas Pophale) SiO2 
 PCOD9436385
Probable space group: P B C M
;
_chemical_formula_sum "Si O2"
_cell_formula_units_Z 40
_cell_length_a 5.229769
_cell_length_b 13.300571
_cell_length_c 27.637145
_cell_angle_alpha 90.000000
_cell_angle_beta 90.000000
_cell_angle_gamma 90.000000
_cell_volume 1922.409789
_symmetry_space_group_name_H-M "P B C M"
_symmetry_group_IT_number 57
_symmetry_cell_setting 'orthorhombic'
loop_
_space_group_symop_operation_xyz
x,y,z
-x,-y,1/2+z
x,1/2-y,-z
-x,1/2+y,1/2-z
-x,-y,-z
x,y,1/2-z
-x,1/2+y,z
x,1/2-y,1/2+z
loop_
_atom_site_type_symbol
_atom_site_label
_atom_site_fract_x
_atom_site_fract_y
_atom_site_fract_z
Si Si1 0.939840 0.916660 0.354306
Si Si2 0.437985 0.012893 0.307380
Si Si3 0.459054 0.340620 0.962638
Si Si4 0.965971 0.056377 0.063740
Si Si5 0.765867 0.694854 0.363551
O O1 0.702022 0.977043 0.331239
O O2 0.206060 0.946708 0.329347
O O3 0.956375 0.947578 0.411297
O O4 0.875643 0.800250 0.347615
O O5 0.449999 0.003402 0.250000
O O6 0.368554 0.126447 0.323455
O O7 0.214022 0.414309 0.967533
O O8 0.426049 0.292896 0.908974
O O9 0.713140 0.406341 0.962047
O O10 0.461049 0.250000 0.000000
O O11 0.014110 0.127252 0.111198
#
# Coordination Sequence:
#
# PCOD9436385 Si02
#       5
#     8   8   8   8   8
#     4  11  21  40  63  84 117 158 194 236 303 343
#     4  11  24  40  59  88 119 149 198 248 290 350
#     4  10  19  37  61  85 119 157 193 241 292 342
#     4   9  19  37  56  85 118 154 190 243 282 343
#     4   9  23  38  64  82 122 157 190 242 295 349
#
# _framework density 20.807217000000001
#
# number of rings (size 3 to 8) (size 9 to 14) (size 15 to 20)
#    1.200    0.800    2.000    1.200    2.800    1.600 
#    0.000    2.000    0.000    0.000    0.000    0.000 
#    0.000    0.000    0.000    0.000    0.000    0.000 
#
# Total GULP energy -223185.333839 kJ/mol
# GULP energy per Si atom -5579.633346 kJ/mol
# Density = 2.075986 g / cm^3
# Si number density = 20.807217 Si / 1000 Ang^3
#
#
#
# Elastic Constant Matrix: (Units=GPa)
#
#
# Indices 1 2 3 4 5 6 
#
# 1 126.6797 -8.6123 19.6943 0.0000 0.0000 0.0000
# 2 -8.6123 62.5427 10.7405 0.0000 0.0000 0.0000
# 3 19.6943 10.7405 68.8776 0.0000 0.0000 0.0000
# 4 0.0000 0.0000 0.0000 16.2465 0.0000 0.0000
# 5 0.0000 0.0000 0.0000 0.0000 26.8475 0.0000
# 6 0.0000 0.0000 0.0000 0.0000 0.0000 33.7038
#
#
#
# Elastic Compliance Matrix: (Units=1/GPa)
#
#
# Indices 1 2 3 4 5 6 
#
# 1 0.008417 0.001616 -0.002659 0.000000 0.000000 0.000000
# 2 0.001616 0.016739 -0.003072 0.000000 0.000000 0.000000
# 3 -0.002659 -0.003072 0.015758 0.000000 0.000000 0.000000
# 4 0.000000 0.000000 0.000000 0.061552 0.000000 0.000000
# 5 0.000000 0.000000 0.000000 0.000000 0.037247 0.000000
# 6 0.000000 0.000000 0.000000 0.000000 0.000000 0.029670
#
#
# Mechanical properties :
#
#
# Convention : Reuss Voigt Hill
#
# Bulk Modulus (GPa) = 30.59644 33.52724 32.06184
# Shear Modulus (GPa) = 26.52400 31.11138 28.81769
#
# Velocity S-wave (km/s) = 3.57424 3.87100 3.72558
# Velocity P-wave (km/s) = 5.63651 6.01064 5.82658
#
# Compressibility (1/GPa) = 0.03268354
#
# Stress axis : x y z
#
# Youngs Moduli (GPa) = 118.80585 59.74024 63.46073
#
# Poissons Ratio (x) = -0.09652 0.16872
# Poissons Ratio (y) = -0.19195 0.19496
# Poissons Ratio (z) = 0.31586 0.18353
#
# Static dielectric constant tensor:
#      x y z
#    x 1.730100 0.000000 0.000000 
#    y 0.000000 1.748090 0.000000 
#    z 0.000000 0.000000 1.759670 
# 
# From -- ./inp_files/29052.got.cif
#   From: 2010.05.17/outbox.cif.g08.bks.cpg/sg57_15_cif.got.tgz:29052.got - 2010.06.03 13:58:18.
