data_PCOD9436097
_publ_section_title
;
Structure prediction by ZEFSAII (Michael W. Deem and Ramdas Pophale) SiO2 
 PCOD9436097
Probable space group: P B C M
;
_chemical_formula_sum "Si O2"
_cell_formula_units_Z 64
_cell_length_a 11.242097
_cell_length_b 18.250484
_cell_length_c 16.611570
_cell_angle_alpha 90.000000
_cell_angle_beta 90.000000
_cell_angle_gamma 90.000000
_cell_volume 3408.257469
_symmetry_space_group_name_H-M "P B C M"
_symmetry_group_IT_number 57
_symmetry_cell_setting 'orthorhombic'
loop_
_space_group_symop_operation_xyz
x,y,z
-x,-y,1/2+z
x,1/2-y,-z
-x,1/2+y,1/2-z
-x,-y,-z
x,y,1/2-z
-x,1/2+y,z
x,1/2-y,1/2+z
loop_
_atom_site_type_symbol
_atom_site_label
_atom_site_fract_x
_atom_site_fract_y
_atom_site_fract_z
Si Si1 0.432664 0.968222 0.836515
Si Si2 0.553720 0.669721 0.523314
Si Si3 0.678495 0.087225 0.000990
Si Si4 0.695257 0.876819 0.337649
Si Si5 0.315639 0.060761 0.402498
Si Si6 0.947509 0.914573 0.843245
Si Si7 0.969461 0.583424 0.657095
Si Si8 0.929759 0.162741 0.497742
O O1 0.396263 0.937756 0.750000
O O2 0.369244 0.927950 0.909588
O O3 0.574195 0.962702 0.846553
O O4 0.388201 0.051616 0.840230
O O5 0.513313 0.750000 0.500000
O O6 0.435631 0.622985 0.542396
O O7 0.645132 0.676765 0.596309
O O8 0.629066 0.625748 0.456393
O O9 0.792030 0.138773 0.004410
O O10 0.708929 0.009443 0.959940
O O11 0.689394 0.842401 0.250000
O O12 0.828133 0.905371 0.350444
O O13 0.194451 0.082487 0.358788
O O14 0.970959 0.890288 0.750000
O O15 0.995926 0.998052 0.850098
O O16 0.006303 0.869489 0.917199
O O17 0.002880 0.605834 0.750000
O O18 0.023121 0.627423 0.581624
O O19 0.944462 0.250000 0.500000
#
# Coordination Sequence:
#
# PCOD9436097 Si02
#       8
#     8   8   8   8   8   8   8   8
#     4  10  19  34  60  93 121 150 199 255 304 359
#     4  11  22  38  58  89 124 160 197 246 312 375
#     4  11  21  40  63  87 121 161 210 253 302 372
#     4  10  19  34  58  87 117 152 198 247 304 365
#     4  11  20  38  64  90 119 157 206 257 311 362
#     4  11  24  41  66  94 123 164 215 266 314 370
#     4  10  22  40  63  92 123 165 216 265 312 372
#     4  12  26  42  64  91 128 173 209 260 322 377
#
# _framework density 18.777923999999999
#
# number of rings (size 3 to 8) (size 9 to 14) (size 15 to 20)
#    0.000    1.250    3.750    3.375    0.000    4.000 
#    0.000    5.000    0.000    1.500    0.000    0.000 
#    0.000    0.000    0.000    0.000    0.000    0.000 
#
# Total GULP energy -357075.329923 kJ/mol
# GULP energy per Si atom -5579.302030 kJ/mol
# Density = 1.873518 g / cm^3
# Si number density = 18.777924 Si / 1000 Ang^3
#
#
#
# Elastic Constant Matrix: (Units=GPa)
#
#
# Indices 1 2 3 4 5 6 
#
# 1 72.4194 8.5481 54.6994 0.0000 0.0000 0.0000
# 2 8.5481 72.6061 45.2749 0.0000 0.0000 0.0000
# 3 54.6994 45.2749 132.3488 0.0000 0.0000 0.0000
# 4 0.0000 0.0000 0.0000 7.8262 0.0000 0.0000
# 5 0.0000 0.0000 0.0000 0.0000 17.1580 0.0000
# 6 0.0000 0.0000 0.0000 0.0000 0.0000 16.8851
#
#
#
# Elastic Compliance Matrix: (Units=1/GPa)
#
#
# Indices 1 2 3 4 5 6 
#
# 1 0.020832 0.003707 -0.009878 0.000000 0.000000 0.000000
# 2 0.003707 0.018167 -0.007747 0.000000 0.000000 0.000000
# 3 -0.009878 -0.007747 0.014288 0.000000 0.000000 0.000000
# 4 0.000000 0.000000 0.000000 0.127775 0.000000 0.000000
# 5 0.000000 0.000000 0.000000 0.000000 0.058282 0.000000
# 6 0.000000 0.000000 0.000000 0.000000 0.000000 0.059224
#
#
# Mechanical properties :
#
#
# Convention : Reuss Voigt Hill
#
# Bulk Modulus (GPa) = 39.28984 54.93544 47.11264
# Shear Modulus (GPa) = 14.93038 19.63066 17.28052
#
# Velocity S-wave (km/s) = 2.82282 3.23679 3.03687
# Velocity P-wave (km/s) = 5.62079 6.57936 6.11887
#
# Compressibility (1/GPa) = 0.02545187
#
# Stress axis : x y z
#
# Youngs Moduli (GPa) = 48.00369 55.04427 69.98708
#
# Poissons Ratio (x) = -0.20404 0.69132
# Poissons Ratio (y) = -0.17795 0.54218
# Poissons Ratio (z) = 0.47417 0.42642
#
# Static dielectric constant tensor:
#      x y z
#    x 1.637640 0.000000 0.000000 
#    y 0.000000 1.651780 0.000000 
#    z 0.000000 0.000000 1.706840 
# 
# From -- ./inp_files/17936.got.cif
#   From: 2010.05.17/outbox.cif.g08.bks.cpg/sg57_9_cif.got.tgz:17936.got - 2010.06.03 13:58:18.
