data_PCOD9436189
_publ_section_title
;
Structure prediction by ZEFSAII (Michael W. Deem and Ramdas Pophale) SiO2 
 PCOD9436189
Probable space group: P B C M
;
_chemical_formula_sum "Si O2"
_cell_formula_units_Z 56
_cell_length_a 31.541058
_cell_length_b 5.050170
_cell_length_c 16.276277
_cell_angle_alpha 90.000000
_cell_angle_beta 90.000000
_cell_angle_gamma 90.000000
_cell_volume 2592.610807
_symmetry_space_group_name_H-M "P B C M"
_symmetry_group_IT_number 57
_symmetry_cell_setting 'orthorhombic'
loop_
_space_group_symop_operation_xyz
x,y,z
-x,-y,1/2+z
x,1/2-y,-z
-x,1/2+y,1/2-z
-x,-y,-z
x,y,1/2-z
-x,1/2+y,z
x,1/2-y,1/2+z
loop_
_atom_site_type_symbol
_atom_site_label
_atom_site_fract_x
_atom_site_fract_y
_atom_site_fract_z
Si Si1 0.192111 0.264558 0.600023
Si Si2 0.335636 0.867583 0.843624
Si Si3 0.241153 0.736973 0.099667
Si Si4 0.473073 0.220821 0.348837
Si Si5 0.379246 0.134266 0.410319
Si Si6 0.027034 0.702162 0.651868
Si Si7 0.108864 0.503025 0.943813
O O1 0.193205 0.250000 0.500000
O O2 0.227277 0.473257 0.628307
O O3 0.145856 0.387715 0.614917
O O4 0.205570 0.974162 0.627318
O O5 0.340485 0.780069 0.750000
O O6 0.286775 0.851910 0.869494
O O7 0.362070 0.660425 0.898173
O O8 0.353911 0.161553 0.852675
O O9 0.242539 0.750000 0.000000
O O10 0.466936 0.208159 0.250000
O O11 0.490619 0.509309 0.370326
O O12 0.428864 0.151351 0.390227
O O13 0.371079 0.250000 0.500000
O O14 0.034360 0.686042 0.750000
O O15 0.068836 0.617196 0.604113
O O16 0.010367 0.994241 0.631751
O O17 0.096866 0.250000 0.000000
O O18 0.125321 0.750000 0.000000
#
# Coordination Sequence:
#
# PCOD9436189 Si02
#       7
#     8   8   8   8   8   8   8
#     4   9  18  33  55  82 112 146 184 234 289 344
#     4  12  25  42  63  91 126 161 202 254 309 359
#     4  10  19  35  58  82 112 151 193 232 284 351
#     4  10  21  38  61  89 123 162 200 244 305 365
#     4  12  25  42  65  93 125 162 208 255 302 361
#     4  10  22  39  56  78 113 154 192 235 294 354
#     4  11  21  35  58  87 115 146 193 243 289 344
#
# _framework density 21.599848000000001
#
# number of rings (size 3 to 8) (size 9 to 14) (size 15 to 20)
#    0.000    1.429    0.000    7.286    0.000    4.571 
#    0.000    1.429    0.000    0.000    0.000    1.000 
#    0.000    0.000    0.000    0.000    0.000    0.000 
#
# Total GULP energy -313160.040658 kJ/mol
# GULP energy per Si atom -5592.143583 kJ/mol
# Density = 2.155069 g / cm^3
# Si number density = 21.599848 Si / 1000 Ang^3
#
#
#
# Elastic Constant Matrix: (Units=GPa)
#
#
# Indices 1 2 3 4 5 6 
#
# 1 72.9665 -17.4598 11.1174 0.0000 0.0000 0.0000
# 2 -17.4598 74.1697 4.5408 0.0000 0.0000 0.0000
# 3 11.1174 4.5408 32.6083 0.0000 0.0000 0.0000
# 4 0.0000 0.0000 0.0000 17.9320 0.0000 0.0000
# 5 0.0000 0.0000 0.0000 0.0000 51.5741 0.0000
# 6 0.0000 0.0000 0.0000 0.0000 0.0000 44.9255
#
#
#
# Elastic Compliance Matrix: (Units=1/GPa)
#
#
# Indices 1 2 3 4 5 6 
#
# 1 0.015561 0.004022 -0.005865 0.000000 0.000000 0.000000
# 2 0.004022 0.014638 -0.003410 0.000000 0.000000 0.000000
# 3 -0.005865 -0.003410 0.033142 0.000000 0.000000 0.000000
# 4 0.000000 0.000000 0.000000 0.055766 0.000000 0.000000
# 5 0.000000 0.000000 0.000000 0.000000 0.019390 0.000000
# 6 0.000000 0.000000 0.000000 0.000000 0.000000 0.022259
#
#
# Mechanical properties :
#
#
# Convention : Reuss Voigt Hill
#
# Bulk Modulus (GPa) = 18.92690 19.57127 19.24908
# Shear Modulus (GPa) = 26.47278 34.98940 30.73109
#
# Velocity S-wave (km/s) = 3.50466 4.02915 3.77602
# Velocity P-wave (km/s) = 5.01581 5.54310 5.28603
#
# Compressibility (1/GPa) = 0.05283485
#
# Stress axis : x y z
#
# Youngs Moduli (GPa) = 64.26293 68.31444 30.17357
#
# Poissons Ratio (x) = -0.27478 0.17698
# Poissons Ratio (y) = -0.25848 0.10288
# Poissons Ratio (z) = 0.37693 0.23294
#
# Static dielectric constant tensor:
#      x y z
#    x 1.758950 0.000000 0.000000 
#    y 0.000000 1.752630 0.000000 
#    z 0.000000 0.000000 1.803380 
# 
# From -- ./inp_files/19646.got.cif
#   From: 2010.05.17/outbox.cif.g08.bks.cpg/sg57_10_cif.got.tgz:19646.got - 2010.06.03 13:58:18.
