data_PCOD9436589
_publ_section_title
;
Structure prediction by ZEFSAII (Michael W. Deem and Ramdas Pophale) SiO2 
 PCOD9436589
Probable space group: P B C M
;
_chemical_formula_sum "Si O2"
_cell_formula_units_Z 64
_cell_length_a 14.969428
_cell_length_b 28.650898
_cell_length_c 8.603297
_cell_angle_alpha 90.000000
_cell_angle_beta 90.000000
_cell_angle_gamma 90.000000
_cell_volume 3689.847013
_symmetry_space_group_name_H-M "P B C M"
_symmetry_group_IT_number 57
_symmetry_cell_setting 'orthorhombic'
loop_
_space_group_symop_operation_xyz
x,y,z
-x,-y,1/2+z
x,1/2-y,-z
-x,1/2+y,1/2-z
-x,-y,-z
x,y,1/2-z
-x,1/2+y,z
x,1/2-y,1/2+z
loop_
_atom_site_type_symbol
_atom_site_label
_atom_site_fract_x
_atom_site_fract_y
_atom_site_fract_z
Si Si1 0.529395 0.384722 0.062358
Si Si2 0.854581 0.029336 0.938056
Si Si3 0.026526 0.884293 0.436452
Si Si4 0.655276 0.924701 0.064118
Si Si5 0.851720 0.923226 0.563812
Si Si6 0.647935 0.301578 0.564134
Si Si7 0.351037 0.527333 0.562450
Si Si8 0.852607 0.198240 0.063532
O O1 0.532933 0.382774 0.250000
O O2 0.426359 0.391441 0.015961
O O3 0.583353 0.431340 0.014518
O O4 0.579215 0.339866 0.996611
O O5 0.860100 0.028766 0.750000
O O6 0.920603 0.069398 0.994590
O O7 0.751526 0.040126 0.977455
O O8 0.873215 0.976465 0.991415
O O9 0.028323 0.883966 0.250000
O O10 0.078957 0.839508 0.498202
O O11 0.925472 0.889080 0.494518
O O12 0.664105 0.923130 0.250000
O O13 0.750570 0.913448 0.988440
O O14 0.630165 0.977509 0.014468
O O15 0.855908 0.922563 0.750000
O O16 0.628435 0.250000 0.500000
O O17 0.645670 0.300249 0.750000
O O18 0.750181 0.313637 0.515874
O O19 0.355829 0.521770 0.750000
O O20 0.856515 0.198695 0.250000
O O21 0.871371 0.250000 0.000000
#
# Coordination Sequence:
#
# PCOD9436589 Si02
#       8
#     8   8   8   8   8   8   8   8
#     4  10  20  33  52  76 104 136 173 215 258 304
#     4   8  16  29  47  72 102 135 170 205 248 298
#     4  11  20  32  53  78 103 135 172 212 256 305
#     4  10  20  33  49  73 103 137 176 218 259 302
#     4  10  20  35  51  70 101 140 178 217 256 300
#     4  10  21  36  56  80 107 136 168 206 252 305
#     4   9  17  31  49  72 104 140 172 207 253 305
#     4  10  21  37  55  79 107 135 166 204 250 303
#
# _framework density 17.344892000000002
#
# number of rings (size 3 to 8) (size 9 to 14) (size 15 to 20)
#    0.000    2.250    0.000    4.125    0.000    4.000 
#    0.000    6.875    0.000    0.750    0.000    1.750 
#    0.000    0.000    0.000    0.000    0.000    0.000 
#
# Total GULP energy -357252.578482 kJ/mol
# GULP energy per Si atom -5582.071539 kJ/mol
# Density = 1.730541 g / cm^3
# Si number density = 17.344892 Si / 1000 Ang^3
#
#
#
# Elastic Constant Matrix: (Units=GPa)
#
#
# Indices 1 2 3 4 5 6 
#
# 1 131.3569 100.0701 39.5001 0.0000 0.0000 0.0000
# 2 100.0701 102.2625 34.5939 0.0000 0.0000 0.0000
# 3 39.5001 34.5939 42.3050 0.0000 0.0000 0.0000
# 4 0.0000 0.0000 0.0000 26.0060 0.0000 0.0000
# 5 0.0000 0.0000 0.0000 0.0000 23.1552 0.0000
# 6 0.0000 0.0000 0.0000 0.0000 0.0000 31.7530
#
#
#
# Elastic Compliance Matrix: (Units=1/GPa)
#
#
# Indices 1 2 3 4 5 6 
#
# 1 0.030874 -0.028284 -0.005698 0.000000 0.000000 0.000000
# 2 -0.028284 0.039430 -0.005834 0.000000 0.000000 0.000000
# 3 -0.005698 -0.005834 0.033729 0.000000 0.000000 0.000000
# 4 0.000000 0.000000 0.000000 0.038453 0.000000 0.000000
# 5 0.000000 0.000000 0.000000 0.000000 0.043187 0.000000
# 6 0.000000 0.000000 0.000000 0.000000 0.000000 0.031493
#
#
# Mechanical properties :
#
#
# Convention : Reuss Voigt Hill
#
# Bulk Modulus (GPa) = 40.98365 69.36142 55.17253
# Shear Modulus (GPa) = 16.39708 22.96686 19.68197
#
# Velocity S-wave (km/s) = 3.07800 3.64280 3.37225
# Velocity P-wave (km/s) = 6.02595 7.60064 6.85864
#
# Compressibility (1/GPa) = 0.02439998
#
# Stress axis : x y z
#
# Youngs Moduli (GPa) = 32.38980 25.36111 29.64824
#
# Poissons Ratio (x) = 0.71733 0.16894
# Poissons Ratio (y) = 0.91613 0.17297
# Poissons Ratio (z) = 0.18456 0.14796
#
# Static dielectric constant tensor:
#      x y z
#    x 1.592840 0.000000 0.000000 
#    y 0.000000 1.562220 0.000000 
#    z 0.000000 0.000000 1.582340 
# 
# From -- ./inp_files/5596.got.cif
#   From: 2010.05.17/outbox.cif.g08.bks.cpg/sg57_3_cif.got.tgz:5596.got - 2010.06.03 13:58:18.
