data_PCOD9436718
_publ_section_title
;
Structure prediction by ZEFSAII (Michael W. Deem and Ramdas Pophale) SiO2 
 PCOD9436718
Probable space group: P B C M
;
_chemical_formula_sum "Si O2"
_cell_formula_units_Z 64
_cell_length_a 14.831078
_cell_length_b 26.311864
_cell_length_c 8.349551
_cell_angle_alpha 90.000000
_cell_angle_beta 90.000000
_cell_angle_gamma 90.000000
_cell_volume 3258.272901
_symmetry_space_group_name_H-M "P B C M"
_symmetry_group_IT_number 57
_symmetry_cell_setting 'orthorhombic'
loop_
_space_group_symop_operation_xyz
x,y,z
-x,-y,1/2+z
x,1/2-y,-z
-x,1/2+y,1/2-z
-x,-y,-z
x,y,1/2-z
-x,1/2+y,z
x,1/2-y,1/2+z
loop_
_atom_site_type_symbol
_atom_site_label
_atom_site_fract_x
_atom_site_fract_y
_atom_site_fract_z
Si Si1 0.410663 0.306915 0.941545
Si Si2 0.880718 0.098765 0.057836
Si Si3 0.205661 0.193291 0.056670
Si Si4 0.764717 0.193263 0.557975
Si Si5 0.211587 0.495518 0.556704
Si Si6 0.911591 0.598003 0.054124
Si Si7 0.594778 0.478291 0.056697
Si Si8 0.585388 0.137718 0.942752
O O1 0.411363 0.307743 0.750000
O O2 0.308468 0.318654 0.996171
O O3 0.431732 0.250000 0.000000
O O4 0.487624 0.344007 0.003203
O O5 0.878985 0.097121 0.250000
O O6 0.984704 0.095567 0.003154
O O7 0.834571 0.150861 0.001674
O O8 0.827094 0.050149 0.992424
O O9 0.205641 0.193411 0.250000
O O10 0.137163 0.149893 0.002177
O O11 0.182956 0.250000 0.000000
O O12 0.784396 0.250000 0.500000
O O13 0.765052 0.192845 0.750000
O O14 0.665308 0.174923 0.501094
O O15 0.212094 0.493269 0.750000
O O16 0.147056 0.450274 0.499171
O O17 0.315663 0.491857 0.502423
O O18 0.911156 0.597592 0.250000
O O19 0.594547 0.478809 0.250000
O O20 0.603800 0.419754 0.003041
O O21 0.500000 0.500000 0.000000
O O22 0.587477 0.137905 0.750000
#
# Coordination Sequence:
#
# PCOD9436718 Si02
#       8
#     8   8   8   8   8   8   8   8
#     4  10  20  33  55  82 109 146 186 227 276 334
#     4  11  22  38  60  89 119 150 193 245 294 345
#     4   9  19  37  57  81 114 150 188 231 285 344
#     4  11  23  41  62  86 118 158 199 243 298 356
#     4  10  20  40  64  84 116 157 193 238 293 348
#     4   9  20  37  61  87 113 149 195 242 289 348
#     4  10  22  38  58  86 118 154 190 233 288 344
#     4  10  21  38  57  81 115 150 189 235 284 341
#
# _framework density 19.642309000000001
#
# number of rings (size 3 to 8) (size 9 to 14) (size 15 to 20)
#    0.000    2.000    1.250    1.875    1.750    4.000 
#    0.000    3.750    0.000    0.000    0.000    0.000 
#    0.000    0.000    0.000    0.000    0.000    0.000 
#
# Total GULP energy -357451.140573 kJ/mol
# GULP energy per Si atom -5585.174071 kJ/mol
# Density = 1.959760 g / cm^3
# Si number density = 19.642309 Si / 1000 Ang^3
#
#
#
# Elastic Constant Matrix: (Units=GPa)
#
#
# Indices 1 2 3 4 5 6 
#
# 1 152.5069 77.7608 12.8214 0.0000 0.0000 0.0000
# 2 77.7608 110.8139 5.2938 0.0000 0.0000 0.0000
# 3 12.8214 5.2938 6.4888 0.0000 0.0000 0.0000
# 4 0.0000 0.0000 0.0000 28.5358 0.0000 0.0000
# 5 0.0000 0.0000 0.0000 0.0000 26.9348 0.0000
# 6 0.0000 0.0000 0.0000 0.0000 0.0000 19.1300
#
#
#
# Elastic Compliance Matrix: (Units=1/GPa)
#
#
# Indices 1 2 3 4 5 6 
#
# 1 0.011815 -0.007466 -0.017253 0.000000 0.000000 0.000000
# 2 -0.007466 0.014109 0.003243 0.000000 0.000000 0.000000
# 3 -0.017253 0.003243 0.185557 0.000000 0.000000 0.000000
# 4 0.000000 0.000000 0.000000 0.035044 0.000000 0.000000
# 5 0.000000 0.000000 0.000000 0.000000 0.037127 0.000000
# 6 0.000000 0.000000 0.000000 0.000000 0.000000 0.052274
#
#
# Mechanical properties :
#
#
# Convention : Reuss Voigt Hill
#
# Bulk Modulus (GPa) = 5.93381 51.28463 28.60922
# Shear Modulus (GPa) = 11.49285 26.51571 19.00428
#
# Velocity S-wave (km/s) = 2.42152 3.67812 3.11387
# Velocity P-wave (km/s) = 3.29330 6.64861 5.24642
#
# Compressibility (1/GPa) = 0.16852588
#
# Stress axis : x y z
#
# Youngs Moduli (GPa) = 84.64141 70.87918 5.38919
#
# Poissons Ratio (x) = 0.52921 0.09298
# Poissons Ratio (y) = 0.63196 -0.01748
# Poissons Ratio (z) = 1.46035 -0.22984
#
# Static dielectric constant tensor:
#      x y z
#    x 1.689460 0.000000 0.000000 
#    y 0.000000 1.660650 0.000000 
#    z 0.000000 0.000000 1.677470 
# 
# From -- ./inp_files/5616.got.cif
#   From: 2010.05.17/outbox.cif.g08.bks.cpg/sg57_3_cif.got.tgz:5616.got - 2010.06.03 13:58:18.
