data_PCOD9436822
_publ_section_title
;
Structure prediction by ZEFSAII (Michael W. Deem and Ramdas Pophale) SiO2 
 PCOD9436822
Probable space group: P B C M
;
_chemical_formula_sum "Si O2"
_cell_formula_units_Z 40
_cell_length_a 11.857121
_cell_length_b 22.286564
_cell_length_c 8.623748
_cell_angle_alpha 90.000000
_cell_angle_beta 90.000000
_cell_angle_gamma 90.000000
_cell_volume 2278.864095
_symmetry_space_group_name_H-M "P B C M"
_symmetry_group_IT_number 57
_symmetry_cell_setting 'orthorhombic'
loop_
_space_group_symop_operation_xyz
x,y,z
-x,-y,1/2+z
x,1/2-y,-z
-x,1/2+y,1/2-z
-x,-y,-z
x,y,1/2-z
-x,1/2+y,z
x,1/2-y,1/2+z
loop_
_atom_site_type_symbol
_atom_site_label
_atom_site_fract_x
_atom_site_fract_y
_atom_site_fract_z
Si Si1 0.522352 0.183896 0.937449
Si Si2 0.173567 0.460962 0.565596
Si Si3 0.217218 0.685919 0.936635
Si Si4 0.423105 0.054776 0.935630
Si Si5 0.045832 0.915105 0.436639
O O1 0.516471 0.187040 0.750000
O O2 0.653389 0.175020 0.985116
O O3 0.459968 0.122377 0.986910
O O4 0.486308 0.250000 0.000000
O O5 0.189696 0.458376 0.750000
O O6 0.293791 0.454621 0.485143
O O7 0.114827 0.524392 0.525569
O O8 0.077419 0.414623 0.511691
O O9 0.217427 0.685401 0.750000
O O10 0.127307 0.637599 0.990027
O O11 0.183746 0.750000 0.000000
O O12 0.433907 0.053337 0.750000
O O13 0.500000 0.000000 0.000000
O O14 0.032609 0.913398 0.250000
#
# Coordination Sequence:
#
# PCOD9436822 Si02
#       5
#     8   8   8   8   8
#     4   9  19  35  54  77 106 139 174 215 262 312
#     4  10  20  34  53  77 103 132 170 213 258 308
#     4   9  17  31  51  74 100 129 164 206 251 299
#     4  11  22  36  55  80 109 140 177 219 264 314
#     4   9  18  34  53  73 102 135 165 205 257 308
#
# _framework density 17.552605
#
# number of rings (size 3 to 8) (size 9 to 14) (size 15 to 20)
#    0.000    2.400    0.000    2.400    0.000    6.400 
#    0.000    5.000    0.000    0.000    0.000    0.000 
#    0.000    0.000    0.000    0.000    0.000    0.000 
#
# Total GULP energy -222933.020148 kJ/mol
# GULP energy per Si atom -5573.325504 kJ/mol
# Density = 1.751265 g / cm^3
# Si number density = 17.552605 Si / 1000 Ang^3
#
#
#
# Elastic Constant Matrix: (Units=GPa)
#
#
# Indices 1 2 3 4 5 6 
#
# 1 120.0383 81.2318 32.8417 0.0000 0.0000 0.0000
# 2 81.2318 118.4785 34.8826 0.0000 0.0000 0.0000
# 3 32.8417 34.8826 21.1743 0.0000 0.0000 0.0000
# 4 0.0000 0.0000 0.0000 29.2718 0.0000 0.0000
# 5 0.0000 0.0000 0.0000 0.0000 30.3908 0.0000
# 6 0.0000 0.0000 0.0000 0.0000 0.0000 43.4862
#
#
#
# Elastic Compliance Matrix: (Units=1/GPa)
#
#
# Indices 1 2 3 4 5 6 
#
# 1 0.017532 -0.007795 -0.014350 0.000000 0.000000 0.000000
# 2 -0.007795 0.019856 -0.020620 0.000000 0.000000 0.000000
# 3 -0.014350 -0.020620 0.103455 0.000000 0.000000 0.000000
# 4 0.000000 0.000000 0.000000 0.034163 0.000000 0.000000
# 5 0.000000 0.000000 0.000000 0.000000 0.032905 0.000000
# 6 0.000000 0.000000 0.000000 0.000000 0.000000 0.022996
#
#
# Mechanical properties :
#
#
# Convention : Reuss Voigt Hill
#
# Bulk Modulus (GPa) = 18.07969 61.95593 40.01781
# Shear Modulus (GPa) = 14.93096 28.01209 21.47153
#
# Velocity S-wave (km/s) = 2.91974 3.99920 3.50132
# Velocity P-wave (km/s) = 4.65716 7.52985 6.26050
#
# Compressibility (1/GPa) = 0.05531069
#
# Stress axis : x y z
#
# Youngs Moduli (GPa) = 57.03820 50.36246 9.66608
#
# Poissons Ratio (x) = 0.39259 0.13871
# Poissons Ratio (y) = 0.44463 0.19932
# Poissons Ratio (z) = 0.81852 1.03848
#
# Static dielectric constant tensor:
#      x y z
#    x 1.580440 0.000000 0.000000 
#    y 0.000000 1.614220 0.000000 
#    z 0.000000 0.000000 1.605800 
# 
# From -- ./inp_files/1498.got.cif
#   From: 2010.05.17/outbox.cif.g08.bks.cpg/sg57_1_cif.got.tgz:1498.got - 2010.06.03 13:58:18.
