data_PCOD9436523
_publ_section_title
;
Structure prediction by ZEFSAII (Michael W. Deem and Ramdas Pophale) SiO2 
 PCOD9436523
Probable space group: P B C M
;
_chemical_formula_sum "Si O2"
_cell_formula_units_Z 56
_cell_length_a 20.823469
_cell_length_b 15.117380
_cell_length_c 8.583690
_cell_angle_alpha 90.000000
_cell_angle_beta 90.000000
_cell_angle_gamma 90.000000
_cell_volume 2702.113799
_symmetry_space_group_name_H-M "P B C M"
_symmetry_group_IT_number 57
_symmetry_cell_setting 'orthorhombic'
loop_
_space_group_symop_operation_xyz
x,y,z
-x,-y,1/2+z
x,1/2-y,-z
-x,1/2+y,1/2-z
-x,-y,-z
x,y,1/2-z
-x,1/2+y,z
x,1/2-y,1/2+z
loop_
_atom_site_type_symbol
_atom_site_label
_atom_site_fract_x
_atom_site_fract_y
_atom_site_fract_z
Si Si1 0.630783 0.061800 0.428115
Si Si2 0.768076 0.032400 0.063535
Si Si3 0.091555 0.529701 0.438378
Si Si4 0.031086 0.351474 0.937268
Si Si5 0.614130 0.886082 0.574826
Si Si6 0.243599 0.161363 0.074411
Si Si7 0.518628 0.336322 0.432126
O O1 0.623478 0.092694 0.250000
O O2 0.702544 0.079748 0.493336
O O3 0.570081 0.089150 0.529944
O O4 0.626892 0.956138 0.438938
O O5 0.763781 0.038423 0.250000
O O6 0.838111 0.064185 0.012851
O O7 0.767428 0.929258 0.016439
O O8 0.090121 0.521900 0.250000
O O9 0.078776 0.430392 0.504334
O O10 0.037047 0.601258 0.482578
O O11 0.034868 0.346855 0.750000
O O12 0.038056 0.250000 0.000000
O O13 0.609376 0.925368 0.750000
O O14 0.678718 0.829216 0.581722
O O15 0.546206 0.844646 0.532050
O O16 0.219628 0.150900 0.250000
O O17 0.215983 0.250000 0.000000
O O18 0.552846 0.250000 0.500000
O O19 0.504349 0.331374 0.250000
#
# Coordination Sequence:
#
# PCOD9436523 Si02
#       7
#     8   8   8   8   8   8   8
#     4  10  20  36  56  77 102 134 171 211 259 314
#     4   9  19  36  57  77 103 140 178 217 261 311
#     4   9  19  37  59  84 114 148 187 228 269 316
#     4  10  20  35  58  87 118 150 184 224 270 319
#     4  10  20  35  54  76 101 132 171 216 266 320
#     4  10  20  32  49  74 105 138 175 219 268 323
#     4  12  24  37  53  74 100 131 170 218 269 317
#
# _framework density 20.724515
#
# number of rings (size 3 to 8) (size 9 to 14) (size 15 to 20)
#    0.000    2.000    0.000    3.857    0.000    5.143 
#    0.000    0.714    0.000    1.714    0.000    0.000 
#    0.000    0.000    0.000    0.000    0.000    0.000 
#
# Total GULP energy -311892.070775 kJ/mol
# GULP energy per Si atom -5569.501264 kJ/mol
# Density = 2.067734 g / cm^3
# Si number density = 20.724515 Si / 1000 Ang^3
#
#
#
# Elastic Constant Matrix: (Units=GPa)
#
#
# Indices 1 2 3 4 5 6 
#
# 1 87.5211 -6.0206 10.9421 0.0000 0.0000 0.0000
# 2 -6.0206 36.1001 3.6847 0.0000 0.0000 0.0000
# 3 10.9421 3.6847 46.3589 0.0000 0.0000 0.0000
# 4 0.0000 0.0000 0.0000 23.1840 0.0000 0.0000
# 5 0.0000 0.0000 0.0000 0.0000 12.9989 0.0000
# 6 0.0000 0.0000 0.0000 0.0000 0.0000 1.5225
#
#
#
# Elastic Compliance Matrix: (Units=1/GPa)
#
#
# Indices 1 2 3 4 5 6 
#
# 1 0.011960 0.002301 -0.003006 0.000000 0.000000 0.000000
# 2 0.002301 0.028370 -0.002798 0.000000 0.000000 0.000000
# 3 -0.003006 -0.002798 0.022503 0.000000 0.000000 0.000000
# 4 0.000000 0.000000 0.000000 0.043133 0.000000 0.000000
# 5 0.000000 0.000000 0.000000 0.000000 0.076929 0.000000
# 6 0.000000 0.000000 0.000000 0.000000 0.000000 0.656829
#
#
# Mechanical properties :
#
#
# Convention : Reuss Voigt Hill
#
# Bulk Modulus (GPa) = 17.91226 20.79919 19.35573
# Shear Modulus (GPa) = 5.77808 18.29933 12.03871
#
# Velocity S-wave (km/s) = 1.67155 2.97472 2.41278
# Velocity P-wave (km/s) = 3.51955 4.67509 4.13786
#
# Compressibility (1/GPa) = 0.05582769
#
# Stress axis : x y z
#
# Youngs Moduli (GPa) = 83.61253 35.24824 44.43914
#
# Poissons Ratio (x) = -0.08112 0.13358
# Poissons Ratio (y) = -0.19243 0.12435
# Poissons Ratio (z) = 0.25133 0.09863
#
# Static dielectric constant tensor:
#      x y z
#    x 1.832870 0.000000 0.000000 
#    y 0.000000 1.831430 0.000000 
#    z 0.000000 0.000000 1.722670 
# 
# From -- ./inp_files/8164.got.cif
#   From: 2010.05.17/outbox.cif.g08.bks.cpg/sg57_5_cif.got.tgz:8164.got - 2010.06.03 13:58:18.
