data_PCOD9436878
_publ_section_title
;
Structure prediction by ZEFSAII (Michael W. Deem and Ramdas Pophale) SiO2 
 PCOD9436878
Probable space group: P B C M
;
_chemical_formula_sum "Si O2"
_cell_formula_units_Z 64
_cell_length_a 22.584651
_cell_length_b 16.559593
_cell_length_c 8.777945
_cell_angle_alpha 90.000000
_cell_angle_beta 90.000000
_cell_angle_gamma 90.000000
_cell_volume 3282.886724
_symmetry_space_group_name_H-M "P B C M"
_symmetry_group_IT_number 57
_symmetry_cell_setting 'orthorhombic'
loop_
_space_group_symop_operation_xyz
x,y,z
-x,-y,1/2+z
x,1/2-y,-z
-x,1/2+y,1/2-z
-x,-y,-z
x,y,1/2-z
-x,1/2+y,z
x,1/2-y,1/2+z
loop_
_atom_site_type_symbol
_atom_site_label
_atom_site_fract_x
_atom_site_fract_y
_atom_site_fract_z
Si Si1 0.553022 0.163512 0.068351
Si Si2 0.779492 0.832266 0.574912
Si Si3 0.087657 0.117910 0.424963
Si Si4 0.412136 0.163809 0.431814
Si Si5 0.117766 0.546558 0.072544
Si Si6 0.032675 0.671574 0.928497
Si Si7 0.249243 0.503801 0.430969
Si Si8 0.372847 0.984433 0.067918
O O1 0.561422 0.164856 0.250000
O O2 0.482603 0.157994 0.036780
O O3 0.573512 0.250000 0.000000
O O4 0.584679 0.084287 0.000994
O O5 0.758017 0.750000 0.500000
O O6 0.759767 0.839524 0.750000
O O7 0.851375 0.832299 0.574468
O O8 0.760166 0.911385 0.483963
O O9 0.079714 0.089312 0.250000
O O10 0.028574 0.160777 0.480276
O O11 0.098433 0.045036 0.541125
O O12 0.391286 0.250000 0.500000
O O13 0.403406 0.168326 0.250000
O O14 0.385369 0.077495 0.484697
O O15 0.108970 0.567497 0.250000
O O16 0.187519 0.549346 0.035108
O O17 0.076125 0.598620 0.965525
O O18 0.021248 0.679441 0.750000
O O19 0.062730 0.750000 0.000000
O O20 0.258586 0.506687 0.250000
O O21 0.306129 0.536031 0.518346
O O22 0.379348 0.983874 0.250000
#
# Coordination Sequence:
#
# PCOD9436878 Si02
#       8
#     8   8   8   8   8   8   8   8
#     4  10  20  37  60  87 118 152 193 238 287 339
#     4  10  20  34  54  79 109 145 183 226 276 330
#     4  10  20  35  56  82 110 140 176 217 266 325
#     4   9  20  36  57  87 122 158 192 231 280 336
#     4  10  21  39  59  78 104 139 179 221 269 323
#     4  12  24  37  55  80 109 138 172 217 271 327
#     4  10  22  39  58  79 106 144 189 233 276 327
#     4  11  22  37  58  86 119 154 194 239 286 337
#
# _framework density 19.495038999999998
#
# number of rings (size 3 to 8) (size 9 to 14) (size 15 to 20)
#    0.000    1.750    0.000    4.500    0.000    6.000 
#    0.000    1.875    0.000    3.000    0.000    0.000 
#    0.000    0.000    0.000    0.000    0.000    0.000 
#
# Total GULP energy -357360.699658 kJ/mol
# GULP energy per Si atom -5583.760932 kJ/mol
# Density = 1.945067 g / cm^3
# Si number density = 19.495039 Si / 1000 Ang^3
#
#
#
# Elastic Constant Matrix: (Units=GPa)
#
#
# Indices 1 2 3 4 5 6 
#
# 1 66.5342 27.2512 28.3139 0.0000 0.0000 0.0000
# 2 27.2512 63.6854 13.4656 0.0000 0.0000 0.0000
# 3 28.3139 13.4656 59.8390 0.0000 0.0000 0.0000
# 4 0.0000 0.0000 0.0000 34.4822 0.0000 0.0000
# 5 0.0000 0.0000 0.0000 0.0000 19.7844 0.0000
# 6 0.0000 0.0000 0.0000 0.0000 0.0000 -9.9057
#
#
#
# Elastic Compliance Matrix: (Units=1/GPa)
#
#
# Indices 1 2 3 4 5 6 
#
# 1 0.021763 -0.007492 -0.008612 0.000000 0.000000 0.000000
# 2 -0.007492 0.019066 -0.000746 0.000000 0.000000 0.000000
# 3 -0.008612 -0.000746 0.020954 0.000000 0.000000 0.000000
# 4 0.000000 0.000000 0.000000 0.029000 0.000000 0.000000
# 5 0.000000 0.000000 0.000000 0.000000 0.050545 0.000000
# 6 0.000000 0.000000 0.000000 0.000000 0.000000 -0.100952
#
#
# Mechanical properties :
#
#
# Convention : Reuss Voigt Hill
#
# Bulk Modulus (GPa) = 35.60636 36.45778 36.03207
# Shear Modulus (GPa) = 59.92702 16.94073 38.43387
#
# Velocity S-wave (km/s) = 5.55035 2.95104 4.44494
# Velocity P-wave (km/s) = 7.70578 5.50937 6.69822
#
# Compressibility (1/GPa) = 0.02808487
#
# Stress axis : x y z
#
# Youngs Moduli (GPa) = 45.94943 52.45068 47.72348
#
# Poissons Ratio (x) = 0.39294 0.41098
# Poissons Ratio (y) = 0.34424 0.03558
# Poissons Ratio (z) = 0.39570 0.03910
#
# Static dielectric constant tensor:
#      x y z
#    x 1.689820 0.000000 0.000000 
#    y 0.000000 1.708110 0.000000 
#    z 0.000000 0.000000 1.570740 
# 
# From -- ./inp_files/9500.got.cif
#   From: 2010.05.17/outbox.cif.g08.bks.cpg/sg57_5_cif.got.tgz:9500.got - 2010.06.03 13:58:18.
