data_PCOD9436643
_publ_section_title
;
Structure prediction by ZEFSAII (Michael W. Deem and Ramdas Pophale) SiO2 
 PCOD9436643
Probable space group: P B C M
;
_chemical_formula_sum "Si O2"
_cell_formula_units_Z 64
_cell_length_a 8.714976
_cell_length_b 17.515558
_cell_length_c 22.682919
_cell_angle_alpha 90.000000
_cell_angle_beta 90.000000
_cell_angle_gamma 90.000000
_cell_volume 3462.494680
_symmetry_space_group_name_H-M "P B C M"
_symmetry_group_IT_number 57
_symmetry_cell_setting 'orthorhombic'
loop_
_space_group_symop_operation_xyz
x,y,z
-x,-y,1/2+z
x,1/2-y,-z
-x,1/2+y,1/2-z
-x,-y,-z
x,y,1/2-z
-x,1/2+y,z
x,1/2-y,1/2+z
loop_
_atom_site_type_symbol
_atom_site_label
_atom_site_fract_x
_atom_site_fract_y
_atom_site_fract_z
Si Si1 0.677555 0.841047 0.415032
Si Si2 0.440336 0.049818 0.089831
Si Si3 0.997946 0.770886 0.405071
Si Si4 0.868543 0.147266 0.020193
Si Si5 0.480732 0.572565 0.817977
Si Si6 0.739206 0.212431 0.817966
Si Si7 0.262298 0.009360 0.983132
Si Si8 0.442551 0.712526 0.076136
O O1 0.605519 0.885167 0.359290
O O2 0.746217 0.904829 0.458986
O O3 0.542560 0.787284 0.441324
O O4 0.821165 0.789636 0.398268
O O5 0.446929 0.140755 0.087673
O O6 0.449116 0.009186 0.152647
O O7 0.590711 0.022744 0.053130
O O8 0.302158 0.015318 0.051852
O O9 0.077761 0.823827 0.456019
O O10 0.022708 0.686712 0.431757
O O11 0.092366 0.783503 0.345666
O O12 0.698482 0.181619 0.035706
O O13 0.863078 0.056197 0.025305
O O14 0.527738 0.567426 0.750000
O O15 0.332089 0.627467 0.821468
O O16 0.732522 0.236720 0.750000
O O17 0.637107 0.263598 0.862087
#
# Coordination Sequence:
#
# PCOD9436643 Si02
#       8
#     8   8   8   8   8   8   8   8
#     4  10  21  34  52  81 107 134 175 224 272 313
#     4   9  17  29  51  79 100 128 170 218 266 310
#     4  10  20  33  51  76 106 138 178 220 266 318
#     4   9  19  35  51  71 104 144 176 211 259 325
#     4   9  18  34  54  75 100 132 173 217 260 312
#     4   9  18  33  52  71  96 136 177 210 257 321
#     4   9  18  32  50  74 105 137 173 212 265 323
#     4   9  19  34  53  75 102 135 174 220 263 311
#
# _framework density 18.483782000000001
#
# number of rings (size 3 to 8) (size 9 to 14) (size 15 to 20)
#    0.000    2.750    0.000    0.750    0.000   15.000 
#    0.000    1.250    0.000    0.000    0.000    5.250 
#    0.000    0.000    0.000    0.000    0.000    0.000 
#
# Total GULP energy -356712.187953 kJ/mol
# GULP energy per Si atom -5573.627937 kJ/mol
# Density = 1.844171 g / cm^3
# Si number density = 18.483782 Si / 1000 Ang^3
#
#
#
# Elastic Constant Matrix: (Units=GPa)
#
#
# Indices 1 2 3 4 5 6 
#
# 1 48.9671 19.8508 15.3774 0.0000 0.0000 0.0000
# 2 19.8508 94.9061 18.5197 0.0000 0.0000 0.0000
# 3 15.3774 18.5197 84.3865 0.0000 0.0000 0.0000
# 4 0.0000 0.0000 0.0000 19.6333 0.0000 0.0000
# 5 0.0000 0.0000 0.0000 0.0000 9.6890 0.0000
# 6 0.0000 0.0000 0.0000 0.0000 0.0000 20.2504
#
#
#
# Elastic Compliance Matrix: (Units=1/GPa)
#
#
# Indices 1 2 3 4 5 6 
#
# 1 0.023161 -0.004201 -0.003299 0.000000 0.000000 0.000000
# 2 -0.004201 0.011770 -0.001818 0.000000 0.000000 0.000000
# 3 -0.003299 -0.001818 0.012850 0.000000 0.000000 0.000000
# 4 0.000000 0.000000 0.000000 0.050934 0.000000 0.000000
# 5 0.000000 0.000000 0.000000 0.000000 0.103210 0.000000
# 6 0.000000 0.000000 0.000000 0.000000 0.000000 0.049382
#
#
# Mechanical properties :
#
#
# Convention : Reuss Voigt Hill
#
# Bulk Modulus (GPa) = 34.30862 37.30616 35.80739
# Shear Modulus (GPa) = 17.87913 21.54867 19.71390
#
# Velocity S-wave (km/s) = 3.11350 3.41811 3.26935
# Velocity P-wave (km/s) = 5.61488 5.98372 5.80224
#
# Compressibility (1/GPa) = 0.02914720
#
# Stress axis : x y z
#
# Youngs Moduli (GPa) = 43.17672 84.96151 77.81970
#
# Poissons Ratio (x) = 0.35689 0.25669
# Poissons Ratio (y) = 0.18137 0.14145
# Poissons Ratio (z) = 0.14242 0.15443
#
# Static dielectric constant tensor:
#      x y z
#    x 1.651260 0.000000 0.000000 
#    y 0.000000 1.676090 0.000000 
#    z 0.000000 0.000000 1.626760 
# 
# From -- ./inp_files/26953.got.cif
#   From: 2010.05.17/outbox.cif.g08.bks.cpg/sg57_14_cif.got.tgz:26953.got - 2010.06.03 13:58:18.
