data_PCOD9436263
_publ_section_title
;
Structure prediction by ZEFSAII (Michael W. Deem and Ramdas Pophale) SiO2 
 PCOD9436263
Probable space group: P B C M
;
_chemical_formula_sum "Si O2"
_cell_formula_units_Z 48
_cell_length_a 10.282306
_cell_length_b 14.259908
_cell_length_c 16.108824
_cell_angle_alpha 90.000000
_cell_angle_beta 90.000000
_cell_angle_gamma 90.000000
_cell_volume 2361.952092
_symmetry_space_group_name_H-M "P B C M"
_symmetry_group_IT_number 57
_symmetry_cell_setting 'orthorhombic'
loop_
_space_group_symop_operation_xyz
x,y,z
-x,-y,1/2+z
x,1/2-y,-z
-x,1/2+y,1/2-z
-x,-y,-z
x,y,1/2-z
-x,1/2+y,z
x,1/2-y,1/2+z
loop_
_atom_site_type_symbol
_atom_site_label
_atom_site_fract_x
_atom_site_fract_y
_atom_site_fract_z
Si Si1 0.735289 0.195876 0.149500
Si Si2 0.095382 0.378845 0.079047
Si Si3 0.606251 0.391483 0.350436
Si Si4 0.865003 0.012575 0.842381
Si Si5 0.339686 0.012410 0.649225
Si Si6 0.962038 0.820341 0.608017
O O1 0.750031 0.201399 0.250000
O O2 0.658460 0.289394 0.121481
O O3 0.881396 0.188770 0.113166
O O4 0.660492 0.098901 0.130741
O O5 0.215660 0.442014 0.105204
O O6 0.965000 0.434931 0.099163
O O7 0.094769 0.281189 0.129099
O O8 0.085258 0.349730 0.983615
O O9 0.596042 0.385824 0.250000
O O10 0.718882 0.466651 0.370102
O O11 0.468028 0.431427 0.378580
O O12 0.878513 0.054379 0.750000
O O13 0.907366 0.905280 0.838740
O O14 0.325967 0.020759 0.750000
#
# Coordination Sequence:
#
# PCOD9436263 Si02
#       6
#     8   8   8   8   8   8
#     4  10  19  35  61  89 119 159 203 245 299 357
#     4  11  23  38  59  85 122 158 197 246 297 352
#     4   9  20  37  58  88 124 155 197 249 297 353
#     4  11  21  36  61  89 114 150 203 250 292 349
#     4  10  21  37  60  89 119 156 197 247 302 353
#     4  11  23  37  59  87 123 157 201 244 298 351
#
# _framework density 20.322171999999998
#
# number of rings (size 3 to 8) (size 9 to 14) (size 15 to 20)
#    0.000    1.667    3.333    1.500    0.000    3.333 
#    0.000    4.167    7.333    0.000    0.000    0.000 
#    0.000    0.000    0.000    0.000    0.000    0.000 
#
# Total GULP energy -267989.563647 kJ/mol
# GULP energy per Si atom -5583.115909 kJ/mol
# Density = 2.027592 g / cm^3
# Si number density = 20.322172 Si / 1000 Ang^3
#
#
#
# Elastic Constant Matrix: (Units=GPa)
#
#
# Indices 1 2 3 4 5 6 
#
# 1 84.4628 7.7492 10.1505 0.0000 0.0000 0.0000
# 2 7.7492 102.3022 8.0903 0.0000 0.0000 0.0000
# 3 10.1505 8.0903 20.1703 0.0000 0.0000 0.0000
# 4 0.0000 0.0000 0.0000 0.3266 0.0000 0.0000
# 5 0.0000 0.0000 0.0000 0.0000 107.9464 0.0000
# 6 0.0000 0.0000 0.0000 0.0000 0.0000 33.3881
#
#
#
# Elastic Compliance Matrix: (Units=1/GPa)
#
#
# Indices 1 2 3 4 5 6 
#
# 1 0.012623 -0.000469 -0.006165 0.000000 0.000000 0.000000
# 2 -0.000469 0.010113 -0.003820 0.000000 0.000000 0.000000
# 3 -0.006165 -0.003820 0.054212 0.000000 0.000000 0.000000
# 4 0.000000 0.000000 0.000000 3.062087 0.000000 0.000000
# 5 0.000000 0.000000 0.000000 0.000000 0.009264 0.000000
# 6 0.000000 0.000000 0.000000 0.000000 0.000000 0.029951
#
#
# Mechanical properties :
#
#
# Convention : Reuss Voigt Hill
#
# Bulk Modulus (GPa) = 17.84403 28.76839 23.30621
# Shear Modulus (GPa) = 1.55384 40.39523 20.97453
#
# Velocity S-wave (km/s) = 0.87536 4.46325 3.21612
# Velocity P-wave (km/s) = 3.13390 6.38339 5.02837
#
# Compressibility (1/GPa) = 0.05604116
#
# Stress axis : x y z
#
# Youngs Moduli (GPa) = 79.21808 98.88670 18.44595
#
# Poissons Ratio (x) = 0.04635 0.11371
# Poissons Ratio (y) = 0.03713 0.07047
# Poissons Ratio (z) = 0.48835 0.37778
#
# Static dielectric constant tensor:
#      x y z
#    x 1.673270 0.000000 0.000000 
#    y 0.000000 1.765450 0.000000 
#    z 0.000000 0.000000 1.702880 
# 
# From -- ./inp_files/20921.got.cif
#   From: 2010.05.17/outbox.cif.g08.bks.cpg/sg57_11_cif.got.tgz:20921.got - 2010.06.03 13:58:18.
