data_PCOD9436453
_publ_section_title
;
Structure prediction by ZEFSAII (Michael W. Deem and Ramdas Pophale) SiO2 
 PCOD9436453
Probable space group: P B C M
;
_chemical_formula_sum "Si O2"
_cell_formula_units_Z 32
_cell_length_a 9.989335
_cell_length_b 9.841792
_cell_length_c 17.378134
_cell_angle_alpha 90.000000
_cell_angle_beta 90.000000
_cell_angle_gamma 90.000000
_cell_volume 1708.495746
_symmetry_space_group_name_H-M "P B C M"
_symmetry_group_IT_number 57
_symmetry_cell_setting 'orthorhombic'
loop_
_space_group_symop_operation_xyz
x,y,z
-x,-y,1/2+z
x,1/2-y,-z
-x,1/2+y,1/2-z
-x,-y,-z
x,y,1/2-z
-x,1/2+y,z
x,1/2-y,1/2+z
loop_
_atom_site_type_symbol
_atom_site_label
_atom_site_fract_x
_atom_site_fract_y
_atom_site_fract_z
Si Si1 0.685518 0.609844 0.459224
Si Si2 0.611283 0.362075 0.932793
Si Si3 0.132429 0.700805 0.160317
Si Si4 0.049631 0.519557 0.587765
O O1 0.725012 0.750000 0.500000
O O2 0.545940 0.629397 0.413909
O O3 0.654668 0.502887 0.527497
O O4 0.804436 0.549779 0.408961
O O5 0.715037 0.321591 0.867245
O O6 0.622996 0.250000 0.000000
O O7 0.125303 0.733247 0.250000
O O8 0.051929 0.563613 0.140810
O O9 0.067779 0.824098 0.111407
O O10 0.000000 0.500000 0.500000
#
# Coordination Sequence:
#
# PCOD9436453 Si02
#       4
#     8   8   8   8
#     4  10  20  34  66  95 113 149 216 260 290 348
#     4  10  19  39  63  90 119 156 207 257 298 365
#     4  12  25  41  59  90 130 163 198 260 325 369
#     4  12  22  41  66  91 118 166 212 257 302 376
#
# _framework density 18.729925999999999
#
# number of rings (size 3 to 8) (size 9 to 14) (size 15 to 20)
#    0.000    1.000    5.000    3.000    0.000    0.000 
#    0.000    2.500    0.000    0.000    0.000    0.000 
#    0.000    0.000    0.000    0.000    0.000    0.000 
#
# Total GULP energy -178778.556458 kJ/mol
# GULP energy per Si atom -5586.829889 kJ/mol
# Density = 1.868730 g / cm^3
# Si number density = 18.729926 Si / 1000 Ang^3
#
#
#
# Elastic Constant Matrix: (Units=GPa)
#
#
# Indices 1 2 3 4 5 6 
#
# 1 92.3000 -2.3225 24.8641 0.0000 0.0000 0.0000
# 2 -2.3225 87.8431 2.5373 0.0000 0.0000 0.0000
# 3 24.8641 2.5373 74.9715 0.0000 0.0000 0.0000
# 4 0.0000 0.0000 0.0000 19.9330 0.0000 0.0000
# 5 0.0000 0.0000 0.0000 0.0000 6.4261 0.0000
# 6 0.0000 0.0000 0.0000 0.0000 0.0000 17.7231
#
#
#
# Elastic Compliance Matrix: (Units=1/GPa)
#
#
# Indices 1 2 3 4 5 6 
#
# 1 0.011913 0.000430 -0.003966 0.000000 0.000000 0.000000
# 2 0.000430 0.011411 -0.000529 0.000000 0.000000 0.000000
# 3 -0.003966 -0.000529 0.014671 0.000000 0.000000 0.000000
# 4 0.000000 0.000000 0.000000 0.050168 0.000000 0.000000
# 5 0.000000 0.000000 0.000000 0.000000 0.155615 0.000000
# 6 0.000000 0.000000 0.000000 0.000000 0.000000 0.056424
#
#
# Mechanical properties :
#
#
# Convention : Reuss Voigt Hill
#
# Bulk Modulus (GPa) = 33.48288 33.91915 33.70101
# Shear Modulus (GPa) = 15.70909 24.15215 19.93062
#
# Velocity S-wave (km/s) = 2.89920 3.59485 3.26560
# Velocity P-wave (km/s) = 5.39654 5.94807 5.67900
#
# Compressibility (1/GPa) = 0.02986601
#
# Stress axis : x y z
#
# Youngs Moduli (GPa) = 83.93981 87.63815 68.15955
#
# Poissons Ratio (x) = -0.03764 0.27029
# Poissons Ratio (y) = -0.03605 0.03603
# Poissons Ratio (z) = 0.33287 0.04633
#
# Static dielectric constant tensor:
#      x y z
#    x 1.689540 0.000000 0.000000 
#    y 0.000000 1.728520 0.000000 
#    z 0.000000 0.000000 1.605860 
# 
# From -- ./inp_files/17176.got.cif
#   From: 2010.05.17/outbox.cif.g08.bks.cpg/sg57_9_cif.got.tgz:17176.got - 2010.06.03 13:58:18.
