data_PCOD9436668
_publ_section_title
;
Structure prediction by ZEFSAII (Michael W. Deem and Ramdas Pophale) SiO2 
 PCOD9436668
Probable space group: P B C M
;
_chemical_formula_sum "Si O2"
_cell_formula_units_Z 64
_cell_length_a 22.982420
_cell_length_b 16.531745
_cell_length_c 8.699580
_cell_angle_alpha 90.000000
_cell_angle_beta 90.000000
_cell_angle_gamma 90.000000
_cell_volume 3305.314136
_symmetry_space_group_name_H-M "P B C M"
_symmetry_group_IT_number 57
_symmetry_cell_setting 'orthorhombic'
loop_
_space_group_symop_operation_xyz
x,y,z
-x,-y,1/2+z
x,1/2-y,-z
-x,1/2+y,1/2-z
-x,-y,-z
x,y,1/2-z
-x,1/2+y,z
x,1/2-y,1/2+z
loop_
_atom_site_type_symbol
_atom_site_label
_atom_site_fract_x
_atom_site_fract_y
_atom_site_fract_z
Si Si1 0.756222 0.494156 0.065831
Si Si2 0.880973 0.049348 0.569838
Si Si3 0.970699 0.330194 0.930631
Si Si4 0.090062 0.383781 0.426510
Si Si5 0.780201 0.667764 0.925598
Si Si6 0.587418 0.662679 0.565940
Si Si7 0.373037 0.989743 0.436221
Si Si8 0.549971 0.336587 0.065335
O O1 0.759405 0.493587 0.250000
O O2 0.813954 0.446420 0.013614
O O3 0.692686 0.464295 0.019687
O O4 0.761682 0.586626 0.011223
O O5 0.885257 0.071149 0.750000
O O6 0.926597 0.098709 0.470559
O O7 0.898612 0.956421 0.544186
O O8 0.981520 0.324108 0.750000
O O9 0.942572 0.250000 0.000000
O O10 0.031236 0.341785 0.020620
O O11 0.083293 0.413259 0.250000
O O12 0.149150 0.332200 0.427823
O O13 0.760931 0.662327 0.750000
O O14 0.758475 0.750000 0.000000
O O15 0.607942 0.750000 0.500000
O O16 0.593971 0.664198 0.750000
O O17 0.614881 0.579611 0.501420
O O18 0.518476 0.656763 0.526756
O O19 0.376374 0.995400 0.250000
O O20 0.416612 0.917973 0.486846
O O21 0.555080 0.333183 0.250000
O O22 0.571092 0.250000 0.000000
#
# Coordination Sequence:
#
# PCOD9436668 Si02
#       8
#     8   8   8   8   8   8   8   8
#     4   9  20  37  56  75 101 138 179 218 261 311
#     4  10  20  37  57  76 101 136 173 211 256 309
#     4  12  24  37  54  78 105 133 167 211 261 314
#     4  10  20  35  55  80 106 134 168 209 257 314
#     4  10  20  33  52  76 105 138 174 215 262 314
#     4  10  20  34  54  83 116 151 184 220 268 325
#     4  10  20  36  57  82 111 145 184 230 275 319
#     4   9  19  35  56  82 113 145 182 226 275 326
#
# _framework density 19.362757999999999
#
# number of rings (size 3 to 8) (size 9 to 14) (size 15 to 20)
#    0.000    2.000    0.000    3.750    0.000    5.000 
#    0.000    0.625    0.000    1.500    0.000    0.000 
#    0.000    0.000    0.000    0.000    0.000    0.000 
#
# Total GULP energy -357087.361102 kJ/mol
# GULP energy per Si atom -5579.490017 kJ/mol
# Density = 1.931869 g / cm^3
# Si number density = 19.362758 Si / 1000 Ang^3
#
#
#
# Elastic Constant Matrix: (Units=GPa)
#
#
# Indices 1 2 3 4 5 6 
#
# 1 73.1199 18.4406 16.8849 0.0000 0.0000 0.0000
# 2 18.4406 56.3919 4.5919 0.0000 0.0000 0.0000
# 3 16.8849 4.5919 26.8116 0.0000 0.0000 0.0000
# 4 0.0000 0.0000 0.0000 29.8523 0.0000 0.0000
# 5 0.0000 0.0000 0.0000 0.0000 12.9624 0.0000
# 6 0.0000 0.0000 0.0000 0.0000 0.0000 -3.1852
#
#
#
# Elastic Compliance Matrix: (Units=1/GPa)
#
#
# Indices 1 2 3 4 5 6 
#
# 1 0.017200 -0.004810 -0.010008 0.000000 0.000000 0.000000
# 2 -0.004810 0.019329 -0.000281 0.000000 0.000000 0.000000
# 3 -0.010008 -0.000281 0.043648 0.000000 0.000000 0.000000
# 4 0.000000 0.000000 0.000000 0.033498 0.000000 0.000000
# 5 0.000000 0.000000 0.000000 0.000000 0.077146 0.000000
# 6 0.000000 0.000000 0.000000 0.000000 0.000000 -0.313951
#
#
# Mechanical properties :
#
#
# Convention : Reuss Voigt Hill
#
# Bulk Modulus (GPa) = 20.00859 26.23980 23.12419
# Shear Modulus (GPa) = -65.55616 15.68631 -24.93492
#
# Velocity S-wave (km/s) = -5.82497 2.84936 -3.59245
# Velocity P-wave (km/s) = 5.90631 4.94027 2.28891
#
# Compressibility (1/GPa) = 0.04997853
#
# Stress axis : x y z
#
# Youngs Moduli (GPa) = 58.13867 51.73645 22.91042
#
# Poissons Ratio (x) = 0.24883 0.22929
# Poissons Ratio (y) = 0.27963 0.00645
# Poissons Ratio (z) = 0.58187 0.01456
#
# Static dielectric constant tensor:
#      x y z
#    x 1.710330 0.000000 0.000000 
#    y 0.000000 1.680450 0.000000 
#    z 0.000000 0.000000 1.630150 
# 
# From -- ./inp_files/9312.got.cif
#   From: 2010.05.17/outbox.cif.g08.bks.cpg/sg57_5_cif.got.tgz:9312.got - 2010.06.03 13:58:18.
