data_PCOD9436418
_publ_section_title
;
Structure prediction by ZEFSAII (Michael W. Deem and Ramdas Pophale) SiO2 
 PCOD9436418
Probable space group: P B C M
;
_chemical_formula_sum "Si O2"
_cell_formula_units_Z 48
_cell_length_a 12.194795
_cell_length_b 11.345972
_cell_length_c 16.856638
_cell_angle_alpha 90.000000
_cell_angle_beta 90.000000
_cell_angle_gamma 90.000000
_cell_volume 2332.314820
_symmetry_space_group_name_H-M "P B C M"
_symmetry_group_IT_number 57
_symmetry_cell_setting 'orthorhombic'
loop_
_space_group_symop_operation_xyz
x,y,z
-x,-y,1/2+z
x,1/2-y,-z
-x,1/2+y,1/2-z
-x,-y,-z
x,y,1/2-z
-x,1/2+y,z
x,1/2-y,1/2+z
loop_
_atom_site_type_symbol
_atom_site_label
_atom_site_fract_x
_atom_site_fract_y
_atom_site_fract_z
Si Si1 0.321813 0.319071 0.111184
Si Si2 0.294374 0.434408 0.560782
Si Si3 0.440262 0.665715 0.576588
Si Si4 0.223476 0.778185 0.593705
Si Si5 0.896002 0.062560 0.843689
Si Si6 0.853351 0.513086 0.838597
O O1 0.324887 0.177852 0.114610
O O2 0.447638 0.357549 0.122647
O O3 0.226658 0.375227 0.163063
O O4 0.288568 0.372781 0.024855
O O5 0.382479 0.540950 0.556106
O O6 0.184060 0.488634 0.598597
O O7 0.467765 0.750000 0.500000
O O8 0.344961 0.738895 0.620624
O O9 0.218911 0.750000 0.500000
O O10 0.137005 0.697435 0.639342
O O11 0.199029 0.913452 0.606797
O O12 0.878403 0.035958 0.750000
O O13 0.023226 0.043295 0.863235
O O14 0.859394 0.462581 0.750000
#
# Coordination Sequence:
#
# PCOD9436418 Si02
#       6
#     8   8   8   8   8   8
#     4  11  22  36  62  95 127 158 208 261 304 365
#     4  10  22  37  63  97 122 163 210 260 305 364
#     4  10  19  37  65  91 126 162 201 256 315 366
#     4  10  22  40  68  93 117 159 211 263 307 370
#     4  10  23  43  63  86 125 168 204 252 317 375
#     4  11  25  42  62  88 127 170 209 255 317 381
#
# _framework density 20.580411000000002
#
# number of rings (size 3 to 8) (size 9 to 14) (size 15 to 20)
#    0.000    1.667    1.667    4.000    4.667    3.333 
#    0.000    4.167    0.000    0.000    0.000    0.000 
#    0.000    0.000    0.000    0.000    0.000    0.000 
#
# Total GULP energy -267748.768687 kJ/mol
# GULP energy per Si atom -5578.099348 kJ/mol
# Density = 2.053357 g / cm^3
# Si number density = 20.580411 Si / 1000 Ang^3
#
#
#
# Elastic Constant Matrix: (Units=GPa)
#
#
# Indices 1 2 3 4 5 6 
#
# 1 145.6438 53.9214 36.5071 0.0000 0.0000 0.0000
# 2 53.9214 122.2378 12.5896 0.0000 0.0000 0.0000
# 3 36.5071 12.5896 33.7931 0.0000 0.0000 0.0000
# 4 0.0000 0.0000 0.0000 21.7335 0.0000 0.0000
# 5 0.0000 0.0000 0.0000 0.0000 66.8172 0.0000
# 6 0.0000 0.0000 0.0000 0.0000 0.0000 16.6525
#
#
#
# Elastic Compliance Matrix: (Units=1/GPa)
#
#
# Indices 1 2 3 4 5 6 
#
# 1 0.010826 -0.003713 -0.010312 0.000000 0.000000 0.000000
# 2 -0.003713 0.009781 0.000368 0.000000 0.000000 0.000000
# 3 -0.010312 0.000368 0.040595 0.000000 0.000000 0.000000
# 4 0.000000 0.000000 0.000000 0.046012 0.000000 0.000000
# 5 0.000000 0.000000 0.000000 0.000000 0.014966 0.000000
# 6 0.000000 0.000000 0.000000 0.000000 0.000000 0.060051
#
#
# Mechanical properties :
#
#
# Convention : Reuss Voigt Hill
#
# Bulk Modulus (GPa) = 29.51015 56.41232 42.96123
# Shear Modulus (GPa) = 22.64079 34.28441 28.46260
#
# Velocity S-wave (km/s) = 3.32039 4.08594 3.72290
# Velocity P-wave (km/s) = 5.39167 7.05196 6.27695
#
# Compressibility (1/GPa) = 0.03388665
#
# Stress axis : x y z
#
# Youngs Moduli (GPa) = 92.37407 102.23977 24.63380
#
# Poissons Ratio (x) = 0.37965 0.25401
# Poissons Ratio (y) = 0.34302 -0.00906
# Poissons Ratio (z) = 0.95252 -0.03759
#
# Static dielectric constant tensor:
#      x y z
#    x 1.734750 0.000000 0.000000 
#    y 0.000000 1.742830 0.000000 
#    z 0.000000 0.000000 1.786940 
# 
# From -- ./inp_files/21843.got.cif
#   From: 2010.05.17/outbox.cif.g08.bks.cpg/sg57_11_cif.got.tgz:21843.got - 2010.06.03 13:58:18.
