data_PCOD9436461
_publ_section_title
;
Structure prediction by ZEFSAII (Michael W. Deem and Ramdas Pophale) SiO2 
 PCOD9436461
Probable space group: P B C M
;
_chemical_formula_sum "Si O2"
_cell_formula_units_Z 44
_cell_length_a 8.497487
_cell_length_b 9.638108
_cell_length_c 29.115413
_cell_angle_alpha 90.000000
_cell_angle_beta 90.000000
_cell_angle_gamma 90.000000
_cell_volume 2384.543515
_symmetry_space_group_name_H-M "P B C M"
_symmetry_group_IT_number 57
_symmetry_cell_setting 'orthorhombic'
loop_
_space_group_symop_operation_xyz
x,y,z
-x,-y,1/2+z
x,1/2-y,-z
-x,1/2+y,1/2-z
-x,-y,-z
x,y,1/2-z
-x,1/2+y,z
x,1/2-y,1/2+z
loop_
_atom_site_type_symbol
_atom_site_label
_atom_site_fract_x
_atom_site_fract_y
_atom_site_fract_z
Si Si1 0.347645 0.353052 0.302992
Si Si2 0.796890 0.225799 0.250000
Si Si3 0.419060 0.851696 0.664096
Si Si4 0.672787 0.245438 0.435647
Si Si5 0.060488 0.068262 0.750000
Si Si6 0.183500 0.527618 0.507347
Si Si7 0.382545 0.250000 0.000000
O O1 0.408557 0.363582 0.250000
O O2 0.414128 0.482583 0.331444
O O3 0.409774 0.213393 0.325744
O O4 0.161745 0.374301 0.293716
O O5 0.690638 0.203578 0.205340
O O6 0.888887 0.369343 0.250000
O O7 0.920950 0.097162 0.250000
O O8 0.350034 0.798246 0.616392
O O9 0.777870 0.379849 0.447642
O O10 0.748231 0.120418 0.465455
O O11 0.500942 0.274140 0.457487
O O12 0.277289 0.384183 0.508733
O O13 0.000000 0.500000 0.500000
#
# Coordination Sequence:
#
# PCOD9436461 Si02
#       7
#     8   4   8   8   4   8   4
#     4   9  19  37  55  81 113 155 191 235 281 329
#     4  10  19  40  54  80 122 156 183 240 274 346
#     4  11  21  36  59  86 116 146 198 241 281 333
#     4  10  22  37  60  89 116 147 199 240 290 349
#     4   8  19  34  56  74 110 158 191 220 290 322
#     4  10  21  42  61  84 118 152 185 242 304 353
#     4  10  20  38  64  84 110 152 194 240 286 348
#
# _framework density 18.452169000000001
#
# number of rings (size 3 to 8) (size 9 to 14) (size 15 to 20)
#    0.545    1.818    1.818    3.273    5.091    1.455 
#    6.545    1.818    0.000    0.000    0.000    0.000 
#    0.000    0.000    0.000    0.000    0.000    0.000 
#
# Total GULP energy -245232.146243 kJ/mol
# GULP energy per Si atom -5573.457869 kJ/mol
# Density = 1.841017 g / cm^3
# Si number density = 18.452169 Si / 1000 Ang^3
#
#
#
# Elastic Constant Matrix: (Units=GPa)
#
#
# Indices 1 2 3 4 5 6 
#
# 1 51.2942 6.4179 -12.5080 0.0000 0.0000 0.0000
# 2 6.4179 40.0483 -21.0950 0.0000 0.0000 0.0000
# 3 -12.5080 -21.0950 56.3720 0.0000 0.0000 0.0000
# 4 0.0000 0.0000 0.0000 10.5028 0.0000 0.0000
# 5 0.0000 0.0000 0.0000 0.0000 4.7139 0.0000
# 6 0.0000 0.0000 0.0000 0.0000 0.0000 26.5243
#
#
#
# Elastic Compliance Matrix: (Units=1/GPa)
#
#
# Indices 1 2 3 4 5 6 
#
# 1 0.020650 -0.001116 0.004164 0.000000 0.000000 0.000000
# 2 -0.001116 0.031160 0.011413 0.000000 0.000000 0.000000
# 3 0.004164 0.011413 0.022934 0.000000 0.000000 0.000000
# 4 0.000000 0.000000 0.000000 0.095212 0.000000 0.000000
# 5 0.000000 0.000000 0.000000 0.000000 0.212139 0.000000
# 6 0.000000 0.000000 0.000000 0.000000 0.000000 0.037701
#
#
# Mechanical properties :
#
#
# Convention : Reuss Voigt Hill
#
# Bulk Modulus (GPa) = 9.64612 10.37156 10.00884
# Shear Modulus (GPa) = 11.75280 20.00817 15.88049
#
# Velocity S-wave (km/s) = 2.52649 3.29648 2.93683
# Velocity P-wave (km/s) = 3.70808 4.48576 4.11533
#
# Compressibility (1/GPa) = 0.10366866
#
# Stress axis : x y z
#
# Youngs Moduli (GPa) = 48.42500 32.09207 43.60296
#
# Poissons Ratio (x) = 0.03581 -0.18158
# Poissons Ratio (y) = 0.05403 -0.49764
# Poissons Ratio (z) = -0.20167 -0.36627
#
# Static dielectric constant tensor:
#      x y z
#    x 1.643520 0.000000 0.000000 
#    y 0.000000 1.639770 0.000000 
#    z 0.000000 0.000000 1.627850 
# 
# From -- ./inp_files/29425.got.cif
#   From: 2010.05.17/outbox.cif.g08.bks.cpg/sg57_15_cif.got.tgz:29425.got - 2010.06.03 13:58:18.
