data_PCOD9436323
_publ_section_title
;
Structure prediction by ZEFSAII (Michael W. Deem and Ramdas Pophale) SiO2 
 PCOD9436323
Probable space group: P B C M
;
_chemical_formula_sum "Si O2"
_cell_formula_units_Z 60
_cell_length_a 14.232804
_cell_length_b 8.435593
_cell_length_c 22.508940
_cell_angle_alpha 90.000000
_cell_angle_beta 90.000000
_cell_angle_gamma 90.000000
_cell_volume 2702.471546
_symmetry_space_group_name_H-M "P B C M"
_symmetry_group_IT_number 57
_symmetry_cell_setting 'orthorhombic'
loop_
_space_group_symop_operation_xyz
x,y,z
-x,-y,1/2+z
x,1/2-y,-z
-x,1/2+y,1/2-z
-x,-y,-z
x,y,1/2-z
-x,1/2+y,z
x,1/2-y,1/2+z
loop_
_atom_site_type_symbol
_atom_site_label
_atom_site_fract_x
_atom_site_fract_y
_atom_site_fract_z
Si Si1 0.917033 0.618506 0.336140
Si Si2 0.403460 0.160637 0.937810
Si Si3 0.207858 0.432090 0.483362
Si Si4 0.528726 0.560925 0.362971
Si Si5 0.051772 0.837145 0.938256
Si Si6 0.794205 0.109262 0.607519
Si Si7 0.045673 0.097852 0.750000
Si Si8 0.363999 0.728740 0.684406
O O1 0.819760 0.525174 0.344328
O O2 0.911762 0.783855 0.302166
O O3 0.957970 0.629436 0.402648
O O4 0.992682 0.513074 0.300587
O O5 0.303202 0.074524 0.944525
O O6 0.406053 0.299829 0.888627
O O7 0.484553 0.039858 0.917652
O O8 0.421797 0.250000 0.000000
O O9 0.190721 0.250000 0.500000
O O10 0.118808 0.513298 0.452059
O O11 0.227826 0.533212 0.543482
O O12 0.441310 0.639238 0.329348
O O13 0.583267 0.439179 0.321715
O O14 0.114164 0.717837 0.899263
O O15 0.033941 0.750000 0.000000
O O16 0.712961 0.218986 0.633087
O O17 0.322837 0.750788 0.750000
#
# Coordination Sequence:
#
# PCOD9436323 Si02
#       8
#     8   8   8   8   8   8   4   8
#     4  11  23  44  65  93 126 167 219 256 313 364
#     4  10  19  36  59  88 119 154 191 246 310 370
#     4  10  22  37  59  91 127 156 200 258 312 370
#     4  10  22  39  60  88 117 154 203 247 302 370
#     4  10  23  42  64  91 127 170 206 257 318 371
#     4  11  24  40  61  92 124 159 207 254 311 374
#     4  10  24  42  68  88 124 168 214 270 294 372
#     4  11  23  40  64  85 119 161 203 255 302 361
#
# _framework density 22.201896999999999
#
# number of rings (size 3 to 8) (size 9 to 14) (size 15 to 20)
#    0.000    1.600    1.333    3.200    3.733    3.733 
#    0.000    0.667    0.000    0.000    0.000    0.000 
#    0.000    0.000    0.000    0.000    0.000    0.000 
#
# Total GULP energy -334570.379802 kJ/mol
# GULP energy per Si atom -5576.172997 kJ/mol
# Density = 2.215136 g / cm^3
# Si number density = 22.201897 Si / 1000 Ang^3
#
#
#
# Elastic Constant Matrix: (Units=GPa)
#
#
# Indices 1 2 3 4 5 6 
#
# 1 45.2458 1.1550 7.9345 0.0000 0.0000 0.0000
# 2 1.1550 50.8626 2.6973 0.0000 0.0000 0.0000
# 3 7.9345 2.6973 75.3932 0.0000 0.0000 0.0000
# 4 0.0000 0.0000 0.0000 27.6263 0.0000 0.0000
# 5 0.0000 0.0000 0.0000 0.0000 3.9938 0.0000
# 6 0.0000 0.0000 0.0000 0.0000 0.0000 21.5554
#
#
#
# Elastic Compliance Matrix: (Units=1/GPa)
#
#
# Indices 1 2 3 4 5 6 
#
# 1 0.022525 -0.000387 -0.002357 0.000000 0.000000 0.000000
# 2 -0.000387 0.019705 -0.000664 0.000000 0.000000 0.000000
# 3 -0.002357 -0.000664 0.013536 0.000000 0.000000 0.000000
# 4 0.000000 0.000000 0.000000 0.036197 0.000000 0.000000
# 5 0.000000 0.000000 0.000000 0.000000 0.250385 0.000000
# 6 0.000000 0.000000 0.000000 0.000000 0.000000 0.046392
#
#
# Mechanical properties :
#
#
# Convention : Reuss Voigt Hill
#
# Bulk Modulus (GPa) = 20.42899 21.67501 21.05200
# Shear Modulus (GPa) = 12.13972 21.28278 16.71125
#
# Velocity S-wave (km/s) = 2.34089 3.09949 2.74650
# Velocity P-wave (km/s) = 4.06543 4.75321 4.42271
#
# Compressibility (1/GPa) = 0.04895006
#
# Stress axis : x y z
#
# Youngs Moduli (GPa) = 44.39584 50.74900 73.87932
#
# Poissons Ratio (x) = 0.01962 0.17411
# Poissons Ratio (y) = 0.01716 0.04908
# Poissons Ratio (z) = 0.10463 0.03371
#
# Static dielectric constant tensor:
#      x y z
#    x 1.798030 0.000000 0.000000 
#    y 0.000000 1.835980 0.000000 
#    z 0.000000 0.000000 1.838660 
# 
# From -- ./inp_files/27445.got.cif
#   From: 2010.05.17/outbox.cif.g08.bks.cpg/sg57_14_cif.got.tgz:27445.got - 2010.06.03 13:58:18.
