data_PCOD9436914
_publ_section_title
;
Structure prediction by ZEFSAII (Michael W. Deem and Ramdas Pophale) SiO2 
 PCOD9436914
Probable space group: P B C M
;
_chemical_formula_sum "Si O2"
_cell_formula_units_Z 48
_cell_length_a 19.306658
_cell_length_b 8.921745
_cell_length_c 14.808573
_cell_angle_alpha 90.000000
_cell_angle_beta 90.000000
_cell_angle_gamma 90.000000
_cell_volume 2550.763068
_symmetry_space_group_name_H-M "P B C M"
_symmetry_group_IT_number 57
_symmetry_cell_setting 'orthorhombic'
loop_
_space_group_symop_operation_xyz
x,y,z
-x,-y,1/2+z
x,1/2-y,-z
-x,1/2+y,1/2-z
-x,-y,-z
x,y,1/2-z
-x,1/2+y,z
x,1/2-y,1/2+z
loop_
_atom_site_type_symbol
_atom_site_label
_atom_site_fract_x
_atom_site_fract_y
_atom_site_fract_z
Si Si1 0.394126 0.764393 0.250000
Si Si2 0.167032 0.574342 0.525383
Si Si3 0.315733 0.620649 0.925409
Si Si4 0.955074 0.160639 0.644890
Si Si5 0.490293 0.050643 0.250000
Si Si6 0.095636 0.495194 0.355524
Si Si7 0.558831 0.904813 0.550846
O O1 0.346608 0.803615 0.164493
O O2 0.428851 0.599635 0.250000
O O3 0.460063 0.880368 0.250000
O O4 0.169656 0.750000 0.500000
O O5 0.238732 0.550594 0.578066
O O6 0.098402 0.563851 0.586104
O O7 0.155207 0.487624 0.431239
O O8 0.370041 0.494580 0.952990
O O9 0.315614 0.750000 0.000000
O O10 0.945291 0.122150 0.750000
O O11 0.937243 0.336874 0.635018
O O12 0.034127 0.120638 0.623141
O O13 0.461233 0.114562 0.155788
O O14 0.116834 0.478748 0.250000
O O15 0.563933 0.750000 0.500000
O O16 0.500000 0.000000 0.500000
#
# Coordination Sequence:
#
# PCOD9436914 Si02
#       7
#     4   8   8   8   4   8   8
#     4  10  20  34  56  78 110 132 174 222 264 318
#     4   9  18  32  49  72 104 135 173 209 260 316
#     4  10  21  36  52  80 107 141 181 215 267 327
#     4   9  17  29  50  74  99 131 172 214 262 303
#     4  10  20  34  54  84 102 134 172 216 266 314
#     4   9  17  31  50  74 101 131 174 219 259 303
#     4  11  21  36  59  79 110 139 176 224 268 316
#
# _framework density 18.817898
#
# number of rings (size 3 to 8) (size 9 to 14) (size 15 to 20)
#    0.000    2.333    0.000    4.000    1.167    0.000 
#    4.500    1.667    0.000    0.000    0.000    0.000 
#    0.000    0.000    0.000    0.000    0.000    0.000 
#
# Total GULP energy -267534.765975 kJ/mol
# GULP energy per Si atom -5573.640958 kJ/mol
# Density = 1.877507 g / cm^3
# Si number density = 18.817898 Si / 1000 Ang^3
#
#
#
# Elastic Constant Matrix: (Units=GPa)
#
#
# Indices 1 2 3 4 5 6 
#
# 1 83.7902 5.7162 34.5721 0.0000 0.0000 0.0000
# 2 5.7162 19.2268 26.9399 0.0000 0.0000 0.0000
# 3 34.5721 26.9399 89.4528 0.0000 0.0000 0.0000
# 4 0.0000 0.0000 0.0000 19.2739 0.0000 0.0000
# 5 0.0000 0.0000 0.0000 0.0000 30.6489 0.0000
# 6 0.0000 0.0000 0.0000 0.0000 0.0000 19.5917
#
#
#
# Elastic Compliance Matrix: (Units=1/GPa)
#
#
# Indices 1 2 3 4 5 6 
#
# 1 0.014610 0.006173 -0.007506 0.000000 0.000000 0.000000
# 2 0.006173 0.092589 -0.030270 0.000000 0.000000 0.000000
# 3 -0.007506 -0.030270 0.023196 0.000000 0.000000 0.000000
# 4 0.000000 0.000000 0.000000 0.051884 0.000000 0.000000
# 5 0.000000 0.000000 0.000000 0.000000 0.032628 0.000000
# 6 0.000000 0.000000 0.000000 0.000000 0.000000 0.051042
#
#
# Mechanical properties :
#
#
# Convention : Reuss Voigt Hill
#
# Bulk Modulus (GPa) = 14.88319 36.32513 25.60416
# Shear Modulus (GPa) = 14.22268 22.25233 18.23750
#
# Velocity S-wave (km/s) = 2.75217 3.44249 3.11651
# Velocity P-wave (km/s) = 4.24565 5.92844 5.15616
#
# Compressibility (1/GPa) = 0.06718991
#
# Stress axis : x y z
#
# Youngs Moduli (GPa) = 68.44460 10.80041 43.11046
#
# Poissons Ratio (x) = -0.06667 0.32358
# Poissons Ratio (y) = -0.42252 1.30496
# Poissons Ratio (z) = 0.51373 0.32693
#
# Static dielectric constant tensor:
#      x y z
#    x 1.684140 0.000000 0.000000 
#    y 0.000000 1.666870 0.000000 
#    z 0.000000 0.000000 1.670470 
# 
# From -- ./inp_files/18999.got.cif
#   From: 2010.05.17/outbox.cif.g08.bks.cpg/sg57_10_cif.got.tgz:18999.got - 2010.06.03 13:58:18.
