data_PCOD9436860
_publ_section_title
;
Structure prediction by ZEFSAII (Michael W. Deem and Ramdas Pophale) SiO2 
 PCOD9436860
Probable space group: P B C M
;
_chemical_formula_sum "Si O2"
_cell_formula_units_Z 64
_cell_length_a 14.225868
_cell_length_b 9.451976
_cell_length_c 27.726172
_cell_angle_alpha 90.000000
_cell_angle_beta 90.000000
_cell_angle_gamma 90.000000
_cell_volume 3728.132147
_symmetry_space_group_name_H-M "P B C M"
_symmetry_group_IT_number 57
_symmetry_cell_setting 'orthorhombic'
loop_
_space_group_symop_operation_xyz
x,y,z
-x,-y,1/2+z
x,1/2-y,-z
-x,1/2+y,1/2-z
-x,-y,-z
x,y,1/2-z
-x,1/2+y,z
x,1/2-y,1/2+z
loop_
_atom_site_type_symbol
_atom_site_label
_atom_site_fract_x
_atom_site_fract_y
_atom_site_fract_z
Si Si1 0.570868 0.819715 0.692209
Si Si2 0.228304 0.096435 0.306486
Si Si3 0.094402 0.189388 0.860208
Si Si4 0.068666 0.087918 0.438603
Si Si5 0.386140 0.989629 0.808503
Si Si6 0.788785 0.421678 0.877836
Si Si7 0.144756 0.907334 0.521418
Si Si8 0.109505 0.636419 0.853766
O O1 0.569033 0.836623 0.750000
O O2 0.664667 0.900330 0.674398
O O3 0.584151 0.652995 0.683063
O O4 0.473072 0.888882 0.676851
O O5 0.232443 0.122769 0.250000
O O6 0.170123 0.221370 0.330926
O O7 0.170702 0.954646 0.316994
O O8 0.090555 0.262881 0.913053
O O9 0.990934 0.196754 0.837160
O O10 0.130005 0.030498 0.862233
O O11 0.961379 0.097514 0.456542
O O12 0.135097 0.029877 0.481169
O O13 0.081076 0.969962 0.397007
O O14 0.366702 0.974664 0.750000
O O15 0.298771 0.952190 0.842955
O O16 0.782385 0.441398 0.935721
O O17 0.826645 0.263885 0.871449
O O18 0.162624 0.750000 0.500000
#
# Coordination Sequence:
#
# PCOD9436860 Si02
#       8
#     8   8   8   8   8   8   8   8
#     4   9  19  39  62  85 108 138 189 244 296 339
#     4  10  22  38  57  79 115 159 193 233 283 343
#     4  11  20  37  54  79 120 156 198 238 273 342
#     4  10  20  34  54  77 111 158 195 237 282 322
#     4  10  22  39  61  87 113 141 182 245 299 345
#     4  12  22  34  56  88 118 148 191 242 293 345
#     4  11  20  33  56  84 116 152 197 245 290 338
#     4  11  21  36  52  81 120 159 195 232 274 342
#
# _framework density 17.166772999999999
#
# number of rings (size 3 to 8) (size 9 to 14) (size 15 to 20)
#    0.000    1.500    5.000    0.750    3.500    1.000 
#    0.000    1.250    0.000    0.000    0.000    7.875 
#    0.000    0.000    0.000    0.000    0.000    0.000 
#
# Total GULP energy -356794.044898 kJ/mol
# GULP energy per Si atom -5574.906952 kJ/mol
# Density = 1.712770 g / cm^3
# Si number density = 17.166773 Si / 1000 Ang^3
#
#
#
# Elastic Constant Matrix: (Units=GPa)
#
#
# Indices 1 2 3 4 5 6 
#
# 1 109.6909 25.6736 40.4474 0.0000 0.0000 0.0000
# 2 25.6736 42.4632 6.7232 0.0000 0.0000 0.0000
# 3 40.4474 6.7232 56.4318 0.0000 0.0000 0.0000
# 4 0.0000 0.0000 0.0000 16.7936 0.0000 0.0000
# 5 0.0000 0.0000 0.0000 0.0000 15.4198 0.0000
# 6 0.0000 0.0000 0.0000 0.0000 0.0000 21.7087
#
#
#
# Elastic Compliance Matrix: (Units=1/GPa)
#
#
# Indices 1 2 3 4 5 6 
#
# 1 0.014233 -0.007124 -0.009352 0.000000 0.000000 0.000000
# 2 -0.007124 0.027569 0.001822 0.000000 0.000000 0.000000
# 3 -0.009352 0.001822 0.024207 0.000000 0.000000 0.000000
# 4 0.000000 0.000000 0.000000 0.059546 0.000000 0.000000
# 5 0.000000 0.000000 0.000000 0.000000 0.064852 0.000000
# 6 0.000000 0.000000 0.000000 0.000000 0.000000 0.046065
#
#
# Mechanical properties :
#
#
# Convention : Reuss Voigt Hill
#
# Bulk Modulus (GPa) = 27.24919 39.36384 33.30651
# Shear Modulus (GPa) = 17.98473 19.83386 18.90930
#
# Velocity S-wave (km/s) = 3.24025 3.40275 3.32249
# Velocity P-wave (km/s) = 5.46870 6.19825 5.84487
#
# Compressibility (1/GPa) = 0.03669834
#
# Stress axis : x y z
#
# Youngs Moduli (GPa) = 70.26100 36.27290 41.31070
#
# Poissons Ratio (x) = 0.25842 0.38636
# Poissons Ratio (y) = 0.50057 -0.07526
# Poissons Ratio (z) = 0.65711 -0.06609
#
# Static dielectric constant tensor:
#      x y z
#    x 1.576050 0.000000 0.000000 
#    y 0.000000 1.602780 0.000000 
#    z 0.000000 0.000000 1.612030 
# 
# From -- ./inp_files/29777.got.cif
#   From: 2010.05.17/outbox.cif.g08.bks.cpg/sg57_15_cif.got.tgz:29777.got - 2010.06.03 13:58:18.
