data_PCOD9436460
_publ_section_title
;
Structure prediction by ZEFSAII (Michael W. Deem and Ramdas Pophale) SiO2 
 PCOD9436460
Probable space group: P B C M
;
_chemical_formula_sum "Si O2"
_cell_formula_units_Z 52
_cell_length_a 7.295564
_cell_length_b 26.684218
_cell_length_c 11.695970
_cell_angle_alpha 90.000000
_cell_angle_beta 90.000000
_cell_angle_gamma 90.000000
_cell_volume 2276.929570
_symmetry_space_group_name_H-M "P B C M"
_symmetry_group_IT_number 57
_symmetry_cell_setting 'orthorhombic'
loop_
_space_group_symop_operation_xyz
x,y,z
-x,-y,1/2+z
x,1/2-y,-z
-x,1/2+y,1/2-z
-x,-y,-z
x,y,1/2-z
-x,1/2+y,z
x,1/2-y,1/2+z
loop_
_atom_site_type_symbol
_atom_site_label
_atom_site_fract_x
_atom_site_fract_y
_atom_site_fract_z
Si Si1 0.391459 0.889055 0.381733
Si Si2 0.298718 0.698225 0.456658
Si Si3 0.306057 0.223006 0.122905
Si Si4 0.712405 0.010746 0.972665
Si Si5 0.134820 0.044045 0.250000
Si Si6 0.181666 0.422812 0.120412
Si Si7 0.964094 0.866759 0.583678
O O1 0.332600 0.890402 0.250000
O O2 0.369694 0.834738 0.436630
O O3 0.605709 0.905215 0.384118
O O4 0.282542 0.929478 0.459192
O O5 0.212016 0.750000 0.500000
O O6 0.476858 0.712524 0.384478
O O7 0.148106 0.664178 0.396898
O O8 0.265976 0.246409 0.250000
O O9 0.200721 0.170187 0.119036
O O10 0.261801 0.250000 0.000000
O O11 0.763642 0.988414 0.850650
O O12 0.823505 0.978936 0.067193
O O13 0.500000 0.000000 0.000000
O O14 0.050430 0.082225 0.152518
O O15 0.119249 0.425984 0.250000
O O16 0.072053 0.382290 0.047455
#
# Coordination Sequence:
#
# PCOD9436460 Si02
#       7
#     8   8   8   8   4   8   8
#     4  10  19  39  67  98 138 183 231 293 354 417
#     4  11  26  44  66 100 135 183 242 290 354 415
#     4  11  25  45  70 102 138 184 239 295 359 423
#     4   9  18  33  65 101 134 177 224 274 350 421
#     4  10  20  38  64 100 136 174 220 282 338 430
#     4   9  19  36  64 103 141 180 230 283 350 428
#     4  11  22  43  69  96 139 180 230 289 352 417
#
# _framework density 22.837771
#
# number of rings (size 3 to 8) (size 9 to 14) (size 15 to 20)
#    0.000    1.846    3.077    0.462    2.154    3.692 
#    0.000    3.846    3.385    0.000    0.000    0.000 
#    0.000    0.000    0.000    0.000    0.000    0.000 
#
# Total GULP energy -289628.427932 kJ/mol
# GULP energy per Si atom -5569.777460 kJ/mol
# Density = 2.278579 g / cm^3
# Si number density = 22.837771 Si / 1000 Ang^3
#
#
#
# Elastic Constant Matrix: (Units=GPa)
#
#
# Indices 1 2 3 4 5 6 
#
# 1 72.8276 16.5887 10.8904 0.0000 0.0000 0.0000
# 2 16.5887 108.5842 42.2177 0.0000 0.0000 0.0000
# 3 10.8904 42.2177 164.5999 0.0000 0.0000 0.0000
# 4 0.0000 0.0000 0.0000 25.8230 0.0000 0.0000
# 5 0.0000 0.0000 0.0000 0.0000 -9.1251 0.0000
# 6 0.0000 0.0000 0.0000 0.0000 0.0000 22.4968
#
#
#
# Elastic Compliance Matrix: (Units=1/GPa)
#
#
# Indices 1 2 3 4 5 6 
#
# 1 0.014253 -0.002011 -0.000427 0.000000 0.000000 0.000000
# 2 -0.002011 0.010513 -0.002563 0.000000 0.000000 0.000000
# 3 -0.000427 -0.002563 0.006761 0.000000 0.000000 0.000000
# 4 0.000000 0.000000 0.000000 0.038725 0.000000 0.000000
# 5 0.000000 0.000000 0.000000 0.000000 -0.109588 0.000000
# 6 0.000000 0.000000 0.000000 0.000000 0.000000 0.044451
#
#
# Mechanical properties :
#
#
# Convention : Reuss Voigt Hill
#
# Bulk Modulus (GPa) = 46.46070 53.93393 50.19731
# Shear Modulus (GPa) = 224.27763 26.25993 125.26878
#
# Velocity S-wave (km/s) = 9.92058 3.39462 7.41422
# Velocity P-wave (km/s) = 12.31307 6.24756 9.76329
#
# Compressibility (1/GPa) = 0.02152357
#
# Stress axis : x y z
#
# Youngs Moduli (GPa) = 70.16023 95.11659 147.90512
#
# Poissons Ratio (x) = 0.19132 0.06317
# Poissons Ratio (y) = 0.14112 0.37915
# Poissons Ratio (z) = 0.02997 0.24383
#
# Static dielectric constant tensor:
#      x y z
#    x 1.903300 0.000000 0.000000 
#    y 0.000000 1.778850 0.000000 
#    z 0.000000 0.000000 1.865750 
# 
# From -- ./inp_files/12119.got.cif
#   From: 2010.05.17/outbox.cif.g08.bks.cpg/sg57_7_cif.got.tgz:12119.got - 2010.06.03 13:58:18.
