data_PCOD9436737
_publ_section_title
;
Structure prediction by ZEFSAII (Michael W. Deem and Ramdas Pophale) SiO2 
 PCOD9436737
Probable space group: P B C M
;
_chemical_formula_sum "Si O2"
_cell_formula_units_Z 48
_cell_length_a 12.279652
_cell_length_b 8.353872
_cell_length_c 24.955981
_cell_angle_alpha 90.000000
_cell_angle_beta 90.000000
_cell_angle_gamma 90.000000
_cell_volume 2560.050440
_symmetry_space_group_name_H-M "P B C M"
_symmetry_group_IT_number 57
_symmetry_cell_setting 'orthorhombic'
loop_
_space_group_symop_operation_xyz
x,y,z
-x,-y,1/2+z
x,1/2-y,-z
-x,1/2+y,1/2-z
-x,-y,-z
x,y,1/2-z
-x,1/2+y,z
x,1/2-y,1/2+z
loop_
_atom_site_type_symbol
_atom_site_label
_atom_site_fract_x
_atom_site_fract_y
_atom_site_fract_z
Si Si1 0.619303 0.110160 0.250000
Si Si2 0.975184 0.293480 0.192029
Si Si3 0.215890 0.262330 0.656859
Si Si4 0.097827 0.693388 0.580633
Si Si5 0.224492 0.611663 0.155726
Si Si6 0.875320 0.635525 0.451901
Si Si7 0.372198 0.278173 0.750000
O O1 0.682340 0.168575 0.303452
O O2 0.494714 0.161057 0.250000
O O3 0.629028 0.916462 0.250000
O O4 0.957059 0.369899 0.250000
O O5 0.890019 0.145774 0.186522
O O6 0.944132 0.386439 0.137239
O O7 0.098986 0.239380 0.186263
O O8 0.201480 0.343797 0.599642
O O9 0.305831 0.329850 0.697100
O O10 0.239370 0.074971 0.645952
O O11 0.839940 0.750000 0.500000
O O12 0.202102 0.792976 0.600659
O O13 0.996581 0.803077 0.563830
O O14 0.118531 0.945935 0.461657
#
# Coordination Sequence:
#
# PCOD9436737 Si02
#       7
#     4   8   8   8   8   8   4
#     4  10  20  37  54  80 111 148 170 217 275 316
#     4   9  16  27  49  75 106 139 165 199 254 319
#     4  10  20  34  49  78 107 141 174 213 272 308
#     4   9  19  31  46  75 100 141 179 204 260 307
#     4   9  18  33  51  72 110 139 175 209 258 323
#     4  11  21  34  49  73 110 144 182 221 259 311
#     4  10  22  37  54  78 109 138 180 221 267 328
#
# _framework density 18.74963
#
# number of rings (size 3 to 8) (size 9 to 14) (size 15 to 20)
#    1.000    1.333    1.667    2.500    0.000    1.333 
#    1.500    0.000    0.000    0.000    0.000   11.667 
#    0.000    0.000    0.000    0.000    0.000    0.000 
#
# Total GULP energy -267428.154946 kJ/mol
# GULP energy per Si atom -5571.419895 kJ/mol
# Density = 1.870695 g / cm^3
# Si number density = 18.749630 Si / 1000 Ang^3
#
#
#
# Elastic Constant Matrix: (Units=GPa)
#
#
# Indices 1 2 3 4 5 6 
#
# 1 90.3971 4.5109 20.4407 0.0000 0.0000 0.0000
# 2 4.5109 34.8618 1.4870 0.0000 0.0000 0.0000
# 3 20.4407 1.4870 66.8057 0.0000 0.0000 0.0000
# 4 0.0000 0.0000 0.0000 19.4383 0.0000 0.0000
# 5 0.0000 0.0000 0.0000 0.0000 10.9243 0.0000
# 6 0.0000 0.0000 0.0000 0.0000 0.0000 22.5980
#
#
#
# Elastic Compliance Matrix: (Units=1/GPa)
#
#
# Indices 1 2 3 4 5 6 
#
# 1 0.011952 -0.001392 -0.003626 0.000000 0.000000 0.000000
# 2 -0.001392 0.028874 -0.000217 0.000000 0.000000 0.000000
# 3 -0.003626 -0.000217 0.016083 0.000000 0.000000 0.000000
# 4 0.000000 0.000000 0.000000 0.051445 0.000000 0.000000
# 5 0.000000 0.000000 0.000000 0.000000 0.091539 0.000000
# 6 0.000000 0.000000 0.000000 0.000000 0.000000 0.044252
#
#
# Mechanical properties :
#
#
# Convention : Reuss Voigt Hill
#
# Bulk Modulus (GPa) = 21.53334 27.21575 24.37455
# Shear Modulus (GPa) = 18.51214 21.63386 20.07300
#
# Velocity S-wave (km/s) = 3.14560 3.40049 3.27552
# Velocity P-wave (km/s) = 4.97017 5.47400 5.22816
#
# Compressibility (1/GPa) = 0.04643961
#
# Stress axis : x y z
#
# Youngs Moduli (GPa) = 83.67048 34.63319 62.17734
#
# Poissons Ratio (x) = 0.04820 0.22545
# Poissons Ratio (y) = 0.11645 0.01348
# Poissons Ratio (z) = 0.30338 0.00751
#
# Static dielectric constant tensor:
#      x y z
#    x 1.611640 0.000000 0.000000 
#    y 0.000000 1.699980 0.000000 
#    z 0.000000 0.000000 1.716730 
# 
# From -- ./inp_files/27128.got.cif
#   From: 2010.05.17/outbox.cif.g08.bks.cpg/sg57_14_cif.got.tgz:27128.got - 2010.06.03 13:58:18.
