data_PCOD9436220
_publ_section_title
;
Structure prediction by ZEFSAII (Michael W. Deem and Ramdas Pophale) SiO2 
 PCOD9436220
Probable space group: P B C M
;
_chemical_formula_sum "Si O2"
_cell_formula_units_Z 36
_cell_length_a 8.801092
_cell_length_b 13.927107
_cell_length_c 13.610527
_cell_angle_alpha 90.000000
_cell_angle_beta 90.000000
_cell_angle_gamma 90.000000
_cell_volume 1668.293334
_symmetry_space_group_name_H-M "P B C M"
_symmetry_group_IT_number 57
_symmetry_cell_setting 'orthorhombic'
loop_
_space_group_symop_operation_xyz
x,y,z
-x,-y,1/2+z
x,1/2-y,-z
-x,1/2+y,1/2-z
-x,-y,-z
x,y,1/2-z
-x,1/2+y,z
x,1/2-y,1/2+z
loop_
_atom_site_type_symbol
_atom_site_label
_atom_site_fract_x
_atom_site_fract_y
_atom_site_fract_z
Si Si1 0.431645 0.979658 0.361400
Si Si2 0.575851 0.351758 0.539935
Si Si3 0.897594 0.750000 0.500000
Si Si4 0.783671 0.588149 0.861227
Si Si5 0.886999 0.378530 0.864957
O O1 0.371522 0.975485 0.250000
O O2 0.362123 0.913003 0.446066
O O3 0.607607 0.944509 0.359194
O O4 0.446393 0.086713 0.405236
O O5 0.525289 0.250000 0.500000
O O6 0.716375 0.340573 0.613853
O O7 0.806231 0.676530 0.567651
O O8 0.001252 0.682816 0.431006
O O9 0.826537 0.615008 0.750000
O O10 0.878659 0.492545 0.888473
O O11 0.922282 0.369382 0.750000
#
# Coordination Sequence:
#
# PCOD9436220 Si02
#       5
#     8   8   4   8   8
#     4   9  20  37  56  82 116 146 179 227 279 329
#     4  10  19  35  59  82 108 148 185 220 279 333
#     4  12  20  34  60  84 106 146 196 226 264 334
#     4   9  20  37  56  78 111 148 178 225 282 325
#     4  10  21  38  56  81 115 146 182 231 280 321
#
# _framework density 21.578939999999999
#
# number of rings (size 3 to 8) (size 9 to 14) (size 15 to 20)
#    0.000    2.222    1.111    3.333    1.556    1.778 
#    0.000    0.000    0.000    5.333    0.000    0.000 
#    0.000    0.000    0.000    0.000    0.000    0.000 
#
# Total GULP energy -201139.082947 kJ/mol
# GULP energy per Si atom -5587.196749 kJ/mol
# Density = 2.152983 g / cm^3
# Si number density = 21.578940 Si / 1000 Ang^3
#
#
#
# Elastic Constant Matrix: (Units=GPa)
#
#
# Indices 1 2 3 4 5 6 
#
# 1 18.6067 23.9184 9.7800 0.0000 0.0000 0.0000
# 2 23.9184 135.6370 61.9892 0.0000 0.0000 0.0000
# 3 9.7800 61.9892 136.3853 0.0000 0.0000 0.0000
# 4 0.0000 0.0000 0.0000 34.4412 0.0000 0.0000
# 5 0.0000 0.0000 0.0000 0.0000 13.0199 0.0000
# 6 0.0000 0.0000 0.0000 0.0000 0.0000 -5.4734
#
#
#
# Elastic Compliance Matrix: (Units=1/GPa)
#
#
# Indices 1 2 3 4 5 6 
#
# 1 0.069557 -0.012605 0.000741 0.000000 0.000000 0.000000
# 2 -0.012605 0.011590 -0.004364 0.000000 0.000000 0.000000
# 3 0.000741 -0.004364 0.009262 0.000000 0.000000 0.000000
# 4 0.000000 0.000000 0.000000 0.029035 0.000000 0.000000
# 5 0.000000 0.000000 0.000000 0.000000 0.076806 0.000000
# 6 0.000000 0.000000 0.000000 0.000000 0.000000 -0.182702
#
#
# Mechanical properties :
#
#
# Convention : Reuss Voigt Hill
#
# Bulk Modulus (GPa) = 17.25475 53.55601 35.40538
# Shear Modulus (GPa) = 76.54456 21.39363 48.96909
#
# Velocity S-wave (km/s) = 5.96229 3.15209 4.76889
# Velocity P-wave (km/s) = 7.44392 6.17414 6.83857
#
# Compressibility (1/GPa) = 0.05795505
#
# Stress axis : x y z
#
# Youngs Moduli (GPa) = 14.37660 86.28360 107.96272
#
# Poissons Ratio (x) = 1.08757 -0.08001
# Poissons Ratio (y) = 0.18121 0.47113
# Poissons Ratio (z) = -0.01065 0.37653
#
# Static dielectric constant tensor:
#      x y z
#    x 1.770070 0.000000 0.000000 
#    y 0.000000 1.782070 0.000000 
#    z 0.000000 0.000000 1.792080 
# 
# From -- ./inp_files/12532.got.cif
#   From: 2010.05.17/outbox.cif.g08.bks.cpg/sg57_7_cif.got.tgz:12532.got - 2010.06.03 13:58:18.
