data_PCOD9436294
_publ_section_title
;
Structure prediction by ZEFSAII (Michael W. Deem and Ramdas Pophale) SiO2 
 PCOD9436294
Probable space group: P B C M
;
_chemical_formula_sum "Si O2"
_cell_formula_units_Z 64
_cell_length_a 21.048831
_cell_length_b 8.348655
_cell_length_c 17.136033
_cell_angle_alpha 90.000000
_cell_angle_beta 90.000000
_cell_angle_gamma 90.000000
_cell_volume 3011.305280
_symmetry_space_group_name_H-M "P B C M"
_symmetry_group_IT_number 57
_symmetry_cell_setting 'orthorhombic'
loop_
_space_group_symop_operation_xyz
x,y,z
-x,-y,1/2+z
x,1/2-y,-z
-x,1/2+y,1/2-z
-x,-y,-z
x,y,1/2-z
-x,1/2+y,z
x,1/2-y,1/2+z
loop_
_atom_site_type_symbol
_atom_site_label
_atom_site_fract_x
_atom_site_fract_y
_atom_site_fract_z
Si Si1 0.685932 0.226012 0.406610
Si Si2 0.936684 0.903052 0.340435
Si Si3 0.827781 0.872207 0.058601
Si Si4 0.075248 0.482406 0.840915
Si Si5 0.806238 0.112027 0.562907
Si Si6 0.577804 0.709500 0.658431
Si Si7 0.553979 0.328506 0.841282
Si Si8 0.288296 0.365606 0.155772
O O1 0.683821 0.250000 0.500000
O O2 0.746833 0.333978 0.384615
O O3 0.614971 0.260272 0.376736
O O4 0.702006 0.048467 0.374063
O O5 0.929711 0.953881 0.250000
O O6 0.880570 0.970093 0.394342
O O7 0.927318 0.710895 0.344068
O O8 0.006661 0.951847 0.367148
O O9 0.778089 0.804943 0.121220
O O10 0.862058 0.750000 0.000000
O O11 0.787056 0.970835 0.996193
O O12 0.082432 0.528087 0.750000
O O13 0.132944 0.555574 0.889244
O O14 0.822634 0.250000 0.500000
O O15 0.580284 0.756494 0.750000
O O16 0.515225 0.790700 0.623503
O O17 0.565622 0.518611 0.654392
O O18 0.649403 0.732316 0.628017
O O19 0.552182 0.283054 0.750000
O O20 0.286942 0.366856 0.250000
#
# Coordination Sequence:
#
# PCOD9436294 Si02
#       8
#     8   8   8   8   8   8   8   8
#     4  10  19  36  57  82 118 149 192 243 286 345
#     4  10  23  42  63  89 119 152 195 240 287 345
#     4  12  23  41  61  86 121 156 191 243 299 344
#     4  10  23  42  62  88 119 151 191 240 286 342
#     4  11  23  41  59  85 118 154 194 237 286 346
#     4   8  16  32  54  80 108 142 193 243 285 340
#     4   9  17  33  55  78 107 147 191 238 288 343
#     4  10  20  38  63  85 112 159 204 239 287 355
#
# _framework density 21.253243000000001
#
# number of rings (size 3 to 8) (size 9 to 14) (size 15 to 20)
#    0.000    2.000    3.750    1.500    1.750    2.000 
#    2.250    3.125    0.000    0.000    0.000    0.000 
#    0.000    0.000    0.000    0.000    0.000    0.000 
#
# Total GULP energy -356690.719811 kJ/mol
# GULP energy per Si atom -5573.292497 kJ/mol
# Density = 2.120487 g / cm^3
# Si number density = 21.253243 Si / 1000 Ang^3
#
#
#
# Elastic Constant Matrix: (Units=GPa)
#
#
# Indices 1 2 3 4 5 6 
#
# 1 127.0489 -24.4468 33.7200 0.0000 0.0000 0.0000
# 2 -24.4468 -13.1990 -2.0214 0.0000 0.0000 0.0000
# 3 33.7200 -2.0214 54.7139 0.0000 0.0000 0.0000
# 4 0.0000 0.0000 0.0000 21.6274 0.0000 0.0000
# 5 0.0000 0.0000 0.0000 0.0000 26.2381 0.0000
# 6 0.0000 0.0000 0.0000 0.0000 0.0000 31.9972
#
#
#
# Elastic Compliance Matrix: (Units=1/GPa)
#
#
# Indices 1 2 3 4 5 6 
#
# 1 0.006811 -0.011905 -0.004637 0.000000 0.000000 0.000000
# 2 -0.011905 -0.054528 0.005322 0.000000 0.000000 0.000000
# 3 -0.004637 0.005322 0.021332 0.000000 0.000000 0.000000
# 4 0.000000 0.000000 0.000000 0.046238 0.000000 0.000000
# 5 0.000000 0.000000 0.000000 0.000000 0.038113 0.000000
# 6 0.000000 0.000000 0.000000 0.000000 0.000000 0.031253
#
#
# Mechanical properties :
#
#
# Convention : Reuss Voigt Hill
#
# Bulk Modulus (GPa) = -20.48097 20.34082 -0.07008
# Shear Modulus (GPa) = 52.42082 26.72668 39.57375
#
# Velocity S-wave (km/s) = 4.97176 3.55002 4.31978
# Velocity P-wave (km/s) = 4.82704 5.13761 4.98474
#
# Compressibility (1/GPa) = -0.04882581
#
# Stress axis : x y z
#
# Youngs Moduli (GPa) = 146.82023 -18.33908 46.87884
#
# Poissons Ratio (x) = -0.21833 0.21740
# Poissons Ratio (y) = 1.74789 -0.24951
# Poissons Ratio (z) = 0.68087 0.09761
#
# Static dielectric constant tensor:
#      x y z
#    x 1.809050 0.000000 0.000000 
#    y 0.000000 1.849950 0.000000 
#    z 0.000000 0.000000 1.752790 
# 
# From -- ./inp_files/23022.got.cif
#   From: 2010.05.17/outbox.cif.g08.bks.cpg/sg57_12_cif.got.tgz:23022.got - 2010.06.03 13:58:18.
