data_PCOD9436965
_publ_section_title
;
Structure prediction by ZEFSAII (Michael W. Deem and Ramdas Pophale) SiO2 
 PCOD9436965
Probable space group: P B C M
;
_chemical_formula_sum "Si O2"
_cell_formula_units_Z 48
_cell_length_a 10.912303
_cell_length_b 9.220361
_cell_length_c 25.877517
_cell_angle_alpha 90.000000
_cell_angle_beta 90.000000
_cell_angle_gamma 90.000000
_cell_volume 2603.676025
_symmetry_space_group_name_H-M "P B C M"
_symmetry_group_IT_number 57
_symmetry_cell_setting 'orthorhombic'
loop_
_space_group_symop_operation_xyz
x,y,z
-x,-y,1/2+z
x,1/2-y,-z
-x,1/2+y,1/2-z
-x,-y,-z
x,y,1/2-z
-x,1/2+y,z
x,1/2-y,1/2+z
loop_
_atom_site_type_symbol
_atom_site_label
_atom_site_fract_x
_atom_site_fract_y
_atom_site_fract_z
Si Si1 0.348794 0.990869 0.193158
Si Si2 0.840911 0.690772 0.148943
Si Si3 0.965416 0.517035 0.810098
Si Si4 0.724166 0.177622 0.307602
Si Si5 0.345059 0.234547 0.939648
Si Si6 0.541745 0.451613 0.891402
O O1 0.404514 0.990887 0.250000
O O2 0.261850 0.850567 0.189765
O O3 0.448696 0.973590 0.148898
O O4 0.272809 0.137675 0.184371
O O5 0.912443 0.829309 0.171106
O O6 0.773976 0.725287 0.094923
O O7 0.934531 0.556304 0.152633
O O8 0.008505 0.526111 0.750000
O O9 0.850688 0.407128 0.810710
O O10 0.671630 0.146844 0.250000
O O11 0.637713 0.128720 0.354149
O O12 0.457015 0.342158 0.924014
O O13 0.389633 0.073066 0.924706
O O14 0.319707 0.250000 0.000000
#
# Coordination Sequence:
#
# PCOD9436965 Si02
#       6
#     8   8   8   8   8   8
#     4  10  20  34  55  88 124 156 190 236 300 370
#     4  11  23  39  61  86 124 157 203 250 292 353
#     4  11  21  36  59  87 120 161 193 232 299 368
#     4  10  20  34  56  87 124 159 195 236 297 372
#     4  11  24  42  65  87 116 161 213 260 303 345
#     4  11  20  39  60  87 120 154 199 252 306 358
#
# _framework density 18.435473000000002
#
# number of rings (size 3 to 8) (size 9 to 14) (size 15 to 20)
#    0.000    1.333    3.333    3.500    0.000    1.333 
#    0.000    0.833    0.000    0.000    0.000    0.000 
#    0.000    0.000    0.000    0.000    0.000    0.000 
#
# Total GULP energy -267869.241895 kJ/mol
# GULP energy per Si atom -5580.609206 kJ/mol
# Density = 1.839351 g / cm^3
# Si number density = 18.435473 Si / 1000 Ang^3
#
#
#
# Elastic Constant Matrix: (Units=GPa)
#
#
# Indices 1 2 3 4 5 6 
#
# 1 71.1406 39.4213 37.8610 0.0000 0.0000 0.0000
# 2 39.4213 85.1715 50.8373 0.0000 0.0000 0.0000
# 3 37.8610 50.8373 117.6578 0.0000 0.0000 0.0000
# 4 0.0000 0.0000 0.0000 18.9059 0.0000 0.0000
# 5 0.0000 0.0000 0.0000 0.0000 19.5308 0.0000
# 6 0.0000 0.0000 0.0000 0.0000 0.0000 36.7933
#
#
#
# Elastic Compliance Matrix: (Units=1/GPa)
#
#
# Indices 1 2 3 4 5 6 
#
# 1 0.019785 -0.007219 -0.003247 0.000000 0.000000 0.000000
# 2 -0.007219 0.018455 -0.005651 0.000000 0.000000 0.000000
# 3 -0.003247 -0.005651 0.011986 0.000000 0.000000 0.000000
# 4 0.000000 0.000000 0.000000 0.052894 0.000000 0.000000
# 5 0.000000 0.000000 0.000000 0.000000 0.051201 0.000000
# 6 0.000000 0.000000 0.000000 0.000000 0.000000 0.027179
#
#
# Mechanical properties :
#
#
# Convention : Reuss Voigt Hill
#
# Bulk Modulus (GPa) = 55.58286 58.91215 57.24751
# Shear Modulus (GPa) = 22.75489 24.76936 23.76213
#
# Velocity S-wave (km/s) = 3.51707 3.66945 3.59407
# Velocity P-wave (km/s) = 6.83436 7.06954 6.95294
#
# Compressibility (1/GPa) = 0.01799116
#
# Stress axis : x y z
#
# Youngs Moduli (GPa) = 50.54231 54.18449 83.43110
#
# Poissons Ratio (x) = 0.39117 0.27094
# Poissons Ratio (y) = 0.36488 0.47148
# Poissons Ratio (z) = 0.16413 0.30620
#
# Static dielectric constant tensor:
#      x y z
#    x 1.652830 0.000000 0.000000 
#    y 0.000000 1.654780 0.000000 
#    z 0.000000 0.000000 1.600000 
# 
# From -- ./inp_files/27104.got.cif
#   From: 2010.05.17/outbox.cif.g08.bks.cpg/sg57_14_cif.got.tgz:27104.got - 2010.06.03 13:58:18.
