data_PCOD9436394
_publ_section_title
;
Structure prediction by ZEFSAII (Michael W. Deem and Ramdas Pophale) SiO2 
 PCOD9436394
Probable space group: P B C M
;
_chemical_formula_sum "Si O2"
_cell_formula_units_Z 64
_cell_length_a 11.217346
_cell_length_b 16.786260
_cell_length_c 17.536449
_cell_angle_alpha 90.000000
_cell_angle_beta 90.000000
_cell_angle_gamma 90.000000
_cell_volume 3302.065761
_symmetry_space_group_name_H-M "P B C M"
_symmetry_group_IT_number 57
_symmetry_cell_setting 'orthorhombic'
loop_
_space_group_symop_operation_xyz
x,y,z
-x,-y,1/2+z
x,1/2-y,-z
-x,1/2+y,1/2-z
-x,-y,-z
x,y,1/2-z
-x,1/2+y,z
x,1/2-y,1/2+z
loop_
_atom_site_type_symbol
_atom_site_label
_atom_site_fract_x
_atom_site_fract_y
_atom_site_fract_z
Si Si1 0.175407 0.155543 0.412410
Si Si2 0.242379 0.553160 0.440973
Si Si3 0.893499 0.599463 0.921322
Si Si4 0.879163 0.137085 0.665296
Si Si5 0.092191 0.708227 0.082983
Si Si6 0.704107 0.693705 0.660948
Si Si7 0.431246 0.460917 0.340567
Si Si8 0.699388 0.012018 0.887227
O O1 0.157558 0.142961 0.503423
O O2 0.264093 0.226574 0.386520
O O3 0.038915 0.177998 0.389230
O O4 0.230379 0.072302 0.382039
O O5 0.132284 0.492489 0.432885
O O6 0.188141 0.638973 0.426943
O O7 0.339468 0.519839 0.382174
O O8 0.294588 0.540287 0.524987
O O9 0.819743 0.637857 0.852213
O O10 0.029707 0.609672 0.900422
O O11 0.930482 0.131338 0.750000
O O12 0.857591 0.227988 0.642746
O O13 0.767124 0.079666 0.659918
O O14 0.076012 0.750000 0.000000
O O15 0.688877 0.714132 0.750000
O O16 0.599599 0.631512 0.636118
O O17 0.413581 0.463465 0.250000
O O18 0.563250 0.488979 0.361413
#
# Coordination Sequence:
#
# PCOD9436394 Si02
#       8
#     8   8   8   8   8   8   8   8
#     4  11  21  37  66  94 124 162 213 263 313 377
#     4  10  22  40  67  91 120 166 219 264 311 382
#     4  10  19  37  61  92 123 159 205 257 317 376
#     4  12  24  38  61  93 134 169 200 255 328 390
#     4  12  21  39  63  95 133 163 205 262 324 383
#     4  10  20  36  60  89 123 166 208 259 319 378
#     4  10  23  44  64  88 130 170 215 269 325 380
#     4  11  23  42  65  93 124 173 221 264 312 377
#
# _framework density 19.381806000000001
#
# number of rings (size 3 to 8) (size 9 to 14) (size 15 to 20)
#    0.000    1.250    3.750    2.250    0.000    4.000 
#    2.250    1.250    2.750    0.000    0.000    0.000 
#    0.000    0.000    0.000    0.000    0.000    0.000 
#
# Total GULP energy -357038.401135 kJ/mol
# GULP energy per Si atom -5578.725018 kJ/mol
# Density = 1.933769 g / cm^3
# Si number density = 19.381806 Si / 1000 Ang^3
#
#
#
# Elastic Constant Matrix: (Units=GPa)
#
#
# Indices 1 2 3 4 5 6 
#
# 1 64.5138 69.9636 39.2507 0.0000 0.0000 0.0000
# 2 69.9636 126.2690 44.4434 0.0000 0.0000 0.0000
# 3 39.2507 44.4434 73.3752 0.0000 0.0000 0.0000
# 4 0.0000 0.0000 0.0000 14.6923 0.0000 0.0000
# 5 0.0000 0.0000 0.0000 0.0000 22.7099 0.0000
# 6 0.0000 0.0000 0.0000 0.0000 0.0000 13.9444
#
#
#
# Elastic Compliance Matrix: (Units=1/GPa)
#
#
# Indices 1 2 3 4 5 6 
#
# 1 0.045366 -0.021091 -0.011493 0.000000 0.000000 0.000000
# 2 -0.021091 0.019871 -0.000754 0.000000 0.000000 0.000000
# 3 -0.011493 -0.000754 0.020233 0.000000 0.000000 0.000000
# 4 0.000000 0.000000 0.000000 0.068063 0.000000 0.000000
# 5 0.000000 0.000000 0.000000 0.000000 0.044034 0.000000
# 6 0.000000 0.000000 0.000000 0.000000 0.000000 0.071713
#
#
# Mechanical properties :
#
#
# Convention : Reuss Voigt Hill
#
# Bulk Modulus (GPa) = 53.20620 63.49702 58.35161
# Shear Modulus (GPa) = 14.61051 17.63601 16.12326
#
# Velocity S-wave (km/s) = 2.74857 3.01977 2.88736
# Velocity P-wave (km/s) = 6.13058 6.70753 6.42554
#
# Compressibility (1/GPa) = 0.01879480
#
# Stress axis : x y z
#
# Youngs Moduli (GPa) = 22.04307 50.32413 49.42483
#
# Poissons Ratio (x) = 1.06140 0.56802
# Poissons Ratio (y) = 0.46492 0.03724
# Poissons Ratio (z) = 0.25333 0.03792
#
# Static dielectric constant tensor:
#      x y z
#    x 1.668990 0.000000 0.000000 
#    y 0.000000 1.709250 0.000000 
#    z 0.000000 0.000000 1.691020 
# 
# From -- ./inp_files/22095.got.cif
#   From: 2010.05.17/outbox.cif.g08.bks.cpg/sg57_12_cif.got.tgz:22095.got - 2010.06.03 13:58:18.
