data_PCOD9436742
_publ_section_title
;
Structure prediction by ZEFSAII (Michael W. Deem and Ramdas Pophale) SiO2 
 PCOD9436742
Probable space group: P B C M
;
_chemical_formula_sum "Si O2"
_cell_formula_units_Z 64
_cell_length_a 16.502904
_cell_length_b 25.769429
_cell_length_c 8.458104
_cell_angle_alpha 90.000000
_cell_angle_beta 90.000000
_cell_angle_gamma 90.000000
_cell_volume 3596.981381
_symmetry_space_group_name_H-M "P B C M"
_symmetry_group_IT_number 57
_symmetry_cell_setting 'orthorhombic'
loop_
_space_group_symop_operation_xyz
x,y,z
-x,-y,1/2+z
x,1/2-y,-z
-x,1/2+y,1/2-z
-x,-y,-z
x,y,1/2-z
-x,1/2+y,z
x,1/2-y,1/2+z
loop_
_atom_site_type_symbol
_atom_site_label
_atom_site_fract_x
_atom_site_fract_y
_atom_site_fract_z
Si Si1 0.354650 0.595419 0.060566
Si Si2 0.750647 0.192761 0.940178
Si Si3 0.071615 0.840650 0.438346
Si Si4 0.990115 0.557390 0.561407
Si Si5 0.822751 0.593087 0.066483
Si Si6 0.313259 0.478539 0.061423
Si Si7 0.895572 0.693971 0.439141
Si Si8 0.518738 0.941902 0.060070
O O1 0.348016 0.596592 0.250000
O O2 0.322094 0.538289 0.002206
O O3 0.305787 0.644668 0.993953
O O4 0.449832 0.594583 0.013082
O O5 0.751342 0.193285 0.750000
O O6 0.843298 0.181710 0.998063
O O7 0.725622 0.250000 0.000000
O O8 0.069030 0.831824 0.250000
O O9 0.064173 0.902776 0.464924
O O10 0.988136 0.817386 0.505661
O O11 0.972199 0.558723 0.750000
O O12 0.915635 0.577673 0.458903
O O13 0.000000 0.500000 0.500000
O O14 0.800024 0.593020 0.250000
O O15 0.829379 0.651791 0.002943
O O16 0.768324 0.550597 0.982217
O O17 0.319828 0.483005 0.250000
O O18 0.386880 0.440008 0.011596
O O19 0.873217 0.750000 0.500000
O O20 0.895956 0.691547 0.250000
O O21 0.512230 0.939018 0.250000
O O22 0.500000 0.000000 0.000000
#
# Coordination Sequence:
#
# PCOD9436742 Si02
#       8
#     8   8   8   8   8   8   8   8
#     4  10  21  36  55  81 109 141 178 217 269 324
#     4  11  23  38  55  78 107 142 183 229 273 320
#     4   9  20  36  53  74 100 135 179 223 268 315
#     4  10  20  34  50  72 104 141 178 217 265 319
#     4  10  21  34  50  76 105 137 175 214 263 315
#     4   9  19  34  54  82 112 140 173 216 266 318
#     4  10  20  34  53  75  99 133 175 219 264 311
#     4   9  17  32  54  81 109 137 170 208 255 311
#
# _framework density 17.792697
#
# number of rings (size 3 to 8) (size 9 to 14) (size 15 to 20)
#    0.000    2.250    0.000    3.375    1.750    7.000 
#    0.000    0.000    0.000    0.750    0.000    1.750 
#    0.000    0.000    0.000    0.000    0.000    0.000 
#
# Total GULP energy -356362.464593 kJ/mol
# GULP energy per Si atom -5568.163509 kJ/mol
# Density = 1.775220 g / cm^3
# Si number density = 17.792697 Si / 1000 Ang^3
#
#
#
# Elastic Constant Matrix: (Units=GPa)
#
#
# Indices 1 2 3 4 5 6 
#
# 1 64.9024 40.3318 9.1509 0.0000 0.0000 0.0000
# 2 40.3318 124.6375 20.7151 0.0000 0.0000 0.0000
# 3 9.1509 20.7151 27.9065 0.0000 0.0000 0.0000
# 4 0.0000 0.0000 0.0000 28.0333 0.0000 0.0000
# 5 0.0000 0.0000 0.0000 0.0000 19.5676 0.0000
# 6 0.0000 0.0000 0.0000 0.0000 0.0000 21.3735
#
#
#
# Elastic Compliance Matrix: (Units=1/GPa)
#
#
# Indices 1 2 3 4 5 6 
#
# 1 0.019377 -0.005948 -0.001939 0.000000 0.000000 0.000000
# 2 -0.005948 0.010978 -0.006199 0.000000 0.000000 0.000000
# 3 -0.001939 -0.006199 0.041071 0.000000 0.000000 0.000000
# 4 0.000000 0.000000 0.000000 0.035672 0.000000 0.000000
# 5 0.000000 0.000000 0.000000 0.000000 0.051105 0.000000
# 6 0.000000 0.000000 0.000000 0.000000 0.000000 0.046787
#
#
# Mechanical properties :
#
#
# Convention : Reuss Voigt Hill
#
# Bulk Modulus (GPa) = 23.11847 39.76020 31.43934
# Shear Modulus (GPa) = 20.19547 23.61145 21.90346
#
# Velocity S-wave (km/s) = 3.37269 3.64680 3.51242
# Velocity P-wave (km/s) = 5.30926 6.33459 5.84445
#
# Compressibility (1/GPa) = 0.04325545
#
# Stress axis : x y z
#
# Youngs Moduli (GPa) = 51.60641 91.08874 24.34805
#
# Poissons Ratio (x) = 0.54181 0.04720
# Poissons Ratio (y) = 0.30696 0.15093
# Poissons Ratio (z) = 0.10005 0.56464
#
# Static dielectric constant tensor:
#      x y z
#    x 1.615720 0.000000 0.000000 
#    y 0.000000 1.682800 0.000000 
#    z 0.000000 0.000000 1.615270 
# 
# From -- ./inp_files/5538.got.cif
#   From: 2010.05.17/outbox.cif.g08.bks.cpg/sg57_3_cif.got.tgz:5538.got - 2010.06.03 13:58:18.
