data_PCOD9436761
_publ_section_title
;
Structure prediction by ZEFSAII (Michael W. Deem and Ramdas Pophale) SiO2 
 PCOD9436761
Probable space group: P B C M
;
_chemical_formula_sum "Si O2"
_cell_formula_units_Z 64
_cell_length_a 18.119813
_cell_length_b 22.297047
_cell_length_c 8.792871
_cell_angle_alpha 90.000000
_cell_angle_beta 90.000000
_cell_angle_gamma 90.000000
_cell_volume 3552.480988
_symmetry_space_group_name_H-M "P B C M"
_symmetry_group_IT_number 57
_symmetry_cell_setting 'orthorhombic'
loop_
_space_group_symop_operation_xyz
x,y,z
-x,-y,1/2+z
x,1/2-y,-z
-x,1/2+y,1/2-z
-x,-y,-z
x,y,1/2-z
-x,1/2+y,z
x,1/2-y,1/2+z
loop_
_atom_site_type_symbol
_atom_site_label
_atom_site_fract_x
_atom_site_fract_y
_atom_site_fract_z
Si Si1 0.882262 0.813814 0.573970
Si Si2 0.371628 0.194094 0.574450
Si Si3 0.728241 0.026752 0.922898
Si Si4 0.530329 0.185365 0.068676
Si Si5 0.730172 0.885048 0.582967
Si Si6 0.441628 0.551025 0.564881
Si Si7 0.882738 0.468480 0.568696
Si Si8 0.973844 0.585922 0.569189
O O1 0.870007 0.750000 0.500000
O O2 0.903518 0.808231 0.750000
O O3 0.807077 0.851645 0.567134
O O4 0.942605 0.850925 0.482347
O O5 0.328433 0.250000 0.500000
O O6 0.389830 0.203652 0.750000
O O7 0.443840 0.188559 0.471940
O O8 0.323379 0.135720 0.549797
O O9 0.731221 0.050339 0.750000
O O10 0.643817 0.035850 0.976752
O O11 0.739393 0.955467 0.919650
O O12 0.801118 0.048166 0.010922
O O13 0.543293 0.184436 0.250000
O O14 0.560020 0.250000 0.000000
O O15 0.549797 0.120016 0.995507
O O16 0.698132 0.868630 0.750000
O O17 0.500000 0.500000 0.500000
O O18 0.449007 0.550203 0.750000
O O19 0.881541 0.467831 0.750000
O O20 0.914394 0.534416 0.520330
O O21 0.947376 0.426349 0.506128
O O22 0.981035 0.581630 0.750000
#
# Coordination Sequence:
#
# PCOD9436761 Si02
#       8
#     8   8   8   8   8   8   8   8
#     4  11  22  35  53  77 112 152 193 233 278 338
#     4  11  21  33  51  74 103 141 188 236 284 344
#     4  10  21  37  57  82 115 150 188 236 291 346
#     4  11  22  39  61  83 112 150 198 251 304 367
#     4  10  20  34  51  75 109 149 189 232 280 335
#     4  11  23  39  61  91 125 163 203 251 309 365
#     4  10  20  34  57  85 111 142 183 233 285 338
#     4  10  20  35  56  81 111 145 186 231 279 333
#
# _framework density 18.015578000000001
#
# number of rings (size 3 to 8) (size 9 to 14) (size 15 to 20)
#    0.000    1.500    1.250    5.625    0.000    5.500 
#    0.000    0.000    0.000    0.750    0.000    1.750 
#    0.000    0.000    0.000    0.000    0.000    0.000 
#
# Total GULP energy -356639.386271 kJ/mol
# GULP energy per Si atom -5572.490410 kJ/mol
# Density = 1.797457 g / cm^3
# Si number density = 18.015578 Si / 1000 Ang^3
#
#
#
# Elastic Constant Matrix: (Units=GPa)
#
#
# Indices 1 2 3 4 5 6 
#
# 1 110.4003 39.3241 45.8261 0.0000 0.0000 0.0000
# 2 39.3241 96.3355 29.5091 0.0000 0.0000 0.0000
# 3 45.8261 29.5091 65.4804 0.0000 0.0000 0.0000
# 4 0.0000 0.0000 0.0000 29.1245 0.0000 0.0000
# 5 0.0000 0.0000 0.0000 0.0000 25.2391 0.0000
# 6 0.0000 0.0000 0.0000 0.0000 0.0000 35.7489
#
#
#
# Elastic Compliance Matrix: (Units=1/GPa)
#
#
# Indices 1 2 3 4 5 6 
#
# 1 0.013490 -0.003033 -0.008074 0.000000 0.000000 0.000000
# 2 -0.003033 0.012725 -0.003612 0.000000 0.000000 0.000000
# 3 -0.008074 -0.003612 0.022550 0.000000 0.000000 0.000000
# 4 0.000000 0.000000 0.000000 0.034335 0.000000 0.000000
# 5 0.000000 0.000000 0.000000 0.000000 0.039621 0.000000
# 6 0.000000 0.000000 0.000000 0.000000 0.000000 0.027973
#
#
# Mechanical properties :
#
#
# Convention : Reuss Voigt Hill
#
# Bulk Modulus (GPa) = 51.74146 55.72607 53.73377
# Shear Modulus (GPa) = 26.79909 28.52628 27.66268
#
# Velocity S-wave (km/s) = 3.86106 3.98354 3.92278
# Velocity P-wave (km/s) = 6.97566 7.22201 7.09990
#
# Compressibility (1/GPa) = 0.01932686
#
# Stress axis : x y z
#
# Youngs Moduli (GPa) = 74.13034 78.58593 44.34654
#
# Poissons Ratio (x) = 0.23838 0.35804
# Poissons Ratio (y) = 0.22487 0.16016
# Poissons Ratio (z) = 0.59851 0.28382
#
# Static dielectric constant tensor:
#      x y z
#    x 1.614040 0.000000 0.000000 
#    y 0.000000 1.678620 0.000000 
#    z 0.000000 0.000000 1.651940 
# 
# From -- ./inp_files/7142.got.cif
#   From: 2010.05.17/outbox.cif.g08.bks.cpg/sg57_4_cif.got.tgz:7142.got - 2010.06.03 13:58:18.
