data_PCOD9436140
_publ_section_title
;
Structure prediction by ZEFSAII (Michael W. Deem and Ramdas Pophale) SiO2 
 PCOD9436140
Probable space group: P B C M
;
_chemical_formula_sum "Si O2"
_cell_formula_units_Z 64
_cell_length_a 21.540760
_cell_length_b 10.000622
_cell_length_c 13.971748
_cell_angle_alpha 90.000000
_cell_angle_beta 90.000000
_cell_angle_gamma 90.000000
_cell_volume 3009.807903
_symmetry_space_group_name_H-M "P B C M"
_symmetry_group_IT_number 57
_symmetry_cell_setting 'orthorhombic'
loop_
_space_group_symop_operation_xyz
x,y,z
-x,-y,1/2+z
x,1/2-y,-z
-x,1/2+y,1/2-z
-x,-y,-z
x,y,1/2-z
-x,1/2+y,z
x,1/2-y,1/2+z
loop_
_atom_site_type_symbol
_atom_site_label
_atom_site_fract_x
_atom_site_fract_y
_atom_site_fract_z
Si Si1 0.550612 0.672229 0.633001
Si Si2 0.563948 0.982428 0.867043
Si Si3 0.188381 0.794985 0.362765
Si Si4 0.663497 0.019136 0.133066
Si Si5 0.942345 0.125878 0.927677
Si Si6 0.925416 0.877332 0.433914
Si Si7 0.801582 0.995540 0.364180
Si Si8 0.324997 0.669635 0.866695
O O1 0.549986 0.676582 0.750000
O O2 0.490285 0.586099 0.604623
O O3 0.553654 0.828066 0.601873
O O4 0.609532 0.582085 0.603628
O O5 0.563760 0.978010 0.750000
O O6 0.627888 0.054118 0.898140
O O7 0.198785 0.780816 0.250000
O O8 0.122421 0.864739 0.372985
O O9 0.182567 0.644256 0.402739
O O10 0.253660 0.855392 0.397663
O O11 0.661647 0.021443 0.250000
O O12 0.731570 0.965968 0.103017
O O13 0.657918 0.176700 0.105063
O O14 0.009468 0.127460 0.875211
O O15 0.944978 0.250000 0.000000
O O16 0.936086 0.997147 0.992790
O O17 0.920090 0.750000 0.500000
O O18 0.859745 0.901828 0.384704
O O19 0.797503 0.003046 0.250000
O O20 0.328090 0.668567 0.750000
#
# Coordination Sequence:
#
# PCOD9436140 Si02
#       8
#     8   8   8   8   8   8   8   8
#     4   9  15  22  34  54  83 121 159 192 233 285
#     4   9  15  22  34  54  84 121 157 193 234 283
#     4   9  17  31  53  76  97 129 171 210 249 299
#     4   8  14  25  41  60  84 118 157 196 240 288
#     4  10  19  35  56  73  97 131 167 206 249 299
#     4  10  21  35  52  76 102 132 166 206 253 297
#     4   9  17  32  53  73  98 133 169 205 251 306
#     4   8  14  25  40  60  87 117 153 198 244 287
#
# _framework density 21.263815000000001
#
# number of rings (size 3 to 8) (size 9 to 14) (size 15 to 20)
#    0.000    3.000    1.250    2.250    0.000    3.500 
#    2.250    0.625    0.000    0.000    0.000    0.000 
#    0.000    2.000    0.000    0.125    0.000    0.500 
#
# Total GULP energy -356739.532577 kJ/mol
# GULP energy per Si atom -5574.055197 kJ/mol
# Density = 2.121542 g / cm^3
# Si number density = 21.263815 Si / 1000 Ang^3
#
#
#
# Elastic Constant Matrix: (Units=GPa)
#
#
# Indices 1 2 3 4 5 6 
#
# 1 215.8576 90.7093 18.9827 0.0000 0.0000 0.0000
# 2 90.7093 143.2450 19.3089 0.0000 0.0000 0.0000
# 3 18.9827 19.3089 39.4041 0.0000 0.0000 0.0000
# 4 0.0000 0.0000 0.0000 19.6770 0.0000 0.0000
# 5 0.0000 0.0000 0.0000 0.0000 -11.6798 0.0000
# 6 0.0000 0.0000 0.0000 0.0000 0.0000 36.3877
#
#
#
# Elastic Compliance Matrix: (Units=1/GPa)
#
#
# Indices 1 2 3 4 5 6 
#
# 1 0.006362 -0.003871 -0.001168 0.000000 0.000000 0.000000
# 2 -0.003871 0.009831 -0.002952 0.000000 0.000000 0.000000
# 3 -0.001168 -0.002952 0.027387 0.000000 0.000000 0.000000
# 4 0.000000 0.000000 0.000000 0.050821 0.000000 0.000000
# 5 0.000000 0.000000 0.000000 0.000000 -0.085618 0.000000
# 6 0.000000 0.000000 0.000000 0.000000 0.000000 0.027482
#
#
# Mechanical properties :
#
#
# Convention : Reuss Voigt Hill
#
# Bulk Modulus (GPa) = 36.23563 72.94539 54.59051
# Shear Modulus (GPa) = 81.37139 26.84404 54.10772
#
# Velocity S-wave (km/s) = 6.19279 3.55692 5.04987
# Velocity P-wave (km/s) = 8.25906 7.15879 7.72853
#
# Compressibility (1/GPa) = 0.02759715
#
# Stress axis : x y z
#
# Youngs Moduli (GPa) = 157.17631 101.72349 36.51328
#
# Poissons Ratio (x) = 0.39382 0.04264
# Poissons Ratio (y) = 0.60850 0.10779
# Poissons Ratio (z) = 0.18356 0.30030
#
# Static dielectric constant tensor:
#      x y z
#    x 1.835510 0.000000 0.000000 
#    y 0.000000 1.725390 0.000000 
#    z 0.000000 0.000000 1.823630 
# 
# From -- ./inp_files/25596.got.cif
#   From: 2010.05.17/outbox.cif.g08.bks.cpg/sg57_13_cif.got.tgz:25596.got - 2010.06.03 13:58:18.
