data_PCOD9436524
_publ_section_title
;
Structure prediction by ZEFSAII (Michael W. Deem and Ramdas Pophale) SiO2 
 PCOD9436524
Probable space group: P B C M
;
_chemical_formula_sum "Si O2"
_cell_formula_units_Z 56
_cell_length_a 20.837424
_cell_length_b 14.016556
_cell_length_c 9.145181
_cell_angle_alpha 90.000000
_cell_angle_beta 90.000000
_cell_angle_gamma 90.000000
_cell_volume 2671.023141
_symmetry_space_group_name_H-M "P B C M"
_symmetry_group_IT_number 57
_symmetry_cell_setting 'orthorhombic'
loop_
_space_group_symop_operation_xyz
x,y,z
-x,-y,1/2+z
x,1/2-y,-z
-x,1/2+y,1/2-z
-x,-y,-z
x,y,1/2-z
-x,1/2+y,z
x,1/2-y,1/2+z
loop_
_atom_site_type_symbol
_atom_site_label
_atom_site_fract_x
_atom_site_fract_y
_atom_site_fract_z
Si Si1 0.404653 0.538646 0.922407
Si Si2 0.460537 0.352962 0.423431
Si Si3 0.275838 0.561089 0.075454
Si Si4 0.886464 0.900279 0.911166
Si Si5 0.021363 0.842796 0.577059
Si Si6 0.153608 0.883017 0.086668
Si Si7 0.766698 0.843453 0.421402
O O1 0.392666 0.524255 0.750000
O O2 0.466503 0.607266 0.937373
O O3 0.419887 0.436902 0.998906
O O4 0.343343 0.583536 0.001379
O O5 0.453454 0.250000 0.500000
O O6 0.445044 0.347186 0.250000
O O7 0.276432 0.572421 0.250000
O O8 0.263386 0.447397 0.044414
O O9 0.218711 0.623661 0.005284
O O10 0.882342 0.852850 0.750000
O O11 0.961593 0.913783 0.945133
O O12 0.856602 0.004267 0.896878
O O13 0.841181 0.851280 0.029091
O O14 0.992389 0.750000 0.500000
O O15 0.031707 0.833351 0.750000
O O16 0.089546 0.855225 0.500019
O O17 0.156690 0.840114 0.250000
O O18 0.738432 0.750000 0.500000
O O19 0.761594 0.829340 0.250000
#
# Coordination Sequence:
#
# PCOD9436524 Si02
#       7
#     8   8   8   8   8   8   8
#     4  10  21  38  61  89 121 156 194 236 281 332
#     4  10  21  38  62  92 124 157 192 232 279 329
#     4  10  21  37  56  79 109 147 187 227 273 326
#     4   9  19  34  53  75 100 132 171 218 273 331
#     4  11  22  35  51  74 102 133 172 220 274 327
#     4  10  20  36  56  77 102 135 176 221 270 325
#     4  10  20  32  49  74 105 140 179 224 275 331
#
# _framework density 20.965748999999999
#
# number of rings (size 3 to 8) (size 9 to 14) (size 15 to 20)
#    0.000    2.000    0.000    3.429    0.000    6.857 
#    0.000    2.143    0.000    1.714    0.000    0.000 
#    0.000    0.000    0.000    0.000    0.000    0.000 
#
# Total GULP energy -312373.383297 kJ/mol
# GULP energy per Si atom -5578.096130 kJ/mol
# Density = 2.091803 g / cm^3
# Si number density = 20.965749 Si / 1000 Ang^3
#
#
#
# Elastic Constant Matrix: (Units=GPa)
#
#
# Indices 1 2 3 4 5 6 
#
# 1 98.8555 -21.9365 35.1830 0.0000 0.0000 0.0000
# 2 -21.9365 24.2995 3.0841 0.0000 0.0000 0.0000
# 3 35.1830 3.0841 86.8113 0.0000 0.0000 0.0000
# 4 0.0000 0.0000 0.0000 24.9119 0.0000 0.0000
# 5 0.0000 0.0000 0.0000 0.0000 31.8513 0.0000
# 6 0.0000 0.0000 0.0000 0.0000 0.0000 11.8705
#
#
#
# Elastic Compliance Matrix: (Units=1/GPa)
#
#
# Indices 1 2 3 4 5 6 
#
# 1 0.016033 0.015368 -0.007044 0.000000 0.000000 0.000000
# 2 0.015368 0.056070 -0.008220 0.000000 0.000000 0.000000
# 3 -0.007044 -0.008220 0.014666 0.000000 0.000000 0.000000
# 4 0.000000 0.000000 0.000000 0.040141 0.000000 0.000000
# 5 0.000000 0.000000 0.000000 0.000000 0.031396 0.000000
# 6 0.000000 0.000000 0.000000 0.000000 0.000000 0.084242
#
#
# Mechanical properties :
#
#
# Convention : Reuss Voigt Hill
#
# Bulk Modulus (GPa) = 11.49740 26.95863 19.22801
# Shear Modulus (GPa) = 18.42753 26.63579 22.53166
#
# Velocity S-wave (km/s) = 2.96790 3.56819 3.28180
# Velocity P-wave (km/s) = 4.15215 5.46464 4.85297
#
# Compressibility (1/GPa) = 0.08697622
#
# Stress axis : x y z
#
# Youngs Moduli (GPa) = 62.37183 17.83488 68.18493
#
# Poissons Ratio (x) = -0.27408 0.48028
# Poissons Ratio (y) = -0.95852 0.56050
# Poissons Ratio (z) = 0.43933 0.14661
#
# Static dielectric constant tensor:
#      x y z
#    x 1.756100 0.000000 0.000000 
#    y 0.000000 1.791110 0.000000 
#    z 0.000000 0.000000 1.743830 
# 
# From -- ./inp_files/8072.got.cif
#   From: 2010.05.17/outbox.cif.g08.bks.cpg/sg57_5_cif.got.tgz:8072.got - 2010.06.03 13:58:18.
