data_PCOD9436966
_publ_section_title
;
Structure prediction by ZEFSAII (Michael W. Deem and Ramdas Pophale) SiO2 
 PCOD9436966
Probable space group: P B C M
;
_chemical_formula_sum "Si O2"
_cell_formula_units_Z 60
_cell_length_a 10.846558
_cell_length_b 14.920552
_cell_length_c 13.701433
_cell_angle_alpha 90.000000
_cell_angle_beta 90.000000
_cell_angle_gamma 90.000000
_cell_volume 2217.393779
_symmetry_space_group_name_H-M "P B C M"
_symmetry_group_IT_number 57
_symmetry_cell_setting 'orthorhombic'
loop_
_space_group_symop_operation_xyz
x,y,z
-x,-y,1/2+z
x,1/2-y,-z
-x,1/2+y,1/2-z
-x,-y,-z
x,y,1/2-z
-x,1/2+y,z
x,1/2-y,1/2+z
loop_
_atom_site_type_symbol
_atom_site_label
_atom_site_fract_x
_atom_site_fract_y
_atom_site_fract_z
Si Si1 0.045544 0.530163 0.640034
Si Si2 0.416741 0.813339 0.140526
Si Si3 0.447626 0.376582 0.857758
Si Si4 0.799224 0.408259 0.861406
Si Si5 0.833720 0.634124 0.139351
Si Si6 0.632147 0.935251 0.436568
Si Si7 0.874163 0.826150 0.371371
Si Si8 0.778069 0.250000 0.500000
O O1 0.086395 0.552642 0.750000
O O2 0.919346 0.471885 0.639702
O O3 0.997016 0.621492 0.596139
O O4 0.143780 0.463309 0.592846
O O5 0.371053 0.823330 0.250000
O O6 0.470039 0.711719 0.127641
O O7 0.525541 0.884332 0.123644
O O8 0.307131 0.817536 0.064469
O O9 0.473115 0.417077 0.750000
O O10 0.307837 0.340652 0.851276
O O11 0.425275 0.435528 0.954150
O O12 0.771490 0.383440 0.750000
O O13 0.684408 0.469256 0.899521
O O14 0.829823 0.319727 0.921711
O O15 0.882514 0.622263 0.250000
O O16 0.891816 0.723623 0.101399
O O17 0.752147 0.869360 0.420294
O O18 0.861814 0.834015 0.250000
#
# Coordination Sequence:
#
# PCOD9436966 Si02
#       8
#     8   8   8   8   8   8   8   4
#     4   8  16  33  55  83 117 158 206 249 294 355
#     4  11  21  37  61  91 123 154 192 243 304 363
#     4  10  20  34  55  89 130 159 190 246 310 358
#     4  10  23  43  65  86 118 161 206 252 297 358
#     4   9  16  29  53  83 120 163 202 248 305 355
#     4  11  19  37  61  90 118 159 199 247 301 363
#     4   9  16  28  53  85 118 157 202 248 297 358
#     4  12  24  42  62  86 118 152 200 250 310 360
#
# _framework density 27.058793000000001
#
# number of rings (size 3 to 8) (size 9 to 14) (size 15 to 20)
#    0.000    2.133    2.667    2.400    0.000    0.533 
#    0.000    6.667    0.000    3.200    0.000    0.000 
#    0.000    0.000    0.000    0.000    0.000    0.000 
#
# Total GULP energy -335701.407497 kJ/mol
# GULP energy per Si atom -5595.023458 kJ/mol
# Density = 2.699721 g / cm^3
# Si number density = 27.058793 Si / 1000 Ang^3
#
#
#
# Elastic Constant Matrix: (Units=GPa)
#
#
# Indices 1 2 3 4 5 6 
#
# 1 51.9866 1.4273 14.5696 0.0000 0.0000 0.0000
# 2 1.4273 128.2933 28.0893 0.0000 0.0000 0.0000
# 3 14.5696 28.0893 181.7629 0.0000 0.0000 0.0000
# 4 0.0000 0.0000 0.0000 35.5121 0.0000 0.0000
# 5 0.0000 0.0000 0.0000 0.0000 28.7258 0.0000
# 6 0.0000 0.0000 0.0000 0.0000 0.0000 29.0829
#
#
#
# Elastic Compliance Matrix: (Units=1/GPa)
#
#
# Indices 1 2 3 4 5 6 
#
# 1 0.019680 0.000131 -0.001598 0.000000 0.000000 0.000000
# 2 0.000131 0.008068 -0.001257 0.000000 0.000000 0.000000
# 3 -0.001598 -0.001257 0.005824 0.000000 0.000000 0.000000
# 4 0.000000 0.000000 0.000000 0.028159 0.000000 0.000000
# 5 0.000000 0.000000 0.000000 0.000000 0.034812 0.000000
# 6 0.000000 0.000000 0.000000 0.000000 0.000000 0.034384
#
#
# Mechanical properties :
#
#
# Convention : Reuss Voigt Hill
#
# Bulk Modulus (GPa) = 35.55682 50.02391 42.79037
# Shear Modulus (GPa) = 34.30500 39.86126 37.08313
#
# Velocity S-wave (km/s) = 3.56447 3.84231 3.70600
# Velocity P-wave (km/s) = 5.48723 6.18156 5.84472
#
# Compressibility (1/GPa) = 0.02812400
#
# Stress axis : x y z
#
# Youngs Moduli (GPa) = 50.81324 123.93907 171.70171
#
# Poissons Ratio (x) = -0.01622 0.27433
# Poissons Ratio (y) = -0.00665 0.21589
# Poissons Ratio (z) = 0.08118 0.15584
#
# Static dielectric constant tensor:
#      x y z
#    x 2.130800 0.000000 0.000000 
#    y 0.000000 2.114510 0.000000 
#    z 0.000000 0.000000 2.151050 
# 
# From -- ./inp_files/18655.got.cif
#   From: 2010.05.17/outbox.cif.g08.bks.cpg/sg57_10_cif.got.tgz:18655.got - 2010.06.03 13:58:18.
