data_PCOD9436619
_publ_section_title
;
Structure prediction by ZEFSAII (Michael W. Deem and Ramdas Pophale) SiO2 
 PCOD9436619
Probable space group: P B C M
;
_chemical_formula_sum "Si O2"
_cell_formula_units_Z 64
_cell_length_a 16.406244
_cell_length_b 24.785096
_cell_length_c 8.828381
_cell_angle_alpha 90.000000
_cell_angle_beta 90.000000
_cell_angle_gamma 90.000000
_cell_volume 3589.887502
_symmetry_space_group_name_H-M "P B C M"
_symmetry_group_IT_number 57
_symmetry_cell_setting 'orthorhombic'
loop_
_space_group_symop_operation_xyz
x,y,z
-x,-y,1/2+z
x,1/2-y,-z
-x,1/2+y,1/2-z
-x,-y,-z
x,y,1/2-z
-x,1/2+y,z
x,1/2-y,1/2+z
loop_
_atom_site_type_symbol
_atom_site_label
_atom_site_fract_x
_atom_site_fract_y
_atom_site_fract_z
Si Si1 0.060052 0.541606 0.426660
Si Si2 0.634681 0.689379 0.431237
Si Si3 0.015036 0.355699 0.073028
Si Si4 0.226236 0.584751 0.432528
Si Si5 0.824178 0.809462 0.931151
Si Si6 0.440126 0.081255 0.931320
Si Si7 0.616429 0.029217 0.930958
Si Si8 0.155551 0.693954 0.572811
O O1 0.063324 0.531567 0.250000
O O2 0.152772 0.544870 0.482935
O O3 0.000000 0.500000 0.500000
O O4 0.020238 0.598542 0.465299
O O5 0.620602 0.750000 0.500000
O O6 0.622583 0.692695 0.250000
O O7 0.730163 0.674353 0.458881
O O8 0.582668 0.639662 0.499370
O O9 0.017562 0.372342 0.250000
O O10 0.943336 0.311125 0.061822
O O11 0.104549 0.341417 0.015396
O O12 0.229787 0.585691 0.250000
O O13 0.309298 0.562927 0.501058
O O14 0.198627 0.643455 0.491538
O O15 0.837926 0.809514 0.750000
O O16 0.830907 0.750000 0.000000
O O17 0.429367 0.083655 0.750000
O O18 0.532851 0.061990 0.963995
O O19 0.388492 0.030960 0.998543
O O20 0.623616 0.024318 0.750000
O O21 0.181399 0.750000 0.500000
O O22 0.175716 0.691708 0.750000
#
# Coordination Sequence:
#
# PCOD9436619 Si02
#       8
#     8   8   8   8   8   8   8   8
#     4  10  21  36  53  74 103 139 178 219 265 317
#     4  10  21  37  57  82 114 150 185 225 275 328
#     4  10  20  33  51  74 101 137 179 222 267 314
#     4  10  21  37  57  81 109 142 180 225 275 325
#     4  10  20  33  50  74 104 138 176 217 260 308
#     4  10  21  38  61  87 113 143 180 222 270 325
#     4  10  21  38  61  87 113 142 180 225 272 324
#     4  10  20  34  53  77 106 141 181 225 273 325
#
# _framework density 17.827857999999999
#
# number of rings (size 3 to 8) (size 9 to 14) (size 15 to 20)
#    0.000    2.000    0.000    3.375    0.000    8.000 
#    0.000    0.625    0.000    3.000    0.000    0.000 
#    0.000    0.000    0.000    0.000    0.000    0.000 
#
# Total GULP energy -356840.882071 kJ/mol
# GULP energy per Si atom -5575.638782 kJ/mol
# Density = 1.778728 g / cm^3
# Si number density = 17.827858 Si / 1000 Ang^3
#
#
#
# Elastic Constant Matrix: (Units=GPa)
#
#
# Indices 1 2 3 4 5 6 
#
# 1 96.9771 61.9983 47.8951 0.0000 0.0000 0.0000
# 2 61.9983 97.0500 40.8140 0.0000 0.0000 0.0000
# 3 47.8951 40.8140 58.5041 0.0000 0.0000 0.0000
# 4 0.0000 0.0000 0.0000 36.5872 0.0000 0.0000
# 5 0.0000 0.0000 0.0000 0.0000 30.7009 0.0000
# 6 0.0000 0.0000 0.0000 0.0000 0.0000 24.1433
#
#
#
# Elastic Compliance Matrix: (Units=1/GPa)
#
#
# Indices 1 2 3 4 5 6 
#
# 1 0.021809 -0.009091 -0.011512 0.000000 0.000000 0.000000
# 2 -0.009091 0.018372 -0.005374 0.000000 0.000000 0.000000
# 3 -0.011512 -0.005374 0.030267 0.000000 0.000000 0.000000
# 4 0.000000 0.000000 0.000000 0.027332 0.000000 0.000000
# 5 0.000000 0.000000 0.000000 0.000000 0.032572 0.000000
# 6 0.000000 0.000000 0.000000 0.000000 0.000000 0.041419
#
#
# Mechanical properties :
#
#
# Convention : Reuss Voigt Hill
#
# Bulk Modulus (GPa) = 54.07527 61.54957 57.81242
# Shear Modulus (GPa) = 21.74949 25.07455 23.41202
#
# Velocity S-wave (km/s) = 3.49660 3.75438 3.62778
# Velocity P-wave (km/s) = 6.83369 7.30706 7.07434
#
# Compressibility (1/GPa) = 0.01849274
#
# Stress axis : x y z
#
# Youngs Moduli (GPa) = 45.85173 54.43191 33.03963
#
# Poissons Ratio (x) = 0.49484 0.38037
# Poissons Ratio (y) = 0.41684 0.17756
# Poissons Ratio (z) = 0.52787 0.29252
#
# Static dielectric constant tensor:
#      x y z
#    x 1.623170 0.000000 0.000000 
#    y 0.000000 1.593810 0.000000 
#    z 0.000000 0.000000 1.598400 
# 
# From -- ./inp_files/5540.got.cif
#   From: 2010.05.17/outbox.cif.g08.bks.cpg/sg57_3_cif.got.tgz:5540.got - 2010.06.03 13:58:18.
