data_PCOD9436182
_publ_section_title
;
Structure prediction by ZEFSAII (Michael W. Deem and Ramdas Pophale) SiO2 
 PCOD9436182
Probable space group: P B C M
;
_chemical_formula_sum "Si O2"
_cell_formula_units_Z 64
_cell_length_a 10.812195
_cell_length_b 9.036695
_cell_length_c 29.426996
_cell_angle_alpha 90.000000
_cell_angle_beta 90.000000
_cell_angle_gamma 90.000000
_cell_volume 2875.209035
_symmetry_space_group_name_H-M "P B C M"
_symmetry_group_IT_number 57
_symmetry_cell_setting 'orthorhombic'
loop_
_space_group_symop_operation_xyz
x,y,z
-x,-y,1/2+z
x,1/2-y,-z
-x,1/2+y,1/2-z
-x,-y,-z
x,y,1/2-z
-x,1/2+y,z
x,1/2-y,1/2+z
loop_
_atom_site_type_symbol
_atom_site_label
_atom_site_fract_x
_atom_site_fract_y
_atom_site_fract_z
Si Si1 0.172409 0.968223 0.596818
Si Si2 0.135036 0.072753 0.500038
Si Si3 0.881894 0.522641 0.198990
Si Si4 0.634998 0.435192 0.170083
Si Si5 0.329226 0.929410 0.063696
Si Si6 0.508993 0.183181 0.452619
Si Si7 0.998919 0.275248 0.361907
Si Si8 0.578794 0.366113 0.854830
O O1 0.200475 0.013508 0.545406
O O2 0.091007 0.107500 0.614693
O O3 0.299759 0.941010 0.623501
O O4 0.087892 0.820545 0.603965
O O5 0.127781 0.250000 0.500000
O O6 0.214268 0.011245 0.458299
O O7 0.000000 0.000000 0.500000
O O8 0.932572 0.530789 0.250000
O O9 0.734441 0.518888 0.199474
O O10 0.928077 0.655278 0.167620
O O11 0.920211 0.371885 0.173527
O O12 0.682747 0.437374 0.117549
O O13 0.619184 0.262616 0.178953
O O14 0.504921 0.515122 0.169413
O O15 0.356039 0.762945 0.046999
O O16 0.454236 0.017393 0.048275
O O17 0.451307 0.250000 0.500000
O O18 0.496081 0.207213 0.396797
#
# Coordination Sequence:
#
# PCOD9436182 Si02
#       8
#     8   8   8   8   8   8   8   8
#     4  11  23  43  65  94 132 177 223 268 319 389
#     4  12  28  41  60  92 135 180 228 271 321 374
#     4  11  23  45  73 103 130 160 210 272 331 402
#     4  10  23  40  66  93 132 171 216 265 330 385
#     4  10  23  39  59  89 125 168 218 267 316 368
#     4  10  19  35  57  84 119 161 216 270 306 351
#     4  10  24  42  74  96 128 171 216 260 332 393
#     4  10  22  39  63  94 128 176 216 265 324 392
#
# _framework density 22.259250999999999
#
# number of rings (size 3 to 8) (size 9 to 14) (size 15 to 20)
#    0.000    1.500    1.250    2.625    7.000    7.500 
#    0.000    0.625    0.000    0.000    0.000    0.000 
#    0.000    0.000    0.000    0.000    0.000    0.000 
#
# Total GULP energy -356917.804935 kJ/mol
# GULP energy per Si atom -5576.840702 kJ/mol
# Density = 2.220859 g / cm^3
# Si number density = 22.259251 Si / 1000 Ang^3
#
#
#
# Elastic Constant Matrix: (Units=GPa)
#
#
# Indices 1 2 3 4 5 6 
#
# 1 99.0072 57.8577 -4.0732 0.0000 0.0000 0.0000
# 2 57.8577 131.6097 10.6954 0.0000 0.0000 0.0000
# 3 -4.0732 10.6954 41.7024 0.0000 0.0000 0.0000
# 4 0.0000 0.0000 0.0000 -3.9734 0.0000 0.0000
# 5 0.0000 0.0000 0.0000 0.0000 12.8968 0.0000
# 6 0.0000 0.0000 0.0000 0.0000 0.0000 38.1332
#
#
#
# Elastic Compliance Matrix: (Units=1/GPa)
#
#
# Indices 1 2 3 4 5 6 
#
# 1 0.013950 -0.006376 0.002998 0.000000 0.000000 0.000000
# 2 -0.006376 0.010674 -0.003360 0.000000 0.000000 0.000000
# 3 0.002998 -0.003360 0.025134 0.000000 0.000000 0.000000
# 4 0.000000 0.000000 0.000000 -0.251673 0.000000 0.000000
# 5 0.000000 0.000000 0.000000 0.000000 0.077539 0.000000
# 6 0.000000 0.000000 0.000000 0.000000 0.000000 0.026224
#
#
# Mechanical properties :
#
#
# Convention : Reuss Voigt Hill
#
# Bulk Modulus (GPa) = 27.56293 44.58657 36.07475
# Shear Modulus (GPa) = -68.88847 23.26727 -22.81060
#
# Velocity S-wave (km/s) = -5.56915 3.23659 -3.20467
# Velocity P-wave (km/s) = 5.37999 5.83451 1.59642
#
# Compressibility (1/GPa) = 0.03628061
#
# Stress axis : x y z
#
# Youngs Moduli (GPa) = 71.68629 93.68254 39.78661
#
# Poissons Ratio (x) = 0.59733 -0.11927
# Poissons Ratio (y) = 0.45708 0.13370
# Poissons Ratio (z) = -0.21490 0.31481
#
# Static dielectric constant tensor:
#      x y z
#    x 1.860170 0.000000 0.000000 
#    y 0.000000 1.850460 0.000000 
#    z 0.000000 0.000000 1.846890 
# 
# From -- ./inp_files/29767.got.cif
#   From: 2010.05.17/outbox.cif.g08.bks.cpg/sg57_15_cif.got.tgz:29767.got - 2010.06.03 13:58:18.
