data_PCOD9436231
_publ_section_title
;
Structure prediction by ZEFSAII (Michael W. Deem and Ramdas Pophale) SiO2 
 PCOD9436231
Probable space group: P B C M
;
_chemical_formula_sum "Si O2"
_cell_formula_units_Z 64
_cell_length_a 7.998064
_cell_length_b 24.875477
_cell_length_c 16.386322
_cell_angle_alpha 90.000000
_cell_angle_beta 90.000000
_cell_angle_gamma 90.000000
_cell_volume 3260.151461
_symmetry_space_group_name_H-M "P B C M"
_symmetry_group_IT_number 57
_symmetry_cell_setting 'orthorhombic'
loop_
_space_group_symop_operation_xyz
x,y,z
-x,-y,1/2+z
x,1/2-y,-z
-x,1/2+y,1/2-z
-x,-y,-z
x,y,1/2-z
-x,1/2+y,z
x,1/2-y,1/2+z
loop_
_atom_site_type_symbol
_atom_site_label
_atom_site_fract_x
_atom_site_fract_y
_atom_site_fract_z
Si Si1 0.594458 0.663935 0.449629
Si Si2 0.292457 0.436724 0.848680
Si Si3 0.403505 0.013626 0.848877
Si Si4 0.912245 0.113104 0.654839
Si Si5 0.039873 0.505839 0.348928
Si Si6 0.535757 0.374190 0.108211
Si Si7 0.610532 0.760801 0.341559
Si Si8 0.906101 0.794768 0.058563
O O1 0.652806 0.619854 0.385178
O O2 0.461374 0.639583 0.512384
O O3 0.535692 0.717888 0.404666
O O4 0.755864 0.679508 0.504714
O O5 0.291643 0.434857 0.750000
O O6 0.432480 0.480498 0.873879
O O7 0.108725 0.455414 0.877883
O O8 0.402222 0.015343 0.750000
O O9 0.415190 0.074945 0.878634
O O10 0.230344 0.986280 0.876956
O O11 0.954530 0.123795 0.750000
O O12 0.989144 0.055477 0.632436
O O13 0.713234 0.110149 0.645104
O O14 0.979005 0.159952 0.596792
O O15 0.040251 0.510269 0.250000
O O16 0.469543 0.319763 0.150097
O O17 0.592442 0.741271 0.250000
O O18 0.804320 0.766488 0.367835
O O19 0.987744 0.750000 0.000000
#
# Coordination Sequence:
#
# PCOD9436231 Si02
#       8
#     8   8   8   8   8   8   8   8
#     4  10  22  38  54  81 118 151 186 231 291 346
#     4  10  20  38  60  83 114 154 198 235 276 346
#     4  10  19  35  59  86 114 149 193 244 289 332
#     4  11  20  35  58  85 112 147 191 239 285 337
#     4   9  18  33  56  84 111 143 190 240 281 326
#     4  11  21  35  55  85 117 143 186 243 293 340
#     4  10  19  36  61  83 105 148 195 232 280 344
#     4   9  20  36  54  80 114 146 184 236 290 342
#
# _framework density 19.630989
#
# number of rings (size 3 to 8) (size 9 to 14) (size 15 to 20)
#    0.000    2.000    1.250    4.500    0.000    2.500 
#    2.250    1.250    0.000    0.000    0.000    0.000 
#    0.000    0.000    0.000    0.000    0.000    0.000 
#
# Total GULP energy -357186.869664 kJ/mol
# GULP energy per Si atom -5581.044839 kJ/mol
# Density = 1.958631 g / cm^3
# Si number density = 19.630989 Si / 1000 Ang^3
#
#
#
# Elastic Constant Matrix: (Units=GPa)
#
#
# Indices 1 2 3 4 5 6 
#
# 1 49.8652 1.1813 9.4206 0.0000 0.0000 0.0000
# 2 1.1813 60.9114 11.8362 0.0000 0.0000 0.0000
# 3 9.4206 11.8362 45.5245 0.0000 0.0000 0.0000
# 4 0.0000 0.0000 0.0000 -20.2820 0.0000 0.0000
# 5 0.0000 0.0000 0.0000 0.0000 12.0118 0.0000
# 6 0.0000 0.0000 0.0000 0.0000 0.0000 16.3572
#
#
#
# Elastic Compliance Matrix: (Units=1/GPa)
#
#
# Indices 1 2 3 4 5 6 
#
# 1 0.020882 0.000458 -0.004440 0.000000 0.000000 0.000000
# 2 0.000458 0.017301 -0.004593 0.000000 0.000000 0.000000
# 3 -0.004440 -0.004593 0.024079 0.000000 0.000000 0.000000
# 4 0.000000 0.000000 0.000000 -0.049305 0.000000 0.000000
# 5 0.000000 0.000000 0.000000 0.000000 0.083251 0.000000
# 6 0.000000 0.000000 0.000000 0.000000 0.000000 0.061135
#
#
# Mechanical properties :
#
#
# Convention : Reuss Voigt Hill
#
# Bulk Modulus (GPa) = 22.16728 22.35301 22.26015
# Shear Modulus (GPa) = 26.38081 10.54160 18.46120
#
# Velocity S-wave (km/s) = 3.66981 2.31981 3.06994
# Velocity P-wave (km/s) = 5.41047 4.31123 4.89182
#
# Compressibility (1/GPa) = 0.04511153
#
# Stress axis : x y z
#
# Youngs Moduli (GPa) = 47.88799 57.80047 41.52968
#
# Poissons Ratio (x) = -0.02646 0.18440
# Poissons Ratio (y) = -0.02193 0.19074
# Poissons Ratio (z) = 0.21263 0.26547
#
# Static dielectric constant tensor:
#      x y z
#    x 1.699370 0.000000 0.000000 
#    y 0.000000 1.671270 0.000000 
#    z 0.000000 0.000000 1.711610 
# 
# From -- ./inp_files/16993.got.cif
#   From: 2010.05.17/outbox.cif.g08.bks.cpg/sg57_9_cif.got.tgz:16993.got - 2010.06.03 13:58:18.
