data_PCOD9436646
_publ_section_title
;
Structure prediction by ZEFSAII (Michael W. Deem and Ramdas Pophale) SiO2 
 PCOD9436646
Probable space group: P B C M
;
_chemical_formula_sum "Si O2"
_cell_formula_units_Z 48
_cell_length_a 16.430057
_cell_length_b 18.989416
_cell_length_c 8.779241
_cell_angle_alpha 90.000000
_cell_angle_beta 90.000000
_cell_angle_gamma 90.000000
_cell_volume 2739.098498
_symmetry_space_group_name_H-M "P B C M"
_symmetry_group_IT_number 57
_symmetry_cell_setting 'orthorhombic'
loop_
_space_group_symop_operation_xyz
x,y,z
-x,-y,1/2+z
x,1/2-y,-z
-x,1/2+y,1/2-z
-x,-y,-z
x,y,1/2-z
-x,1/2+y,z
x,1/2-y,1/2+z
loop_
_atom_site_type_symbol
_atom_site_label
_atom_site_fract_x
_atom_site_fract_y
_atom_site_fract_z
Si Si1 0.743376 0.040640 0.431634
Si Si2 0.019757 0.327709 0.431781
Si Si3 0.169306 0.672610 0.931844
Si Si4 0.831051 0.908832 0.567330
Si Si5 0.416401 0.029344 0.433368
Si Si6 0.332975 0.326655 0.567465
O O1 0.737903 0.039205 0.250000
O O2 0.772903 0.115803 0.490891
O O3 0.807335 0.982267 0.490354
O O4 0.657873 0.017523 0.504692
O O5 0.033377 0.250000 0.500000
O O6 0.031935 0.326098 0.250000
O O7 0.083826 0.379557 0.508599
O O8 0.925533 0.346422 0.462077
O O9 0.180732 0.673450 0.750000
O O10 0.182673 0.750000 0.000000
O O11 0.830919 0.916804 0.750000
O O12 0.757776 0.854491 0.526704
O O13 0.417528 0.026747 0.250000
O O14 0.394272 0.110185 0.478516
O O15 0.500000 0.000000 0.500000
O O16 0.349301 0.250000 0.500000
O O17 0.335974 0.321497 0.750000
#
# Coordination Sequence:
#
# PCOD9436646 Si02
#       6
#     8   8   8   8   8   8
#     4  11  22  37  58  82 107 140 180 221 273 331
#     4  10  20  33  51  76 107 145 186 227 273 322
#     4  10  21  38  57  78 107 143 184 230 275 321
#     4  10  20  34  52  77 110 145 182 226 270 319
#     4  10  21  39  60  84 112 142 178 221 270 325
#     4   9  19  33  52  79 110 141 174 214 262 316
#
# _framework density 17.524014000000001
#
# number of rings (size 3 to 8) (size 9 to 14) (size 15 to 20)
#    0.000    2.000    0.000    5.000    0.000    8.000 
#    0.000    0.833    0.000    2.000    0.000    0.000 
#    0.000    0.000    0.000    0.000    0.000    0.000 
#
# Total GULP energy -268049.163785 kJ/mol
# GULP energy per Si atom -5584.357579 kJ/mol
# Density = 1.748413 g / cm^3
# Si number density = 17.524014 Si / 1000 Ang^3
#
#
#
# Elastic Constant Matrix: (Units=GPa)
#
#
# Indices 1 2 3 4 5 6 
#
# 1 85.2315 87.3250 52.2323 0.0000 0.0000 0.0000
# 2 87.3250 139.5056 61.3319 0.0000 0.0000 0.0000
# 3 52.2323 61.3319 89.0888 0.0000 0.0000 0.0000
# 4 0.0000 0.0000 0.0000 35.1934 0.0000 0.0000
# 5 0.0000 0.0000 0.0000 0.0000 31.2607 0.0000
# 6 0.0000 0.0000 0.0000 0.0000 0.0000 19.7849
#
#
#
# Elastic Compliance Matrix: (Units=1/GPa)
#
#
# Indices 1 2 3 4 5 6 
#
# 1 0.036382 -0.019210 -0.008106 0.000000 0.000000 0.000000
# 2 -0.019210 0.020423 -0.002797 0.000000 0.000000 0.000000
# 3 -0.008106 -0.002797 0.017902 0.000000 0.000000 0.000000
# 4 0.000000 0.000000 0.000000 0.028414 0.000000 0.000000
# 5 0.000000 0.000000 0.000000 0.000000 0.031989 0.000000
# 6 0.000000 0.000000 0.000000 0.000000 0.000000 0.050544
#
#
# Mechanical properties :
#
#
# Convention : Reuss Voigt Hill
#
# Bulk Modulus (GPa) = 69.05184 79.51158 74.28171
# Shear Modulus (GPa) = 19.94355 24.77691 22.36023
#
# Velocity S-wave (km/s) = 3.37719 3.76424 3.57596
# Velocity P-wave (km/s) = 7.39573 8.02273 7.71560
#
# Compressibility (1/GPa) = 0.01448187
#
# Stress axis : x y z
#
# Youngs Moduli (GPa) = 27.48583 48.96527 55.85817
#
# Poissons Ratio (x) = 0.94064 0.45277
# Poissons Ratio (y) = 0.52801 0.15622
# Poissons Ratio (z) = 0.22279 0.13694
#
# Static dielectric constant tensor:
#      x y z
#    x 1.582920 0.000000 0.000000 
#    y 0.000000 1.589360 0.000000 
#    z 0.000000 0.000000 1.581780 
# 
# From -- ./inp_files/4660.got.cif
#   From: 2010.05.17/outbox.cif.g08.bks.cpg/sg57_3_cif.got.tgz:4660.got - 2010.06.03 13:58:18.
