data_PCOD9436105
_publ_section_title
;
Structure prediction by ZEFSAII (Michael W. Deem and Ramdas Pophale) SiO2 
 PCOD9436105
Probable space group: P B C M
;
_chemical_formula_sum "Si O2"
_cell_formula_units_Z 64
_cell_length_a 8.389880
_cell_length_b 20.669749
_cell_length_c 16.258970
_cell_angle_alpha 90.000000
_cell_angle_beta 90.000000
_cell_angle_gamma 90.000000
_cell_volume 2819.577146
_symmetry_space_group_name_H-M "P B C M"
_symmetry_group_IT_number 57
_symmetry_cell_setting 'orthorhombic'
loop_
_space_group_symop_operation_xyz
x,y,z
-x,-y,1/2+z
x,1/2-y,-z
-x,1/2+y,1/2-z
-x,-y,-z
x,y,1/2-z
-x,1/2+y,z
x,1/2-y,1/2+z
loop_
_atom_site_type_symbol
_atom_site_label
_atom_site_fract_x
_atom_site_fract_y
_atom_site_fract_z
Si Si1 0.835880 0.871622 0.405959
Si Si2 0.508736 0.688832 0.937235
Si Si3 0.635414 0.055464 0.503574
Si Si4 0.272290 0.726392 0.158901
Si Si5 0.205621 0.388930 0.894240
Si Si6 0.053843 0.514286 0.592873
Si Si7 0.432064 0.911191 0.840638
Si Si8 0.946566 0.738620 0.094210
O O1 0.660904 0.841573 0.390526
O O2 0.819713 0.884010 0.505969
O O3 0.944216 0.811880 0.375493
O O4 0.924643 0.935328 0.372902
O O5 0.435448 0.626948 0.983205
O O6 0.380056 0.716399 0.874568
O O7 0.541971 0.750000 0.000000
O O8 0.770065 0.044098 0.571860
O O9 0.683614 0.055849 0.407509
O O10 0.500000 0.000000 0.500000
O O11 0.206767 0.738909 0.250000
O O12 0.378949 0.662915 0.163312
O O13 0.125882 0.713497 0.098247
O O14 0.087965 0.445658 0.864303
O O15 0.383327 0.409218 0.869315
O O16 0.162575 0.316443 0.865590
O O17 0.000000 0.500000 0.500000
O O18 0.420975 0.940493 0.750000
O O19 0.896776 0.750000 0.000000
#
# Coordination Sequence:
#
# PCOD9436105 Si02
#       8
#     8   8   8   8   8   8   8   8
#     4  10  19  34  58  92 118 155 206 268 318 360
#     4  12  21  39  67  91 123 160 218 268 312 380
#     4  12  22  39  67  95 123 166 214 266 324 374
#     4  11  24  39  58  93 131 169 210 264 328 382
#     4  10  19  38  58  90 122 160 206 260 316 371
#     4  10  21  34  57  91 126 151 203 264 313 371
#     4  11  23  39  60  92 131 167 208 257 323 385
#     4  10  21  34  62  91 122 160 214 263 314 372
#
# _framework density 22.698440000000002
#
# number of rings (size 3 to 8) (size 9 to 14) (size 15 to 20)
#    0.000    1.250    3.750    3.750    5.250    0.500 
#    0.000    1.250    0.000    0.750    0.000    7.000 
#    0.000    0.000    0.000    0.000    0.000    0.000 
#
# Total GULP energy -356643.226266 kJ/mol
# GULP energy per Si atom -5572.550410 kJ/mol
# Density = 2.264678 g / cm^3
# Si number density = 22.698440 Si / 1000 Ang^3
#
#
#
# Elastic Constant Matrix: (Units=GPa)
#
#
# Indices 1 2 3 4 5 6 
#
# 1 63.2074 19.3961 -10.1600 0.0000 0.0000 0.0000
# 2 19.3961 109.3323 13.9096 0.0000 0.0000 0.0000
# 3 -10.1600 13.9096 35.6667 0.0000 0.0000 0.0000
# 4 0.0000 0.0000 0.0000 9.5442 0.0000 0.0000
# 5 0.0000 0.0000 0.0000 0.0000 8.5494 0.0000
# 6 0.0000 0.0000 0.0000 0.0000 0.0000 34.4224
#
#
#
# Elastic Compliance Matrix: (Units=1/GPa)
#
#
# Indices 1 2 3 4 5 6 
#
# 1 0.018161 -0.004083 0.006766 0.000000 0.000000 0.000000
# 2 -0.004083 0.010542 -0.005274 0.000000 0.000000 0.000000
# 3 0.006766 -0.005274 0.032022 0.000000 0.000000 0.000000
# 4 0.000000 0.000000 0.000000 0.104776 0.000000 0.000000
# 5 0.000000 0.000000 0.000000 0.000000 0.116968 0.000000
# 6 0.000000 0.000000 0.000000 0.000000 0.000000 0.029051
#
#
# Mechanical properties :
#
#
# Convention : Reuss Voigt Hill
#
# Bulk Modulus (GPa) = 18.00435 28.27754 23.14094
# Shear Modulus (GPa) = 14.91579 22.84055 18.87817
#
# Velocity S-wave (km/s) = 2.56623 3.17560 2.88704
# Velocity P-wave (km/s) = 4.09022 5.09224 4.61849
#
# Compressibility (1/GPa) = 0.05554213
#
# Stress axis : x y z
#
# Youngs Moduli (GPa) = 55.06222 94.86130 31.22901
#
# Poissons Ratio (x) = 0.38729 -0.21128
# Poissons Ratio (y) = 0.22480 0.16471
# Poissons Ratio (z) = -0.37253 0.50031
#
# Static dielectric constant tensor:
#      x y z
#    x 1.904080 0.000000 0.000000 
#    y 0.000000 1.907540 0.000000 
#    z 0.000000 0.000000 1.921420 
# 
# From -- ./inp_files/21416.got.cif
#   From: 2010.05.17/outbox.cif.g08.bks.cpg/sg57_11_cif.got.tgz:21416.got - 2010.06.03 13:58:18.
