data_PCOD9436516
_publ_section_title
;
Structure prediction by ZEFSAII (Michael W. Deem and Ramdas Pophale) SiO2 
 PCOD9436516
Probable space group: P B C M
;
_chemical_formula_sum "Si O2"
_cell_formula_units_Z 64
_cell_length_a 24.498441
_cell_length_b 15.024285
_cell_length_c 8.545298
_cell_angle_alpha 90.000000
_cell_angle_beta 90.000000
_cell_angle_gamma 90.000000
_cell_volume 3145.281162
_symmetry_space_group_name_H-M "P B C M"
_symmetry_group_IT_number 57
_symmetry_cell_setting 'orthorhombic'
loop_
_space_group_symop_operation_xyz
x,y,z
-x,-y,1/2+z
x,1/2-y,-z
-x,1/2+y,1/2-z
-x,-y,-z
x,y,1/2-z
-x,1/2+y,z
x,1/2-y,1/2+z
loop_
_atom_site_type_symbol
_atom_site_label
_atom_site_fract_x
_atom_site_fract_y
_atom_site_fract_z
Si Si1 0.925473 0.348324 0.935227
Si Si2 0.156227 0.083321 0.569978
Si Si3 0.700194 0.466297 0.438445
Si Si4 0.477220 0.148970 0.437328
Si Si5 0.188106 0.910080 0.073113
Si Si6 0.042775 0.351898 0.560024
Si Si7 0.577972 0.035552 0.560424
Si Si8 0.270114 0.341979 0.070616
O O1 0.926381 0.349326 0.750000
O O2 0.983266 0.392718 0.984618
O O3 0.930711 0.250000 0.000000
O O4 0.865727 0.376632 0.988287
O O5 0.157351 0.047534 0.750000
O O6 0.094867 0.106336 0.524683
O O7 0.203554 0.157158 0.567651
O O8 0.176958 0.015100 0.439298
O O9 0.703027 0.461676 0.250000
O O10 0.750816 0.405127 0.496771
O O11 0.639498 0.441070 0.488338
O O12 0.709854 0.568629 0.487003
O O13 0.468646 0.250000 0.500000
O O14 0.475620 0.154689 0.250000
O O15 0.534777 0.105482 0.491382
O O16 0.436143 0.067501 0.484995
O O17 0.187579 0.875946 0.250000
O O18 0.043232 0.250000 0.500000
O O19 0.048931 0.354764 0.750000
O O20 0.574240 0.039201 0.750000
O O21 0.286932 0.348505 0.250000
O O22 0.290443 0.250000 0.000000
#
# Coordination Sequence:
#
# PCOD9436516 Si02
#       8
#     8   8   8   8   8   8   8   8
#     4  10  21  37  55  74  97 125 162 209 261 315
#     4  10  20  33  50  72  99 132 168 209 258 313
#     4   9  19  36  56  78 106 140 177 219 265 310
#     4  10  20  35  58  87 119 154 189 227 271 320
#     4  10  20  35  55  76 100 131 167 208 256 308
#     4  10  20  33  50  72  97 127 163 207 258 312
#     4   9  19  37  59  84 116 151 188 231 276 321
#     4  10  20  32  48  72 103 139 178 219 263 315
#
# _framework density 20.347944999999999
#
# number of rings (size 3 to 8) (size 9 to 14) (size 15 to 20)
#    0.000    2.250    0.000    2.625    0.000    6.500 
#    0.000    1.875    0.000    0.000    0.000    0.000 
#    0.000    0.000    0.000    0.000    0.000    0.000 
#
# Total GULP energy -356302.894090 kJ/mol
# GULP energy per Si atom -5567.232720 kJ/mol
# Density = 2.030163 g / cm^3
# Si number density = 20.347945 Si / 1000 Ang^3
#
#
#
# Elastic Constant Matrix: (Units=GPa)
#
#
# Indices 1 2 3 4 5 6 
#
# 1 103.2285 -12.5018 10.1107 0.0000 0.0000 0.0000
# 2 -12.5018 25.4543 -3.8363 0.0000 0.0000 0.0000
# 3 10.1107 -3.8363 27.0138 0.0000 0.0000 0.0000
# 4 0.0000 0.0000 0.0000 27.0797 0.0000 0.0000
# 5 0.0000 0.0000 0.0000 0.0000 23.7586 0.0000
# 6 0.0000 0.0000 0.0000 0.0000 0.0000 -2.8719
#
#
#
# Elastic Compliance Matrix: (Units=1/GPa)
#
#
# Indices 1 2 3 4 5 6 
#
# 1 0.010579 0.004700 -0.003292 0.000000 0.000000 0.000000
# 2 0.004700 0.042233 0.004239 0.000000 0.000000 0.000000
# 3 -0.003292 0.004239 0.038852 0.000000 0.000000 0.000000
# 4 0.000000 0.000000 0.000000 0.036928 0.000000 0.000000
# 5 0.000000 0.000000 0.000000 0.000000 0.042090 0.000000
# 6 0.000000 0.000000 0.000000 0.000000 0.000000 -0.348206
#
#
# Mechanical properties :
#
#
# Convention : Reuss Voigt Hill
#
# Bulk Modulus (GPa) = 9.71283 15.91576 12.81429
# Shear Modulus (GPa) = -32.36298 20.38821 -5.98738
#
# Velocity S-wave (km/s) = -3.99241 3.16884 -1.71723
# Velocity P-wave (km/s) = 4.05816 4.60733 1.54253
#
# Compressibility (1/GPa) = 0.10295665
#
# Stress axis : x y z
#
# Youngs Moduli (GPa) = 94.52822 23.67806 25.73860
#
# Poissons Ratio (x) = -0.11128 0.08473
# Poissons Ratio (y) = -0.44425 -0.10910
# Poissons Ratio (z) = 0.31119 -0.10036
#
# Static dielectric constant tensor:
#      x y z
#    x 1.824090 0.000000 0.000000 
#    y 0.000000 1.756700 0.000000 
#    z 0.000000 0.000000 1.697920 
# 
# From -- ./inp_files/9466.got.cif
#   From: 2010.05.17/outbox.cif.g08.bks.cpg/sg57_5_cif.got.tgz:9466.got - 2010.06.03 13:58:18.
