data_PCOD9436556
_publ_section_title
;
Structure prediction by ZEFSAII (Michael W. Deem and Ramdas Pophale) SiO2 
 PCOD9436556
Probable space group: P B C M
;
_chemical_formula_sum "Si O2"
_cell_formula_units_Z 64
_cell_length_a 5.299512
_cell_length_b 31.648039
_cell_length_c 18.447705
_cell_angle_alpha 90.000000
_cell_angle_beta 90.000000
_cell_angle_gamma 90.000000
_cell_volume 3094.033632
_symmetry_space_group_name_H-M "P B C M"
_symmetry_group_IT_number 57
_symmetry_cell_setting 'orthorhombic'
loop_
_space_group_symop_operation_xyz
x,y,z
-x,-y,1/2+z
x,1/2-y,-z
-x,1/2+y,1/2-z
-x,-y,-z
x,y,1/2-z
-x,1/2+y,z
x,1/2-y,1/2+z
loop_
_atom_site_type_symbol
_atom_site_label
_atom_site_fract_x
_atom_site_fract_y
_atom_site_fract_z
Si Si1 0.122168 0.207289 0.167817
Si Si2 0.128417 0.848183 0.950518
Si Si3 0.090915 0.191840 0.666991
Si Si4 0.534176 0.940770 0.074147
Si Si5 0.500744 0.362538 0.669257
Si Si6 0.415317 0.843582 0.094128
Si Si7 0.193882 0.421030 0.929973
Si Si8 0.975023 0.491726 0.414496
O O1 0.023604 0.193923 0.250000
O O2 0.093395 0.257266 0.166154
O O3 0.400306 0.185925 0.167135
O O4 0.007234 0.189542 0.092491
O O5 0.272029 0.869138 0.883974
O O6 0.959395 0.887063 0.979834
O O7 0.324134 0.834692 0.011834
O O8 0.139318 0.178257 0.750000
O O9 0.323858 0.178119 0.616715
O O10 0.823131 0.172854 0.641061
O O11 0.473055 0.893441 0.099479
O O12 0.288994 0.967853 0.094177
O O13 0.784323 0.963433 0.106470
O O14 0.592531 0.938032 0.986576
O O15 0.556956 0.374628 0.750000
O O16 0.288485 0.391373 0.634065
O O17 0.050436 0.459648 0.891574
O O18 0.000000 0.500000 0.500000
#
# Coordination Sequence:
#
# PCOD9436556 Si02
#       8
#     8   8   8   8   8   8   8   8
#     4   9  22  43  62  90 128 173 216 256 310 390
#     4  11  22  37  62  96 134 164 207 264 324 380
#     4  11  26  47  70  92 122 169 223 268 324 395
#     4  11  21  37  59  95 126 162 205 269 322 364
#     4  10  21  37  62  87 129 176 209 251 320 395
#     4  12  24  42  67  98 129 165 211 280 328 371
#     4  10  20  35  58  91 131 165 213 258 309 382
#     4  10  20  32  60  91 126 164 206 256 312 372
#
# _framework density 20.684974
#
# number of rings (size 3 to 8) (size 9 to 14) (size 15 to 20)
#    0.000    1.500    1.250    5.250    5.250    1.000 
#    0.000    0.000    0.000    4.500    0.000    0.000 
#    0.000    0.000    0.000    0.000    0.000    0.000 
#
# Total GULP energy -356613.285911 kJ/mol
# GULP energy per Si atom -5572.082592 kJ/mol
# Density = 2.063789 g / cm^3
# Si number density = 20.684974 Si / 1000 Ang^3
#
#
#
# Elastic Constant Matrix: (Units=GPa)
#
#
# Indices 1 2 3 4 5 6 
#
# 1 107.9563 36.6025 12.4728 0.0000 0.0000 0.0000
# 2 36.6025 103.9204 12.9765 0.0000 0.0000 0.0000
# 3 12.4728 12.9765 29.3173 0.0000 0.0000 0.0000
# 4 0.0000 0.0000 0.0000 9.6181 0.0000 0.0000
# 5 0.0000 0.0000 0.0000 0.0000 -22.2303 0.0000
# 6 0.0000 0.0000 0.0000 0.0000 0.0000 19.8610
#
#
#
# Elastic Compliance Matrix: (Units=1/GPa)
#
#
# Indices 1 2 3 4 5 6 
#
# 1 0.010775 -0.003411 -0.003074 0.000000 0.000000 0.000000
# 2 -0.003411 0.011266 -0.003535 0.000000 0.000000 0.000000
# 3 -0.003074 -0.003535 0.036982 0.000000 0.000000 0.000000
# 4 0.000000 0.000000 0.000000 0.103970 0.000000 0.000000
# 5 0.000000 0.000000 0.000000 0.000000 -0.044984 0.000000
# 6 0.000000 0.000000 0.000000 0.000000 0.000000 0.050350
#
#
# Mechanical properties :
#
#
# Convention : Reuss Voigt Hill
#
# Bulk Modulus (GPa) = 25.65317 40.58861 33.12089
# Shear Modulus (GPa) = 24.82695 13.39259 19.10977
#
# Velocity S-wave (km/s) = 3.46821 2.54727 3.04278
# Velocity P-wave (km/s) = 5.33542 5.32131 5.32837
#
# Compressibility (1/GPa) = 0.03898154
#
# Stress axis : x y z
#
# Youngs Moduli (GPa) = 92.80969 88.76540 27.04009
#
# Poissons Ratio (x) = 0.30279 0.08313
# Poissons Ratio (y) = 0.31659 0.09559
# Poissons Ratio (z) = 0.28531 0.31380
#
# Static dielectric constant tensor:
#      x y z
#    x 1.841070 0.000000 0.000000 
#    y 0.000000 1.765790 0.000000 
#    z 0.000000 0.000000 1.731770 
# 
# From -- ./inp_files/20356.got.cif
#   From: 2010.05.17/outbox.cif.g08.bks.cpg/sg57_11_cif.got.tgz:20356.got - 2010.06.03 13:58:18.
