data_PCOD9436039
_publ_section_title
;
Structure prediction by ZEFSAII (Michael W. Deem and Ramdas Pophale) SiO2 
 PCOD9436039
Probable space group: P B C M
;
_chemical_formula_sum "Si O2"
_cell_formula_units_Z 48
_cell_length_a 9.437549
_cell_length_b 10.133358
_cell_length_c 22.789416
_cell_angle_alpha 90.000000
_cell_angle_beta 90.000000
_cell_angle_gamma 90.000000
_cell_volume 2179.444438
_symmetry_space_group_name_H-M "P B C M"
_symmetry_group_IT_number 57
_symmetry_cell_setting 'orthorhombic'
loop_
_space_group_symop_operation_xyz
x,y,z
-x,-y,1/2+z
x,1/2-y,-z
-x,1/2+y,1/2-z
-x,-y,-z
x,y,1/2-z
-x,1/2+y,z
x,1/2-y,1/2+z
loop_
_atom_site_type_symbol
_atom_site_label
_atom_site_fract_x
_atom_site_fract_y
_atom_site_fract_z
Si Si1 0.250463 0.185287 0.814482
Si Si2 0.312122 0.614615 0.527260
Si Si3 0.965546 0.355201 0.817655
Si Si4 0.847744 0.412328 0.141762
Si Si5 0.400785 0.053215 0.916729
Si Si6 0.425574 0.439650 0.686692
O O1 0.242118 0.119104 0.750000
O O2 0.113033 0.275804 0.818694
O O3 0.379956 0.288311 0.812052
O O4 0.279669 0.113545 0.875645
O O5 0.260118 0.750000 0.500000
O O6 0.202137 0.563305 0.575331
O O7 0.465143 0.638285 0.559230
O O8 0.338556 0.514688 0.474159
O O9 0.921185 0.368066 0.750000
O O10 0.013318 0.499321 0.841958
O O11 0.865255 0.245605 0.848404
O O12 0.715725 0.470309 0.179172
O O13 0.477054 0.959224 0.869395
O O14 0.489796 0.473228 0.750000
#
# Coordination Sequence:
#
# PCOD9436039 Si02
#       6
#     8   8   8   8   8   8
#     4   9  18  32  53  82 112 141 181 232 286 344
#     4  10  22  38  55  79 115 155 197 240 283 344
#     4  10  20  38  62  86 114 146 184 235 295 352
#     4  10  21  38  59  85 116 154 195 238 292 348
#     4  10  19  34  57  80 110 153 192 231 283 344
#     4   9  17  32  56  86 116 144 181 235 293 346
#
# _framework density 22.023962000000001
#
# number of rings (size 3 to 8) (size 9 to 14) (size 15 to 20)
#    0.000    2.333    0.000    4.000    0.000    2.667 
#    0.000    3.333    0.000    8.000    0.000    0.000 
#    0.000    0.000    0.000    0.000    0.000    0.000 
#
# Total GULP energy -267560.400061 kJ/mol
# GULP energy per Si atom -5574.175001 kJ/mol
# Density = 2.197383 g / cm^3
# Si number density = 22.023962 Si / 1000 Ang^3
#
#
#
# Elastic Constant Matrix: (Units=GPa)
#
#
# Indices 1 2 3 4 5 6 
#
# 1 25.0369 10.9069 19.7836 0.0000 0.0000 0.0000
# 2 10.9069 63.6426 23.7960 0.0000 0.0000 0.0000
# 3 19.7836 23.7960 158.1917 0.0000 0.0000 0.0000
# 4 0.0000 0.0000 0.0000 33.7227 0.0000 0.0000
# 5 0.0000 0.0000 0.0000 0.0000 30.7209 0.0000
# 6 0.0000 0.0000 0.0000 0.0000 0.0000 12.1345
#
#
#
# Elastic Compliance Matrix: (Units=1/GPa)
#
#
# Indices 1 2 3 4 5 6 
#
# 1 0.046478 -0.006137 -0.004889 0.000000 0.000000 0.000000
# 2 -0.006137 0.017460 -0.001859 0.000000 0.000000 0.000000
# 3 -0.004889 -0.001859 0.007213 0.000000 0.000000 0.000000
# 4 0.000000 0.000000 0.000000 0.029654 0.000000 0.000000
# 5 0.000000 0.000000 0.000000 0.000000 0.032551 0.000000
# 6 0.000000 0.000000 0.000000 0.000000 0.000000 0.082410
#
#
# Mechanical properties :
#
#
# Convention : Reuss Voigt Hill
#
# Bulk Modulus (GPa) = 22.03644 39.53825 30.78735
# Shear Modulus (GPa) = 19.48086 28.14125 23.81106
#
# Velocity S-wave (km/s) = 2.97733 3.57845 3.29164
# Velocity P-wave (km/s) = 4.67405 5.92158 5.33441
#
# Compressibility (1/GPa) = 0.04537938
#
# Stress axis : x y z
#
# Youngs Moduli (GPa) = 21.51549 57.27527 138.64761
#
# Poissons Ratio (x) = 0.35151 0.67790
# Poissons Ratio (y) = 0.13204 0.25772
# Poissons Ratio (z) = 0.10520 0.10647
#
# Static dielectric constant tensor:
#      x y z
#    x 1.842270 0.000000 0.000000 
#    y 0.000000 1.878200 0.000000 
#    z 0.000000 0.000000 1.789770 
# 
# From -- ./inp_files/26722.got.cif
#   From: 2010.05.17/outbox.cif.g08.bks.cpg/sg57_14_cif.got.tgz:26722.got - 2010.06.03 13:58:18.
