data_PCOD9436447
_publ_section_title
;
Structure prediction by ZEFSAII (Michael W. Deem and Ramdas Pophale) SiO2 
 PCOD9436447
Probable space group: P B C M
;
_chemical_formula_sum "Si O2"
_cell_formula_units_Z 56
_cell_length_a 5.324238
_cell_length_b 15.241523
_cell_length_c 28.646611
_cell_angle_alpha 90.000000
_cell_angle_beta 90.000000
_cell_angle_gamma 90.000000
_cell_volume 2324.658043
_symmetry_space_group_name_H-M "P B C M"
_symmetry_group_IT_number 57
_symmetry_cell_setting 'orthorhombic'
loop_
_space_group_symop_operation_xyz
x,y,z
-x,-y,1/2+z
x,1/2-y,-z
-x,1/2+y,1/2-z
-x,-y,-z
x,y,1/2-z
-x,1/2+y,z
x,1/2-y,1/2+z
loop_
_atom_site_type_symbol
_atom_site_label
_atom_site_fract_x
_atom_site_fract_y
_atom_site_fract_z
Si Si1 0.902338 0.440878 0.386751
Si Si2 0.683370 0.193905 0.434030
Si Si3 0.254181 0.945152 0.488081
Si Si4 0.783204 0.416576 0.646759
Si Si5 0.600211 0.016347 0.697703
Si Si6 0.837167 0.818635 0.802315
Si Si7 0.208629 0.222497 0.602813
O O1 0.745209 0.428931 0.433103
O O2 0.750602 0.424992 0.339161
O O3 0.988493 0.541367 0.382273
O O4 0.141968 0.379210 0.393132
O O5 0.734847 0.143962 0.482007
O O6 0.613504 0.121052 0.394206
O O7 0.440111 0.255444 0.430839
O O8 0.945502 0.235762 0.416101
O O9 0.500000 0.000000 0.500000
O O10 0.000000 0.000000 0.500000
O O11 0.672572 0.495035 0.677357
O O12 0.877695 0.342294 0.682122
O O13 0.602449 0.050681 0.750000
O O14 0.712096 0.916113 0.698610
O O15 0.819186 0.782226 0.750000
O O16 0.740742 0.759291 0.844803
#
# Coordination Sequence:
#
# PCOD9436447 Si02
#       7
#     8   8   8   8   8   8   8
#     4  11  26  41  67 102 143 185 232 307 356 425
#     4  11  23  44  68  97 133 185 231 285 346 437
#     4  12  25  43  74 104 132 180 243 302 353 421
#     4  10  19  38  68  95 134 177 244 287 348 410
#     4  10  20  38  66  99 134 182 238 292 345 418
#     4   9  19  36  61  93 130 179 231 279 341 419
#     4  11  25  43  66  98 145 179 227 286 366 418
#
# _framework density 24.089565
#
# number of rings (size 3 to 8) (size 9 to 14) (size 15 to 20)
#    0.000    1.429    2.857    2.143    4.000    1.714 
#    0.000    1.429    0.000    0.000    0.000    0.000 
#    0.000    0.000    0.000    0.000    0.000    0.000 
#
# Total GULP energy -313034.089896 kJ/mol
# GULP energy per Si atom -5589.894462 kJ/mol
# Density = 2.403474 g / cm^3
# Si number density = 24.089565 Si / 1000 Ang^3
#
#
#
# Elastic Constant Matrix: (Units=GPa)
#
#
# Indices 1 2 3 4 5 6 
#
# 1 108.8798 20.3468 37.1344 0.0000 0.0000 0.0000
# 2 20.3468 45.6091 24.0067 0.0000 0.0000 0.0000
# 3 37.1344 24.0067 152.9432 0.0000 0.0000 0.0000
# 4 0.0000 0.0000 0.0000 15.2143 0.0000 0.0000
# 5 0.0000 0.0000 0.0000 0.0000 28.9640 0.0000
# 6 0.0000 0.0000 0.0000 0.0000 0.0000 41.7120
#
#
#
# Elastic Compliance Matrix: (Units=1/GPa)
#
#
# Indices 1 2 3 4 5 6 
#
# 1 0.010546 -0.003659 -0.001986 0.000000 0.000000 0.000000
# 2 -0.003659 0.025170 -0.003062 0.000000 0.000000 0.000000
# 3 -0.001986 -0.003062 0.007501 0.000000 0.000000 0.000000
# 4 0.000000 0.000000 0.000000 0.065728 0.000000 0.000000
# 5 0.000000 0.000000 0.000000 0.000000 0.034526 0.000000
# 6 0.000000 0.000000 0.000000 0.000000 0.000000 0.023974
#
#
# Mechanical properties :
#
#
# Convention : Reuss Voigt Hill
#
# Bulk Modulus (GPa) = 38.75747 52.26755 45.51251
# Shear Modulus (GPa) = 25.84523 32.24101 29.04312
#
# Velocity S-wave (km/s) = 3.27904 3.66236 3.47599
# Velocity P-wave (km/s) = 5.51905 6.29509 5.91980
#
# Compressibility (1/GPa) = 0.02580148
#
# Stress axis : x y z
#
# Youngs Moduli (GPa) = 94.82614 39.73026 133.31069
#
# Poissons Ratio (x) = 0.14538 0.26477
# Poissons Ratio (y) = 0.34698 0.40824
# Poissons Ratio (z) = 0.18833 0.12167
#
# Static dielectric constant tensor:
#      x y z
#    x 2.055540 0.000000 0.000000 
#    y 0.000000 1.971900 0.000000 
#    z 0.000000 0.000000 1.903040 
# 
# From -- ./inp_files/29184.got.cif
#   From: 2010.05.17/outbox.cif.g08.bks.cpg/sg57_15_cif.got.tgz:29184.got - 2010.06.03 13:58:18.
