data_PCOD9436870
_publ_section_title
;
Structure prediction by ZEFSAII (Michael W. Deem and Ramdas Pophale) SiO2 
 PCOD9436870
Probable space group: P B C M
;
_chemical_formula_sum "Si O2"
_cell_formula_units_Z 40
_cell_length_a 11.791290
_cell_length_b 22.256637
_cell_length_c 8.538546
_cell_angle_alpha 90.000000
_cell_angle_beta 90.000000
_cell_angle_gamma 90.000000
_cell_volume 2240.808720
_symmetry_space_group_name_H-M "P B C M"
_symmetry_group_IT_number 57
_symmetry_cell_setting 'orthorhombic'
loop_
_space_group_symop_operation_xyz
x,y,z
-x,-y,1/2+z
x,1/2-y,-z
-x,1/2+y,1/2-z
-x,-y,-z
x,y,1/2-z
-x,1/2+y,z
x,1/2-y,1/2+z
loop_
_atom_site_type_symbol
_atom_site_label
_atom_site_fract_x
_atom_site_fract_y
_atom_site_fract_z
Si Si1 0.220438 0.186455 0.562291
Si Si2 0.822454 0.039543 0.565196
Si Si3 0.426658 0.556787 0.435166
Si Si4 0.481743 0.316256 0.438442
Si Si5 0.940925 0.920676 0.439387
O O1 0.181677 0.250000 0.500000
O O2 0.223728 0.186995 0.750000
O O3 0.350077 0.176923 0.509123
O O4 0.133405 0.135812 0.513541
O O5 0.798019 0.043789 0.750000
O O6 0.705548 0.045933 0.473996
O O7 0.925497 0.084861 0.524415
O O8 0.882461 0.976588 0.524706
O O9 0.500000 0.500000 0.500000
O O10 0.444876 0.558603 0.250000
O O11 0.458677 0.622416 0.504710
O O12 0.520322 0.250000 0.500000
O O13 0.487156 0.314541 0.250000
O O14 0.932871 0.929860 0.250000
#
# Coordination Sequence:
#
# PCOD9436870 Si02
#       5
#     8   8   8   8   8
#     4   9  18  32  52  77 104 134 169 212 258 308
#     4  10  20  34  54  79 107 140 177 219 269 323
#     4  12  24  38  57  82 111 144 186 233 281 334
#     4  10  20  36  57  82 113 147 183 225 275 330
#     4   9  18  34  54  77 107 140 174 216 265 317
#
# _framework density 17.850697
#
# number of rings (size 3 to 8) (size 9 to 14) (size 15 to 20)
#    0.000    2.000    0.000    4.200    0.000    4.000 
#    0.000    1.000    0.000    2.400    0.000    0.000 
#    0.000    0.000    0.000    0.000    0.000    0.000 
#
# Total GULP energy -223012.022412 kJ/mol
# GULP energy per Si atom -5575.300560 kJ/mol
# Density = 1.781007 g / cm^3
# Si number density = 17.850697 Si / 1000 Ang^3
#
#
#
# Elastic Constant Matrix: (Units=GPa)
#
#
# Indices 1 2 3 4 5 6 
#
# 1 86.5864 55.3565 23.6494 0.0000 0.0000 0.0000
# 2 55.3565 106.8298 33.9299 0.0000 0.0000 0.0000
# 3 23.6494 33.9299 57.3152 0.0000 0.0000 0.0000
# 4 0.0000 0.0000 0.0000 30.9594 0.0000 0.0000
# 5 0.0000 0.0000 0.0000 0.0000 22.9184 0.0000
# 6 0.0000 0.0000 0.0000 0.0000 0.0000 39.0370
#
#
#
# Elastic Compliance Matrix: (Units=1/GPa)
#
#
# Indices 1 2 3 4 5 6 
#
# 1 0.017510 -0.008348 -0.002283 0.000000 0.000000 0.000000
# 2 -0.008348 0.015508 -0.005736 0.000000 0.000000 0.000000
# 3 -0.002283 -0.005736 0.021785 0.000000 0.000000 0.000000
# 4 0.000000 0.000000 0.000000 0.032300 0.000000 0.000000
# 5 0.000000 0.000000 0.000000 0.000000 0.043633 0.000000
# 6 0.000000 0.000000 0.000000 0.000000 0.000000 0.025617
#
#
# Mechanical properties :
#
#
# Convention : Reuss Voigt Hill
#
# Bulk Modulus (GPa) = 45.31270 52.95591 49.13430
# Shear Modulus (GPa) = 25.45258 27.76934 26.61096
#
# Velocity S-wave (km/s) = 3.78015 3.94844 3.86521
# Velocity P-wave (km/s) = 6.67024 7.10756 6.89237
#
# Compressibility (1/GPa) = 0.02206887
#
# Stress axis : x y z
#
# Youngs Moduli (GPa) = 57.11096 64.48182 45.90302
#
# Poissons Ratio (x) = 0.53830 0.10479
# Poissons Ratio (y) = 0.47676 0.26330
# Poissons Ratio (z) = 0.13038 0.36987
#
# Static dielectric constant tensor:
#      x y z
#    x 1.614740 0.000000 0.000000 
#    y 0.000000 1.612780 0.000000 
#    z 0.000000 0.000000 1.608530 
# 
# From -- ./inp_files/2878.got.cif
#   From: 2010.05.17/outbox.cif.g08.bks.cpg/sg57_2_cif.got.tgz:2878.got - 2010.06.03 13:58:18.
