data_PCOD9436467
_publ_section_title
;
Structure prediction by ZEFSAII (Michael W. Deem and Ramdas Pophale) SiO2 
 PCOD9436467
Probable space group: P B C M
;
_chemical_formula_sum "Si O2"
_cell_formula_units_Z 64
_cell_length_a 12.868821
_cell_length_b 14.275559
_cell_length_c 17.100550
_cell_angle_alpha 90.000000
_cell_angle_beta 90.000000
_cell_angle_gamma 90.000000
_cell_volume 3141.535430
_symmetry_space_group_name_H-M "P B C M"
_symmetry_group_IT_number 57
_symmetry_cell_setting 'orthorhombic'
loop_
_space_group_symop_operation_xyz
x,y,z
-x,-y,1/2+z
x,1/2-y,-z
-x,1/2+y,1/2-z
-x,-y,-z
x,y,1/2-z
-x,1/2+y,z
x,1/2-y,1/2+z
loop_
_atom_site_type_symbol
_atom_site_label
_atom_site_fract_x
_atom_site_fract_y
_atom_site_fract_z
Si Si1 0.440984 0.560961 0.160662
Si Si2 0.013651 0.953296 0.162803
Si Si3 0.267932 0.668178 0.437836
Si Si4 0.132857 0.121115 0.384837
Si Si5 0.630430 0.830881 0.608007
Si Si6 0.942405 0.252173 0.405489
Si Si7 0.377388 0.119945 0.575567
Si Si8 0.830372 0.525209 0.952317
O O1 0.406518 0.545236 0.250000
O O2 0.362241 0.630984 0.114981
O O3 0.553462 0.607974 0.158923
O O4 0.443408 0.463623 0.112599
O O5 0.973757 0.938146 0.250000
O O6 0.051428 0.856672 0.126002
O O7 0.923788 0.992832 0.106583
O O8 0.104754 0.029125 0.163158
O O9 0.296298 0.750000 0.500000
O O10 0.170137 0.707399 0.388392
O O11 0.222209 0.572980 0.477642
O O12 0.248409 0.158375 0.371684
O O13 0.130266 0.084959 0.474684
O O14 0.041695 0.196131 0.373419
O O15 0.614542 0.867008 0.518242
O O16 0.602120 0.721490 0.610886
O O17 0.949527 0.250000 0.500000
O O18 0.258638 0.086635 0.588941
#
# Coordination Sequence:
#
# PCOD9436467 Si02
#       8
#     8   8   8   8   8   8   8   8
#     4  11  25  44  65  94 136 174 211 269 336 391
#     4  12  25  37  56  94 135 171 206 260 326 388
#     4  10  22  39  65  94 121 170 221 268 313 381
#     4  11  21  40  67  93 127 164 214 262 316 376
#     4  10  22  41  71 100 124 164 225 273 318 377
#     4  11  21  39  67  93 126 168 219 263 313 384
#     4   9  21  41  70  98 121 169 220 273 311 382
#     4  10  19  40  66  92 126 166 214 264 311 384
#
# _framework density 20.372202999999999
#
# number of rings (size 3 to 8) (size 9 to 14) (size 15 to 20)
#    0.000    1.500    2.500    3.000    3.500    4.000 
#    2.250    1.250    0.000    0.000    0.000    0.000 
#    0.000    0.000    0.000    0.000    0.000    0.000 
#
# Total GULP energy -357509.111586 kJ/mol
# GULP energy per Si atom -5586.079869 kJ/mol
# Density = 2.032584 g / cm^3
# Si number density = 20.372203 Si / 1000 Ang^3
#
#
#
# Elastic Constant Matrix: (Units=GPa)
#
#
# Indices 1 2 3 4 5 6 
#
# 1 70.4536 40.6374 28.5523 0.0000 0.0000 0.0000
# 2 40.6374 142.7094 30.6981 0.0000 0.0000 0.0000
# 3 28.5523 30.6981 34.3924 0.0000 0.0000 0.0000
# 4 0.0000 0.0000 0.0000 -0.1130 0.0000 0.0000
# 5 0.0000 0.0000 0.0000 0.0000 1.6993 0.0000
# 6 0.0000 0.0000 0.0000 0.0000 0.0000 29.9324
#
#
#
# Elastic Compliance Matrix: (Units=1/GPa)
#
#
# Indices 1 2 3 4 5 6 
#
# 1 0.022342 -0.002936 -0.015928 0.000000 0.000000 0.000000
# 2 -0.002936 0.009058 -0.005648 0.000000 0.000000 0.000000
# 3 -0.015928 -0.005648 0.047340 0.000000 0.000000 0.000000
# 4 0.000000 0.000000 0.000000 -8.848341 0.000000 0.000000
# 5 0.000000 0.000000 0.000000 0.000000 0.588469 0.000000
# 6 0.000000 0.000000 0.000000 0.000000 0.000000 0.033409
#
#
# Mechanical properties :
#
#
# Convention : Reuss Voigt Hill
#
# Bulk Modulus (GPa) = 33.64983 49.70346 41.67665
# Shear Modulus (GPa) = -0.61814 16.14824 7.76505
#
# Velocity S-wave (km/s) = -0.55144 2.81848 1.95445
# Velocity P-wave (km/s) = 4.01845 5.91966 5.05917
#
# Compressibility (1/GPa) = 0.02971783
#
# Stress axis : x y z
#
# Youngs Moduli (GPa) = 44.75863 110.39783 21.12360
#
# Poissons Ratio (x) = 0.32411 0.33645
# Poissons Ratio (y) = 0.13140 0.11930
# Poissons Ratio (z) = 0.71290 0.62351
#
# Static dielectric constant tensor:
#      x y z
#    x 1.725060 0.000000 0.000000 
#    y 0.000000 1.726870 0.000000 
#    z 0.000000 0.000000 1.723270 
# 
# From -- ./inp_files/22084.got.cif
#   From: 2010.05.17/outbox.cif.g08.bks.cpg/sg57_12_cif.got.tgz:22084.got - 2010.06.03 13:58:18.
