data_PCOD9436061
_publ_section_title
;
Structure prediction by ZEFSAII (Michael W. Deem and Ramdas Pophale) SiO2 
 PCOD9436061
Probable space group: P B C M
;
_chemical_formula_sum "Si O2"
_cell_formula_units_Z 32
_cell_length_a 10.236614
_cell_length_b 20.168101
_cell_length_c 8.793873
_cell_angle_alpha 90.000000
_cell_angle_beta 90.000000
_cell_angle_gamma 90.000000
_cell_volume 1815.522035
_symmetry_space_group_name_H-M "P B C M"
_symmetry_group_IT_number 57
_symmetry_cell_setting 'orthorhombic'
loop_
_space_group_symop_operation_xyz
x,y,z
-x,-y,1/2+z
x,1/2-y,-z
-x,1/2+y,1/2-z
-x,-y,-z
x,y,1/2-z
-x,1/2+y,z
x,1/2-y,1/2+z
loop_
_atom_site_type_symbol
_atom_site_label
_atom_site_fract_x
_atom_site_fract_y
_atom_site_fract_z
Si Si1 0.327111 0.548836 0.568784
Si Si2 0.034388 0.571846 0.931666
Si Si3 0.389560 0.406892 0.069477
Si Si4 0.165856 0.322589 0.569119
O O1 0.332261 0.533380 0.750000
O O2 0.188484 0.582589 0.538363
O O3 0.456001 0.591413 0.533071
O O4 0.337844 0.479607 0.479426
O O5 0.013791 0.570716 0.750000
O O6 0.000000 0.500000 0.000000
O O7 0.943103 0.627120 0.005237
O O8 0.372903 0.398320 0.250000
O O9 0.304786 0.352766 0.982797
O O10 0.147924 0.250000 0.500000
O O11 0.158660 0.320295 0.750000
#
# Coordination Sequence:
#
# PCOD9436061 Si02
#       4
#     8   8   8   8
#     4   9  19  34  56  86 118 148 187 236 286 340
#     4  11  21  36  59  89 120 154 194 241 291 347
#     4  10  19  34  57  85 115 149 189 236 287 343
#     4  12  25  41  59  83 116 156 199 244 296 356
#
# _framework density 17.625783999999999
#
# number of rings (size 3 to 8) (size 9 to 14) (size 15 to 20)
#    0.000    1.500    2.500    3.750    0.000    2.000 
#    0.000    1.250    0.000    0.000    0.000    0.000 
#    0.000    0.000    0.000    0.000    0.000    0.000 
#
# Total GULP energy -178752.487608 kJ/mol
# GULP energy per Si atom -5586.015238 kJ/mol
# Density = 1.758567 g / cm^3
# Si number density = 17.625784 Si / 1000 Ang^3
#
#
#
# Elastic Constant Matrix: (Units=GPa)
#
#
# Indices 1 2 3 4 5 6 
#
# 1 143.0495 79.4299 75.0313 0.0000 0.0000 0.0000
# 2 79.4299 133.0663 69.4140 0.0000 0.0000 0.0000
# 3 75.0313 69.4140 114.7164 0.0000 0.0000 0.0000
# 4 0.0000 0.0000 0.0000 32.1547 0.0000 0.0000
# 5 0.0000 0.0000 0.0000 0.0000 27.3622 0.0000
# 6 0.0000 0.0000 0.0000 0.0000 0.0000 22.1337
#
#
#
# Elastic Compliance Matrix: (Units=1/GPa)
#
#
# Indices 1 2 3 4 5 6 
#
# 1 0.012306 -0.004599 -0.005266 0.000000 0.000000 0.000000
# 2 -0.004599 0.012700 -0.004677 0.000000 0.000000 0.000000
# 3 -0.005266 -0.004677 0.014992 0.000000 0.000000 0.000000
# 4 0.000000 0.000000 0.000000 0.031100 0.000000 0.000000
# 5 0.000000 0.000000 0.000000 0.000000 0.036547 0.000000
# 6 0.000000 0.000000 0.000000 0.000000 0.000000 0.045180
#
#
# Mechanical properties :
#
#
# Convention : Reuss Voigt Hill
#
# Bulk Modulus (GPa) = 91.62571 93.17585 92.40078
# Shear Modulus (GPa) = 26.94753 27.46058 27.20406
#
# Velocity S-wave (km/s) = 3.91432 3.95140 3.93291
# Velocity P-wave (km/s) = 8.51622 8.59048 8.55343
#
# Compressibility (1/GPa) = 0.01091397
#
# Stress axis : x y z
#
# Youngs Moduli (GPa) = 81.25860 78.74224 66.70420
#
# Poissons Ratio (x) = 0.36211 0.35130
# Poissons Ratio (y) = 0.37368 0.31195
# Poissons Ratio (z) = 0.42795 0.36825
#
# Static dielectric constant tensor:
#      x y z
#    x 1.629230 0.000000 0.000000 
#    y 0.000000 1.550460 0.000000 
#    z 0.000000 0.000000 1.587560 
# 
# From -- ./inp_files/2358.got.cif
#   From: 2010.05.17/outbox.cif.g08.bks.cpg/sg57_2_cif.got.tgz:2358.got - 2010.06.03 13:58:18.
