data_PCOD9436290
_publ_section_title
;
Structure prediction by ZEFSAII (Michael W. Deem and Ramdas Pophale) SiO2 
 PCOD9436290
Probable space group: P B C M
;
_chemical_formula_sum "Si O2"
_cell_formula_units_Z 48
_cell_length_a 9.914825
_cell_length_b 31.278776
_cell_length_c 8.670620
_cell_angle_alpha 90.000000
_cell_angle_beta 90.000000
_cell_angle_gamma 90.000000
_cell_volume 2688.963804
_symmetry_space_group_name_H-M "P B C M"
_symmetry_group_IT_number 57
_symmetry_cell_setting 'orthorhombic'
loop_
_space_group_symop_operation_xyz
x,y,z
-x,-y,1/2+z
x,1/2-y,-z
-x,1/2+y,1/2-z
-x,-y,-z
x,y,1/2-z
-x,1/2+y,z
x,1/2-y,1/2+z
loop_
_atom_site_type_symbol
_atom_site_label
_atom_site_fract_x
_atom_site_fract_y
_atom_site_fract_z
Si Si1 0.086306 0.140345 0.436811
Si Si2 0.683265 0.702694 0.435439
Si Si3 0.202476 0.888218 0.563687
Si Si4 0.704610 0.933996 0.564868
Si Si5 0.507635 0.129398 0.933494
Si Si6 0.146279 0.512730 0.065582
O O1 0.082824 0.140271 0.250000
O O2 0.174211 0.181157 0.484811
O O3 0.173196 0.098378 0.479973
O O4 0.932827 0.136305 0.489000
O O5 0.667860 0.750000 0.500000
O O6 0.678613 0.703201 0.250000
O O7 0.569499 0.670259 0.496079
O O8 0.214184 0.884497 0.750000
O O9 0.338395 0.871956 0.486885
O O10 0.179739 0.938257 0.527405
O O11 0.696268 0.934812 0.750000
O O12 0.570634 0.912346 0.497851
O O13 0.743583 0.980159 0.501479
O O14 0.496859 0.130315 0.750000
O O15 0.141929 0.508938 0.250000
O O16 0.000000 0.500000 0.000000
#
# Coordination Sequence:
#
# PCOD9436290 Si02
#       6
#     8   8   8   8   8   8
#     4   8  16  33  57  81 107 142 183 225 274 328
#     4  10  20  38  64  89 113 144 181 227 279 342
#     4  10  20  37  56  79 113 155 192 231 282 336
#     4  10  19  36  57  79 109 151 194 237 284 333
#     4  11  23  38  56  84 115 149 191 236 286 342
#     4  11  21  33  54  82 113 151 198 243 283 331
#
# _framework density 17.850743000000001
#
# number of rings (size 3 to 8) (size 9 to 14) (size 15 to 20)
#    0.000    2.000    1.667    4.000    0.000    2.000 
#    0.000    2.500    0.000    2.000    0.000    0.000 
#    0.000    0.000    0.000    0.000    0.000    0.000 
#
# Total GULP energy -267986.351549 kJ/mol
# GULP energy per Si atom -5583.048991 kJ/mol
# Density = 1.781011 g / cm^3
# Si number density = 17.850743 Si / 1000 Ang^3
#
#
#
# Elastic Constant Matrix: (Units=GPa)
#
#
# Indices 1 2 3 4 5 6 
#
# 1 146.0894 53.1316 44.7803 0.0000 0.0000 0.0000
# 2 53.1316 100.8745 48.0720 0.0000 0.0000 0.0000
# 3 44.7803 48.0720 68.6322 0.0000 0.0000 0.0000
# 4 0.0000 0.0000 0.0000 26.0090 0.0000 0.0000
# 5 0.0000 0.0000 0.0000 0.0000 24.1276 0.0000
# 6 0.0000 0.0000 0.0000 0.0000 0.0000 15.2303
#
#
#
# Elastic Compliance Matrix: (Units=1/GPa)
#
#
# Indices 1 2 3 4 5 6 
#
# 1 0.009106 -0.002949 -0.003875 0.000000 0.000000 0.000000
# 2 -0.002949 0.015835 -0.009167 0.000000 0.000000 0.000000
# 3 -0.003875 -0.009167 0.023520 0.000000 0.000000 0.000000
# 4 0.000000 0.000000 0.000000 0.038448 0.000000 0.000000
# 5 0.000000 0.000000 0.000000 0.000000 0.041446 0.000000
# 6 0.000000 0.000000 0.000000 0.000000 0.000000 0.065659
#
#
# Mechanical properties :
#
#
# Convention : Reuss Voigt Hill
#
# Bulk Modulus (GPa) = 60.68987 67.50710 64.09849
# Shear Modulus (GPa) = 21.59915 24.38085 22.99000
#
# Velocity S-wave (km/s) = 3.48226 3.69971 3.59263
# Velocity P-wave (km/s) = 7.08805 7.49333 7.29351
#
# Compressibility (1/GPa) = 0.01647721
#
# Stress axis : x y z
#
# Youngs Moduli (GPa) = 109.82192 63.14973 42.51685
#
# Poissons Ratio (x) = 0.18624 0.16477
# Poissons Ratio (y) = 0.32388 0.38977
# Poissons Ratio (z) = 0.42561 0.57891
#
# Static dielectric constant tensor:
#      x y z
#    x 1.608800 0.000000 0.000000 
#    y 0.000000 1.589110 0.000000 
#    z 0.000000 0.000000 1.597320 
# 
# From -- ./inp_files/2042.got.cif
#   From: 2010.05.17/outbox.cif.g08.bks.cpg/sg57_2_cif.got.tgz:2042.got - 2010.06.03 13:58:18.
