data_PCOD9436136
_publ_section_title
;
Structure prediction by ZEFSAII (Michael W. Deem and Ramdas Pophale) SiO2 
 PCOD9436136
Probable space group: P B C M
;
_chemical_formula_sum "Si O2"
_cell_formula_units_Z 36
_cell_length_a 8.456508
_cell_length_b 15.494760
_cell_length_c 15.399034
_cell_angle_alpha 90.000000
_cell_angle_beta 90.000000
_cell_angle_gamma 90.000000
_cell_volume 2017.759477
_symmetry_space_group_name_H-M "P B C M"
_symmetry_group_IT_number 57
_symmetry_cell_setting 'orthorhombic'
loop_
_space_group_symop_operation_xyz
x,y,z
-x,-y,1/2+z
x,1/2-y,-z
-x,1/2+y,1/2-z
-x,-y,-z
x,y,1/2-z
-x,1/2+y,z
x,1/2-y,1/2+z
loop_
_atom_site_type_symbol
_atom_site_label
_atom_site_fract_x
_atom_site_fract_y
_atom_site_fract_z
Si Si1 0.076533 0.905654 0.648999
Si Si2 0.694071 0.150876 0.003888
Si Si3 0.111856 0.579725 0.648261
Si Si4 0.611759 0.750000 0.000000
Si Si5 0.863922 0.765462 0.349782
O O1 0.125819 0.912534 0.750000
O O2 0.223794 0.895630 0.584707
O O3 0.968961 0.820549 0.639999
O O4 0.969372 0.988455 0.628036
O O5 0.746714 0.102870 0.916535
O O6 0.758698 0.250000 0.000000
O O7 0.507485 0.168895 0.011883
O O8 0.158467 0.580807 0.750000
O O9 0.978341 0.653040 0.635664
O O10 0.721917 0.736538 0.917235
O O11 0.807679 0.768836 0.250000
#
# Coordination Sequence:
#
# PCOD9436136 Si02
#       5
#     8   8   8   4   8
#     4  10  20  36  60  83 103 137 184 229 268 308
#     4  10  20  34  55  78 106 144 175 215 264 317
#     4  10  20  36  60  83 103 137 184 229 268 308
#     4  10  22  34  52  80 110 150 178 200 274 330
#     4  10  19  35  55  77 109 140 176 226 266 314
#
# _framework density 17.841571999999999
#
# number of rings (size 3 to 8) (size 9 to 14) (size 15 to 20)
#    0.667    1.333    2.222    2.000    0.000    1.778 
#    0.000    4.444    0.000    8.000    0.000    0.000 
#    0.000    0.000    0.000    0.000    0.000    0.000 
#
# Total GULP energy -200753.027292 kJ/mol
# GULP energy per Si atom -5576.472980 kJ/mol
# Density = 1.780096 g / cm^3
# Si number density = 17.841572 Si / 1000 Ang^3
#
#
#
# Elastic Constant Matrix: (Units=GPa)
#
#
# Indices 1 2 3 4 5 6 
#
# 1 19.1930 -31.6630 6.0955 0.0000 0.0000 0.0000
# 2 -31.6630 58.9866 -27.1048 0.0000 0.0000 0.0000
# 3 6.0955 -27.1048 28.0454 0.0000 0.0000 0.0000
# 4 0.0000 0.0000 0.0000 21.9971 0.0000 0.0000
# 5 0.0000 0.0000 0.0000 0.0000 1.8606 0.0000
# 6 0.0000 0.0000 0.0000 0.0000 0.0000 -7.1475
#
#
#
# Elastic Compliance Matrix: (Units=1/GPa)
#
#
# Indices 1 2 3 4 5 6 
#
# 1 -0.418911 -0.329241 -0.227150 0.000000 0.000000 0.000000
# 2 -0.329241 -0.228270 -0.149054 0.000000 0.000000 0.000000
# 3 -0.227150 -0.149054 -0.059029 0.000000 0.000000 0.000000
# 4 0.000000 0.000000 0.000000 0.045461 0.000000 0.000000
# 5 0.000000 0.000000 0.000000 0.000000 0.537447 0.000000
# 6 0.000000 0.000000 0.000000 0.000000 0.000000 -0.139908
#
#
# Mechanical properties :
#
#
# Convention : Reuss Voigt Hill
#
# Bulk Modulus (GPa) = -0.47234 0.09784 -0.18725
# Shear Modulus (GPa) = 11.31269 13.93520 12.62394
#
# Velocity S-wave (km/s) = 2.52079 2.79776 2.66288
# Velocity P-wave (km/s) = 2.86482 3.23907 3.05768
#
# Compressibility (1/GPa) = -2.11710156
#
# Stress axis : x y z
#
# Youngs Moduli (GPa) = -2.38714 -4.38079 -16.94087
#
# Poissons Ratio (x) = -1.44234 -3.84813
# Poissons Ratio (y) = -0.78595 -2.52511
# Poissons Ratio (z) = -0.54224 -0.65298
#
# Static dielectric constant tensor:
#      x y z
#    x 1.573770 0.000000 0.000000 
#    y 0.000000 1.609370 0.000000 
#    z 0.000000 0.000000 1.616550 
# 
# From -- ./inp_files/20651.got.cif
#   From: 2010.05.17/outbox.cif.g08.bks.cpg/sg57_11_cif.got.tgz:20651.got - 2010.06.03 13:58:18.
