data_PCOD9436483
_publ_section_title
;
Structure prediction by ZEFSAII (Michael W. Deem and Ramdas Pophale) SiO2 
 PCOD9436483
Probable space group: P B C M
;
_chemical_formula_sum "Si O2"
_cell_formula_units_Z 48
_cell_length_a 16.111905
_cell_length_b 21.995392
_cell_length_c 7.488413
_cell_angle_alpha 90.000000
_cell_angle_beta 90.000000
_cell_angle_gamma 90.000000
_cell_volume 2653.801208
_symmetry_space_group_name_H-M "P B C M"
_symmetry_group_IT_number 57
_symmetry_cell_setting 'orthorhombic'
loop_
_space_group_symop_operation_xyz
x,y,z
-x,-y,1/2+z
x,1/2-y,-z
-x,1/2+y,1/2-z
-x,-y,-z
x,y,1/2-z
-x,1/2+y,z
x,1/2-y,1/2+z
loop_
_atom_site_type_symbol
_atom_site_label
_atom_site_fract_x
_atom_site_fract_y
_atom_site_fract_z
Si Si1 0.805819 0.178820 0.464231
Si Si2 0.521822 0.929442 0.963746
Si Si3 0.654641 0.402451 0.965400
Si Si4 0.052776 0.591359 0.037937
Si Si5 0.881056 0.956576 0.966012
Si Si6 0.302032 0.043305 0.036926
O O1 0.806296 0.250000 0.500000
O O2 0.805689 0.170622 0.250000
O O3 0.722909 0.145044 0.531707
O O4 0.887444 0.143841 0.533907
O O5 0.525073 0.920733 0.750000
O O6 0.615718 0.922442 0.033652
O O7 0.440238 0.894345 0.031306
O O8 0.500000 0.000000 0.000000
O O9 0.651759 0.398472 0.750000
O O10 0.683903 0.471079 0.008236
O O11 0.044511 0.601097 0.250000
O O12 0.959264 0.582737 0.967117
O O13 0.098214 0.526590 0.011413
O O14 0.880137 0.952954 0.750000
O O15 0.789225 0.940387 0.032632
O O16 0.300633 0.052953 0.250000
#
# Coordination Sequence:
#
# PCOD9436483 Si02
#       6
#     8   8   8   8   8   8
#     4  10  20  31  43  58  78 107 142 175 205 239
#     4   8  14  23  36  55  80 105 128 153 186 230
#     4   9  16  27  40  55  79 109 135 161 195 237
#     4   9  17  29  41  57  81 108 136 166 203 245
#     4   9  16  25  41  62  84 107 131 162 202 247
#     4   9  15  23  38  62  85 105 128 157 194 238
#
# _framework density 18.087264000000001
#
# number of rings (size 3 to 8) (size 9 to 14) (size 15 to 20)
#    0.000    3.000    1.667    0.000    0.000    1.333 
#    0.000    0.000    0.000    0.000    0.000    1.167 
#    0.000    0.000    0.000    0.000    0.000    0.000 
#
# Total GULP energy -267240.045280 kJ/mol
# GULP energy per Si atom -5567.500943 kJ/mol
# Density = 1.804610 g / cm^3
# Si number density = 18.087264 Si / 1000 Ang^3
#
#
#
# Elastic Constant Matrix: (Units=GPa)
#
#
# Indices 1 2 3 4 5 6 
#
# 1 228.0769 61.7615 3.1934 0.0000 0.0000 0.0000
# 2 61.7615 63.2450 -3.1782 0.0000 0.0000 0.0000
# 3 3.1934 -3.1782 46.1131 0.0000 0.0000 0.0000
# 4 0.0000 0.0000 0.0000 13.2064 0.0000 0.0000
# 5 0.0000 0.0000 0.0000 0.0000 2.7333 0.0000
# 6 0.0000 0.0000 0.0000 0.0000 0.0000 13.4092
#
#
#
# Elastic Compliance Matrix: (Units=1/GPa)
#
#
# Indices 1 2 3 4 5 6 
#
# 1 0.005992 -0.005892 -0.000821 0.000000 0.000000 0.000000
# 2 -0.005892 0.021661 0.001901 0.000000 0.000000 0.000000
# 3 -0.000821 0.001901 0.021874 0.000000 0.000000 0.000000
# 4 0.000000 0.000000 0.000000 0.075721 0.000000 0.000000
# 5 0.000000 0.000000 0.000000 0.000000 0.365865 0.000000
# 6 0.000000 0.000000 0.000000 0.000000 0.000000 0.074576
#
#
# Mechanical properties :
#
#
# Convention : Reuss Voigt Hill
#
# Bulk Modulus (GPa) = 25.06157 51.22091 38.14124
# Shear Modulus (GPa) = 8.49454 24.24699 16.37077
#
# Velocity S-wave (km/s) = 2.16947 3.66533 3.01175
# Velocity P-wave (km/s) = 4.49016 6.80391 5.76431
#
# Compressibility (1/GPa) = 0.03990173
#
# Stress axis : x y z
#
# Youngs Moduli (GPa) = 166.90134 46.16569 45.71699
#
# Poissons Ratio (x) = 0.27202 0.03754
# Poissons Ratio (y) = 0.98343 -0.08691
# Poissons Ratio (z) = 0.13703 -0.08776
#
# Static dielectric constant tensor:
#      x y z
#    x 1.716990 0.000000 0.000000 
#    y 0.000000 1.554170 0.000000 
#    z 0.000000 0.000000 1.653740 
# 
# From -- ./inp_files/6956.got.cif
#   From: 2010.05.17/outbox.cif.g08.bks.cpg/sg57_4_cif.got.tgz:6956.got - 2010.06.03 13:58:18.
