data_PCOD9436057
_publ_section_title
;
Structure prediction by ZEFSAII (Michael W. Deem and Ramdas Pophale) SiO2 
 PCOD9436057
Probable space group: P B C M
;
_chemical_formula_sum "Si O2"
_cell_formula_units_Z 56
_cell_length_a 21.616671
_cell_length_b 14.576229
_cell_length_c 9.165610
_cell_angle_alpha 90.000000
_cell_angle_beta 90.000000
_cell_angle_gamma 90.000000
_cell_volume 2887.987900
_symmetry_space_group_name_H-M "P B C M"
_symmetry_group_IT_number 57
_symmetry_cell_setting 'orthorhombic'
loop_
_space_group_symop_operation_xyz
x,y,z
-x,-y,1/2+z
x,1/2-y,-z
-x,1/2+y,1/2-z
-x,-y,-z
x,y,1/2-z
-x,1/2+y,z
x,1/2-y,1/2+z
loop_
_atom_site_type_symbol
_atom_site_label
_atom_site_fract_x
_atom_site_fract_y
_atom_site_fract_z
Si Si1 0.581594 0.547978 0.922513
Si Si2 0.831774 0.847370 0.923384
Si Si3 0.065972 0.494302 0.577111
Si Si4 0.876207 0.337806 0.914710
Si Si5 0.529876 0.151169 0.424698
Si Si6 0.272344 0.836965 0.586437
Si Si7 0.721753 0.957839 0.424855
O O1 0.566257 0.557158 0.750000
O O2 0.573715 0.438322 0.955982
O O3 0.652338 0.578536 0.943599
O O4 0.535292 0.610415 0.015671
O O5 0.822606 0.839090 0.750000
O O6 0.895985 0.901227 0.948337
O O7 0.833928 0.750000 0.000000
O O8 0.775041 0.903850 0.992893
O O9 0.059347 0.507608 0.750000
O O10 0.107702 0.573567 0.507157
O O11 0.000000 0.500000 0.500000
O O12 0.900682 0.344770 0.750000
O O13 0.802151 0.327339 0.904348
O O14 0.901513 0.250000 0.000000
O O15 0.543259 0.250000 0.500000
O O16 0.528668 0.164129 0.250000
O O17 0.296995 0.750000 0.500000
O O18 0.298556 0.836878 0.750000
O O19 0.281065 0.937123 0.520939
O O20 0.735679 0.960392 0.250000
#
# Coordination Sequence:
#
# PCOD9436057 Si02
#       7
#     8   8   8   8   8   8   8
#     4   9  20  37  58  85 116 154 200 245 291 347
#     4  11  25  43  64  89 118 155 198 242 294 350
#     4  11  24  41  62  88 117 152 196 244 294 350
#     4  10  19  34  57  84 114 147 184 228 282 341
#     4  10  20  36  58  84 117 155 198 245 296 347
#     4   9  18  31  52  81 112 147 182 224 279 340
#     4  10  20  38  61  86 119 156 195 242 294 347
#
# _framework density 19.390661999999999
#
# number of rings (size 3 to 8) (size 9 to 14) (size 15 to 20)
#    0.000    2.000    1.429    1.714    0.000    5.714 
#    0.000    1.429    0.000    0.000    0.000    0.000 
#    0.000    0.000    0.000    0.000    0.000    0.000 
#
# Total GULP energy -312514.401888 kJ/mol
# GULP energy per Si atom -5580.614319 kJ/mol
# Density = 1.934653 g / cm^3
# Si number density = 19.390662 Si / 1000 Ang^3
#
#
#
# Elastic Constant Matrix: (Units=GPa)
#
#
# Indices 1 2 3 4 5 6 
#
# 1 83.7409 34.6830 57.7839 0.0000 0.0000 0.0000
# 2 34.6830 115.4810 59.4111 0.0000 0.0000 0.0000
# 3 57.7839 59.4111 84.4968 0.0000 0.0000 0.0000
# 4 0.0000 0.0000 0.0000 36.0781 0.0000 0.0000
# 5 0.0000 0.0000 0.0000 0.0000 17.8976 0.0000
# 6 0.0000 0.0000 0.0000 0.0000 0.0000 -1.6222
#
#
#
# Elastic Compliance Matrix: (Units=1/GPa)
#
#
# Indices 1 2 3 4 5 6 
#
# 1 0.022860 0.001844 -0.016929 0.000000 0.000000 0.000000
# 2 0.001844 0.013716 -0.010905 0.000000 0.000000 0.000000
# 3 -0.016929 -0.010905 0.031079 0.000000 0.000000 0.000000
# 4 0.000000 0.000000 0.000000 0.027718 0.000000 0.000000
# 5 0.000000 0.000000 0.000000 0.000000 0.055873 0.000000
# 6 0.000000 0.000000 0.000000 0.000000 0.000000 -0.616438
#
#
# Mechanical properties :
#
#
# Convention : Reuss Voigt Hill
#
# Bulk Modulus (GPa) = 63.79776 65.27497 64.53636
# Shear Modulus (GPa) = -12.25531 19.26007 3.50238
#
# Velocity S-wave (km/s) = -2.51673 3.15503 1.34541
# Velocity P-wave (km/s) = 4.95252 6.85627 5.98063
#
# Compressibility (1/GPa) = 0.01567453
#
# Stress axis : x y z
#
# Youngs Moduli (GPa) = 43.74516 72.90868 32.17558
#
# Poissons Ratio (x) = -0.13445 0.54471
# Poissons Ratio (y) = -0.08067 0.35087
# Poissons Ratio (z) = 0.74058 0.79506
#
# Static dielectric constant tensor:
#      x y z
#    x 1.689730 0.000000 0.000000 
#    y 0.000000 1.665290 0.000000 
#    z 0.000000 0.000000 1.662390 
# 
# From -- ./inp_files/8188.got.cif
#   From: 2010.05.17/outbox.cif.g08.bks.cpg/sg57_5_cif.got.tgz:8188.got - 2010.06.03 13:58:18.
