data_PCOD9436812
_publ_section_title
;
Structure prediction by ZEFSAII (Michael W. Deem and Ramdas Pophale) SiO2 
 PCOD9436812
Probable space group: P B C M
;
_chemical_formula_sum "Si O2"
_cell_formula_units_Z 64
_cell_length_a 14.203300
_cell_length_b 9.761319
_cell_length_c 27.935343
_cell_angle_alpha 90.000000
_cell_angle_beta 90.000000
_cell_angle_gamma 90.000000
_cell_volume 3873.038144
_symmetry_space_group_name_H-M "P B C M"
_symmetry_group_IT_number 57
_symmetry_cell_setting 'orthorhombic'
loop_
_space_group_symop_operation_xyz
x,y,z
-x,-y,1/2+z
x,1/2-y,-z
-x,1/2+y,1/2-z
-x,-y,-z
x,y,1/2-z
-x,1/2+y,z
x,1/2-y,1/2+z
loop_
_atom_site_type_symbol
_atom_site_label
_atom_site_fract_x
_atom_site_fract_y
_atom_site_fract_z
Si Si1 0.404389 0.404230 0.805506
Si Si2 0.377630 0.267360 0.943194
Si Si3 0.297129 0.679420 0.806260
Si Si4 0.715122 0.668678 0.647842
Si Si5 0.908703 0.213594 0.192160
Si Si6 0.597905 0.094517 0.140706
Si Si7 0.499782 0.989180 0.443153
Si Si8 0.911646 0.893648 0.191870
O O1 0.430950 0.391413 0.750000
O O2 0.325412 0.521540 0.809757
O O3 0.357522 0.266039 0.824294
O O4 0.498163 0.440786 0.834779
O O5 0.297333 0.213975 0.907522
O O6 0.468205 0.166831 0.932202
O O7 0.405518 0.424381 0.930896
O O8 0.358024 0.250000 0.000000
O O9 0.309277 0.719479 0.750000
O O10 0.191413 0.719166 0.821004
O O11 0.369052 0.761429 0.839520
O O12 0.676787 0.515245 0.654648
O O13 0.819260 0.673512 0.668707
O O14 0.910695 0.212726 0.250000
O O15 0.995986 0.308444 0.177200
O O16 0.916899 0.054298 0.177531
O O17 0.580178 0.075081 0.084409
O O18 0.500000 0.000000 0.500000
O O19 0.903370 0.888650 0.250000
#
# Coordination Sequence:
#
# PCOD9436812 Si02
#       8
#     8   8   8   8   8   8   8   8
#     4  11  23  32  46  71 106 145 175 202 239 300
#     4   9  18  33  52  74 101 131 172 213 259 302
#     4  10  21  35  49  70 103 141 176 211 250 296
#     4  11  21  33  51  76 103 133 175 212 257 307
#     4   9  19  35  53  71  96 129 168 215 258 295
#     4  11  20  33  50  70 103 140 175 206 247 300
#     4   9  18  31  48  70  98 131 168 211 249 291
#     4  10  20  34  53  74  99 130 169 216 260 302
#
# _framework density 16.524495999999999
#
# number of rings (size 3 to 8) (size 9 to 14) (size 15 to 20)
#    0.000    2.000    2.500    1.500    3.500    2.500 
#    0.000    0.000    0.000    0.000    0.000    0.875 
#    3.750    0.000    0.000    0.000    0.000    0.000 
#
# Total GULP energy -356412.271810 kJ/mol
# GULP energy per Si atom -5568.941747 kJ/mol
# Density = 1.648689 g / cm^3
# Si number density = 16.524496 Si / 1000 Ang^3
#
#
#
# Elastic Constant Matrix: (Units=GPa)
#
#
# Indices 1 2 3 4 5 6 
#
# 1 85.6530 11.1043 20.1789 0.0000 0.0000 0.0000
# 2 11.1043 34.1998 9.2748 0.0000 0.0000 0.0000
# 3 20.1789 9.2748 56.0555 0.0000 0.0000 0.0000
# 4 0.0000 0.0000 0.0000 13.6793 0.0000 0.0000
# 5 0.0000 0.0000 0.0000 0.0000 15.2465 0.0000
# 6 0.0000 0.0000 0.0000 0.0000 0.0000 26.8954
#
#
#
# Elastic Compliance Matrix: (Units=1/GPa)
#
#
# Indices 1 2 3 4 5 6 
#
# 1 0.013065 -0.003106 -0.004189 0.000000 0.000000 0.000000
# 2 -0.003106 0.031352 -0.004069 0.000000 0.000000 0.000000
# 3 -0.004189 -0.004069 0.020021 0.000000 0.000000 0.000000
# 4 0.000000 0.000000 0.000000 0.073103 0.000000 0.000000
# 5 0.000000 0.000000 0.000000 0.000000 0.065589 0.000000
# 6 0.000000 0.000000 0.000000 0.000000 0.000000 0.037181
#
#
# Mechanical properties :
#
#
# Convention : Reuss Voigt Hill
#
# Bulk Modulus (GPa) = 23.97586 28.55826 26.26706
# Shear Modulus (GPa) = 18.05432 20.18758 19.12095
#
# Velocity S-wave (km/s) = 3.30900 3.49904 3.40535
# Velocity P-wave (km/s) = 5.39816 5.80037 5.60287
#
# Compressibility (1/GPa) = 0.04170861
#
# Stress axis : x y z
#
# Youngs Moduli (GPa) = 76.54288 31.89594 49.94812
#
# Poissons Ratio (x) = 0.09906 0.20924
# Poissons Ratio (y) = 0.23773 0.20326
# Poissons Ratio (z) = 0.32065 0.12980
#
# Static dielectric constant tensor:
#      x y z
#    x 1.530440 0.000000 0.000000 
#    y 0.000000 1.590290 0.000000 
#    z 0.000000 0.000000 1.590810 
# 
# From -- ./inp_files/29770.got.cif
#   From: 2010.05.17/outbox.cif.g08.bks.cpg/sg57_15_cif.got.tgz:29770.got - 2010.06.03 13:58:18.
