data_PCOD9436176
_publ_section_title
;
Structure prediction by ZEFSAII (Michael W. Deem and Ramdas Pophale) SiO2 
 PCOD9436176
Probable space group: P B C M
;
_chemical_formula_sum "Si O2"
_cell_formula_units_Z 64
_cell_length_a 10.357551
_cell_length_b 17.679121
_cell_length_c 18.481022
_cell_angle_alpha 90.000000
_cell_angle_beta 90.000000
_cell_angle_gamma 90.000000
_cell_volume 3384.104245
_symmetry_space_group_name_H-M "P B C M"
_symmetry_group_IT_number 57
_symmetry_cell_setting 'orthorhombic'
loop_
_space_group_symop_operation_xyz
x,y,z
-x,-y,1/2+z
x,1/2-y,-z
-x,1/2+y,1/2-z
-x,-y,-z
x,y,1/2-z
-x,1/2+y,z
x,1/2-y,1/2+z
loop_
_atom_site_type_symbol
_atom_site_label
_atom_site_fract_x
_atom_site_fract_y
_atom_site_fract_z
Si Si1 0.752475 0.823465 0.093310
Si Si2 0.012928 0.701578 0.666691
Si Si3 0.966134 0.616284 0.332926
Si Si4 0.499977 0.472086 0.582818
Si Si5 0.722787 0.853527 0.924165
Si Si6 0.743417 0.408986 0.837298
Si Si7 0.288714 0.767438 0.337737
Si Si8 0.501507 0.618112 0.664062
O O1 0.897439 0.833512 0.121556
O O2 0.719663 0.733893 0.101571
O O3 0.647122 0.868659 0.138515
O O4 0.742693 0.847374 0.010128
O O5 0.004923 0.675972 0.750000
O O6 0.993706 0.792933 0.667126
O O7 0.157347 0.691731 0.637056
O O8 0.933467 0.595506 0.250000
O O9 0.844993 0.606534 0.385609
O O10 0.103990 0.578592 0.351928
O O11 0.500000 0.500000 0.500000
O O12 0.407418 0.399666 0.590747
O O13 0.641832 0.454783 0.614935
O O14 0.447897 0.541581 0.630125
O O15 0.723545 0.419866 0.750000
O O16 0.714850 0.320857 0.855203
O O17 0.283642 0.770397 0.250000
O O18 0.414554 0.811706 0.362275
O O19 0.496581 0.614723 0.750000
#
# Coordination Sequence:
#
# PCOD9436176 Si02
#       8
#     8   8   8   8   8   8   8   8
#     4  10  19  35  57  84 112 145 182 231 276 341
#     4   8  14  29  55  85 112 135 172 231 288 330
#     4   8  16  33  59  86 108 134 179 236 280 329
#     4  12  24  40  52  77 117 158 188 230 276 329
#     4  10  21  37  57  82 115 145 184 226 286 335
#     4   9  18  37  63  85 107 143 189 232 278 332
#     4   8  16  33  58  87 110 134 181 239 281 324
#     4  11  22  37  57  81 111 150 191 231 275 324
#
# _framework density 18.911947000000001
#
# number of rings (size 3 to 8) (size 9 to 14) (size 15 to 20)
#    0.000    2.500    1.250    3.000    0.000    1.500 
#    2.250    1.875    0.000    3.000    0.000    0.000 
#    0.000    0.000    0.000    0.000    0.000    0.000 
#
# Total GULP energy -356828.532813 kJ/mol
# GULP energy per Si atom -5575.445825 kJ/mol
# Density = 1.886890 g / cm^3
# Si number density = 18.911947 Si / 1000 Ang^3
#
#
#
# Elastic Constant Matrix: (Units=GPa)
#
#
# Indices 1 2 3 4 5 6 
#
# 1 99.0964 23.2730 37.5766 0.0000 0.0000 0.0000
# 2 23.2730 38.4023 24.6701 0.0000 0.0000 0.0000
# 3 37.5766 24.6701 58.9761 0.0000 0.0000 0.0000
# 4 0.0000 0.0000 0.0000 24.3705 0.0000 0.0000
# 5 0.0000 0.0000 0.0000 0.0000 15.8194 0.0000
# 6 0.0000 0.0000 0.0000 0.0000 0.0000 15.4815
#
#
#
# Elastic Compliance Matrix: (Units=1/GPa)
#
#
# Indices 1 2 3 4 5 6 
#
# 1 0.013676 -0.003679 -0.007175 0.000000 0.000000 0.000000
# 2 -0.003679 0.036599 -0.012966 0.000000 0.000000 0.000000
# 3 -0.007175 -0.012966 0.026951 0.000000 0.000000 0.000000
# 4 0.000000 0.000000 0.000000 0.041033 0.000000 0.000000
# 5 0.000000 0.000000 0.000000 0.000000 0.063214 0.000000
# 6 0.000000 0.000000 0.000000 0.000000 0.000000 0.064593
#
#
# Mechanical properties :
#
#
# Convention : Reuss Voigt Hill
#
# Bulk Modulus (GPa) = 33.79812 40.83490 37.31651
# Shear Modulus (GPa) = 16.47089 18.53128 17.50108
#
# Velocity S-wave (km/s) = 2.95435 3.13369 3.04534
# Velocity P-wave (km/s) = 5.43577 5.89341 5.66921
#
# Compressibility (1/GPa) = 0.02958745
#
# Stress axis : x y z
#
# Youngs Moduli (GPa) = 73.12225 27.32325 37.10460
#
# Poissons Ratio (x) = 0.10052 0.26621
# Poissons Ratio (y) = 0.26901 0.48108
# Poissons Ratio (z) = 0.52462 0.35426
#
# Static dielectric constant tensor:
#      x y z
#    x 1.662440 0.000000 0.000000 
#    y 0.000000 1.705510 0.000000 
#    z 0.000000 0.000000 1.635040 
# 
# From -- ./inp_files/24624.got.cif
#   From: 2010.05.17/outbox.cif.g08.bks.cpg/sg57_13_cif.got.tgz:24624.got - 2010.06.03 13:58:18.
