data_PCOD9436796
_publ_section_title
;
Structure prediction by ZEFSAII (Michael W. Deem and Ramdas Pophale) SiO2 
 PCOD9436796
Probable space group: P B C M
;
_chemical_formula_sum "Si O2"
_cell_formula_units_Z 56
_cell_length_a 19.952492
_cell_length_b 16.391909
_cell_length_c 8.431772
_cell_angle_alpha 90.000000
_cell_angle_beta 90.000000
_cell_angle_gamma 90.000000
_cell_volume 2757.690571
_symmetry_space_group_name_H-M "P B C M"
_symmetry_group_IT_number 57
_symmetry_cell_setting 'orthorhombic'
loop_
_space_group_symop_operation_xyz
x,y,z
-x,-y,1/2+z
x,1/2-y,-z
-x,1/2+y,1/2-z
-x,-y,-z
x,y,1/2-z
-x,1/2+y,z
x,1/2-y,1/2+z
loop_
_atom_site_type_symbol
_atom_site_label
_atom_site_fract_x
_atom_site_fract_y
_atom_site_fract_z
Si Si1 0.288168 0.409783 0.556952
Si Si2 0.924019 0.998740 0.059225
Si Si3 0.848619 0.662729 0.060046
Si Si4 0.716101 0.406262 0.061020
Si Si5 0.576238 0.343291 0.559311
Si Si6 0.429402 0.157055 0.058353
Si Si7 0.151117 0.662878 0.062066
O O1 0.290083 0.408492 0.750000
O O2 0.228766 0.350043 0.505786
O O3 0.269186 0.501198 0.509169
O O4 0.362612 0.387784 0.500285
O O5 0.922133 0.998652 0.250000
O O6 0.886940 0.081696 0.001457
O O7 0.888705 0.916275 0.999072
O O8 0.000000 0.000000 0.000000
O O9 0.850107 0.662607 0.250000
O O10 0.873970 0.750000 0.000000
O O11 0.722841 0.400104 0.250000
O O12 0.640120 0.387234 0.013683
O O13 0.770942 0.348107 0.983422
O O14 0.578558 0.250000 0.500000
O O15 0.580992 0.345016 0.750000
O O16 0.502646 0.376357 0.510401
O O17 0.428407 0.156831 0.250000
O O18 0.425663 0.250000 0.000000
O O19 0.144805 0.663685 0.250000
O O20 0.126046 0.750000 0.000000
#
# Coordination Sequence:
#
# PCOD9436796 Si02
#       7
#     8   8   8   8   8   8   8
#     4   9  19  35  57  84 116 156 200 252 308 363
#     4  11  25  45  69  98 132 167 205 253 305 368
#     4  11  22  40  66  96 130 169 212 257 310 368
#     4  11  21  36  58  83 116 157 201 251 307 366
#     4  10  20  34  52  76 109 150 197 252 306 363
#     4   9  18  34  53  76 109 149 197 249 305 363
#     4  11  24  42  66  95 126 162 207 254 306 365
#
# _framework density 20.306847000000001
#
# number of rings (size 3 to 8) (size 9 to 14) (size 15 to 20)
#    0.000    1.714    1.429    3.000    0.000    3.429 
#    0.000    3.571    0.000    0.000    0.000    0.000 
#    0.000    0.000    0.000    0.000    0.000    0.000 
#
# Total GULP energy -312762.158258 kJ/mol
# GULP energy per Si atom -5585.038540 kJ/mol
# Density = 2.026063 g / cm^3
# Si number density = 20.306847 Si / 1000 Ang^3
#
#
#
# Elastic Constant Matrix: (Units=GPa)
#
#
# Indices 1 2 3 4 5 6 
#
# 1 118.6289 60.6407 15.3822 0.0000 0.0000 0.0000
# 2 60.6407 141.8700 27.1123 0.0000 0.0000 0.0000
# 3 15.3822 27.1123 39.2900 0.0000 0.0000 0.0000
# 4 0.0000 0.0000 0.0000 27.4019 0.0000 0.0000
# 5 0.0000 0.0000 0.0000 0.0000 20.5793 0.0000
# 6 0.0000 0.0000 0.0000 0.0000 0.0000 20.5291
#
#
#
# Elastic Compliance Matrix: (Units=1/GPa)
#
#
# Indices 1 2 3 4 5 6 
#
# 1 0.010836 -0.004401 -0.001205 0.000000 0.000000 0.000000
# 2 -0.004401 0.009907 -0.005113 0.000000 0.000000 0.000000
# 3 -0.001205 -0.005113 0.029452 0.000000 0.000000 0.000000
# 4 0.000000 0.000000 0.000000 0.036494 0.000000 0.000000
# 5 0.000000 0.000000 0.000000 0.000000 0.048593 0.000000
# 6 0.000000 0.000000 0.000000 0.000000 0.000000 0.048711
#
#
# Mechanical properties :
#
#
# Convention : Reuss Voigt Hill
#
# Bulk Modulus (GPa) = 34.77598 56.22880 45.50239
# Shear Modulus (GPa) = 23.25391 26.81230 25.03310
#
# Velocity S-wave (km/s) = 3.38764 3.63761 3.51485
# Velocity P-wave (km/s) = 5.69771 6.73741 6.23925
#
# Compressibility (1/GPa) = 0.02875548
#
# Stress axis : x y z
#
# Youngs Moduli (GPa) = 92.28690 100.93670 33.95344
#
# Poissons Ratio (x) = 0.44426 0.04092
# Poissons Ratio (y) = 0.40618 0.17362
# Poissons Ratio (z) = 0.11121 0.51613
#
# Static dielectric constant tensor:
#      x y z
#    x 1.725900 0.000000 0.000000 
#    y 0.000000 1.709580 0.000000 
#    z 0.000000 0.000000 1.690500 
# 
# From -- ./inp_files/8078.got.cif
#   From: 2010.05.17/outbox.cif.g08.bks.cpg/sg57_5_cif.got.tgz:8078.got - 2010.06.03 13:58:18.
