data_PCOD9436787
_publ_section_title
;
Structure prediction by ZEFSAII (Michael W. Deem and Ramdas Pophale) SiO2 
 PCOD9436787
Probable space group: P B C M
;
_chemical_formula_sum "Si O2"
_cell_formula_units_Z 64
_cell_length_a 25.952178
_cell_length_b 14.376304
_cell_length_c 8.884293
_cell_angle_alpha 90.000000
_cell_angle_beta 90.000000
_cell_angle_gamma 90.000000
_cell_volume 3314.697738
_symmetry_space_group_name_H-M "P B C M"
_symmetry_group_IT_number 57
_symmetry_cell_setting 'orthorhombic'
loop_
_space_group_symop_operation_xyz
x,y,z
-x,-y,1/2+z
x,1/2-y,-z
-x,1/2+y,1/2-z
-x,-y,-z
x,y,1/2-z
-x,1/2+y,z
x,1/2-y,1/2+z
loop_
_atom_site_type_symbol
_atom_site_label
_atom_site_fract_x
_atom_site_fract_y
_atom_site_fract_z
Si Si1 0.816162 0.146134 0.070127
Si Si2 0.324701 0.354096 0.431092
Si Si3 0.868277 0.652666 0.426128
Si Si4 0.915109 0.346730 0.422655
Si Si5 0.575085 0.549128 0.069229
Si Si6 0.525684 0.352100 0.068871
Si Si7 0.767645 0.526820 0.428699
Si Si8 0.972681 0.585750 0.579396
O O1 0.815531 0.153000 0.250000
O O2 0.807453 0.250000 0.000000
O O3 0.871891 0.099825 0.019115
O O4 0.774724 0.073646 0.005465
O O5 0.324861 0.250000 0.500000
O O6 0.324420 0.348586 0.250000
O O7 0.374451 0.410134 0.490416
O O8 0.275554 0.410975 0.491858
O O9 0.853663 0.750000 0.500000
O O10 0.877249 0.666639 0.250000
O O11 0.821630 0.581758 0.445286
O O12 0.922676 0.620428 0.494966
O O13 0.906004 0.250000 0.500000
O O14 0.898578 0.356942 0.250000
O O15 0.976789 0.350539 0.419953
O O16 0.577818 0.561302 0.250000
O O17 0.565061 0.438660 0.040168
O O18 0.527057 0.608514 0.004329
O O19 0.520094 0.343360 0.250000
O O20 0.537968 0.250000 0.000000
O O21 0.757150 0.517448 0.250000
O O22 0.958409 0.563397 0.750000
O O23 0.000000 0.500000 0.500000
#
# Coordination Sequence:
#
# PCOD9436787 Si02
#       8
#     8   8   8   8   8   8   8   8
#     4  11  22  38  62  89 116 150 190 237 294 356
#     4  12  25  42  65  92 122 159 204 253 305 358
#     4  11  24  40  60  84 114 151 191 238 294 355
#     4  10  20  34  52  76 103 135 174 219 272 334
#     4  10  21  38  60  89 126 168 213 259 306 357
#     4  10  20  35  59  91 129 171 212 256 305 358
#     4  11  24  43  64  88 118 152 196 249 300 355
#     4  11  23  36  53  77 108 143 182 228 282 345
#
# _framework density 19.307945
#
# number of rings (size 3 to 8) (size 9 to 14) (size 15 to 20)
#    0.000    1.250    0.000    7.125    0.000   10.500 
#    0.000    0.625    0.000    1.500    0.000    0.000 
#    0.000    0.000    0.000    0.000    0.000    0.000 
#
# Total GULP energy -356833.911707 kJ/mol
# GULP energy per Si atom -5575.529870 kJ/mol
# Density = 1.926400 g / cm^3
# Si number density = 19.307945 Si / 1000 Ang^3
#
#
#
# Elastic Constant Matrix: (Units=GPa)
#
#
# Indices 1 2 3 4 5 6 
#
# 1 89.4346 50.2430 81.9793 0.0000 0.0000 0.0000
# 2 50.2430 126.1995 99.2456 0.0000 0.0000 0.0000
# 3 81.9793 99.2456 180.0476 0.0000 0.0000 0.0000
# 4 0.0000 0.0000 0.0000 31.4580 0.0000 0.0000
# 5 0.0000 0.0000 0.0000 0.0000 33.0519 0.0000
# 6 0.0000 0.0000 0.0000 0.0000 0.0000 34.3633
#
#
#
# Elastic Compliance Matrix: (Units=1/GPa)
#
#
# Indices 1 2 3 4 5 6 
#
# 1 0.019324 -0.001366 -0.008045 0.000000 0.000000 0.000000
# 2 -0.001366 0.014084 -0.007141 0.000000 0.000000 0.000000
# 3 -0.008045 -0.007141 0.013154 0.000000 0.000000 0.000000
# 4 0.000000 0.000000 0.000000 0.031788 0.000000 0.000000
# 5 0.000000 0.000000 0.000000 0.000000 0.030255 0.000000
# 6 0.000000 0.000000 0.000000 0.000000 0.000000 0.029101
#
#
# Mechanical properties :
#
#
# Convention : Reuss Voigt Hill
#
# Bulk Modulus (GPa) = 74.31861 95.40195 84.86028
# Shear Modulus (GPa) = 28.52311 30.72223 29.62267
#
# Velocity S-wave (km/s) = 3.84770 3.99328 3.92116
# Velocity P-wave (km/s) = 7.63639 8.41306 8.03412
#
# Compressibility (1/GPa) = 0.01345558
#
# Stress axis : x y z
#
# Youngs Moduli (GPa) = 51.75045 71.00311 76.02427
#
# Poissons Ratio (x) = 0.09700 0.61164
# Poissons Ratio (y) = 0.07070 0.54291
# Poissons Ratio (z) = 0.41635 0.50705
#
# Static dielectric constant tensor:
#      x y z
#    x 1.623870 0.000000 0.000000 
#    y 0.000000 1.671350 0.000000 
#    z 0.000000 0.000000 1.650010 
# 
# From -- ./inp_files/9475.got.cif
#   From: 2010.05.17/outbox.cif.g08.bks.cpg/sg57_5_cif.got.tgz:9475.got - 2010.06.03 13:58:18.
