data_PCOD9436693
_publ_section_title
;
Structure prediction by ZEFSAII (Michael W. Deem and Ramdas Pophale) SiO2 
 PCOD9436693
Probable space group: P B C M
;
_chemical_formula_sum "Si O2"
_cell_formula_units_Z 60
_cell_length_a 18.517437
_cell_length_b 5.193558
_cell_length_c 30.464349
_cell_angle_alpha 90.000000
_cell_angle_beta 90.000000
_cell_angle_gamma 90.000000
_cell_volume 2929.798578
_symmetry_space_group_name_H-M "P B C M"
_symmetry_group_IT_number 57
_symmetry_cell_setting 'orthorhombic'
loop_
_space_group_symop_operation_xyz
x,y,z
-x,-y,1/2+z
x,1/2-y,-z
-x,1/2+y,1/2-z
-x,-y,-z
x,y,1/2-z
-x,1/2+y,z
x,1/2-y,1/2+z
loop_
_atom_site_type_symbol
_atom_site_label
_atom_site_fract_x
_atom_site_fract_y
_atom_site_fract_z
Si Si1 0.617661 0.889238 0.371934
Si Si2 0.549025 0.927857 0.701781
Si Si3 0.283266 0.250000 0.500000
Si Si4 0.955402 0.639442 0.197194
Si Si5 0.276524 0.031915 0.083399
Si Si6 0.204245 0.998761 0.171806
Si Si7 0.394848 0.646567 0.455428
Si Si8 0.286165 0.519250 0.299019
O O1 0.589589 0.649670 0.342894
O O2 0.688714 0.788140 0.396248
O O3 0.649753 0.073421 0.333994
O O4 0.570311 0.003409 0.412470
O O5 0.586264 0.910949 0.750000
O O6 0.489098 0.701824 0.700993
O O7 0.239354 0.389892 0.537993
O O8 0.337758 0.455231 0.478391
O O9 0.945203 0.631508 0.250000
O O10 0.878670 0.573508 0.176344
O O11 0.986718 0.918572 0.185765
O O12 0.226244 0.932929 0.121692
O O13 0.345357 0.860540 0.068826
O O14 0.226811 0.742078 0.197377
O O15 0.250395 0.242100 0.190272
O O16 0.435788 0.750000 0.500000
O O17 0.315512 0.523063 0.250000
#
# Coordination Sequence:
#
# PCOD9436693 Si02
#       8
#     8   8   4   8   8   8   8   8
#     4  10  20  33  53  79 107 140 178 219 272 328
#     4  10  23  40  57  77 105 146 192 229 259 307
#     4   8  16  30  50  78 112 136 168 204 274 342
#     4  10  20  34  50  68  97 144 189 220 254 301
#     4   9  18  31  52  82 108 137 168 218 278 331
#     4  11  21  34  51  77 110 137 180 224 264 318
#     4   9  16  31  52  79 109 137 168 212 273 336
#     4  11  21  32  50  78 110 140 168 218 280 325
#
# _framework density 20.479223999999999
#
# number of rings (size 3 to 8) (size 9 to 14) (size 15 to 20)
#    0.000    2.133    1.333    2.400    1.867    1.067 
#    0.000    2.667    0.000    0.800    0.000    0.933 
#    0.000    0.000    0.000    0.000    0.000    0.000 
#
# Total GULP energy -334270.087322 kJ/mol
# GULP energy per Si atom -5571.168122 kJ/mol
# Density = 2.043261 g / cm^3
# Si number density = 20.479224 Si / 1000 Ang^3
#
#
#
# Elastic Constant Matrix: (Units=GPa)
#
#
# Indices 1 2 3 4 5 6 
#
# 1 20.0880 8.0301 10.5963 0.0000 0.0000 0.0000
# 2 8.0301 37.7487 14.9785 0.0000 0.0000 0.0000
# 3 10.5963 14.9785 143.8269 0.0000 0.0000 0.0000
# 4 0.0000 0.0000 0.0000 1.3310 0.0000 0.0000
# 5 0.0000 0.0000 0.0000 0.0000 11.4114 0.0000
# 6 0.0000 0.0000 0.0000 0.0000 0.0000 24.9117
#
#
#
# Elastic Compliance Matrix: (Units=1/GPa)
#
#
# Indices 1 2 3 4 5 6 
#
# 1 0.055613 -0.010644 -0.002989 0.000000 0.000000 0.000000
# 2 -0.010644 0.029670 -0.002306 0.000000 0.000000 0.000000
# 3 -0.002989 -0.002306 0.007413 0.000000 0.000000 0.000000
# 4 0.000000 0.000000 0.000000 0.751334 0.000000 0.000000
# 5 0.000000 0.000000 0.000000 0.000000 0.087632 0.000000
# 6 0.000000 0.000000 0.000000 0.000000 0.000000 0.040142
#
#
# Mechanical properties :
#
#
# Convention : Reuss Voigt Hill
#
# Bulk Modulus (GPa) = 16.44238 29.87483 23.15860
# Shear Modulus (GPa) = 4.88303 18.73472 11.80888
#
# Velocity S-wave (km/s) = 1.54582 3.02787 2.40391
# Velocity P-wave (km/s) = 3.35147 5.18108 4.36325
#
# Compressibility (1/GPa) = 0.06081845
#
# Stress axis : x y z
#
# Youngs Moduli (GPa) = 17.98154 33.70385 134.89606
#
# Poissons Ratio (x) = 0.35876 0.40316
# Poissons Ratio (y) = 0.19140 0.31103
# Poissons Ratio (z) = 0.05374 0.07771
#
# Static dielectric constant tensor:
#      x y z
#    x 1.723640 0.000000 0.000000 
#    y 0.000000 1.842400 0.000000 
#    z 0.000000 0.000000 1.898660 
# 
# From -- ./inp_files/28870.got.cif
#   From: 2010.05.17/outbox.cif.g08.bks.cpg/sg57_15_cif.got.tgz:28870.got - 2010.06.03 13:58:18.
