data_PCOD9436458
_publ_section_title
;
Structure prediction by ZEFSAII (Michael W. Deem and Ramdas Pophale) SiO2 
 PCOD9436458
Probable space group: P B C M
;
_chemical_formula_sum "Si O2"
_cell_formula_units_Z 60
_cell_length_a 14.153979
_cell_length_b 8.511416
_cell_length_c 24.345758
_cell_angle_alpha 90.000000
_cell_angle_beta 90.000000
_cell_angle_gamma 90.000000
_cell_volume 2932.943285
_symmetry_space_group_name_H-M "P B C M"
_symmetry_group_IT_number 57
_symmetry_cell_setting 'orthorhombic'
loop_
_space_group_symop_operation_xyz
x,y,z
-x,-y,1/2+z
x,1/2-y,-z
-x,1/2+y,1/2-z
-x,-y,-z
x,y,1/2-z
-x,1/2+y,z
x,1/2-y,1/2+z
loop_
_atom_site_type_symbol
_atom_site_label
_atom_site_fract_x
_atom_site_fract_y
_atom_site_fract_z
Si Si1 0.272441 0.250000 0.500000
Si Si2 0.394587 0.287402 0.186616
Si Si3 0.792006 0.712421 0.879711
Si Si4 0.238996 0.831786 0.311755
Si Si5 0.588923 0.134174 0.352753
Si Si6 0.601361 0.065143 0.480796
Si Si7 0.126354 0.521043 0.188032
Si Si8 0.090789 0.427417 0.815693
O O1 0.214073 0.251919 0.443361
O O2 0.329994 0.417710 0.497696
O O3 0.384233 0.239716 0.250000
O O4 0.304375 0.237644 0.150610
O O5 0.400421 0.477141 0.183654
O O6 0.488598 0.213380 0.160735
O O7 0.805785 0.532496 0.861587
O O8 0.885679 0.770491 0.847972
O O9 0.269853 0.876588 0.250000
O O10 0.329926 0.761848 0.340984
O O11 0.158226 0.700452 0.306064
O O12 0.177711 0.968892 0.338081
O O13 0.597151 0.077087 0.415094
O O14 0.618225 0.250000 0.500000
O O15 0.500000 0.000000 0.500000
O O16 0.145555 0.451492 0.250000
O O17 0.015218 0.516284 0.176034
O O18 0.101625 0.413449 0.750000
#
# Coordination Sequence:
#
# PCOD9436458 Si02
#       8
#     4   8   8   8   8   8   8   8
#     4  12  26  46  64 104 132 186 244 288 346 410
#     4  12  24  40  63  92 132 174 214 273 344 418
#     4  12  24  43  65  92 136 173 225 280 336 409
#     4  10  20  36  57  88 128 160 201 258 321 401
#     4  12  25  42  60  94 129 173 222 265 342 411
#     4  12  24  44  70  92 130 180 245 304 337 391
#     4  10  19  39  67  95 128 168 215 270 340 410
#     4  10  22  37  65 101 127 165 216 272 341 413
#
# _framework density 20.457265
#
# number of rings (size 3 to 8) (size 9 to 14) (size 15 to 20)
#    0.000    0.800    3.333    4.800    3.733    2.133 
#    0.000    0.667    0.000    0.000    0.000    0.000 
#    0.000    0.000    0.000    0.000    0.000    0.000 
#
# Total GULP energy -334496.583050 kJ/mol
# GULP energy per Si atom -5574.943051 kJ/mol
# Density = 2.041070 g / cm^3
# Si number density = 20.457265 Si / 1000 Ang^3
#
#
#
# Elastic Constant Matrix: (Units=GPa)
#
#
# Indices 1 2 3 4 5 6 
#
# 1 124.1919 31.3589 44.3745 0.0000 0.0000 0.0000
# 2 31.3589 65.2234 -0.0131 0.0000 0.0000 0.0000
# 3 44.3745 -0.0131 94.8793 0.0000 0.0000 0.0000
# 4 0.0000 0.0000 0.0000 11.9533 0.0000 0.0000
# 5 0.0000 0.0000 0.0000 0.0000 21.4926 0.0000
# 6 0.0000 0.0000 0.0000 0.0000 0.0000 38.4696
#
#
#
# Elastic Compliance Matrix: (Units=1/GPa)
#
#
# Indices 1 2 3 4 5 6 
#
# 1 0.011318 -0.005443 -0.005294 0.000000 0.000000 0.000000
# 2 -0.005443 0.017949 0.002548 0.000000 0.000000 0.000000
# 3 -0.005294 0.002548 0.013016 0.000000 0.000000 0.000000
# 4 0.000000 0.000000 0.000000 0.083659 0.000000 0.000000
# 5 0.000000 0.000000 0.000000 0.000000 0.046528 0.000000
# 6 0.000000 0.000000 0.000000 0.000000 0.000000 0.025995
#
#
# Mechanical properties :
#
#
# Convention : Reuss Voigt Hill
#
# Bulk Modulus (GPa) = 38.60153 48.41501 43.50827
# Shear Modulus (GPa) = 22.37367 28.28806 25.33087
#
# Velocity S-wave (km/s) = 3.31067 3.72262 3.52267
# Velocity P-wave (km/s) = 5.79002 6.49577 6.15302
#
# Compressibility (1/GPa) = 0.02590571
#
# Stress axis : x y z
#
# Youngs Moduli (GPa) = 88.35523 55.71277 76.82806
#
# Poissons Ratio (x) = 0.30322 0.40673
# Poissons Ratio (y) = 0.48089 -0.19576
# Poissons Ratio (z) = 0.46776 -0.14195
#
# Static dielectric constant tensor:
#      x y z
#    x 1.710010 0.000000 0.000000 
#    y 0.000000 1.889550 0.000000 
#    z 0.000000 0.000000 1.726430 
# 
# From -- ./inp_files/27432.got.cif
#   From: 2010.05.17/outbox.cif.g08.bks.cpg/sg57_14_cif.got.tgz:27432.got - 2010.06.03 13:58:18.
