data_PCOD9436202
_publ_section_title
;
Structure prediction by ZEFSAII (Michael W. Deem and Ramdas Pophale) SiO2 
 PCOD9436202
Probable space group: P B C M
;
_chemical_formula_sum "Si O2"
_cell_formula_units_Z 56
_cell_length_a 21.941665
_cell_length_b 15.091211
_cell_length_c 8.800101
_cell_angle_alpha 90.000000
_cell_angle_beta 90.000000
_cell_angle_gamma 90.000000
_cell_volume 2913.944850
_symmetry_space_group_name_H-M "P B C M"
_symmetry_group_IT_number 57
_symmetry_cell_setting 'orthorhombic'
loop_
_space_group_symop_operation_xyz
x,y,z
-x,-y,1/2+z
x,1/2-y,-z
-x,1/2+y,1/2-z
-x,-y,-z
x,y,1/2-z
-x,1/2+y,z
x,1/2-y,1/2+z
loop_
_atom_site_type_symbol
_atom_site_label
_atom_site_fract_x
_atom_site_fract_y
_atom_site_fract_z
Si Si1 0.186791 0.842878 0.929464
Si Si2 0.409164 0.517795 0.067937
Si Si3 0.937941 0.109257 0.923522
Si Si4 0.724666 0.488403 0.067772
Si Si5 0.197988 0.157714 0.432724
Si Si6 0.491785 0.150296 0.567314
Si Si7 0.063313 0.105434 0.073688
O O1 0.195697 0.845805 0.750000
O O2 0.205955 0.750000 0.000000
O O3 0.115802 0.856874 0.970018
O O4 0.226888 0.916724 0.011350
O O5 0.411824 0.526524 0.250000
O O6 0.437965 0.420794 0.028711
O O7 0.340640 0.523371 0.008411
O O8 0.449294 0.596759 0.994844
O O9 0.926517 0.137432 0.750000
O O10 0.935593 0.001888 0.928453
O O11 0.005088 0.135876 0.978387
O O12 0.718838 0.484285 0.250000
O O13 0.755195 0.581520 0.023856
O O14 0.218050 0.250000 0.500000
O O15 0.195503 0.160073 0.250000
O O16 0.128770 0.137398 0.485025
O O17 0.485759 0.250000 0.500000
O O18 0.494993 0.157498 0.750000
O O19 0.055837 0.132250 0.250000
#
# Coordination Sequence:
#
# PCOD9436202 Si02
#       7
#     8   8   8   8   8   8   8
#     4  12  25  41  62  87 116 154 200 250 306 367
#     4  10  22  40  63  94 127 163 206 246 294 351
#     4  10  19  35  58  84 114 149 194 247 306 365
#     4  11  23  43  64  87 123 162 201 250 300 350
#     4  10  22  39  59  84 117 155 198 248 299 358
#     4  10  21  39  65  96 131 166 203 248 294 344
#     4   9  18  35  56  81 114 152 195 244 304 362
#
# _framework density 19.217935000000001
#
# number of rings (size 3 to 8) (size 9 to 14) (size 15 to 20)
#    0.000    1.714    1.429    3.000    0.000    5.714 
#    0.000    7.143    0.000    0.000    0.000    0.000 
#    0.000    0.000    0.000    0.000    0.000    0.000 
#
# Total GULP energy -312885.051766 kJ/mol
# GULP energy per Si atom -5587.233067 kJ/mol
# Density = 1.917419 g / cm^3
# Si number density = 19.217935 Si / 1000 Ang^3
#
#
#
# Elastic Constant Matrix: (Units=GPa)
#
#
# Indices 1 2 3 4 5 6 
#
# 1 48.7785 -10.8581 -0.6852 0.0000 0.0000 0.0000
# 2 -10.8581 71.3648 14.1681 0.0000 0.0000 0.0000
# 3 -0.6852 14.1681 36.6991 0.0000 0.0000 0.0000
# 4 0.0000 0.0000 0.0000 30.8480 0.0000 0.0000
# 5 0.0000 0.0000 0.0000 0.0000 22.8089 0.0000
# 6 0.0000 0.0000 0.0000 0.0000 0.0000 -146.8432
#
#
#
# Elastic Compliance Matrix: (Units=1/GPa)
#
#
# Indices 1 2 3 4 5 6 
#
# 1 0.021248 0.003416 -0.000922 0.000000 0.000000 0.000000
# 2 0.003416 0.015725 -0.006007 0.000000 0.000000 0.000000
# 3 -0.000922 -0.006007 0.029550 0.000000 0.000000 0.000000
# 4 0.000000 0.000000 0.000000 0.032417 0.000000 0.000000
# 5 0.000000 0.000000 0.000000 0.000000 0.043843 0.000000
# 6 0.000000 0.000000 0.000000 0.000000 0.000000 -0.006810
#
#
# Mechanical properties :
#
#
# Convention : Reuss Voigt Hill
#
# Bulk Modulus (GPa) = 16.80745 18.01023 17.40884
# Shear Modulus (GPa) = 30.70652 -8.35611 11.17521
#
# Velocity S-wave (km/s) = 4.00159 -2.08747 2.41404
# Velocity P-wave (km/s) = 5.48772 1.89259 4.10469
#
# Compressibility (1/GPa) = 0.05949742
#
# Stress axis : x y z
#
# Youngs Moduli (GPa) = 47.06269 63.59373 33.84038
#
# Poissons Ratio (x) = -0.21723 0.03120
# Poissons Ratio (y) = -0.16076 0.20328
# Poissons Ratio (z) = 0.04339 0.38201
#
# Static dielectric constant tensor:
#      x y z
#    x 1.640700 0.000000 0.000000 
#    y 0.000000 1.663320 0.000000 
#    z 0.000000 0.000000 2.153090 
# 
# From -- ./inp_files/8175.got.cif
#   From: 2010.05.17/outbox.cif.g08.bks.cpg/sg57_5_cif.got.tgz:8175.got - 2010.06.03 13:58:18.
