data_PCOD9436848
_publ_section_title
;
Structure prediction by ZEFSAII (Michael W. Deem and Ramdas Pophale) SiO2 
 PCOD9436848
Probable space group: P B C M
;
_chemical_formula_sum "Si O2"
_cell_formula_units_Z 64
_cell_length_a 25.162291
_cell_length_b 14.515186
_cell_length_c 9.579781
_cell_angle_alpha 90.000000
_cell_angle_beta 90.000000
_cell_angle_gamma 90.000000
_cell_volume 3498.874514
_symmetry_space_group_name_H-M "P B C M"
_symmetry_group_IT_number 57
_symmetry_cell_setting 'orthorhombic'
loop_
_space_group_symop_operation_xyz
x,y,z
-x,-y,1/2+z
x,1/2-y,-z
-x,1/2+y,1/2-z
-x,-y,-z
x,y,1/2-z
-x,1/2+y,z
x,1/2-y,1/2+z
loop_
_atom_site_type_symbol
_atom_site_label
_atom_site_fract_x
_atom_site_fract_y
_atom_site_fract_z
Si Si1 0.228429 0.155394 0.414857
Si Si2 0.366468 0.661927 0.585487
Si Si3 0.094199 0.661829 0.912527
Si Si4 0.333135 0.462673 0.914191
Si Si5 0.518434 0.412782 0.088528
Si Si6 0.595536 0.836925 0.410861
Si Si7 0.118249 0.449490 0.583597
Si Si8 0.020516 0.411662 0.414297
O O1 0.228009 0.250000 0.500000
O O2 0.230245 0.177266 0.250000
O O3 0.279892 0.093219 0.446986
O O4 0.175804 0.094391 0.438936
O O5 0.348936 0.750000 0.500000
O O6 0.368589 0.683328 0.750000
O O7 0.330028 0.572100 0.566049
O O8 0.426461 0.632518 0.541286
O O9 0.108058 0.673931 0.750000
O O10 0.114687 0.558949 0.954101
O O11 0.029675 0.656335 0.922323
O O12 0.112807 0.750000 0.000000
O O13 0.346412 0.447412 0.750000
O O14 0.379234 0.424406 0.012985
O O15 0.526535 0.441499 0.250000
O O16 0.468225 0.344527 0.085347
O O17 0.500000 0.500000 0.000000
O O18 0.613879 0.750000 0.500000
O O19 0.612234 0.830729 0.250000
O O20 0.105120 0.444523 0.750000
O O21 0.075550 0.392136 0.492809
O O22 0.029334 0.431053 0.250000
O O23 0.000000 0.500000 0.500000
#
# Coordination Sequence:
#
# PCOD9436848 Si02
#       8
#     8   8   8   8   8   8   8   8
#     4  10  22  40  61  82 106 139 179 228 282 332
#     4  10  21  37  57  81 110 145 183 222 270 327
#     4   9  18  31  49  75 108 144 179 214 256 311
#     4  10  21  39  60  80 107 142 181 228 278 328
#     4  10  20  34  53  79 110 145 181 219 266 322
#     4  11  22  34  53  81 110 143 179 220 270 323
#     4   9  19  36  54  76 108 144 182 225 274 325
#     4   9  17  30  49  75 107 144 183 221 264 313
#
# _framework density 18.291595999999998
#
# number of rings (size 3 to 8) (size 9 to 14) (size 15 to 20)
#    0.000    2.250    1.250    2.250    0.000    6.500 
#    0.000    3.125    0.000    0.000    0.000    0.000 
#    0.000    0.000    0.000    0.000    0.000    0.000 
#
# Total GULP energy -356829.041807 kJ/mol
# GULP energy per Si atom -5575.453778 kJ/mol
# Density = 1.824996 g / cm^3
# Si number density = 18.291596 Si / 1000 Ang^3
#
#
#
# Elastic Constant Matrix: (Units=GPa)
#
#
# Indices 1 2 3 4 5 6 
#
# 1 84.2587 33.5622 32.0537 0.0000 0.0000 0.0000
# 2 33.5622 113.1034 61.5234 0.0000 0.0000 0.0000
# 3 32.0537 61.5234 68.6696 0.0000 0.0000 0.0000
# 4 0.0000 0.0000 0.0000 34.8081 0.0000 0.0000
# 5 0.0000 0.0000 0.0000 0.0000 18.2080 0.0000
# 6 0.0000 0.0000 0.0000 0.0000 0.0000 17.6013
#
#
#
# Elastic Compliance Matrix: (Units=1/GPa)
#
#
# Indices 1 2 3 4 5 6 
#
# 1 0.014515 -0.001213 -0.005689 0.000000 0.000000 0.000000
# 2 -0.001213 0.017348 -0.014976 0.000000 0.000000 0.000000
# 3 -0.005689 -0.014976 0.030636 0.000000 0.000000 0.000000
# 4 0.000000 0.000000 0.000000 0.028729 0.000000 0.000000
# 5 0.000000 0.000000 0.000000 0.000000 0.054921 0.000000
# 6 0.000000 0.000000 0.000000 0.000000 0.000000 0.056814
#
#
# Mechanical properties :
#
#
# Convention : Reuss Voigt Hill
#
# Bulk Modulus (GPa) = 53.35369 57.81225 55.58297
# Shear Modulus (GPa) = 19.76540 23.38296 21.57418
#
# Velocity S-wave (km/s) = 3.29077 3.57927 3.43805
# Velocity P-wave (km/s) = 6.60838 6.98256 6.79804
#
# Compressibility (1/GPa) = 0.01874285
#
# Stress axis : x y z
#
# Youngs Moduli (GPa) = 68.89191 57.64397 32.64141
#
# Poissons Ratio (x) = 0.06991 0.18570
# Poissons Ratio (y) = 0.08355 0.48885
# Poissons Ratio (z) = 0.39193 0.86330
#
# Static dielectric constant tensor:
#      x y z
#    x 1.660600 0.000000 0.000000 
#    y 0.000000 1.639290 0.000000 
#    z 0.000000 0.000000 1.619890 
# 
# From -- ./inp_files/9341.got.cif
#   From: 2010.05.17/outbox.cif.g08.bks.cpg/sg57_5_cif.got.tgz:9341.got - 2010.06.03 13:58:18.
