data_PCOD9436171
_publ_section_title
;
Structure prediction by ZEFSAII (Michael W. Deem and Ramdas Pophale) SiO2 
 PCOD9436171
Probable space group: P B C M
;
_chemical_formula_sum "Si O2"
_cell_formula_units_Z 64
_cell_length_a 15.178493
_cell_length_b 24.736530
_cell_length_c 7.978257
_cell_angle_alpha 90.000000
_cell_angle_beta 90.000000
_cell_angle_gamma 90.000000
_cell_volume 2995.542282
_symmetry_space_group_name_H-M "P B C M"
_symmetry_group_IT_number 57
_symmetry_cell_setting 'orthorhombic'
loop_
_space_group_symop_operation_xyz
x,y,z
-x,-y,1/2+z
x,1/2-y,-z
-x,1/2+y,1/2-z
-x,-y,-z
x,y,1/2-z
-x,1/2+y,z
x,1/2-y,1/2+z
loop_
_atom_site_type_symbol
_atom_site_label
_atom_site_fract_x
_atom_site_fract_y
_atom_site_fract_z
Si Si1 0.858790 0.310552 0.548254
Si Si2 0.626442 0.892278 0.055856
Si Si3 0.285053 0.000053 0.951415
Si Si4 0.050033 0.154802 0.045634
Si Si5 0.526334 0.188285 0.053762
Si Si6 0.692810 0.121535 0.044001
Si Si7 0.912512 0.532639 0.049579
Si Si8 0.764137 0.692283 0.450305
O O1 0.833343 0.250000 0.500000
O O2 0.861610 0.313527 0.750000
O O3 0.956369 0.324209 0.483274
O O4 0.785975 0.353222 0.491218
O O5 0.602309 0.899004 0.250000
O O6 0.653879 0.950751 0.983205
O O7 0.551490 0.854859 0.975630
O O8 0.713846 0.856157 0.038499
O O9 0.293845 0.000950 0.750000
O O10 0.313599 0.940684 0.011265
O O11 0.181432 0.010295 0.987266
O O12 0.046474 0.154647 0.250000
O O13 0.071187 0.093938 0.990761
O O14 0.134030 0.189997 0.996937
O O15 0.540644 0.192510 0.250000
O O16 0.614794 0.160544 0.982016
O O17 0.508359 0.250000 0.000000
O O18 0.691137 0.120982 0.250000
O O19 0.906860 0.533355 0.250000
O O20 0.000000 0.500000 0.000000
O O21 0.725211 0.750000 0.500000
O O22 0.757579 0.684914 0.250000
#
# Coordination Sequence:
#
# PCOD9436171 Si02
#       8
#     8   8   8   8   8   8   8   8
#     4  10  19  35  57  82 114 152 194 241 293 350
#     4  11  23  39  61  89 120 154 194 246 299 354
#     4  10  21  40  63  88 119 156 200 246 299 363
#     4   9  19  34  54  79 113 154 193 236 290 349
#     4  11  23  41  65  91 120 157 200 247 301 362
#     4   9  20  39  63  87 117 157 196 241 304 363
#     4  11  21  36  57  84 118 160 206 248 297 351
#     4  11  21  36  56  82 116 154 195 239 289 349
#
# _framework density 21.365079000000001
#
# number of rings (size 3 to 8) (size 9 to 14) (size 15 to 20)
#    0.000    1.750    1.250    3.375    0.000    3.000 
#    0.000    5.625    0.000    0.000    0.000    0.000 
#    0.000    0.000    0.000    0.000    0.000    0.000 
#
# Total GULP energy -357450.142223 kJ/mol
# GULP energy per Si atom -5585.158472 kJ/mol
# Density = 2.131645 g / cm^3
# Si number density = 21.365079 Si / 1000 Ang^3
#
#
#
# Elastic Constant Matrix: (Units=GPa)
#
#
# Indices 1 2 3 4 5 6 
#
# 1 83.6074 34.7671 -4.6157 0.0000 0.0000 0.0000
# 2 34.7671 141.3361 3.4140 0.0000 0.0000 0.0000
# 3 -4.6157 3.4140 19.5179 0.0000 0.0000 0.0000
# 4 0.0000 0.0000 0.0000 17.1056 0.0000 0.0000
# 5 0.0000 0.0000 0.0000 0.0000 -36.2860 0.0000
# 6 0.0000 0.0000 0.0000 0.0000 0.0000 31.2720
#
#
#
# Elastic Compliance Matrix: (Units=1/GPa)
#
#
# Indices 1 2 3 4 5 6 
#
# 1 0.013601 -0.003438 0.003818 0.000000 0.000000 0.000000
# 2 -0.003438 0.007974 -0.002208 0.000000 0.000000 0.000000
# 3 0.003818 -0.002208 0.052524 0.000000 0.000000 0.000000
# 4 0.000000 0.000000 0.000000 0.058460 0.000000 0.000000
# 5 0.000000 0.000000 0.000000 0.000000 -0.027559 0.000000
# 6 0.000000 0.000000 0.000000 0.000000 0.000000 0.031977
#
#
# Mechanical properties :
#
#
# Convention : Reuss Voigt Hill
#
# Bulk Modulus (GPa) = 14.19577 34.62136 24.40857
# Shear Modulus (GPa) = 30.46635 16.47807 23.47221
#
# Velocity S-wave (km/s) = 3.78032 2.78017 3.31815
# Velocity P-wave (km/s) = 5.07082 5.15225 5.11170
#
# Compressibility (1/GPa) = 0.07044351
#
# Stress axis : x y z
#
# Youngs Moduli (GPa) = 73.52369 125.40196 19.03889
#
# Poissons Ratio (x) = 0.43112 -0.07269
# Poissons Ratio (y) = 0.25277 0.04204
# Poissons Ratio (z) = -0.28070 0.27687
#
# Static dielectric constant tensor:
#      x y z
#    x 1.775210 0.000000 0.000000 
#    y 0.000000 1.830020 0.000000 
#    z 0.000000 0.000000 1.768960 
# 
# From -- ./inp_files/5683.got.cif
#   From: 2010.05.17/outbox.cif.g08.bks.cpg/sg57_3_cif.got.tgz:5683.got - 2010.06.03 13:58:18.
