data_PCOD9436445
_publ_section_title
;
Structure prediction by ZEFSAII (Michael W. Deem and Ramdas Pophale) SiO2 
 PCOD9436445
Probable space group: P B C M
;
_chemical_formula_sum "Si O2"
_cell_formula_units_Z 48
_cell_length_a 8.020362
_cell_length_b 14.461898
_cell_length_c 17.016390
_cell_angle_alpha 90.000000
_cell_angle_beta 90.000000
_cell_angle_gamma 90.000000
_cell_volume 1973.725242
_symmetry_space_group_name_H-M "P B C M"
_symmetry_group_IT_number 57
_symmetry_cell_setting 'orthorhombic'
loop_
_space_group_symop_operation_xyz
x,y,z
-x,-y,1/2+z
x,1/2-y,-z
-x,1/2+y,1/2-z
-x,-y,-z
x,y,1/2-z
-x,1/2+y,z
x,1/2-y,1/2+z
loop_
_atom_site_type_symbol
_atom_site_label
_atom_site_fract_x
_atom_site_fract_y
_atom_site_fract_z
Si Si1 0.938765 0.361844 0.490807
Si Si2 0.058566 0.190713 0.665436
Si Si3 0.377708 0.240010 0.912605
Si Si4 0.459049 0.594348 0.338176
Si Si5 0.410141 0.558797 0.932679
Si Si6 0.925622 0.387568 0.837590
O O1 0.919607 0.250000 0.500000
O O2 0.764349 0.406920 0.466218
O O3 0.002595 0.401814 0.574597
O O4 0.045697 0.372900 0.411241
O O5 0.052092 0.143624 0.750000
O O6 0.234007 0.241682 0.651955
O O7 0.924088 0.274197 0.665393
O O8 0.501395 0.324080 0.898205
O O9 0.479832 0.146457 0.909797
O O10 0.302600 0.250000 0.000000
O O11 0.488165 0.627370 0.250000
O O12 0.581164 0.510240 0.358922
O O13 0.262012 0.572857 0.343153
O O14 0.500000 0.500000 0.000000
O O15 0.993561 0.413633 0.750000
#
# Coordination Sequence:
#
# PCOD9436445 Si02
#       6
#     8   8   8   8   8   8
#     4  10  19  38  65  91 127 172 218 260 328 389
#     4  10  22  38  61  93 128 171 222 268 327 395
#     4  12  22  40  67  94 130 172 219 274 330 390
#     4  11  24  41  65  98 132 169 219 274 330 394
#     4  12  23  40  66 100 130 168 219 271 328 390
#     4   9  17  34  58  86 121 161 207 261 316 380
#
# _framework density 24.319496000000001
#
# number of rings (size 3 to 8) (size 9 to 14) (size 15 to 20)
#    0.000    1.333    3.333    4.500    0.000    2.000 
#    0.000    2.500    0.000    2.000    0.000    0.000 
#    0.000    0.000    0.000    0.000    0.000    0.000 
#
# Total GULP energy -268119.918724 kJ/mol
# GULP energy per Si atom -5585.831640 kJ/mol
# Density = 2.426414 g / cm^3
# Si number density = 24.319496 Si / 1000 Ang^3
#
#
#
# Elastic Constant Matrix: (Units=GPa)
#
#
# Indices 1 2 3 4 5 6 
#
# 1 38.0878 7.1710 13.8342 0.0000 0.0000 0.0000
# 2 7.1710 92.6002 -3.1174 0.0000 0.0000 0.0000
# 3 13.8342 -3.1174 193.1256 0.0000 0.0000 0.0000
# 4 0.0000 0.0000 0.0000 15.8252 0.0000 0.0000
# 5 0.0000 0.0000 0.0000 0.0000 17.7789 0.0000
# 6 0.0000 0.0000 0.0000 0.0000 0.0000 21.8679
#
#
#
# Elastic Compliance Matrix: (Units=1/GPa)
#
#
# Indices 1 2 3 4 5 6 
#
# 1 0.027393 -0.002189 -0.001998 0.000000 0.000000 0.000000
# 2 -0.002189 0.010980 0.000334 0.000000 0.000000 0.000000
# 3 -0.001998 0.000334 0.005326 0.000000 0.000000 0.000000
# 4 0.000000 0.000000 0.000000 0.063190 0.000000 0.000000
# 5 0.000000 0.000000 0.000000 0.000000 0.056247 0.000000
# 6 0.000000 0.000000 0.000000 0.000000 0.000000 0.045729
#
#
# Mechanical properties :
#
#
# Convention : Reuss Voigt Hill
#
# Bulk Modulus (GPa) = 27.78176 39.95435 33.86805
# Shear Modulus (GPa) = 21.87538 31.48946 26.68242
#
# Velocity S-wave (km/s) = 3.00242 3.60227 3.31594
# Velocity P-wave (km/s) = 4.84436 5.81089 5.34950
#
# Compressibility (1/GPa) = 0.03599484
#
# Stress axis : x y z
#
# Youngs Moduli (GPa) = 36.50605 91.07605 187.74196
#
# Poissons Ratio (x) = 0.19932 0.37502
# Poissons Ratio (y) = 0.07989 -0.06271
# Poissons Ratio (z) = 0.07292 -0.03042
#
# Static dielectric constant tensor:
#      x y z
#    x 1.903670 0.000000 0.000000 
#    y 0.000000 1.951380 0.000000 
#    z 0.000000 0.000000 2.119400 
# 
# From -- ./inp_files/21126.got.cif
#   From: 2010.05.17/outbox.cif.g08.bks.cpg/sg57_11_cif.got.tgz:21126.got - 2010.06.03 13:58:18.
