data_PCOD9436032
_publ_section_title
;
Structure prediction by ZEFSAII (Michael W. Deem and Ramdas Pophale) SiO2 
 PCOD9436032
Probable space group: P B C M
;
_chemical_formula_sum "Si O2"
_cell_formula_units_Z 64
_cell_length_a 10.464072
_cell_length_b 19.806678
_cell_length_c 16.532145
_cell_angle_alpha 90.000000
_cell_angle_beta 90.000000
_cell_angle_gamma 90.000000
_cell_volume 3426.427652
_symmetry_space_group_name_H-M "P B C M"
_symmetry_group_IT_number 57
_symmetry_cell_setting 'orthorhombic'
loop_
_space_group_symop_operation_xyz
x,y,z
-x,-y,1/2+z
x,1/2-y,-z
-x,1/2+y,1/2-z
-x,-y,-z
x,y,1/2-z
-x,1/2+y,z
x,1/2-y,1/2+z
loop_
_atom_site_type_symbol
_atom_site_label
_atom_site_fract_x
_atom_site_fract_y
_atom_site_fract_z
Si Si1 0.799066 0.611222 0.604965
Si Si2 0.621466 0.393675 0.847395
Si Si3 0.484748 0.757639 0.596415
Si Si4 0.219104 0.239082 0.402279
Si Si5 0.872184 0.904397 0.581324
Si Si6 0.120041 0.967955 0.843568
Si Si7 0.627146 0.522822 0.152456
Si Si8 0.491111 0.111819 0.654284
O O1 0.823646 0.688513 0.633111
O O2 0.850322 0.603227 0.514189
O O3 0.858755 0.548451 0.652171
O O4 0.644498 0.604763 0.608661
O O5 0.620585 0.394833 0.750000
O O6 0.607215 0.317437 0.876801
O O7 0.748955 0.432616 0.872826
O O8 0.494445 0.432911 0.874761
O O9 0.481661 0.750000 0.500000
O O10 0.632407 0.773779 0.620311
O O11 0.455684 0.685784 0.636237
O O12 0.217688 0.250000 0.500000
O O13 0.139887 0.171914 0.383328
O O14 0.755309 0.948569 0.614895
O O15 0.002852 0.940743 0.604352
O O16 0.097917 0.949109 0.750000
O O17 0.636903 0.527090 0.250000
O O18 0.590057 0.446294 0.130904
O O19 0.462859 0.104040 0.750000
#
# Coordination Sequence:
#
# PCOD9436032 Si02
#       8
#     8   8   8   8   8   8   8   8
#     4  10  20  36  60  83 113 150 191 234 285 343
#     4  10  20  36  57  80 113 151 188 231 281 339
#     4  10  19  34  56  87 117 144 189 241 286 335
#     4   8  17  33  54  82 112 139 175 231 280 330
#     4  11  21  37  59  86 114 148 192 241 286 330
#     4  11  23  40  56  79 116 154 194 232 281 349
#     4  10  20  35  56  84 115 147 188 235 284 338
#     4  10  20  35  56  85 118 151 186 234 294 344
#
# _framework density 18.678346000000001
#
# number of rings (size 3 to 8) (size 9 to 14) (size 15 to 20)
#    0.000    2.000    2.500    2.250    0.000    1.500 
#    0.000    5.000    0.000    1.500    0.000    0.000 
#    0.000    0.000    0.000    0.000    0.000    0.000 
#
# Total GULP energy -357175.689180 kJ/mol
# GULP energy per Si atom -5580.870143 kJ/mol
# Density = 1.863583 g / cm^3
# Si number density = 18.678346 Si / 1000 Ang^3
#
#
#
# Elastic Constant Matrix: (Units=GPa)
#
#
# Indices 1 2 3 4 5 6 
#
# 1 84.4352 48.5055 18.3288 0.0000 0.0000 0.0000
# 2 48.5055 139.0994 10.5824 0.0000 0.0000 0.0000
# 3 18.3288 10.5824 19.7505 0.0000 0.0000 0.0000
# 4 0.0000 0.0000 0.0000 32.4732 0.0000 0.0000
# 5 0.0000 0.0000 0.0000 0.0000 20.8656 0.0000
# 6 0.0000 0.0000 0.0000 0.0000 0.0000 23.8889
#
#
#
# Elastic Compliance Matrix: (Units=1/GPa)
#
#
# Indices 1 2 3 4 5 6 
#
# 1 0.017790 -0.005158 -0.013746 0.000000 0.000000 0.000000
# 2 -0.005158 0.008990 -0.000030 0.000000 0.000000 0.000000
# 3 -0.013746 -0.000030 0.063405 0.000000 0.000000 0.000000
# 4 0.000000 0.000000 0.000000 0.030795 0.000000 0.000000
# 5 0.000000 0.000000 0.000000 0.000000 0.047926 0.000000
# 6 0.000000 0.000000 0.000000 0.000000 0.000000 0.041860
#
#
# Mechanical properties :
#
#
# Convention : Reuss Voigt Hill
#
# Bulk Modulus (GPa) = 19.11453 44.23541 31.67497
# Shear Modulus (GPa) = 18.79181 26.50343 22.64762
#
# Velocity S-wave (km/s) = 3.17531 3.77097 3.48588
# Velocity P-wave (km/s) = 4.86818 6.53409 5.76167
#
# Compressibility (1/GPa) = 0.05231621
#
# Stress axis : x y z
#
# Youngs Moduli (GPa) = 56.20994 111.23424 15.77175
#
# Poissons Ratio (x) = 0.57374 0.21680
# Poissons Ratio (y) = 0.28993 0.00048
# Poissons Ratio (z) = 0.77267 0.00337
#
# Static dielectric constant tensor:
#      x y z
#    x 1.602650 0.000000 0.000000 
#    y 0.000000 1.672190 0.000000 
#    z 0.000000 0.000000 1.661200 
# 
# From -- ./inp_files/17967.got.cif
#   From: 2010.05.17/outbox.cif.g08.bks.cpg/sg57_9_cif.got.tgz:17967.got - 2010.06.03 13:58:18.
