data_PCOD9436716
_publ_section_title
;
Structure prediction by ZEFSAII (Michael W. Deem and Ramdas Pophale) SiO2 
 PCOD9436716
Probable space group: P B C M
;
_chemical_formula_sum "Si O2"
_cell_formula_units_Z 64
_cell_length_a 4.979521
_cell_length_b 19.881530
_cell_length_c 27.332413
_cell_angle_alpha 90.000000
_cell_angle_beta 90.000000
_cell_angle_gamma 90.000000
_cell_volume 2705.922448
_symmetry_space_group_name_H-M "P B C M"
_symmetry_group_IT_number 57
_symmetry_cell_setting 'orthorhombic'
loop_
_space_group_symop_operation_xyz
x,y,z
-x,-y,1/2+z
x,1/2-y,-z
-x,1/2+y,1/2-z
-x,-y,-z
x,y,1/2-z
-x,1/2+y,z
x,1/2-y,1/2+z
loop_
_atom_site_type_symbol
_atom_site_label
_atom_site_fract_x
_atom_site_fract_y
_atom_site_fract_z
Si Si1 0.641106 0.814738 0.985371
Si Si2 0.588153 0.527769 0.121559
Si Si3 0.208130 0.185234 0.694678
Si Si4 0.961185 0.374558 0.441666
Si Si5 0.711580 0.271805 0.134038
Si Si6 0.065356 0.351844 0.896472
Si Si7 0.116350 0.051136 0.851928
Si Si8 0.269251 0.561383 0.472016
O O1 0.744549 0.807085 0.930699
O O2 0.465871 0.879798 0.989762
O O3 0.477431 0.750000 0.000000
O O4 0.888618 0.824817 0.021457
O O5 0.727522 0.599849 0.132409
O O6 0.316543 0.511485 0.150617
O O7 0.476321 0.522124 0.064607
O O8 0.811876 0.473812 0.138676
O O9 0.269697 0.204688 0.750000
O O10 0.418339 0.218871 0.657061
O O11 0.191575 0.104292 0.689426
O O12 0.914199 0.207027 0.677437
O O13 0.161708 0.405157 0.401289
O O14 0.762242 0.327185 0.409370
O O15 0.894764 0.440534 0.476335
O O16 0.828151 0.197355 0.120990
O O17 0.935802 0.406994 0.933102
#
# Coordination Sequence:
#
# PCOD9436716 Si02
#       8
#     8   8   8   8   8   8   8   8
#     4  10  20  33  54  85 138 177 224 268 307 372
#     4  11  23  43  61  92 131 187 223 255 320 369
#     4  11  26  48  73 104 124 152 205 278 355 396
#     4  10  23  36  55  98 129 175 233 267 327 361
#     4  11  24  40  74  98 130 168 205 270 333 407
#     4  10  22  40  58  96 134 180 215 259 315 377
#     4  11  24  42  68  90 128 172 225 273 315 403
#     4  10  23  35  55  90 136 179 228 271 299 360
#
# _framework density 23.651821999999999
#
# number of rings (size 3 to 8) (size 9 to 14) (size 15 to 20)
#    0.000    1.500    2.500    1.875   10.500    1.000 
#    0.000    0.000    0.000    4.500    0.000    0.000 
#    0.000    0.000    0.000    0.000    0.000    0.000 
#
# Total GULP energy -356624.686274 kJ/mol
# GULP energy per Si atom -5572.260723 kJ/mol
# Density = 2.359799 g / cm^3
# Si number density = 23.651822 Si / 1000 Ang^3
#
#
#
# Elastic Constant Matrix: (Units=GPa)
#
#
# Indices 1 2 3 4 5 6 
#
# 1 64.0355 -15.5036 2.4293 0.0000 0.0000 0.0000
# 2 -15.5036 42.0613 -0.4410 0.0000 0.0000 0.0000
# 3 2.4293 -0.4410 66.0916 0.0000 0.0000 0.0000
# 4 0.0000 0.0000 0.0000 20.3300 0.0000 0.0000
# 5 0.0000 0.0000 0.0000 0.0000 19.3269 0.0000
# 6 0.0000 0.0000 0.0000 0.0000 0.0000 24.0346
#
#
#
# Elastic Compliance Matrix: (Units=1/GPa)
#
#
# Indices 1 2 3 4 5 6 
#
# 1 0.017169 0.006322 -0.000589 0.000000 0.000000 0.000000
# 2 0.006322 0.026105 -0.000058 0.000000 0.000000 0.000000
# 3 -0.000589 -0.000058 0.015152 0.000000 0.000000 0.000000
# 4 0.000000 0.000000 0.000000 0.049188 0.000000 0.000000
# 5 0.000000 0.000000 0.000000 0.000000 0.051741 0.000000
# 6 0.000000 0.000000 0.000000 0.000000 0.000000 0.041607
#
#
# Mechanical properties :
#
#
# Convention : Reuss Voigt Hill
#
# Bulk Modulus (GPa) = 14.33153 16.12867 15.23010
# Shear Modulus (GPa) = 23.48847 25.11855 24.30351
#
# Velocity S-wave (km/s) = 3.15476 3.26239 3.20903
# Velocity P-wave (km/s) = 4.39801 4.58529 4.49263
#
# Compressibility (1/GPa) = 0.06977623
#
# Stress axis : x y z
#
# Youngs Moduli (GPa) = 58.24327 38.30742 65.99889
#
# Poissons Ratio (x) = -0.24219 0.03887
# Poissons Ratio (y) = -0.36823 0.00384
# Poissons Ratio (z) = 0.03430 0.00223
#
# Static dielectric constant tensor:
#      x y z
#    x 2.066590 0.000000 0.000000 
#    y 0.000000 2.057870 0.000000 
#    z 0.000000 0.000000 1.928630 
# 
# From -- ./inp_files/28136.got.cif
#   From: 2010.05.17/outbox.cif.g08.bks.cpg/sg57_15_cif.got.tgz:28136.got - 2010.06.03 13:58:18.
