data_PCOD9436797
_publ_section_title
;
Structure prediction by ZEFSAII (Michael W. Deem and Ramdas Pophale) SiO2 
 PCOD9436797
Probable space group: P B C M
;
_chemical_formula_sum "Si O2"
_cell_formula_units_Z 48
_cell_length_a 14.502133
_cell_length_b 15.448901
_cell_length_c 11.072894
_cell_angle_alpha 90.000000
_cell_angle_beta 90.000000
_cell_angle_gamma 90.000000
_cell_volume 2480.793506
_symmetry_space_group_name_H-M "P B C M"
_symmetry_group_IT_number 57
_symmetry_cell_setting 'orthorhombic'
loop_
_space_group_symop_operation_xyz
x,y,z
-x,-y,1/2+z
x,1/2-y,-z
-x,1/2+y,1/2-z
-x,-y,-z
x,y,1/2-z
-x,1/2+y,z
x,1/2-y,1/2+z
loop_
_atom_site_type_symbol
_atom_site_label
_atom_site_fract_x
_atom_site_fract_y
_atom_site_fract_z
Si Si1 0.039897 0.198704 0.382285
Si Si2 0.862417 0.399749 0.619059
Si Si3 0.862510 0.986861 0.616508
Si Si4 0.545304 0.684496 0.387983
Si Si5 0.338742 0.842579 0.555550
Si Si6 0.644460 0.506377 0.112915
O O1 0.070047 0.250000 0.500000
O O2 0.063580 0.236558 0.250000
O O3 0.084161 0.103327 0.387736
O O4 0.929913 0.182594 0.386199
O O5 0.882390 0.442634 0.750000
O O6 0.884277 0.455548 0.500143
O O7 0.754759 0.375651 0.617032
O O8 0.880726 0.027195 0.750000
O O9 0.752845 0.970259 0.610675
O O10 0.564505 0.750000 0.500000
O O11 0.579098 0.706602 0.250000
O O12 0.434788 0.675514 0.378456
O O13 0.587723 0.591244 0.423321
O O14 0.312715 0.750000 0.500000
O O15 0.364926 0.919292 0.463052
O O16 0.617051 0.486523 0.250000
#
# Coordination Sequence:
#
# PCOD9436797 Si02
#       6
#     8   8   8   8   8   8
#     4  10  21  35  52  76 105 135 171 214 260 310
#     4  10  20  34  52  77 106 135 171 215 259 309
#     4   9  19  36  55  75 101 136 174 213 259 312
#     4  10  21  37  56  80 109 142 180 223 268 317
#     4  10  20  34  54  80 109 142 177 218 266 319
#     4   9  19  36  57  80 108 142 180 221 268 319
#
# _framework density 19.348648000000001
#
# number of rings (size 3 to 8) (size 9 to 14) (size 15 to 20)
#    0.000    2.333    0.000    2.000    0.000    5.333 
#    0.000    7.500    0.000    0.000    0.000    0.000 
#    0.000    0.000    0.000    0.000    0.000    0.000 
#
# Total GULP energy -267273.580111 kJ/mol
# GULP energy per Si atom -5568.199586 kJ/mol
# Density = 1.930461 g / cm^3
# Si number density = 19.348648 Si / 1000 Ang^3
#
#
#
# Elastic Constant Matrix: (Units=GPa)
#
#
# Indices 1 2 3 4 5 6 
#
# 1 21.5590 11.0646 18.9323 0.0000 0.0000 0.0000
# 2 11.0646 78.3565 80.9927 0.0000 0.0000 0.0000
# 3 18.9323 80.9927 178.4014 0.0000 0.0000 0.0000
# 4 0.0000 0.0000 0.0000 -12.9847 0.0000 0.0000
# 5 0.0000 0.0000 0.0000 0.0000 23.8662 0.0000
# 6 0.0000 0.0000 0.0000 0.0000 0.0000 22.7907
#
#
#
# Elastic Compliance Matrix: (Units=1/GPa)
#
#
# Indices 1 2 3 4 5 6 
#
# 1 0.051538 -0.003060 -0.004080 0.000000 0.000000 0.000000
# 2 -0.003060 0.024228 -0.010675 0.000000 0.000000 0.000000
# 3 -0.004080 -0.010675 0.010884 0.000000 0.000000 0.000000
# 4 0.000000 0.000000 0.000000 -0.077014 0.000000 0.000000
# 5 0.000000 0.000000 0.000000 0.000000 0.041900 0.000000
# 6 0.000000 0.000000 0.000000 0.000000 0.000000 0.043878
#
#
# Mechanical properties :
#
#
# Convention : Reuss Voigt Hill
#
# Bulk Modulus (GPa) = 19.59994 55.58844 37.59419
# Shear Modulus (GPa) = 33.77226 17.88961 25.83094
#
# Velocity S-wave (km/s) = 4.18240 3.04401 3.65776
# Velocity P-wave (km/s) = 5.78577 6.41459 6.10828
#
# Compressibility (1/GPa) = 0.05102056
#
# Stress axis : x y z
#
# Youngs Moduli (GPa) = 19.40323 41.27460 91.87434
#
# Poissons Ratio (x) = 0.12632 0.37483
# Poissons Ratio (y) = 0.05938 0.98071
# Poissons Ratio (z) = 0.07916 0.44059
#
# Static dielectric constant tensor:
#      x y z
#    x 1.686690 0.000000 0.000000 
#    y 0.000000 1.648170 0.000000 
#    z 0.000000 0.000000 1.730080 
# 
# From -- ./inp_files/13704.got.cif
#   From: 2010.05.17/outbox.cif.g08.bks.cpg/sg57_7_cif.got.tgz:13704.got - 2010.06.03 13:58:18.
