data_PCOD9436547
_publ_section_title
;
Structure prediction by ZEFSAII (Michael W. Deem and Ramdas Pophale) SiO2 
 PCOD9436547
Probable space group: P B C M
;
_chemical_formula_sum "Si O2"
_cell_formula_units_Z 32
_cell_length_a 7.539279
_cell_length_b 5.704278
_cell_length_c 27.184107
_cell_angle_alpha 90.000000
_cell_angle_beta 90.000000
_cell_angle_gamma 90.000000
_cell_volume 1169.083602
_symmetry_space_group_name_H-M "P B C M"
_symmetry_group_IT_number 57
_symmetry_cell_setting 'orthorhombic'
loop_
_space_group_symop_operation_xyz
x,y,z
-x,-y,1/2+z
x,1/2-y,-z
-x,1/2+y,1/2-z
-x,-y,-z
x,y,1/2-z
-x,1/2+y,z
x,1/2-y,1/2+z
loop_
_atom_site_type_symbol
_atom_site_label
_atom_site_fract_x
_atom_site_fract_y
_atom_site_fract_z
Si Si1 0.812348 0.182452 0.951056
Si Si2 0.228221 0.328871 0.194317
Si Si3 0.474736 0.105413 0.083804
Si Si4 0.166348 0.673327 0.660096
O O1 0.645586 0.364777 0.951827
O O2 0.894573 0.211741 0.896868
O O3 0.708291 0.936626 0.945042
O O4 0.916713 0.250000 0.000000
O O5 0.291803 0.301667 0.250000
O O6 0.271074 0.593370 0.176036
O O7 0.012493 0.340170 0.191621
O O8 0.260136 0.080065 0.166470
O O9 0.488842 0.356070 0.109082
#
# Coordination Sequence:
#
# PCOD9436547 Si02
#       4
#     8   8   8   8
#     4  10  20  33  51  79 112 143 171 206 245 304
#     4  10  20  39  57  77 100 127 175 230 261 306
#     4   8  19  32  50  70 103 144 179 208 238 284
#     4  10  20  32  56  82 100 132 176 210 262 308
#
# _framework density 27.371867999999999
#
# number of rings (size 3 to 8) (size 9 to 14) (size 15 to 20)
#    1.500    1.000    0.000    4.500    3.500    0.000 
#    0.000    5.000    0.000    0.000    0.000   29.750 
#    0.000    0.000    0.000    0.000    0.000    0.000 
#
# Total GULP energy -178211.200340 kJ/mol
# GULP energy per Si atom -5569.100011 kJ/mol
# Density = 2.730957 g / cm^3
# Si number density = 27.371868 Si / 1000 Ang^3
#
#
#
# Elastic Constant Matrix: (Units=GPa)
#
#
# Indices 1 2 3 4 5 6 
#
# 1 39.8207 34.3163 0.8559 0.0000 0.0000 0.0000
# 2 34.3163 279.9435 73.0443 0.0000 0.0000 0.0000
# 3 0.8559 73.0443 125.6917 0.0000 0.0000 0.0000
# 4 0.0000 0.0000 0.0000 26.5860 0.0000 0.0000
# 5 0.0000 0.0000 0.0000 0.0000 20.5864 0.0000
# 6 0.0000 0.0000 0.0000 0.0000 0.0000 45.8221
#
#
#
# Elastic Compliance Matrix: (Units=1/GPa)
#
#
# Indices 1 2 3 4 5 6 
#
# 1 0.028572 -0.004069 0.002170 0.000000 0.000000 0.000000
# 2 -0.004069 0.004790 -0.002756 0.000000 0.000000 0.000000
# 3 0.002170 -0.002756 0.009543 0.000000 0.000000 0.000000
# 4 0.000000 0.000000 0.000000 0.037614 0.000000 0.000000
# 5 0.000000 0.000000 0.000000 0.000000 0.048576 0.000000
# 6 0.000000 0.000000 0.000000 0.000000 0.000000 0.021824
#
#
# Mechanical properties :
#
#
# Convention : Reuss Voigt Hill
#
# Bulk Modulus (GPa) = 29.76585 73.54320 51.65452
# Shear Modulus (GPa) = 29.16714 41.08154 35.12434
#
# Velocity S-wave (km/s) = 3.26788 3.87831 3.58610
# Velocity P-wave (km/s) = 5.01367 6.85431 6.00493
#
# Compressibility (1/GPa) = 0.03359555
#
# Stress axis : x y z
#
# Youngs Moduli (GPa) = 34.99910 208.76873 104.79120
#
# Poissons Ratio (x) = 0.84940 -0.22738
# Poissons Ratio (y) = 0.14240 0.28880
# Poissons Ratio (z) = -0.07594 0.57535
#
# Static dielectric constant tensor:
#      x y z
#    x 2.219180 0.000000 0.000000 
#    y 0.000000 2.134050 0.000000 
#    z 0.000000 0.000000 2.164020 
# 
# From -- ./inp_files/27326.got.cif
#   From: 2010.05.17/outbox.cif.g08.bks.cpg/sg57_14_cif.got.tgz:27326.got - 2010.06.03 13:58:18.
