data_PCOD9436346
_publ_section_title
;
Structure prediction by ZEFSAII (Michael W. Deem and Ramdas Pophale) SiO2 
 PCOD9436346
Probable space group: P B C M
;
_chemical_formula_sum "Si O2"
_cell_formula_units_Z 56
_cell_length_a 15.825269
_cell_length_b 5.391557
_cell_length_c 27.216874
_cell_angle_alpha 90.000000
_cell_angle_beta 90.000000
_cell_angle_gamma 90.000000
_cell_volume 2322.220982
_symmetry_space_group_name_H-M "P B C M"
_symmetry_group_IT_number 57
_symmetry_cell_setting 'orthorhombic'
loop_
_space_group_symop_operation_xyz
x,y,z
-x,-y,1/2+z
x,1/2-y,-z
-x,1/2+y,1/2-z
-x,-y,-z
x,y,1/2-z
-x,1/2+y,z
x,1/2-y,1/2+z
loop_
_atom_site_type_symbol
_atom_site_label
_atom_site_fract_x
_atom_site_fract_y
_atom_site_fract_z
Si Si1 0.022956 0.039494 0.671778
Si Si2 0.232521 0.062161 0.044949
Si Si3 0.545224 0.939702 0.852942
Si Si4 0.954523 0.389062 0.438202
Si Si5 0.198348 0.810241 0.808473
Si Si6 0.733206 0.796299 0.653944
Si Si7 0.414135 0.466367 0.966908
O O1 0.117953 0.946432 0.667464
O O2 0.977571 0.807300 0.696668
O O3 0.976466 0.091720 0.620195
O O4 0.145780 0.908365 0.052412
O O5 0.247597 0.215260 0.095587
O O6 0.321805 0.901768 0.042098
O O7 0.214025 0.250000 0.000000
O O8 0.489676 0.705174 0.837703
O O9 0.639907 0.899003 0.836584
O O10 0.549716 0.928275 0.912900
O O11 0.994157 0.131208 0.455460
O O12 0.188116 0.807758 0.750000
O O13 0.210794 0.527424 0.825984
O O14 0.266218 0.019839 0.823642
O O15 0.376313 0.250000 0.000000
O O16 0.500000 0.500000 0.000000
#
# Coordination Sequence:
#
# PCOD9436346 Si02
#       7
#     8   8   8   8   8   8   8
#     4  10  20  36  63  96 133 175 219 287 355 413
#     4  10  23  41  65 104 143 198 248 281 362 434
#     4  11  22  38  66  96 133 184 224 277 364 425
#     4  10  20  39  63  88 133 185 236 293 341 406
#     4  12  25  45  74 102 136 184 239 303 373 429
#     4  11  24  45  68 102 146 182 235 302 355 439
#     4  10  19  36  61  95 142 182 231 302 346 409
#
# _framework density 24.114844000000002
#
# number of rings (size 3 to 8) (size 9 to 14) (size 15 to 20)
#    0.000    1.429    1.429    5.571    0.000    1.143 
#    0.000    6.429    0.000    8.571    0.000    0.000 
#    0.000    0.000    0.000    0.000    0.000    0.000 
#
# Total GULP energy -311986.460799 kJ/mol
# GULP energy per Si atom -5571.186800 kJ/mol
# Density = 2.405996 g / cm^3
# Si number density = 24.114844 Si / 1000 Ang^3
#
#
#
# Elastic Constant Matrix: (Units=GPa)
#
#
# Indices 1 2 3 4 5 6 
#
# 1 141.2686 -1.0347 17.2578 0.0000 0.0000 0.0000
# 2 -1.0347 114.0577 35.0174 0.0000 0.0000 0.0000
# 3 17.2578 35.0174 88.4565 0.0000 0.0000 0.0000
# 4 0.0000 0.0000 0.0000 -9.9051 0.0000 0.0000
# 5 0.0000 0.0000 0.0000 0.0000 6.8746 0.0000
# 6 0.0000 0.0000 0.0000 0.0000 0.0000 18.2190
#
#
#
# Elastic Compliance Matrix: (Units=1/GPa)
#
#
# Indices 1 2 3 4 5 6 
#
# 1 0.007284 0.000572 -0.001648 0.000000 0.000000 0.000000
# 2 0.000572 0.010025 -0.004080 0.000000 0.000000 0.000000
# 3 -0.001648 -0.004080 0.013242 0.000000 0.000000 0.000000
# 4 0.000000 0.000000 0.000000 -0.100958 0.000000 0.000000
# 5 0.000000 0.000000 0.000000 0.000000 0.145464 0.000000
# 6 0.000000 0.000000 0.000000 0.000000 0.000000 0.054888
#
#
# Mechanical properties :
#
#
# Convention : Reuss Voigt Hill
#
# Bulk Modulus (GPa) = 49.40877 49.58487 49.49682
# Shear Modulus (GPa) = 34.01277 22.54049 28.27663
#
# Velocity S-wave (km/s) = 3.75967 3.06063 3.42801
# Velocity P-wave (km/s) = 6.27537 5.75296 6.01983
#
# Compressibility (1/GPa) = 0.02023932
#
# Stress axis : x y z
#
# Youngs Moduli (GPa) = 137.28393 99.74650 75.51883
#
# Poissons Ratio (x) = -0.05705 0.12442
# Poissons Ratio (y) = -0.07851 0.30814
# Poissons Ratio (z) = 0.22618 0.40700
#
# Static dielectric constant tensor:
#      x y z
#    x 2.014120 0.000000 0.000000 
#    y 0.000000 2.251800 0.000000 
#    z 0.000000 0.000000 1.938080 
# 
# From -- ./inp_files/29867.got.cif
#   From: 2010.05.17/outbox.cif.g08.bks.cpg/sg57_15_cif.got.tgz:29867.got - 2010.06.03 13:58:18.
