data_PCOD9436653
_publ_section_title
;
Structure prediction by ZEFSAII (Michael W. Deem and Ramdas Pophale) SiO2 
 PCOD9436653
Probable space group: P B C M
;
_chemical_formula_sum "Si O2"
_cell_formula_units_Z 64
_cell_length_a 19.548313
_cell_length_b 9.380239
_cell_length_c 16.257576
_cell_angle_alpha 90.000000
_cell_angle_beta 90.000000
_cell_angle_gamma 90.000000
_cell_volume 2981.116725
_symmetry_space_group_name_H-M "P B C M"
_symmetry_group_IT_number 57
_symmetry_cell_setting 'orthorhombic'
loop_
_space_group_symop_operation_xyz
x,y,z
-x,-y,1/2+z
x,1/2-y,-z
-x,1/2+y,1/2-z
-x,-y,-z
x,y,1/2-z
-x,1/2+y,z
x,1/2-y,1/2+z
loop_
_atom_site_type_symbol
_atom_site_label
_atom_site_fract_x
_atom_site_fract_y
_atom_site_fract_z
Si Si1 0.174453 0.402543 0.012554
Si Si2 0.988083 0.106316 0.160983
Si Si3 0.177214 0.905580 0.661163
Si Si4 0.018810 0.354099 0.063998
Si Si5 0.413655 0.054789 0.844288
Si Si6 0.219714 0.850531 0.072985
Si Si7 0.372761 0.587661 0.987668
Si Si8 0.558709 0.895188 0.655665
O O1 0.202901 0.491365 0.089366
O O2 0.096067 0.377680 0.036881
O O3 0.208095 0.250000 0.000000
O O4 0.181023 0.500564 0.932503
O O5 0.007217 0.051428 0.250000
O O6 0.905406 0.112433 0.155702
O O7 0.019078 0.260167 0.146127
O O8 0.013282 0.002058 0.089298
O O9 0.192770 0.966980 0.750000
O O10 0.209968 0.749753 0.650433
O O11 0.981504 0.250000 0.000000
O O12 0.384438 0.044317 0.750000
O O13 0.433105 0.223369 0.857004
O O14 0.481124 0.954201 0.843863
O O15 0.373089 0.993323 0.923873
O O16 0.297149 0.883570 0.048343
O O17 0.189673 0.750000 0.000000
O O18 0.407860 0.487013 0.918614
O O19 0.402612 0.750000 0.000000
O O20 0.585150 0.923893 0.750000
#
# Coordination Sequence:
#
# PCOD9436653 Si02
#       8
#     8   8   8   8   8   8   8   8
#     4   9  19  36  56  79 108 141 178 230 286 334
#     4  10  20  33  51  77 109 140 174 224 282 337
#     4   9  19  37  58  78 106 147 190 230 278 338
#     4  10  20  33  52  78 104 137 178 220 270 335
#     4  10  21  38  59  85 119 156 194 237 289 346
#     4   9  20  38  57  78 106 146 191 231 275 331
#     4  11  22  36  58  86 116 154 196 242 289 340
#     4  10  21  37  59  87 120 157 196 242 291 343
#
# _framework density 21.468464999999998
#
# number of rings (size 3 to 8) (size 9 to 14) (size 15 to 20)
#    0.000    2.250    0.000    2.250    0.000    8.000 
#    0.000    5.625    0.000    0.750    0.000    0.000 
#    0.000    0.000    0.000    0.000    0.000    0.000 
#
# Total GULP energy -356543.158105 kJ/mol
# GULP energy per Si atom -5570.986845 kJ/mol
# Density = 2.141960 g / cm^3
# Si number density = 21.468465 Si / 1000 Ang^3
#
#
#
# Elastic Constant Matrix: (Units=GPa)
#
#
# Indices 1 2 3 4 5 6 
#
# 1 43.5177 10.4654 26.0229 0.0000 0.0000 0.0000
# 2 10.4654 150.0754 52.3012 0.0000 0.0000 0.0000
# 3 26.0229 52.3012 125.5566 0.0000 0.0000 0.0000
# 4 0.0000 0.0000 0.0000 37.6271 0.0000 0.0000
# 5 0.0000 0.0000 0.0000 0.0000 12.9410 0.0000
# 6 0.0000 0.0000 0.0000 0.0000 0.0000 18.0151
#
#
#
# Elastic Compliance Matrix: (Units=1/GPa)
#
#
# Indices 1 2 3 4 5 6 
#
# 1 0.026231 0.000077 -0.005469 0.000000 0.000000 0.000000
# 2 0.000077 0.007795 -0.003263 0.000000 0.000000 0.000000
# 3 -0.005469 -0.003263 0.010457 0.000000 0.000000 0.000000
# 4 0.000000 0.000000 0.000000 0.026577 0.000000 0.000000
# 5 0.000000 0.000000 0.000000 0.000000 0.077274 0.000000
# 6 0.000000 0.000000 0.000000 0.000000 0.000000 0.055509
#
#
# Mechanical properties :
#
#
# Convention : Reuss Voigt Hill
#
# Bulk Modulus (GPa) = 36.80080 55.19207 45.99644
# Shear Modulus (GPa) = 21.71927 29.07396 25.39661
#
# Velocity S-wave (km/s) = 3.18415 3.68402 3.44317
# Velocity P-wave (km/s) = 5.54052 6.62271 6.10564
#
# Compressibility (1/GPa) = 0.02717332
#
# Stress axis : x y z
#
# Youngs Moduli (GPa) = 38.12307 128.28534 95.62832
#
# Poissons Ratio (x) = -0.00983 0.52294
# Poissons Ratio (y) = -0.00292 0.31203
# Poissons Ratio (z) = 0.20848 0.41859
#
# Static dielectric constant tensor:
#      x y z
#    x 1.765800 0.000000 0.000000 
#    y 0.000000 1.822320 0.000000 
#    z 0.000000 0.000000 1.911460 
# 
# From -- ./inp_files/23067.got.cif
#   From: 2010.05.17/outbox.cif.g08.bks.cpg/sg57_12_cif.got.tgz:23067.got - 2010.06.03 13:58:18.
