data_PCOD9436301
_publ_section_title
;
Structure prediction by ZEFSAII (Michael W. Deem and Ramdas Pophale) SiO2 
 PCOD9436301
Probable space group: P B C M
;
_chemical_formula_sum "Si O2"
_cell_formula_units_Z 52
_cell_length_a 9.976878
_cell_length_b 25.547841
_cell_length_c 10.187178
_cell_angle_alpha 90.000000
_cell_angle_beta 90.000000
_cell_angle_gamma 90.000000
_cell_volume 2596.586297
_symmetry_space_group_name_H-M "P B C M"
_symmetry_group_IT_number 57
_symmetry_cell_setting 'orthorhombic'
loop_
_space_group_symop_operation_xyz
x,y,z
-x,-y,1/2+z
x,1/2-y,-z
-x,1/2+y,1/2-z
-x,-y,-z
x,y,1/2-z
-x,1/2+y,z
x,1/2-y,1/2+z
loop_
_atom_site_type_symbol
_atom_site_label
_atom_site_fract_x
_atom_site_fract_y
_atom_site_fract_z
Si Si1 0.741504 0.296921 0.907715
Si Si2 0.204044 0.250000 0.500000
Si Si3 0.022823 0.681681 0.608260
Si Si4 0.807135 0.477898 0.902661
Si Si5 0.316784 0.144382 0.102271
Si Si6 0.422176 0.904580 0.905827
Si Si7 0.067828 0.418179 0.979186
O O1 0.753381 0.286468 0.750000
O O2 0.655021 0.349512 0.919679
O O3 0.684651 0.250000 0.000000
O O4 0.882478 0.308343 0.982351
O O5 0.100610 0.277817 0.399469
O O6 0.294108 0.201585 0.455704
O O7 0.091092 0.687376 0.750000
O O8 0.970838 0.622423 0.593710
O O9 0.787104 0.490484 0.750000
O O10 0.674113 0.450177 0.959955
O O11 0.930133 0.436538 0.912469
O O12 0.856569 0.529641 0.975236
O O13 0.363310 0.153260 0.250000
O O14 0.429744 0.106954 0.039052
O O15 0.174326 0.115377 0.102416
O O16 0.432215 0.916792 0.750000
#
# Coordination Sequence:
#
# PCOD9436301 Si02
#       7
#     8   4   8   8   8   8   8
#     4  11  22  36  58  85 117 155 196 240 291 350
#     4  10  22  34  56  82 114 154 196 232 294 342
#     4  11  21  35  55  85 119 150 190 243 295 347
#     4  10  19  36  58  83 113 147 192 246 298 347
#     4  10  21  38  57  82 116 155 198 239 286 353
#     4   9  20  37  58  82 113 155 195 236 292 349
#     4  10  21  34  57  86 110 151 190 244 293 348
#
# _framework density 20.026292000000002
#
# number of rings (size 3 to 8) (size 9 to 14) (size 15 to 20)
#    0.000    1.846    2.308    1.846    1.077    3.077 
#    0.000    0.000    0.000    2.769    0.000    0.000 
#    0.000    0.000    0.000    0.000    0.000    0.000 
#
# Total GULP energy -289581.384560 kJ/mol
# GULP energy per Si atom -5568.872780 kJ/mol
# Density = 1.998071 g / cm^3
# Si number density = 20.026292 Si / 1000 Ang^3
#
#
#
# Elastic Constant Matrix: (Units=GPa)
#
#
# Indices 1 2 3 4 5 6 
#
# 1 56.3027 -2.6560 -6.2836 0.0000 0.0000 0.0000
# 2 -2.6560 74.9410 -2.8027 0.0000 0.0000 0.0000
# 3 -6.2836 -2.8027 72.6153 0.0000 0.0000 0.0000
# 4 0.0000 0.0000 0.0000 -2.5338 0.0000 0.0000
# 5 0.0000 0.0000 0.0000 0.0000 18.7596 0.0000
# 6 0.0000 0.0000 0.0000 0.0000 0.0000 31.6372
#
#
#
# Elastic Compliance Matrix: (Units=1/GPa)
#
#
# Indices 1 2 3 4 5 6 
#
# 1 0.017971 0.000696 0.001582 0.000000 0.000000 0.000000
# 2 0.000696 0.013390 0.000577 0.000000 0.000000 0.000000
# 3 0.001582 0.000577 0.013930 0.000000 0.000000 0.000000
# 4 0.000000 0.000000 0.000000 -0.394667 0.000000 0.000000
# 5 0.000000 0.000000 0.000000 0.000000 0.053306 0.000000
# 6 0.000000 0.000000 0.000000 0.000000 0.000000 0.031608
#
#
# Mechanical properties :
#
#
# Convention : Reuss Voigt Hill
#
# Bulk Modulus (GPa) = 19.60747 20.04160 19.82453
# Shear Modulus (GPa) = -19.74948 23.94604 2.09828
#
# Velocity S-wave (km/s) = -3.14375 3.46168 1.02471
# Velocity P-wave (km/s) = 1.83452 5.09971 3.36464
#
# Compressibility (1/GPa) = 0.05100098
#
# Stress axis : x y z
#
# Youngs Moduli (GPa) = 55.64673 74.68211 71.78569
#
# Poissons Ratio (x) = -0.05198 -0.11356
# Poissons Ratio (y) = -0.03873 -0.04142
# Poissons Ratio (z) = -0.08803 -0.04309
#
# Static dielectric constant tensor:
#      x y z
#    x 1.765100 0.000000 0.000000 
#    y 0.000000 1.726240 0.000000 
#    z 0.000000 0.000000 1.693400 
# 
# From -- ./inp_files/12132.got.cif
#   From: 2010.05.17/outbox.cif.g08.bks.cpg/sg57_7_cif.got.tgz:12132.got - 2010.06.03 13:58:18.
