data_PCOD9436023
_publ_section_title
;
Structure prediction by ZEFSAII (Michael W. Deem and Ramdas Pophale) SiO2 
 PCOD9436023
Probable space group: P B C M
;
_chemical_formula_sum "Si O2"
_cell_formula_units_Z 48
_cell_length_a 15.191859
_cell_length_b 18.981177
_cell_length_c 8.593296
_cell_angle_alpha 90.000000
_cell_angle_beta 90.000000
_cell_angle_gamma 90.000000
_cell_volume 2477.957375
_symmetry_space_group_name_H-M "P B C M"
_symmetry_group_IT_number 57
_symmetry_cell_setting 'orthorhombic'
loop_
_space_group_symop_operation_xyz
x,y,z
-x,-y,1/2+z
x,1/2-y,-z
-x,1/2+y,1/2-z
-x,-y,-z
x,y,1/2-z
-x,1/2+y,z
x,1/2-y,1/2+z
loop_
_atom_site_type_symbol
_atom_site_label
_atom_site_fract_x
_atom_site_fract_y
_atom_site_fract_z
Si Si1 0.125641 0.073491 0.435632
Si Si2 0.025959 0.672817 0.564172
Si Si3 0.383362 0.938946 0.436625
Si Si4 0.273144 0.326524 0.433287
Si Si5 0.184104 0.919426 0.060365
Si Si6 0.434853 0.101661 0.066459
O O1 0.114691 0.073440 0.250000
O O2 0.213309 0.116137 0.480305
O O3 0.045180 0.115326 0.510898
O O4 0.139180 0.993083 0.488992
O O5 0.005580 0.750000 0.500000
O O6 0.024789 0.676089 0.750000
O O7 0.121751 0.644616 0.511638
O O8 0.389680 0.929125 0.250000
O O9 0.285656 0.917999 0.490131
O O10 0.463297 0.898473 0.517913
O O11 0.399489 0.022222 0.465957
O O12 0.251376 0.250000 0.500000
O O13 0.256093 0.329021 0.250000
O O14 0.373992 0.345469 0.470911
O O15 0.186005 0.920731 0.250000
O O16 0.424813 0.115132 0.250000
#
# Coordination Sequence:
#
# PCOD9436023 Si02
#       6
#     8   8   8   8   8   8
#     4  11  21  39  62  87 115 148 191 245 297 349
#     4  11  23  40  59  84 116 155 195 236 290 349
#     4   9  17  34  58  84 114 150 189 236 287 339
#     4  12  24  38  57  84 118 157 196 241 295 355
#     4   9  19  37  62  87 115 151 195 244 291 339
#     4  10  19  34  56  84 117 151 191 236 285 343
#
# _framework density 19.370794
#
# number of rings (size 3 to 8) (size 9 to 14) (size 15 to 20)
#    0.000    1.667    1.667    4.000    0.000    0.667 
#    0.000    5.000    0.000    2.000    0.000    0.000 
#    0.000    0.000    0.000    0.000    0.000    0.000 
#
# Total GULP energy -268195.518787 kJ/mol
# GULP energy per Si atom -5587.406641 kJ/mol
# Density = 1.932671 g / cm^3
# Si number density = 19.370794 Si / 1000 Ang^3
#
#
#
# Elastic Constant Matrix: (Units=GPa)
#
#
# Indices 1 2 3 4 5 6 
#
# 1 108.3418 1.8346 2.3047 0.0000 0.0000 0.0000
# 2 1.8346 25.0793 2.6309 0.0000 0.0000 0.0000
# 3 2.3047 2.6309 34.4382 0.0000 0.0000 0.0000
# 4 0.0000 0.0000 0.0000 13.3510 0.0000 0.0000
# 5 0.0000 0.0000 0.0000 0.0000 27.2653 0.0000
# 6 0.0000 0.0000 0.0000 0.0000 0.0000 22.5358
#
#
#
# Elastic Compliance Matrix: (Units=1/GPa)
#
#
# Indices 1 2 3 4 5 6 
#
# 1 0.009253 -0.000617 -0.000572 0.000000 0.000000 0.000000
# 2 -0.000617 0.040237 -0.003033 0.000000 0.000000 0.000000
# 3 -0.000572 -0.003033 0.029307 0.000000 0.000000 0.000000
# 4 0.000000 0.000000 0.000000 0.074901 0.000000 0.000000
# 5 0.000000 0.000000 0.000000 0.000000 0.036677 0.000000
# 6 0.000000 0.000000 0.000000 0.000000 0.000000 0.044374
#
#
# Mechanical properties :
#
#
# Convention : Reuss Voigt Hill
#
# Bulk Modulus (GPa) = 14.21388 20.15553 17.18471
# Shear Modulus (GPa) = 18.75171 23.36969 21.06070
#
# Velocity S-wave (km/s) = 3.11471 3.47715 3.30091
# Velocity P-wave (km/s) = 4.50433 5.15252 4.83929
#
# Compressibility (1/GPa) = 0.07035375
#
# Stress axis : x y z
#
# Youngs Moduli (GPa) = 108.07695 24.85293 34.12101
#
# Poissons Ratio (x) = 0.01533 0.01952
# Poissons Ratio (y) = 0.06666 0.10348
# Poissons Ratio (z) = 0.06183 0.07537
#
# Static dielectric constant tensor:
#      x y z
#    x 1.693420 0.000000 0.000000 
#    y 0.000000 1.620370 0.000000 
#    z 0.000000 0.000000 1.650180 
# 
# From -- ./inp_files/4720.got.cif
#   From: 2010.05.17/outbox.cif.g08.bks.cpg/sg57_3_cif.got.tgz:4720.got - 2010.06.03 13:58:18.
