data_PCOD9436634
_publ_section_title
;
Structure prediction by ZEFSAII (Michael W. Deem and Ramdas Pophale) SiO2 
 PCOD9436634
Probable space group: P B C M
;
_chemical_formula_sum "Si O2"
_cell_formula_units_Z 64
_cell_length_a 23.161960
_cell_length_b 17.981300
_cell_length_c 9.052127
_cell_angle_alpha 90.000000
_cell_angle_beta 90.000000
_cell_angle_gamma 90.000000
_cell_volume 3770.049327
_symmetry_space_group_name_H-M "P B C M"
_symmetry_group_IT_number 57
_symmetry_cell_setting 'orthorhombic'
loop_
_space_group_symop_operation_xyz
x,y,z
-x,-y,1/2+z
x,1/2-y,-z
-x,1/2+y,1/2-z
-x,-y,-z
x,y,1/2-z
-x,1/2+y,z
x,1/2-y,1/2+z
loop_
_atom_site_type_symbol
_atom_site_label
_atom_site_fract_x
_atom_site_fract_y
_atom_site_fract_z
Si Si1 0.632537 0.823563 0.575220
Si Si2 0.187955 0.522969 0.426651
Si Si3 0.691518 0.982570 0.574005
Si Si4 0.859086 0.326538 0.428425
Si Si5 0.417036 0.550049 0.080264
Si Si6 0.019324 0.887460 0.081893
Si Si7 0.082818 0.048667 0.417937
Si Si8 0.522649 0.613224 0.580636
O O1 0.657529 0.750000 0.500000
O O2 0.627557 0.813199 0.750000
O O3 0.669639 0.898050 0.548421
O O4 0.569512 0.838380 0.505669
O O5 0.187849 0.529107 0.250000
O O6 0.249367 0.497438 0.489141
O O7 0.172186 0.602213 0.501072
O O8 0.138084 0.466049 0.480304
O O9 0.698220 0.993169 0.750000
O O10 0.641208 0.035871 0.510832
O O11 0.838101 0.250000 0.500000
O O12 0.853559 0.327732 0.250000
O O13 0.927382 0.336071 0.464669
O O14 0.405385 0.570912 0.250000
O O15 0.449562 0.469888 0.083176
O O16 0.461677 0.605530 0.001582
O O17 0.002517 0.869730 0.250000
O O18 0.048644 0.969684 0.084027
O O19 0.963289 0.892660 0.980182
O O20 0.100283 0.065054 0.250000
O O21 0.516115 0.637617 0.750000
#
# Coordination Sequence:
#
# PCOD9436634 Si02
#       8
#     8   8   8   8   8   8   8   8
#     4  10  20  33  51  74 101 132 166 209 259 310
#     4  11  21  33  51  74 101 135 175 216 257 302
#     4  10  20  34  51  73 101 134 174 216 257 302
#     4  10  20  34  52  75 103 133 167 209 257 308
#     4   9  16  27  45  70  97 124 157 197 241 287
#     4   8  15  27  44  68  96 124 154 191 238 291
#     4   9  16  27  45  69  96 124 156 197 242 288
#     4   9  16  27  45  69  97 126 156 193 239 290
#
# _framework density 16.975904
#
# number of rings (size 3 to 8) (size 9 to 14) (size 15 to 20)
#    0.000    2.500    0.000    4.125    0.000    8.000 
#    0.000    0.000    0.000    1.500    0.000   10.500 
#    0.000    0.000    0.000    0.000    0.000    0.000 
#
# Total GULP energy -356746.950418 kJ/mol
# GULP energy per Si atom -5574.171100 kJ/mol
# Density = 1.693727 g / cm^3
# Si number density = 16.975904 Si / 1000 Ang^3
#
#
#
# Elastic Constant Matrix: (Units=GPa)
#
#
# Indices 1 2 3 4 5 6 
#
# 1 104.6119 30.9059 74.2373 0.0000 0.0000 0.0000
# 2 30.9059 48.3840 46.4728 0.0000 0.0000 0.0000
# 3 74.2373 46.4728 133.1499 0.0000 0.0000 0.0000
# 4 0.0000 0.0000 0.0000 20.2125 0.0000 0.0000
# 5 0.0000 0.0000 0.0000 0.0000 31.2732 0.0000
# 6 0.0000 0.0000 0.0000 0.0000 0.0000 10.1308
#
#
#
# Elastic Compliance Matrix: (Units=1/GPa)
#
#
# Indices 1 2 3 4 5 6 
#
# 1 0.016014 -0.002487 -0.008061 0.000000 0.000000 0.000000
# 2 -0.002487 0.031477 -0.009600 0.000000 0.000000 0.000000
# 3 -0.008061 -0.009600 0.015355 0.000000 0.000000 0.000000
# 4 0.000000 0.000000 0.000000 0.049474 0.000000 0.000000
# 5 0.000000 0.000000 0.000000 0.000000 0.031976 0.000000
# 6 0.000000 0.000000 0.000000 0.000000 0.000000 0.098709
#
#
# Mechanical properties :
#
#
# Convention : Reuss Voigt Hill
#
# Bulk Modulus (GPa) = 44.34275 65.48641 54.91458
# Shear Modulus (GPa) = 17.19297 21.29199 19.24248
#
# Velocity S-wave (km/s) = 3.18588 3.54538 3.37043
# Velocity P-wave (km/s) = 6.30165 7.44442 6.89675
#
# Compressibility (1/GPa) = 0.02255160
#
# Stress axis : x y z
#
# Youngs Moduli (GPa) = 62.44544 31.76919 65.12548
#
# Poissons Ratio (x) = 0.07901 0.52494
# Poissons Ratio (y) = 0.15530 0.62518
# Poissons Ratio (z) = 0.50334 0.30497
#
# Static dielectric constant tensor:
#      x y z
#    x 1.561140 0.000000 0.000000 
#    y 0.000000 1.587870 0.000000 
#    z 0.000000 0.000000 1.572310 
# 
# From -- ./inp_files/9559.got.cif
#   From: 2010.05.17/outbox.cif.g08.bks.cpg/sg57_5_cif.got.tgz:9559.got - 2010.06.03 13:58:18.
