data_PCOD9436591
_publ_section_title
;
Structure prediction by ZEFSAII (Michael W. Deem and Ramdas Pophale) SiO2 
 PCOD9436591
Probable space group: P B C M
;
_chemical_formula_sum "Si O2"
_cell_formula_units_Z 60
_cell_length_a 14.248743
_cell_length_b 8.343338
_cell_length_c 28.270142
_cell_angle_alpha 90.000000
_cell_angle_beta 90.000000
_cell_angle_gamma 90.000000
_cell_volume 3360.813252
_symmetry_space_group_name_H-M "P B C M"
_symmetry_group_IT_number 57
_symmetry_cell_setting 'orthorhombic'
loop_
_space_group_symop_operation_xyz
x,y,z
-x,-y,1/2+z
x,1/2-y,-z
-x,1/2+y,1/2-z
-x,-y,-z
x,y,1/2-z
-x,1/2+y,z
x,1/2-y,1/2+z
loop_
_atom_site_type_symbol
_atom_site_label
_atom_site_fract_x
_atom_site_fract_y
_atom_site_fract_z
Si Si1 0.092734 0.035322 0.561323
Si Si2 0.799745 0.696329 0.863090
Si Si3 0.543764 0.200238 0.693229
Si Si4 0.356138 0.364416 0.692749
Si Si5 0.291242 0.908362 0.805182
Si Si6 0.022369 0.409896 0.849388
Si Si7 0.115915 0.800567 0.197883
Si Si8 0.951791 0.250000 0.500000
O O1 0.182008 0.128182 0.583769
O O2 0.021492 0.160666 0.536861
O O3 0.108455 0.891112 0.524210
O O4 0.038007 0.946632 0.604129
O O5 0.728768 0.832424 0.843414
O O6 0.761604 0.545888 0.833465
O O7 0.902882 0.766056 0.852280
O O8 0.549132 0.213820 0.750000
O O9 0.434841 0.228197 0.682777
O O10 0.609796 0.345012 0.675503
O O11 0.590617 0.030690 0.682263
O O12 0.331834 0.361990 0.750000
O O13 0.300273 0.957706 0.750000
O O14 0.222507 0.754548 0.806546
O O15 0.081630 0.567607 0.838359
O O16 0.948260 0.356142 0.809766
O O17 0.101558 0.868057 0.250000
#
# Coordination Sequence:
#
# PCOD9436591 Si02
#       8
#     8   8   8   8   8   8   8   4
#     4  11  21  39  58  81 101 141 172 233 285 342
#     4  12  22  33  54  79 110 143 184 232 276 322
#     4   9  18  35  54  76 109 154 201 238 272 303
#     4  10  20  34  54  79 112 154 193 232 270 312
#     4  10  20  33  49  73 108 152 194 230 263 306
#     4  12  21  36  49  72 110 146 184 231 271 311
#     4  11  21  31  45  68 105 156 196 220 252 308
#     4  10  22  40  64  76 100 134 180 224 302 360
#
# _framework density 17.852820999999999
#
# number of rings (size 3 to 8) (size 9 to 14) (size 15 to 20)
#    0.000    1.333    4.000    2.400    0.000    6.400 
#    0.000    0.000    0.000    0.000    0.000    0.000 
#    0.000   12.800    0.000    0.000    0.000    0.000 
#
# Total GULP energy -334330.456612 kJ/mol
# GULP energy per Si atom -5572.174277 kJ/mol
# Density = 1.781219 g / cm^3
# Si number density = 17.852821 Si / 1000 Ang^3
#
#
#
# Elastic Constant Matrix: (Units=GPa)
#
#
# Indices 1 2 3 4 5 6 
#
# 1 79.1305 15.2290 17.8170 0.0000 0.0000 0.0000
# 2 15.2290 55.5804 5.3920 0.0000 0.0000 0.0000
# 3 17.8170 5.3920 41.3751 0.0000 0.0000 0.0000
# 4 0.0000 0.0000 0.0000 30.0028 0.0000 0.0000
# 5 0.0000 0.0000 0.0000 0.0000 13.5439 0.0000
# 6 0.0000 0.0000 0.0000 0.0000 0.0000 35.1488
#
#
#
# Elastic Compliance Matrix: (Units=1/GPa)
#
#
# Indices 1 2 3 4 5 6 
#
# 1 0.014615 -0.003437 -0.005846 0.000000 0.000000 0.000000
# 2 -0.003437 0.019031 -0.001000 0.000000 0.000000 0.000000
# 3 -0.005846 -0.001000 0.026817 0.000000 0.000000 0.000000
# 4 0.000000 0.000000 0.000000 0.033330 0.000000 0.000000
# 5 0.000000 0.000000 0.000000 0.000000 0.073834 0.000000
# 6 0.000000 0.000000 0.000000 0.000000 0.000000 0.028450
#
#
# Mechanical properties :
#
#
# Convention : Reuss Voigt Hill
#
# Bulk Modulus (GPa) = 25.06468 28.10689 26.58579
# Shear Modulus (GPa) = 21.74460 24.91562 23.33011
#
# Velocity S-wave (km/s) = 3.49376 3.73984 3.61889
# Velocity P-wave (km/s) = 5.50865 5.86740 5.69086
#
# Compressibility (1/GPa) = 0.03989677
#
# Stress axis : x y z
#
# Youngs Moduli (GPa) = 68.42241 52.54638 37.29023
#
# Poissons Ratio (x) = 0.18062 0.21798
# Poissons Ratio (y) = 0.23520 0.03729
# Poissons Ratio (z) = 0.39997 0.05254
#
# Static dielectric constant tensor:
#      x y z
#    x 1.638550 0.000000 0.000000 
#    y 0.000000 1.697890 0.000000 
#    z 0.000000 0.000000 1.603730 
# 
# From -- ./inp_files/28799.got.cif
#   From: 2010.05.17/outbox.cif.g08.bks.cpg/sg57_15_cif.got.tgz:28799.got - 2010.06.03 13:58:18.
