data_PCOD9436224
_publ_section_title
;
Structure prediction by ZEFSAII (Michael W. Deem and Ramdas Pophale) SiO2 
 PCOD9436224
Probable space group: P B C M
;
_chemical_formula_sum "Si O2"
_cell_formula_units_Z 64
_cell_length_a 12.355040
_cell_length_b 31.530754
_cell_length_c 8.904491
_cell_angle_alpha 90.000000
_cell_angle_beta 90.000000
_cell_angle_gamma 90.000000
_cell_volume 3468.866700
_symmetry_space_group_name_H-M "P B C M"
_symmetry_group_IT_number 57
_symmetry_cell_setting 'orthorhombic'
loop_
_space_group_symop_operation_xyz
x,y,z
-x,-y,1/2+z
x,1/2-y,-z
-x,1/2+y,1/2-z
-x,-y,-z
x,y,1/2-z
-x,1/2+y,z
x,1/2-y,1/2+z
loop_
_atom_site_type_symbol
_atom_site_label
_atom_site_fract_x
_atom_site_fract_y
_atom_site_fract_z
Si Si1 0.406618 0.028884 0.430963
Si Si2 0.024476 0.703350 0.070011
Si Si3 0.500919 0.202748 0.068415
Si Si4 0.354671 0.376838 0.931599
Si Si5 0.121636 0.364306 0.426413
Si Si6 0.740963 0.296795 0.930117
Si Si7 0.009444 0.565268 0.080061
Si Si8 0.172757 0.991561 0.422688
O O1 0.414206 0.027507 0.250000
O O2 0.410491 0.078567 0.475943
O O3 0.500000 0.000000 0.500000
O O4 0.288179 0.010149 0.471463
O O5 0.016015 0.705119 0.250000
O O6 0.142868 0.683221 0.029548
O O7 0.023790 0.750000 0.000000
O O8 0.926206 0.677669 0.001055
O O9 0.495537 0.206857 0.250000
O O10 0.417381 0.166026 0.022118
O O11 0.622414 0.186416 0.027404
O O12 0.484203 0.250000 0.000000
O O13 0.348028 0.376793 0.750000
O O14 0.234633 0.376553 0.997889
O O15 0.135411 0.359545 0.250000
O O16 0.033250 0.399886 0.465993
O O17 0.741180 0.293434 0.750000
O O18 0.742770 0.250000 0.000000
O O19 0.016450 0.582393 0.250000
O O20 0.916394 0.529106 0.079003
O O21 0.121214 0.544162 0.028115
O O22 0.182431 0.976469 0.250000
#
# Coordination Sequence:
#
# PCOD9436224 Si02
#       8
#     8   8   8   8   8   8   8   8
#     4  10  21  39  60  83 116 154 194 239 291 347
#     4  10  20  36  57  82 115 151 192 234 285 344
#     4   9  18  34  59  86 115 148 189 235 282 335
#     4  10  21  40  60  80 113 156 196 239 288 344
#     4  12  24  37  56  82 115 151 192 238 290 346
#     4   8  15  30  53  79 105 139 179 223 274 332
#     4  10  19  35  59  84 110 142 183 229 283 340
#     4   9  18  35  58  83 112 143 183 231 281 334
#
# _framework density 18.449829999999999
#
# number of rings (size 3 to 8) (size 9 to 14) (size 15 to 20)
#    0.000    2.250    1.250    1.875    0.000    3.000 
#    2.250    1.250    0.000    0.000    0.000    0.000 
#    0.000    0.000    0.000    0.000    0.000    0.000 
#
# Total GULP energy -356715.668484 kJ/mol
# GULP energy per Si atom -5573.682320 kJ/mol
# Density = 1.840784 g / cm^3
# Si number density = 18.449830 Si / 1000 Ang^3
#
#
#
# Elastic Constant Matrix: (Units=GPa)
#
#
# Indices 1 2 3 4 5 6 
#
# 1 86.6503 57.9685 27.1627 0.0000 0.0000 0.0000
# 2 57.9685 88.5939 26.4783 0.0000 0.0000 0.0000
# 3 27.1627 26.4783 32.3035 0.0000 0.0000 0.0000
# 4 0.0000 0.0000 0.0000 26.2323 0.0000 0.0000
# 5 0.0000 0.0000 0.0000 0.0000 25.6057 0.0000
# 6 0.0000 0.0000 0.0000 0.0000 0.0000 31.8672
#
#
#
# Elastic Compliance Matrix: (Units=1/GPa)
#
#
# Indices 1 2 3 4 5 6 
#
# 1 0.022345 -0.011927 -0.009013 0.000000 0.000000 0.000000
# 2 -0.011927 0.021316 -0.007443 0.000000 0.000000 0.000000
# 3 -0.009013 -0.007443 0.044636 0.000000 0.000000 0.000000
# 4 0.000000 0.000000 0.000000 0.038121 0.000000 0.000000
# 5 0.000000 0.000000 0.000000 0.000000 0.039054 0.000000
# 6 0.000000 0.000000 0.000000 0.000000 0.000000 0.031380
#
#
# Mechanical properties :
#
#
# Convention : Reuss Voigt Hill
#
# Bulk Modulus (GPa) = 31.71491 47.86298 39.78894
# Shear Modulus (GPa) = 18.93017 23.13692 21.03355
#
# Velocity S-wave (km/s) = 3.20665 3.54509 3.38011
# Velocity P-wave (km/s) = 5.56213 6.53877 6.07012
#
# Compressibility (1/GPa) = 0.03153091
#
# Stress axis : x y z
#
# Youngs Moduli (GPa) = 44.75262 46.91273 22.40347
#
# Poissons Ratio (x) = 0.55953 0.20192
# Poissons Ratio (y) = 0.53377 0.16676
# Poissons Ratio (z) = 0.40334 0.34918
#
# Static dielectric constant tensor:
#      x y z
#    x 1.649700 0.000000 0.000000 
#    y 0.000000 1.717090 0.000000 
#    z 0.000000 0.000000 1.642550 
# 
# From -- ./inp_files/3909.got.cif
#   From: 2010.05.17/outbox.cif.g08.bks.cpg/sg57_2_cif.got.tgz:3909.got - 2010.06.03 13:58:18.
