data_PCOD9436800
_publ_section_title
;
Structure prediction by ZEFSAII (Michael W. Deem and Ramdas Pophale) SiO2 
 PCOD9436800
Probable space group: P B C M
;
_chemical_formula_sum "Si O2"
_cell_formula_units_Z 48
_cell_length_a 9.897642
_cell_length_b 31.652723
_cell_length_c 8.891537
_cell_angle_alpha 90.000000
_cell_angle_beta 90.000000
_cell_angle_gamma 90.000000
_cell_volume 2785.605803
_symmetry_space_group_name_H-M "P B C M"
_symmetry_group_IT_number 57
_symmetry_cell_setting 'orthorhombic'
loop_
_space_group_symop_operation_xyz
x,y,z
-x,-y,1/2+z
x,1/2-y,-z
-x,1/2+y,1/2-z
-x,-y,-z
x,y,1/2-z
-x,1/2+y,z
x,1/2-y,1/2+z
loop_
_atom_site_type_symbol
_atom_site_label
_atom_site_fract_x
_atom_site_fract_y
_atom_site_fract_z
Si Si1 0.654521 0.118123 0.429798
Si Si2 0.334115 0.292793 0.422003
Si Si3 0.336816 0.793483 0.423932
Si Si4 0.356186 0.114508 0.932205
Si Si5 0.141987 0.948898 0.429267
Si Si6 0.846693 0.952386 0.929276
O O1 0.646207 0.117347 0.250000
O O2 0.701334 0.164427 0.486259
O O3 0.506496 0.110650 0.501159
O O4 0.755184 0.082766 0.491713
O O5 0.286492 0.250000 0.500000
O O6 0.290230 0.290983 0.250000
O O7 0.498543 0.292255 0.425389
O O8 0.299180 0.339352 0.482330
O O9 0.289927 0.750000 0.500000
O O10 0.295050 0.796214 0.250000
O O11 0.363472 0.114621 0.750000
O O12 0.262695 0.077361 0.992610
O O13 0.138384 0.941386 0.250000
O O14 0.993200 0.943723 0.499117
O O15 0.182704 0.997879 0.453903
O O16 0.849924 0.945065 0.750000
#
# Coordination Sequence:
#
# PCOD9436800 Si02
#       6
#     8   8   8   8   8   8
#     4  11  21  33  52  79 108 138 175 218 261 305
#     4   8  15  26  43  68  98 132 167 203 245 295
#     4   9  16  28  46  71 103 137 172 210 255 306
#     4  10  20  34  52  77 108 139 172 213 262 309
#     4  10  21  38  57  76 102 136 172 212 260 316
#     4  10  21  37  57  79 101 132 174 214 258 315
#
# _framework density 17.231441
#
# number of rings (size 3 to 8) (size 9 to 14) (size 15 to 20)
#    0.000    2.333    0.000    4.500    0.000    7.333 
#    0.000    0.000    0.000    1.000    0.000    4.667 
#    0.000    0.000    0.000    0.000    0.000    0.000 
#
# Total GULP energy -267676.053477 kJ/mol
# GULP energy per Si atom -5576.584447 kJ/mol
# Density = 1.719222 g / cm^3
# Si number density = 17.231441 Si / 1000 Ang^3
#
#
#
# Elastic Constant Matrix: (Units=GPa)
#
#
# Indices 1 2 3 4 5 6 
#
# 1 57.2510 80.5937 50.4026 0.0000 0.0000 0.0000
# 2 80.5937 157.3450 93.9025 0.0000 0.0000 0.0000
# 3 50.4026 93.9025 129.4468 0.0000 0.0000 0.0000
# 4 0.0000 0.0000 0.0000 34.3211 0.0000 0.0000
# 5 0.0000 0.0000 0.0000 0.0000 21.4807 0.0000
# 6 0.0000 0.0000 0.0000 0.0000 0.0000 -15.3315
#
#
#
# Elastic Compliance Matrix: (Units=1/GPa)
#
#
# Indices 1 2 3 4 5 6 
#
# 1 0.062902 -0.031040 -0.001975 0.000000 0.000000 0.000000
# 2 -0.031040 0.026525 -0.007155 0.000000 0.000000 0.000000
# 3 -0.001975 -0.007155 0.013685 0.000000 0.000000 0.000000
# 4 0.000000 0.000000 0.000000 0.029137 0.000000 0.000000
# 5 0.000000 0.000000 0.000000 0.000000 0.046553 0.000000
# 6 0.000000 0.000000 0.000000 0.000000 0.000000 -0.065225
#
#
# Mechanical properties :
#
#
# Convention : Reuss Voigt Hill
#
# Bulk Modulus (GPa) = 43.91691 88.20447 66.06069
# Shear Modulus (GPa) = 24.81284 16.03699 20.42491
#
# Velocity S-wave (km/s) = 3.79882 3.05402 3.44659
# Velocity P-wave (km/s) = 6.69202 7.98344 7.36609
#
# Compressibility (1/GPa) = 0.02277027
#
# Stress axis : x y z
#
# Youngs Moduli (GPa) = 15.89772 37.70036 73.07380
#
# Poissons Ratio (x) = 1.17023 0.14432
# Poissons Ratio (y) = 0.49347 0.52287
# Poissons Ratio (z) = 0.03140 0.26976
#
# Static dielectric constant tensor:
#      x y z
#    x 1.550630 0.000000 0.000000 
#    y 0.000000 1.598120 0.000000 
#    z 0.000000 0.000000 1.578560 
# 
# From -- ./inp_files/2089.got.cif
#   From: 2010.05.17/outbox.cif.g08.bks.cpg/sg57_2_cif.got.tgz:2089.got - 2010.06.03 13:58:18.
