data_PCOD9436078
_publ_section_title
;
Structure prediction by ZEFSAII (Michael W. Deem and Ramdas Pophale) SiO2 
 PCOD9436078
Probable space group: P B C M
;
_chemical_formula_sum "Si O2"
_cell_formula_units_Z 40
_cell_length_a 11.269831
_cell_length_b 8.879044
_cell_length_c 20.852963
_cell_angle_alpha 90.000000
_cell_angle_beta 90.000000
_cell_angle_gamma 90.000000
_cell_volume 2086.658527
_symmetry_space_group_name_H-M "P B C M"
_symmetry_group_IT_number 57
_symmetry_cell_setting 'orthorhombic'
loop_
_space_group_symop_operation_xyz
x,y,z
-x,-y,1/2+z
x,1/2-y,-z
-x,1/2+y,1/2-z
-x,-y,-z
x,y,1/2-z
-x,1/2+y,z
x,1/2-y,1/2+z
loop_
_atom_site_type_symbol
_atom_site_label
_atom_site_fract_x
_atom_site_fract_y
_atom_site_fract_z
Si Si1 0.604310 0.819723 0.672652
Si Si2 0.832258 0.289386 0.065944
Si Si3 0.151897 0.307942 0.325277
Si Si4 0.984073 0.947606 0.608927
Si Si5 0.644931 0.171573 0.827094
O O1 0.608429 0.809956 0.750000
O O2 0.714218 0.717615 0.649560
O O3 0.475077 0.759719 0.654872
O O4 0.625131 0.994854 0.657741
O O5 0.753024 0.271797 0.129528
O O6 0.888513 0.455679 0.069654
O O7 0.940939 0.172159 0.068935
O O8 0.766221 0.250000 0.000000
O O9 0.155535 0.341642 0.250000
O O10 0.076467 0.435607 0.360224
O O11 0.085079 0.149594 0.337708
O O12 0.665948 0.187068 0.750000
#
# Coordination Sequence:
#
# PCOD9436078 Si02
#       5
#     8   8   8   8   8
#     4   9  19  35  57  83 117 152 187 235 291 344
#     4  11  23  41  61  84 118 156 198 242 293 350
#     4  10  19  34  57  90 120 147 189 244 292 345
#     4  10  22  36  58  83 117 157 194 235 296 353
#     4  10  21  38  61  85 114 152 196 241 289 344
#
# _framework density 19.169402999999999
#
# number of rings (size 3 to 8) (size 9 to 14) (size 15 to 20)
#    0.000    2.000    2.000    1.200    2.800    4.000 
#    0.000    1.000    0.000    0.000    0.000    0.000 
#    0.000    0.000    0.000    0.000    0.000    0.000 
#
# Total GULP energy -223125.299296 kJ/mol
# GULP energy per Si atom -5578.132482 kJ/mol
# Density = 1.912577 g / cm^3
# Si number density = 19.169403 Si / 1000 Ang^3
#
#
#
# Elastic Constant Matrix: (Units=GPa)
#
#
# Indices 1 2 3 4 5 6 
#
# 1 80.2651 14.0519 15.6894 0.0000 0.0000 0.0000
# 2 14.0519 58.7786 5.6463 0.0000 0.0000 0.0000
# 3 15.6894 5.6463 43.4846 0.0000 0.0000 0.0000
# 4 0.0000 0.0000 0.0000 7.2078 0.0000 0.0000
# 5 0.0000 0.0000 0.0000 0.0000 7.4896 0.0000
# 6 0.0000 0.0000 0.0000 0.0000 0.0000 31.2139
#
#
#
# Elastic Compliance Matrix: (Units=1/GPa)
#
#
# Indices 1 2 3 4 5 6 
#
# 1 0.013866 -0.002870 -0.004630 0.000000 0.000000 0.000000
# 2 -0.002870 0.017822 -0.001279 0.000000 0.000000 0.000000
# 3 -0.004630 -0.001279 0.024833 0.000000 0.000000 0.000000
# 4 0.000000 0.000000 0.000000 0.138740 0.000000 0.000000
# 5 0.000000 0.000000 0.000000 0.000000 0.133519 0.000000
# 6 0.000000 0.000000 0.000000 0.000000 0.000000 0.032037
#
#
# Mechanical properties :
#
#
# Convention : Reuss Voigt Hill
#
# Bulk Modulus (GPa) = 25.66506 28.14484 26.90495
# Shear Modulus (GPa) = 12.77585 18.99161 15.88373
#
# Velocity S-wave (km/s) = 2.58441 3.15099 2.88166
# Velocity P-wave (km/s) = 4.72474 5.28700 5.01376
#
# Compressibility (1/GPa) = 0.03896348
#
# Stress axis : x y z
#
# Youngs Moduli (GPa) = 72.11742 56.11050 40.26847
#
# Poissons Ratio (x) = 0.16105 0.18646
# Poissons Ratio (y) = 0.20699 0.05149
# Poissons Ratio (z) = 0.33393 0.07174
#
# Static dielectric constant tensor:
#      x y z
#    x 1.685120 0.000000 0.000000 
#    y 0.000000 1.670120 0.000000 
#    z 0.000000 0.000000 1.675270 
# 
# From -- ./inp_files/21571.got.cif
#   From: 2010.05.17/outbox.cif.g08.bks.cpg/sg57_11_cif.got.tgz:21571.got - 2010.06.03 13:58:18.
