data_PCOD9436964
_publ_section_title
;
Structure prediction by ZEFSAII (Michael W. Deem and Ramdas Pophale) SiO2 
 PCOD9436964
Probable space group: P B C M
;
_chemical_formula_sum "Si O2"
_cell_formula_units_Z 48
_cell_length_a 8.085859
_cell_length_b 11.230268
_cell_length_c 23.832220
_cell_angle_alpha 90.000000
_cell_angle_beta 90.000000
_cell_angle_gamma 90.000000
_cell_volume 2164.117234
_symmetry_space_group_name_H-M "P B C M"
_symmetry_group_IT_number 57
_symmetry_cell_setting 'orthorhombic'
loop_
_space_group_symop_operation_xyz
x,y,z
-x,-y,1/2+z
x,1/2-y,-z
-x,1/2+y,1/2-z
-x,-y,-z
x,y,1/2-z
-x,1/2+y,z
x,1/2-y,1/2+z
loop_
_atom_site_type_symbol
_atom_site_label
_atom_site_fract_x
_atom_site_fract_y
_atom_site_fract_z
Si Si1 0.382592 0.480243 0.685982
Si Si2 0.183639 0.948929 0.503617
Si Si3 0.800521 0.770879 0.186397
Si Si4 0.690785 0.267772 0.075379
Si Si5 0.190723 0.720103 0.809489
Si Si6 0.615860 0.901707 0.091495
O O1 0.455693 0.485148 0.750000
O O2 0.299262 0.351894 0.678882
O O3 0.237217 0.580424 0.687836
O O4 0.501189 0.518814 0.634161
O O5 0.212709 0.831726 0.541269
O O6 0.233308 0.896115 0.442884
O O7 0.305620 0.038096 0.536546
O O8 0.000000 0.000000 0.500000
O O9 0.761035 0.815125 0.250000
O O10 0.752283 0.854461 0.134806
O O11 0.997633 0.755221 0.185023
O O12 0.712902 0.228117 0.138830
O O13 0.497384 0.293067 0.068707
O O14 0.250906 0.766686 0.750000
#
# Coordination Sequence:
#
# PCOD9436964 Si02
#       6
#     8   8   8   8   8   8
#     4   9  19  36  58  88 128 168 206 257 317 377
#     4  11  24  43  64  90 123 163 209 259 314 373
#     4  10  20  34  55  87 123 161 204 250 309 371
#     4  10  23  42  62  90 122 158 207 253 311 378
#     4   9  19  37  61  88 120 158 202 253 306 363
#     4  11  21  38  62  89 121 163 209 262 310 370
#
# _framework density 22.179943999999999
#
# number of rings (size 3 to 8) (size 9 to 14) (size 15 to 20)
#    0.000    2.000    0.000    3.000    0.000    4.667 
#    0.000   13.333    0.000    0.000    0.000    0.000 
#    0.000    0.000    0.000    0.000    0.000    0.000 
#
# Total GULP energy -267551.424058 kJ/mol
# GULP energy per Si atom -5573.988001 kJ/mol
# Density = 2.212946 g / cm^3
# Si number density = 22.179944 Si / 1000 Ang^3
#
#
#
# Elastic Constant Matrix: (Units=GPa)
#
#
# Indices 1 2 3 4 5 6 
#
# 1 92.4310 29.9909 46.1122 0.0000 0.0000 0.0000
# 2 29.9909 45.5538 33.1613 0.0000 0.0000 0.0000
# 3 46.1122 33.1613 117.3539 0.0000 0.0000 0.0000
# 4 0.0000 0.0000 0.0000 22.3978 0.0000 0.0000
# 5 0.0000 0.0000 0.0000 0.0000 85.8307 0.0000
# 6 0.0000 0.0000 0.0000 0.0000 0.0000 1.0561
#
#
#
# Elastic Compliance Matrix: (Units=1/GPa)
#
#
# Indices 1 2 3 4 5 6 
#
# 1 0.015069 -0.007064 -0.003925 0.000000 0.000000 0.000000
# 2 -0.007064 0.030948 -0.005970 0.000000 0.000000 0.000000
# 3 -0.003925 -0.005970 0.011750 0.000000 0.000000 0.000000
# 4 0.000000 0.000000 0.000000 0.044647 0.000000 0.000000
# 5 0.000000 0.000000 0.000000 0.000000 0.011651 0.000000
# 6 0.000000 0.000000 0.000000 0.000000 0.000000 0.946908
#
#
# Mechanical properties :
#
#
# Convention : Reuss Voigt Hill
#
# Bulk Modulus (GPa) = 41.92719 52.65195 47.28957
# Shear Modulus (GPa) = 4.53375 31.59519 18.06447
#
# Velocity S-wave (km/s) = 1.43126 3.77834 2.85695
# Velocity P-wave (km/s) = 4.65571 6.54405 5.67891
#
# Compressibility (1/GPa) = 0.02385087
#
# Stress axis : x y z
#
# Youngs Moduli (GPa) = 66.36170 32.31213 85.10334
#
# Poissons Ratio (x) = 0.22824 0.33404
# Poissons Ratio (y) = 0.46875 0.50804
# Poissons Ratio (z) = 0.26048 0.19289
#
# Static dielectric constant tensor:
#      x y z
#    x 1.790220 0.000000 0.000000 
#    y 0.000000 1.876500 0.000000 
#    z 0.000000 0.000000 -53.907210 
# 
# From -- ./inp_files/26705.got.cif
#   From: 2010.05.17/outbox.cif.g08.bks.cpg/sg57_14_cif.got.tgz:26705.got - 2010.06.03 13:58:18.
