data_PCOD9436534
_publ_section_title
;
Structure prediction by ZEFSAII (Michael W. Deem and Ramdas Pophale) SiO2 
 PCOD9436534
Probable space group: P B C M
;
_chemical_formula_sum "Si O2"
_cell_formula_units_Z 56
_cell_length_a 15.576490
_cell_length_b 21.164570
_cell_length_c 8.693891
_cell_angle_alpha 90.000000
_cell_angle_beta 90.000000
_cell_angle_gamma 90.000000
_cell_volume 2866.112550
_symmetry_space_group_name_H-M "P B C M"
_symmetry_group_IT_number 57
_symmetry_cell_setting 'orthorhombic'
loop_
_space_group_symop_operation_xyz
x,y,z
-x,-y,1/2+z
x,1/2-y,-z
-x,1/2+y,1/2-z
-x,-y,-z
x,y,1/2-z
-x,1/2+y,z
x,1/2-y,1/2+z
loop_
_atom_site_type_symbol
_atom_site_label
_atom_site_fract_x
_atom_site_fract_y
_atom_site_fract_z
Si Si1 0.715428 0.626599 0.575027
Si Si2 0.536591 0.817904 0.064647
Si Si3 0.918921 0.458024 0.065974
Si Si4 0.263691 0.516072 0.427486
Si Si5 0.057986 0.682112 0.436500
Si Si6 0.555930 0.058953 0.435940
Si Si7 0.137834 0.312403 0.929293
O O1 0.737522 0.645087 0.750000
O O2 0.635768 0.667813 0.520874
O O3 0.693173 0.553206 0.575811
O O4 0.799522 0.632433 0.473539
O O5 0.531891 0.819145 0.250000
O O6 0.510410 0.750000 0.000000
O O7 0.483927 0.875842 0.994996
O O8 0.928917 0.456695 0.250000
O O9 0.825401 0.485046 0.018987
O O10 0.912593 0.385922 0.000255
O O11 0.000000 0.500000 0.000000
O O12 0.242445 0.532977 0.250000
O O13 0.343522 0.557482 0.485129
O O14 0.092824 0.750000 0.500000
O O15 0.064200 0.682391 0.250000
O O16 0.958095 0.681057 0.489496
O O17 0.554156 0.055643 0.250000
O O18 0.500000 0.000000 0.500000
O O19 0.130992 0.304969 0.750000
O O20 0.178657 0.250000 0.000000
#
# Coordination Sequence:
#
# PCOD9436534 Si02
#       7
#     8   8   8   8   8   8   8
#     4  10  20  35  55  82 118 156 197 248 307 369
#     4  11  23  40  60  90 126 166 210 260 318 375
#     4  12  25  41  63  94 129 168 213 266 322 377
#     4  10  22  41  63  90 122 160 207 258 314 376
#     4  10  21  39  61  86 118 161 209 261 320 380
#     4  11  22  41  67  94 124 164 208 257 311 371
#     4  10  20  32  50  78 111 151 197 243 300 368
#
# _framework density 19.538661000000001
#
# number of rings (size 3 to 8) (size 9 to 14) (size 15 to 20)
#    0.000    1.429    1.429    4.286    0.000    8.000 
#    0.000    0.714    0.000    3.429    0.000    0.000 
#    0.000    0.000    0.000    0.000    0.000    0.000 
#
# Total GULP energy -312255.002100 kJ/mol
# GULP energy per Si atom -5575.982180 kJ/mol
# Density = 1.949419 g / cm^3
# Si number density = 19.538661 Si / 1000 Ang^3
#
#
#
# Elastic Constant Matrix: (Units=GPa)
#
#
# Indices 1 2 3 4 5 6 
#
# 1 85.4822 39.5993 28.1123 0.0000 0.0000 0.0000
# 2 39.5993 133.7058 35.4485 0.0000 0.0000 0.0000
# 3 28.1123 35.4485 62.8887 0.0000 0.0000 0.0000
# 4 0.0000 0.0000 0.0000 34.1792 0.0000 0.0000
# 5 0.0000 0.0000 0.0000 0.0000 23.9294 0.0000
# 6 0.0000 0.0000 0.0000 0.0000 0.0000 38.9733
#
#
#
# Elastic Compliance Matrix: (Units=1/GPa)
#
#
# Indices 1 2 3 4 5 6 
#
# 1 0.014716 -0.003074 -0.004846 0.000000 0.000000 0.000000
# 2 -0.003074 0.009435 -0.003944 0.000000 0.000000 0.000000
# 3 -0.004846 -0.003944 0.020291 0.000000 0.000000 0.000000
# 4 0.000000 0.000000 0.000000 0.029258 0.000000 0.000000
# 5 0.000000 0.000000 0.000000 0.000000 0.041790 0.000000
# 6 0.000000 0.000000 0.000000 0.000000 0.000000 0.025659
#
#
# Mechanical properties :
#
#
# Convention : Reuss Voigt Hill
#
# Bulk Modulus (GPa) = 48.27624 54.26631 51.27128
# Shear Modulus (GPa) = 29.10713 31.34416 30.22564
#
# Velocity S-wave (km/s) = 3.86388 4.00961 3.93742
# Velocity P-wave (km/s) = 6.68339 7.01926 6.85339
#
# Compressibility (1/GPa) = 0.02071412
#
# Stress axis : x y z
#
# Youngs Moduli (GPa) = 67.95425 105.98665 49.28411
#
# Poissons Ratio (x) = 0.32576 0.23882
# Poissons Ratio (y) = 0.20887 0.19439
# Poissons Ratio (z) = 0.32929 0.41805
#
# Static dielectric constant tensor:
#      x y z
#    x 1.684720 0.000000 0.000000 
#    y 0.000000 1.779340 0.000000 
#    z 0.000000 0.000000 1.684860 
# 
# From -- ./inp_files/5191.got.cif
#   From: 2010.05.17/outbox.cif.g08.bks.cpg/sg57_3_cif.got.tgz:5191.got - 2010.06.03 13:58:18.
