data_PCOD9436180
_publ_section_title
;
Structure prediction by ZEFSAII (Michael W. Deem and Ramdas Pophale) SiO2 
 PCOD9436180
Probable space group: P B C M
;
_chemical_formula_sum "Si O2"
_cell_formula_units_Z 56
_cell_length_a 21.957812
_cell_length_b 14.475836
_cell_length_c 8.830340
_cell_angle_alpha 90.000000
_cell_angle_beta 90.000000
_cell_angle_gamma 90.000000
_cell_volume 2806.791434
_symmetry_space_group_name_H-M "P B C M"
_symmetry_group_IT_number 57
_symmetry_cell_setting 'orthorhombic'
loop_
_space_group_symop_operation_xyz
x,y,z
-x,-y,1/2+z
x,1/2-y,-z
-x,1/2+y,1/2-z
-x,-y,-z
x,y,1/2-z
-x,1/2+y,z
x,1/2-y,1/2+z
loop_
_atom_site_type_symbol
_atom_site_label
_atom_site_fract_x
_atom_site_fract_y
_atom_site_fract_z
Si Si1 0.867850 0.159241 0.420940
Si Si2 0.587204 0.549829 0.931582
Si Si3 0.721248 0.344204 0.575950
Si Si4 0.713865 0.959230 0.570382
Si Si5 0.934106 0.979398 0.433162
Si Si6 0.172243 0.350796 0.067622
Si Si7 0.469443 0.648666 0.068212
O O1 0.891522 0.250000 0.500000
O O2 0.889722 0.161984 0.250000
O O3 0.794856 0.162143 0.418423
O O4 0.891806 0.064397 0.486788
O O5 0.586671 0.558444 0.750000
O O6 0.573823 0.440494 0.966950
O O7 0.651785 0.580218 0.999289
O O8 0.533905 0.612313 0.002559
O O9 0.698163 0.250000 0.500000
O O10 0.699414 0.355387 0.750000
O O11 0.710158 0.433073 0.474337
O O12 0.715850 0.946779 0.750000
O O13 0.773846 0.915835 0.494713
O O14 0.938384 0.977697 0.250000
O O15 0.894526 0.889968 0.476708
O O16 0.000000 0.000000 0.500000
O O17 0.175880 0.350678 0.250000
O O18 0.181091 0.250000 0.000000
O O19 0.472068 0.657120 0.250000
O O20 0.454353 0.750000 0.000000
#
# Coordination Sequence:
#
# PCOD9436180 Si02
#       7
#     8   8   8   8   8   8   8
#     4   9  18  34  55  81 111 145 184 231 288 348
#     4  10  22  40  62  90 125 165 208 257 307 361
#     4  10  19  35  57  84 118 154 194 242 299 362
#     4  12  24  39  62  92 125 164 208 255 310 371
#     4  10  22  40  61  86 119 156 197 249 304 362
#     4  11  24  45  66  89 123 162 206 258 311 369
#     4  10  21  39  64  92 124 163 207 255 307 362
#
# _framework density 19.951606999999999
#
# number of rings (size 3 to 8) (size 9 to 14) (size 15 to 20)
#    0.000    1.714    1.429    3.000    0.000    5.714 
#    0.000    7.143    0.000    0.000    0.000    0.000 
#    0.000    0.000    0.000    0.000    0.000    0.000 
#
# Total GULP energy -312587.855410 kJ/mol
# GULP energy per Si atom -5581.925989 kJ/mol
# Density = 1.990620 g / cm^3
# Si number density = 19.951607 Si / 1000 Ang^3
#
#
#
# Elastic Constant Matrix: (Units=GPa)
#
#
# Indices 1 2 3 4 5 6 
#
# 1 108.5773 30.2149 39.9562 0.0000 0.0000 0.0000
# 2 30.2149 88.7058 28.3322 0.0000 0.0000 0.0000
# 3 39.9562 28.3322 81.2366 0.0000 0.0000 0.0000
# 4 0.0000 0.0000 0.0000 36.3093 0.0000 0.0000
# 5 0.0000 0.0000 0.0000 0.0000 17.6858 0.0000
# 6 0.0000 0.0000 0.0000 0.0000 0.0000 2.1631
#
#
#
# Elastic Compliance Matrix: (Units=1/GPa)
#
#
# Indices 1 2 3 4 5 6 
#
# 1 0.011687 -0.002414 -0.004907 0.000000 0.000000 0.000000
# 2 -0.002414 0.013185 -0.003411 0.000000 0.000000 0.000000
# 3 -0.004907 -0.003411 0.015913 0.000000 0.000000 0.000000
# 4 0.000000 0.000000 0.000000 0.027541 0.000000 0.000000
# 5 0.000000 0.000000 0.000000 0.000000 0.056542 0.000000
# 6 0.000000 0.000000 0.000000 0.000000 0.000000 0.462310
#
#
# Mechanical properties :
#
#
# Convention : Reuss Voigt Hill
#
# Bulk Modulus (GPa) = 51.75480 52.83627 52.29553
# Shear Modulus (GPa) = 8.12900 23.23273 15.68087
#
# Velocity S-wave (km/s) = 2.02069 3.41611 2.80651
# Velocity P-wave (km/s) = 5.60721 6.48841 6.06384
#
# Compressibility (1/GPa) = 0.01932188
#
# Stress axis : x y z
#
# Youngs Moduli (GPa) = 85.56265 75.84423 62.84283
#
# Poissons Ratio (x) = 0.18307 0.30834
# Poissons Ratio (y) = 0.20653 0.21437
# Poissons Ratio (z) = 0.41982 0.25872
#
# Static dielectric constant tensor:
#      x y z
#    x 1.714830 0.000000 0.000000 
#    y 0.000000 1.729650 0.000000 
#    z 0.000000 0.000000 1.675380 
# 
# From -- ./inp_files/8171.got.cif
#   From: 2010.05.17/outbox.cif.g08.bks.cpg/sg57_5_cif.got.tgz:8171.got - 2010.06.03 13:58:18.
