data_PCOD9436538
_publ_section_title
;
Structure prediction by ZEFSAII (Michael W. Deem and Ramdas Pophale) SiO2 
 PCOD9436538
Probable space group: P B C M
;
_chemical_formula_sum "Si O2"
_cell_formula_units_Z 64
_cell_length_a 23.736189
_cell_length_b 8.111043
_cell_length_c 14.493067
_cell_angle_alpha 90.000000
_cell_angle_beta 90.000000
_cell_angle_gamma 90.000000
_cell_volume 2790.281342
_symmetry_space_group_name_H-M "P B C M"
_symmetry_group_IT_number 57
_symmetry_cell_setting 'orthorhombic'
loop_
_space_group_symop_operation_xyz
x,y,z
-x,-y,1/2+z
x,1/2-y,-z
-x,1/2+y,1/2-z
-x,-y,-z
x,y,1/2-z
-x,1/2+y,z
x,1/2-y,1/2+z
loop_
_atom_site_type_symbol
_atom_site_label
_atom_site_fract_x
_atom_site_fract_y
_atom_site_fract_z
Si Si1 0.434026 0.400608 0.138774
Si Si2 0.863390 0.838134 0.861811
Si Si3 0.686147 0.442566 0.606761
Si Si4 0.061302 0.028632 0.862716
Si Si5 0.444083 0.025576 0.361855
Si Si6 0.325328 0.589622 0.894144
Si Si7 0.936179 0.150576 0.637209
Si Si8 0.266052 0.273372 0.893389
O O1 0.435471 0.399369 0.250000
O O2 0.378806 0.500856 0.112646
O O3 0.493565 0.474959 0.107968
O O4 0.430729 0.211371 0.108076
O O5 0.866360 0.838719 0.750000
O O6 0.896152 0.672815 0.893008
O O7 0.798542 0.824806 0.888842
O O8 0.892618 0.008601 0.892978
O O9 0.697565 0.419491 0.498191
O O10 0.694027 0.261704 0.648095
O O11 0.722376 0.592347 0.646499
O O12 0.062747 0.025538 0.750000
O O13 0.998486 0.087057 0.888685
O O14 0.072772 0.840209 0.893519
O O15 0.443347 0.018821 0.250000
O O16 0.393083 0.912091 0.394990
O O17 0.303509 0.419340 0.851428
O O18 0.934689 0.154221 0.750000
O O19 0.283575 0.250000 0.000000
#
# Coordination Sequence:
#
# PCOD9436538 Si02
#       8
#     8   8   8   8   8   8   8   8
#     4  10  20  34  54  82 114 143 172 214 273 331
#     4  10  20  32  52  82 108 136 179 220 259 314
#     4  10  21  38  59  79 101 139 187 227 267 317
#     4   9  15  26  47  77 110 139 169 213 265 311
#     4  10  20  34  54  82 114 143 172 214 273 331
#     4  10  21  38  59  79 101 139 187 227 267 317
#     4   9  15  26  47  77 110 139 169 213 265 311
#     4  10  22  40  56  74 108 146 181 224 269 314
#
# _framework density 22.936754000000001
#
# number of rings (size 3 to 8) (size 9 to 14) (size 15 to 20)
#    0.000    2.250    2.500    0.750    0.000    4.000 
#    0.000    0.000    0.000    0.750    0.000    0.000 
#    0.000    0.000    0.000    0.000    0.000    0.000 
#
# Total GULP energy -357636.223669 kJ/mol
# GULP energy per Si atom -5588.065995 kJ/mol
# Density = 2.288455 g / cm^3
# Si number density = 22.936754 Si / 1000 Ang^3
#
#
#
# Elastic Constant Matrix: (Units=GPa)
#
#
# Indices 1 2 3 4 5 6 
#
# 1 92.9429 41.5898 -26.7309 0.0000 0.0000 0.0000
# 2 41.5898 194.9711 -1.5479 0.0000 0.0000 0.0000
# 3 -26.7309 -1.5479 67.4242 0.0000 0.0000 0.0000
# 4 0.0000 0.0000 0.0000 0.7188 0.0000 0.0000
# 5 0.0000 0.0000 0.0000 0.0000 54.6390 0.0000
# 6 0.0000 0.0000 0.0000 0.0000 0.0000 35.9152
#
#
#
# Elastic Compliance Matrix: (Units=1/GPa)
#
#
# Indices 1 2 3 4 5 6 
#
# 1 0.013563 -0.002851 0.005312 0.000000 0.000000 0.000000
# 2 -0.002851 0.005729 -0.000999 0.000000 0.000000 0.000000
# 3 0.005312 -0.000999 0.016914 0.000000 0.000000 0.000000
# 4 0.000000 0.000000 0.000000 1.391207 0.000000 0.000000
# 5 0.000000 0.000000 0.000000 0.000000 0.018302 0.000000
# 6 0.000000 0.000000 0.000000 0.000000 0.000000 0.027843
#
#
# Mechanical properties :
#
#
# Convention : Reuss Voigt Hill
#
# Bulk Modulus (GPa) = 25.55581 42.44001 33.99791
# Shear Modulus (GPa) = 3.37000 41.05643 22.21322
#
# Velocity S-wave (km/s) = 1.21345 4.23541 3.11538
# Velocity P-wave (km/s) = 3.62344 6.51625 5.27213
#
# Compressibility (1/GPa) = 0.03913005
#
# Stress axis : x y z
#
# Youngs Moduli (GPa) = 73.73195 174.54538 59.12132
#
# Poissons Ratio (x) = 0.49761 -0.31403
# Poissons Ratio (y) = 0.21020 0.05905
# Poissons Ratio (z) = -0.39163 0.17432
#
# Static dielectric constant tensor:
#      x y z
#    x 1.781930 0.000000 0.000000 
#    y 0.000000 1.900780 0.000000 
#    z 0.000000 0.000000 1.894270 
# 
# From -- ./inp_files/23137.got.cif
#   From: 2010.05.17/outbox.cif.g08.bks.cpg/sg57_12_cif.got.tgz:23137.got - 2010.06.03 13:58:18.
