data_PCOD9436316
_publ_section_title
;
Structure prediction by ZEFSAII (Michael W. Deem and Ramdas Pophale) SiO2 
 PCOD9436316
Probable space group: P B C M
;
_chemical_formula_sum "Si O2"
_cell_formula_units_Z 64
_cell_length_a 19.154223
_cell_length_b 20.690670
_cell_length_c 8.023689
_cell_angle_alpha 90.000000
_cell_angle_beta 90.000000
_cell_angle_gamma 90.000000
_cell_volume 3179.897933
_symmetry_space_group_name_H-M "P B C M"
_symmetry_group_IT_number 57
_symmetry_cell_setting 'orthorhombic'
loop_
_space_group_symop_operation_xyz
x,y,z
-x,-y,1/2+z
x,1/2-y,-z
-x,1/2+y,1/2-z
-x,-y,-z
x,y,1/2-z
-x,1/2+y,z
x,1/2-y,1/2+z
loop_
_atom_site_type_symbol
_atom_site_label
_atom_site_fract_x
_atom_site_fract_y
_atom_site_fract_z
Si Si1 0.205899 0.458677 0.049542
Si Si2 0.743502 0.677553 0.448471
Si Si3 0.068899 0.538035 0.047946
Si Si4 0.927880 0.319440 0.561378
Si Si5 0.474027 0.570373 0.451113
Si Si6 0.227848 0.815676 0.054013
Si Si7 0.316086 0.561213 0.048233
Si Si8 0.416201 0.322630 0.951167
O O1 0.204535 0.461531 0.250000
O O2 0.138401 0.499678 0.989621
O O3 0.276176 0.496133 0.991919
O O4 0.210073 0.383500 0.002086
O O5 0.765939 0.750000 0.500000
O O6 0.740751 0.677003 0.250000
O O7 0.663590 0.667382 0.513087
O O8 0.075132 0.542265 0.250000
O O9 0.059169 0.610974 0.978865
O O10 0.000000 0.500000 0.000000
O O11 0.954458 0.250000 0.500000
O O12 0.952099 0.324269 0.750000
O O13 0.843845 0.315736 0.549399
O O14 0.500000 0.500000 0.500000
O O15 0.472378 0.575806 0.250000
O O16 0.394413 0.573135 0.512713
O O17 0.528067 0.624768 0.512967
O O18 0.211733 0.814067 0.250000
O O19 0.266534 0.750000 0.000000
O O20 0.269819 0.878993 0.009271
O O21 0.317543 0.559713 0.250000
O O22 0.414246 0.326664 0.750000
O O23 0.436864 0.250000 0.000000
#
# Coordination Sequence:
#
# PCOD9436316 Si02
#       8
#     8   8   8   8   8   8   8   8
#     4  10  20  37  58  81 112 146 182 229 280 333
#     4  10  20  35  57  83 110 142 184 233 280 336
#     4  10  22  39  60  86 119 153 188 231 279 335
#     4  10  19  36  59  85 116 150 186 227 271 325
#     4  10  21  35  53  77 108 145 183 231 281 333
#     4  11  21  33  53  80 110 145 184 229 275 326
#     4  10  20  36  55  77 110 148 187 231 284 335
#     4   9  19  35  53  77 108 142 185 230 276 328
#
# _framework density 20.126432000000001
#
# number of rings (size 3 to 8) (size 9 to 14) (size 15 to 20)
#    0.000    2.000    1.250    3.375    0.000    4.000 
#    0.000    1.875    0.000    1.500    0.000    0.000 
#    0.000    0.000    0.000    0.000    0.000    0.000 
#
# Total GULP energy -356972.775333 kJ/mol
# GULP energy per Si atom -5577.699615 kJ/mol
# Density = 2.008062 g / cm^3
# Si number density = 20.126432 Si / 1000 Ang^3
#
#
#
# Elastic Constant Matrix: (Units=GPa)
#
#
# Indices 1 2 3 4 5 6 
#
# 1 46.4327 51.1249 2.8901 0.0000 0.0000 0.0000
# 2 51.1249 190.7895 2.6695 0.0000 0.0000 0.0000
# 3 2.8901 2.6695 12.8501 0.0000 0.0000 0.0000
# 4 0.0000 0.0000 0.0000 29.2630 0.0000 0.0000
# 5 0.0000 0.0000 0.0000 0.0000 16.4966 0.0000
# 6 0.0000 0.0000 0.0000 0.0000 0.0000 28.1911
#
#
#
# Elastic Compliance Matrix: (Units=1/GPa)
#
#
# Indices 1 2 3 4 5 6 
#
# 1 0.030899 -0.008206 -0.005245 0.000000 0.000000 0.000000
# 2 -0.008206 0.007436 0.000301 0.000000 0.000000 0.000000
# 3 -0.005245 0.000301 0.078938 0.000000 0.000000 0.000000
# 4 0.000000 0.000000 0.000000 0.034173 0.000000 0.000000
# 5 0.000000 0.000000 0.000000 0.000000 0.060619 0.000000
# 6 0.000000 0.000000 0.000000 0.000000 0.000000 0.035472
#
#
# Mechanical properties :
#
#
# Convention : Reuss Voigt Hill
#
# Bulk Modulus (GPa) = 10.99235 40.38237 25.68736
# Shear Modulus (GPa) = 16.43869 27.68264 22.06066
#
# Velocity S-wave (km/s) = 2.86102 3.71271 3.31434
# Velocity P-wave (km/s) = 4.04814 6.20378 5.23805
#
# Compressibility (1/GPa) = 0.09097236
#
# Stress axis : x y z
#
# Youngs Moduli (GPa) = 32.36388 134.47751 12.66822
#
# Poissons Ratio (x) = 1.10357 0.06644
# Poissons Ratio (y) = 0.26559 -0.00381
# Poissons Ratio (z) = 0.16973 -0.04046
#
# Static dielectric constant tensor:
#      x y z
#    x 1.708600 0.000000 0.000000 
#    y 0.000000 1.760610 0.000000 
#    z 0.000000 0.000000 1.719440 
# 
# From -- ./inp_files/7186.got.cif
#   From: 2010.05.17/outbox.cif.g08.bks.cpg/sg57_4_cif.got.tgz:7186.got - 2010.06.03 13:58:18.
