data_PCOD9436973
_publ_section_title
;
Structure prediction by ZEFSAII (Michael W. Deem and Ramdas Pophale) SiO2 
 PCOD9436973
Probable space group: P B C M
;
_chemical_formula_sum "Si O2"
_cell_formula_units_Z 64
_cell_length_a 21.524091
_cell_length_b 19.164690
_cell_length_c 8.707628
_cell_angle_alpha 90.000000
_cell_angle_beta 90.000000
_cell_angle_gamma 90.000000
_cell_volume 3591.918594
_symmetry_space_group_name_H-M "P B C M"
_symmetry_group_IT_number 57
_symmetry_cell_setting 'orthorhombic'
loop_
_space_group_symop_operation_xyz
x,y,z
-x,-y,1/2+z
x,1/2-y,-z
-x,1/2+y,1/2-z
-x,-y,-z
x,y,1/2-z
-x,1/2+y,z
x,1/2-y,1/2+z
loop_
_atom_site_type_symbol
_atom_site_label
_atom_site_fract_x
_atom_site_fract_y
_atom_site_fract_z
Si Si1 0.123871 0.824694 0.934401
Si Si2 0.937063 0.468620 0.933409
Si Si3 0.503409 0.077208 0.435304
Si Si4 0.606722 0.675930 0.434880
Si Si5 0.749502 0.112319 0.934321
Si Si6 0.187822 0.031861 0.435071
Si Si7 0.250059 0.175297 0.064605
Si Si8 0.621073 0.172021 0.434798
O O1 0.127992 0.821818 0.750000
O O2 0.077754 0.888165 0.977764
O O3 0.104689 0.750000 0.000000
O O4 0.191493 0.844890 0.001578
O O5 0.939455 0.471412 0.750000
O O6 0.877816 0.511811 0.992525
O O7 0.000000 0.500000 0.000000
O O8 0.503930 0.074297 0.250000
O O9 0.441325 0.117586 0.485384
O O10 0.563990 0.121775 0.482155
O O11 0.500000 0.000000 0.500000
O O12 0.585927 0.750000 0.500000
O O13 0.606028 0.678632 0.250000
O O14 0.677999 0.664717 0.483292
O O15 0.747299 0.119462 0.750000
O O16 0.764334 0.031128 0.972123
O O17 0.685835 0.140125 0.005353
O O18 0.181643 0.032280 0.250000
O O19 0.211703 0.107565 0.485003
O O20 0.248367 0.178374 0.250000
O O21 0.229073 0.250000 0.000000
O O22 0.613011 0.250000 0.500000
O O23 0.622325 0.175602 0.250000
#
# Coordination Sequence:
#
# PCOD9436973 Si02
#       8
#     8   8   8   8   8   8   8   8
#     4  10  20  35  56  83 114 145 180 225 268 316
#     4  10  21  37  58  83 112 146 182 222 264 311
#     4  10  23  38  54  76 104 138 178 225 272 324
#     4   9  18  34  55  76 101 134 175 221 269 322
#     4  10  20  34  56  82 108 145 181 221 273 324
#     4   9  19  35  56  81 109 143 181 219 266 320
#     4   9  18  33  54  80 107 137 176 223 271 321
#     4  11  23  38  54  78 108 142 180 223 272 325
#
# _framework density 17.817777
#
# number of rings (size 3 to 8) (size 9 to 14) (size 15 to 20)
#    0.000    2.250    0.000    2.250    1.750    4.000 
#    0.000    0.625    0.000    0.000    0.000    0.000 
#    0.000    0.000    0.000    0.000    0.000    0.000 
#
# Total GULP energy -357220.759921 kJ/mol
# GULP energy per Si atom -5581.574374 kJ/mol
# Density = 1.777722 g / cm^3
# Si number density = 17.817777 Si / 1000 Ang^3
#
#
#
# Elastic Constant Matrix: (Units=GPa)
#
#
# Indices 1 2 3 4 5 6 
#
# 1 101.6823 105.0262 35.1287 0.0000 0.0000 0.0000
# 2 105.0262 201.1478 48.0378 0.0000 0.0000 0.0000
# 3 35.1287 48.0378 33.5364 0.0000 0.0000 0.0000
# 4 0.0000 0.0000 0.0000 32.5754 0.0000 0.0000
# 5 0.0000 0.0000 0.0000 0.0000 24.5406 0.0000
# 6 0.0000 0.0000 0.0000 0.0000 0.0000 24.3174
#
#
#
# Elastic Compliance Matrix: (Units=1/GPa)
#
#
# Indices 1 2 3 4 5 6 
#
# 1 0.023657 -0.009780 -0.010772 0.000000 0.000000 0.000000
# 2 -0.009780 0.011599 -0.006371 0.000000 0.000000 0.000000
# 3 -0.010772 -0.006371 0.050227 0.000000 0.000000 0.000000
# 4 0.000000 0.000000 0.000000 0.030698 0.000000 0.000000
# 5 0.000000 0.000000 0.000000 0.000000 0.040749 0.000000
# 6 0.000000 0.000000 0.000000 0.000000 0.000000 0.041123
#
#
# Mechanical properties :
#
#
# Convention : Reuss Voigt Hill
#
# Bulk Modulus (GPa) = 31.60665 79.19466 55.40065
# Shear Modulus (GPa) = 19.05159 26.16493 22.60826
#
# Velocity S-wave (km/s) = 3.27348 3.83622 3.56597
# Velocity P-wave (km/s) = 5.66259 8.01035 6.93652
#
# Compressibility (1/GPa) = 0.03163892
#
# Stress axis : x y z
#
# Youngs Moduli (GPa) = 42.27006 86.21214 19.90945
#
# Poissons Ratio (x) = 0.84314 0.21446
# Poissons Ratio (y) = 0.41339 0.12684
# Poissons Ratio (z) = 0.45533 0.54924
#
# Static dielectric constant tensor:
#      x y z
#    x 1.583300 0.000000 0.000000 
#    y 0.000000 1.581840 0.000000 
#    z 0.000000 0.000000 1.602070 
# 
# From -- ./inp_files/8538.got.cif
#   From: 2010.05.17/outbox.cif.g08.bks.cpg/sg57_5_cif.got.tgz:8538.got - 2010.06.03 13:58:18.
