data_PCOD9436730
_publ_section_title
;
Structure prediction by ZEFSAII (Michael W. Deem and Ramdas Pophale) SiO2 
 PCOD9436730
Probable space group: P B C M
;
_chemical_formula_sum "Si O2"
_cell_formula_units_Z 64
_cell_length_a 12.062072
_cell_length_b 18.390491
_cell_length_c 14.570162
_cell_angle_alpha 90.000000
_cell_angle_beta 90.000000
_cell_angle_gamma 90.000000
_cell_volume 3232.061541
_symmetry_space_group_name_H-M "P B C M"
_symmetry_group_IT_number 57
_symmetry_cell_setting 'orthorhombic'
loop_
_space_group_symop_operation_xyz
x,y,z
-x,-y,1/2+z
x,1/2-y,-z
-x,1/2+y,1/2-z
-x,-y,-z
x,y,1/2-z
-x,1/2+y,z
x,1/2-y,1/2+z
loop_
_atom_site_type_symbol
_atom_site_label
_atom_site_fract_x
_atom_site_fract_y
_atom_site_fract_z
Si Si1 0.341493 0.834104 0.022116
Si Si2 0.508687 0.453322 0.092247
Si Si3 0.282582 0.457320 0.852311
Si Si4 0.766314 0.668812 0.015828
Si Si5 0.206826 0.598097 0.140930
Si Si6 0.854524 0.401596 0.139228
Si Si7 0.978039 0.332403 0.520273
Si Si8 0.740766 0.564578 0.648165
O O1 0.448971 0.873753 0.062761
O O2 0.244724 0.851528 0.096948
O O3 0.354796 0.750000 0.000000
O O4 0.302702 0.872276 0.926924
O O5 0.606737 0.493697 0.146233
O O6 0.391022 0.450650 0.140915
O O7 0.500000 0.500000 0.000000
O O8 0.259518 0.431647 0.750000
O O9 0.186269 0.515323 0.878864
O O10 0.294371 0.388241 0.917850
O O11 0.768203 0.628500 0.919445
O O12 0.722288 0.750000 0.000000
O O13 0.893991 0.672247 0.047881
O O14 0.224238 0.610611 0.250000
O O15 0.096344 0.634808 0.101268
O O16 0.201733 0.511719 0.124972
O O17 0.868123 0.392784 0.250000
O O18 0.955751 0.379085 0.072787
O O19 0.940082 0.250000 0.500000
O O20 0.772360 0.584932 0.750000
#
# Coordination Sequence:
#
# PCOD9436730 Si02
#       8
#     8   8   8   8   8   8   8   8
#     4  10  20  33  56  87 118 150 189 232 287 346
#     4  11  19  39  62  82 117 155 187 235 287 337
#     4  10  21  38  62  87 111 150 197 237 284 343
#     4  11  24  41  59  81 118 157 193 237 286 340
#     4  10  20  36  59  87 115 145 188 243 291 340
#     4   9  18  34  59  86 114 147 190 242 291 340
#     4  10  22  37  55  83 117 156 190 230 291 349
#     4  11  23  40  62  87 113 149 195 242 291 343
#
# _framework density 19.801603
#
# number of rings (size 3 to 8) (size 9 to 14) (size 15 to 20)
#    0.000    1.750    2.500    3.375    0.000    6.500 
#    0.000    5.000    0.000    0.000    0.000    0.000 
#    0.000    0.000    0.000    0.000    0.000    0.000 
#
# Total GULP energy -357142.639372 kJ/mol
# GULP energy per Si atom -5580.353740 kJ/mol
# Density = 1.975653 g / cm^3
# Si number density = 19.801603 Si / 1000 Ang^3
#
#
#
# Elastic Constant Matrix: (Units=GPa)
#
#
# Indices 1 2 3 4 5 6 
#
# 1 24.6244 6.1084 -17.7163 0.0000 0.0000 0.0000
# 2 6.1084 131.2722 49.6449 0.0000 0.0000 0.0000
# 3 -17.7163 49.6449 95.3119 0.0000 0.0000 0.0000
# 4 0.0000 0.0000 0.0000 3.5189 0.0000 0.0000
# 5 0.0000 0.0000 0.0000 0.0000 30.4283 0.0000
# 6 0.0000 0.0000 0.0000 0.0000 0.0000 18.2000
#
#
#
# Elastic Compliance Matrix: (Units=1/GPa)
#
#
# Indices 1 2 3 4 5 6 
#
# 1 0.052356 -0.007617 0.013699 0.000000 0.000000 0.000000
# 2 -0.007617 0.010595 -0.006934 0.000000 0.000000 0.000000
# 3 0.013699 -0.006934 0.016650 0.000000 0.000000 0.000000
# 4 0.000000 0.000000 0.000000 0.284179 0.000000 0.000000
# 5 0.000000 0.000000 0.000000 0.000000 0.032864 0.000000
# 6 0.000000 0.000000 0.000000 0.000000 0.000000 0.054945
#
#
# Mechanical properties :
#
#
# Convention : Reuss Voigt Hill
#
# Bulk Modulus (GPa) = 12.83763 36.36473 24.60118
# Shear Modulus (GPa) = 10.43279 24.64088 17.53683
#
# Velocity S-wave (km/s) = 2.29785 3.53142 2.97918
# Velocity P-wave (km/s) = 3.67931 5.91881 4.92796
#
# Compressibility (1/GPa) = 0.07789601
#
# Stress axis : x y z
#
# Youngs Moduli (GPa) = 19.10017 94.38783 60.06002
#
# Poissons Ratio (x) = 0.71895 -0.82277
# Poissons Ratio (y) = 0.14549 0.41647
# Poissons Ratio (z) = -0.26166 0.65450
#
# Static dielectric constant tensor:
#      x y z
#    x 1.746710 0.000000 0.000000 
#    y 0.000000 1.749040 0.000000 
#    z 0.000000 0.000000 1.689610 
# 
# From -- ./inp_files/18016.got.cif
#   From: 2010.05.17/outbox.cif.g08.bks.cpg/sg57_10_cif.got.tgz:18016.got - 2010.06.03 13:58:18.
