data_PCOD9436601
_publ_section_title
;
Structure prediction by ZEFSAII (Michael W. Deem and Ramdas Pophale) SiO2 
 PCOD9436601
Probable space group: P B C M
;
_chemical_formula_sum "Si O2"
_cell_formula_units_Z 64
_cell_length_a 30.684432
_cell_length_b 13.893964
_cell_length_c 9.018075
_cell_angle_alpha 90.000000
_cell_angle_beta 90.000000
_cell_angle_gamma 90.000000
_cell_volume 3844.661428
_symmetry_space_group_name_H-M "P B C M"
_symmetry_group_IT_number 57
_symmetry_cell_setting 'orthorhombic'
loop_
_space_group_symop_operation_xyz
x,y,z
-x,-y,1/2+z
x,1/2-y,-z
-x,1/2+y,1/2-z
-x,-y,-z
x,y,1/2-z
-x,1/2+y,z
x,1/2-y,1/2+z
loop_
_atom_site_type_symbol
_atom_site_label
_atom_site_fract_x
_atom_site_fract_y
_atom_site_fract_z
Si Si1 0.318375 0.034201 0.926955
Si Si2 0.544907 0.026463 0.579449
Si Si3 0.244756 0.146819 0.074300
Si Si4 0.620416 0.353846 0.571757
Si Si5 0.930796 0.977399 0.425953
Si Si6 0.141497 0.352462 0.574252
Si Si7 0.982062 0.353687 0.074063
Si Si8 0.608190 0.655792 0.419540
O O1 0.314733 0.039766 0.750000
O O2 0.341539 0.932096 0.964230
O O3 0.272866 0.061410 0.002575
O O4 0.351207 0.115265 0.988380
O O5 0.537823 0.057629 0.750000
O O6 0.572949 0.928647 0.581714
O O7 0.500000 0.000000 0.500000
O O8 0.575272 0.102950 0.493484
O O9 0.253186 0.152413 0.250000
O O10 0.193101 0.131295 0.051438
O O11 0.255903 0.250000 0.000000
O O12 0.628841 0.250000 0.500000
O O13 0.617494 0.346882 0.750000
O O14 0.925274 0.989331 0.250000
O O15 0.887962 0.933616 0.499919
O O16 0.970644 0.902506 0.450762
O O17 0.946747 0.075777 0.500663
O O18 0.130519 0.250000 0.500000
O O19 0.133165 0.347669 0.750000
O O20 0.975124 0.347451 0.250000
O O21 0.980932 0.250000 0.000000
O O22 0.590823 0.750000 0.500000
O O23 0.620966 0.676585 0.250000
#
# Coordination Sequence:
#
# PCOD9436601 Si02
#       8
#     8   8   8   8   8   8   8   8
#     4  10  20  34  53  76 102 130 162 203 247 294
#     4  10  21  36  53  74 102 134 168 206 246 291
#     4  10  20  33  51  76 106 138 169 204 249 302
#     4  10  21  37  57  79 102 132 170 211 255 300
#     4  10  20  33  51  74 101 135 172 213 259 306
#     4  10  20  33  50  74 104 137 171 208 252 304
#     4  10  20  33  50  73 101 133 172 215 259 307
#     4  10  20  33  50  72  98 129 161 195 238 286
#
# _framework density 16.646460000000001
#
# number of rings (size 3 to 8) (size 9 to 14) (size 15 to 20)
#    0.000    2.000    0.000    3.750    0.000    7.500 
#    0.000    1.250    0.000    0.750    0.000    1.750 
#    0.000    0.000    0.000    0.000    0.000    0.000 
#
# Total GULP energy -357245.971854 kJ/mol
# GULP energy per Si atom -5581.968310 kJ/mol
# Density = 1.660857 g / cm^3
# Si number density = 16.646460 Si / 1000 Ang^3
#
#
#
# Elastic Constant Matrix: (Units=GPa)
#
#
# Indices 1 2 3 4 5 6 
#
# 1 69.0086 42.4561 59.5662 0.0000 0.0000 0.0000
# 2 42.4561 106.6870 70.7275 0.0000 0.0000 0.0000
# 3 59.5662 70.7275 111.2716 0.0000 0.0000 0.0000
# 4 0.0000 0.0000 0.0000 32.9149 0.0000 0.0000
# 5 0.0000 0.0000 0.0000 0.0000 29.1689 0.0000
# 6 0.0000 0.0000 0.0000 0.0000 0.0000 16.4845
#
#
#
# Elastic Compliance Matrix: (Units=1/GPa)
#
#
# Indices 1 2 3 4 5 6 
#
# 1 0.027189 -0.002023 -0.013269 0.000000 0.000000 0.000000
# 2 -0.002023 0.016350 -0.009309 0.000000 0.000000 0.000000
# 3 -0.013269 -0.009309 0.022007 0.000000 0.000000 0.000000
# 4 0.000000 0.000000 0.000000 0.030381 0.000000 0.000000
# 5 0.000000 0.000000 0.000000 0.000000 0.034283 0.000000
# 6 0.000000 0.000000 0.000000 0.000000 0.000000 0.060663
#
#
# Mechanical properties :
#
#
# Convention : Reuss Voigt Hill
#
# Bulk Modulus (GPa) = 61.18698 70.27408 65.73053
# Shear Modulus (GPa) = 20.36453 23.32814 21.84634
#
# Velocity S-wave (km/s) = 3.50144 3.74757 3.62660
# Velocity P-wave (km/s) = 7.29269 7.81236 7.55700
#
# Compressibility (1/GPa) = 0.01634335
#
# Stress axis : x y z
#
# Youngs Moduli (GPa) = 36.77958 61.16191 45.43927
#
# Poissons Ratio (x) = 0.12376 0.60292
# Poissons Ratio (y) = 0.07442 0.42301
# Poissons Ratio (z) = 0.48802 0.56938
#
# Static dielectric constant tensor:
#      x y z
#    x 1.554990 0.000000 0.000000 
#    y 0.000000 1.541890 0.000000 
#    z 0.000000 0.000000 1.560720 
# 
# From -- ./inp_files/10293.got.cif
#   From: 2010.05.17/outbox.cif.g08.bks.cpg/sg57_6_cif.got.tgz:10293.got - 2010.06.03 13:58:18.
