data_PCOD9436163
_publ_section_title
;
Structure prediction by ZEFSAII (Michael W. Deem and Ramdas Pophale) SiO2 
 PCOD9436163
Probable space group: P B C M
;
_chemical_formula_sum "Si O2"
_cell_formula_units_Z 64
_cell_length_a 9.914074
_cell_length_b 20.185520
_cell_length_c 17.423326
_cell_angle_alpha 90.000000
_cell_angle_beta 90.000000
_cell_angle_gamma 90.000000
_cell_volume 3486.768875
_symmetry_space_group_name_H-M "P B C M"
_symmetry_group_IT_number 57
_symmetry_cell_setting 'orthorhombic'
loop_
_space_group_symop_operation_xyz
x,y,z
-x,-y,1/2+z
x,1/2-y,-z
-x,1/2+y,1/2-z
-x,-y,-z
x,y,1/2-z
-x,1/2+y,z
x,1/2-y,1/2+z
loop_
_atom_site_type_symbol
_atom_site_label
_atom_site_fract_x
_atom_site_fract_y
_atom_site_fract_z
Si Si1 0.889891 0.097475 0.912844
Si Si2 0.348543 0.193875 0.447108
Si Si3 0.594618 0.159314 0.158159
Si Si4 0.170985 0.762686 0.158486
Si Si5 0.781148 0.447042 0.581133
Si Si6 0.922014 0.955050 0.871431
Si Si7 0.186672 0.085517 0.535772
Si Si8 0.887761 0.694515 0.163601
O O1 0.832444 0.166030 0.881271
O O2 0.053025 0.107703 0.918629
O O3 0.873333 0.030946 0.859622
O O4 0.824881 0.082677 0.997350
O O5 0.411745 0.250000 0.500000
O O6 0.454703 0.167054 0.386132
O O7 0.287889 0.140246 0.505671
O O8 0.220114 0.219317 0.398078
O O9 0.577471 0.154395 0.250000
O O10 0.694886 0.220929 0.141475
O O11 0.671845 0.096713 0.123109
O O12 0.165716 0.772433 0.250000
O O13 0.037936 0.718067 0.139402
O O14 0.738155 0.523323 0.572514
O O15 0.916830 0.451372 0.632040
O O16 0.873913 0.886057 0.834498
O O17 0.882456 0.944597 0.959776
O O18 0.862785 0.719110 0.250000
#
# Coordination Sequence:
#
# PCOD9436163 Si02
#       8
#     8   8   8   8   8   8   8   8
#     4   9  17  31  56  85 118 140 178 233 284 325
#     4  11  23  37  56  83 110 148 195 231 285 334
#     4  11  24  39  54  79 115 151 187 230 284 346
#     4  10  21  34  52  81 114 147 186 232 280 335
#     4   9  17  33  58  81 112 141 178 233 281 320
#     4   8  15  30  52  84 111 138 171 221 284 328
#     4   8  17  34  54  85 110 136 177 237 272 323
#     4  10  19  35  57  80 110 150 190 231 273 333
#
# _framework density 18.355101999999999
#
# number of rings (size 3 to 8) (size 9 to 14) (size 15 to 20)
#    0.000    2.500    1.250    2.625    1.750    1.000 
#    0.000    1.875    0.000    1.500    0.000    0.000 
#    0.000    0.000    0.000    0.000    0.000    0.000 
#
# Total GULP energy -356286.369918 kJ/mol
# GULP energy per Si atom -5566.974530 kJ/mol
# Density = 1.831333 g / cm^3
# Si number density = 18.355102 Si / 1000 Ang^3
#
#
#
# Elastic Constant Matrix: (Units=GPa)
#
#
# Indices 1 2 3 4 5 6 
#
# 1 50.4017 16.5335 12.4971 0.0000 0.0000 0.0000
# 2 16.5335 56.2752 13.8036 0.0000 0.0000 0.0000
# 3 12.4971 13.8036 30.6753 0.0000 0.0000 0.0000
# 4 0.0000 0.0000 0.0000 13.8858 0.0000 0.0000
# 5 0.0000 0.0000 0.0000 0.0000 19.1138 0.0000
# 6 0.0000 0.0000 0.0000 0.0000 0.0000 16.0789
#
#
#
# Elastic Compliance Matrix: (Units=1/GPa)
#
#
# Indices 1 2 3 4 5 6 
#
# 1 0.023292 -0.005076 -0.007205 0.000000 0.000000 0.000000
# 2 -0.005076 0.021081 -0.007418 0.000000 0.000000 0.000000
# 3 -0.007205 -0.007418 0.038873 0.000000 0.000000 0.000000
# 4 0.000000 0.000000 0.000000 0.072016 0.000000 0.000000
# 5 0.000000 0.000000 0.000000 0.000000 0.052318 0.000000
# 6 0.000000 0.000000 0.000000 0.000000 0.000000 0.062193
#
#
# Mechanical properties :
#
#
# Convention : Reuss Voigt Hill
#
# Bulk Modulus (GPa) = 22.80632 24.78006 23.79319
# Shear Modulus (GPa) = 15.44222 16.11690 15.77956
#
# Velocity S-wave (km/s) = 2.90367 2.96642 2.93522
# Velocity P-wave (km/s) = 4.86762 5.02619 4.94754
#
# Compressibility (1/GPa) = 0.04384750
#
# Stress axis : x y z
#
# Youngs Moduli (GPa) = 42.93292 47.43684 25.72476
#
# Poissons Ratio (x) = 0.24078 0.18535
# Poissons Ratio (y) = 0.21792 0.19083
# Poissons Ratio (z) = 0.30934 0.35190
#
# Static dielectric constant tensor:
#      x y z
#    x 1.627720 0.000000 0.000000 
#    y 0.000000 1.675610 0.000000 
#    z 0.000000 0.000000 1.702920 
# 
# From -- ./inp_files/21423.got.cif
#   From: 2010.05.17/outbox.cif.g08.bks.cpg/sg57_11_cif.got.tgz:21423.got - 2010.06.03 13:58:18.
