data_PCOD9436518
_publ_section_title
;
Structure prediction by ZEFSAII (Michael W. Deem and Ramdas Pophale) SiO2 
 PCOD9436518
Probable space group: P B C M
;
_chemical_formula_sum "Si O2"
_cell_formula_units_Z 64
_cell_length_a 14.779475
_cell_length_b 28.092382
_cell_length_c 8.986290
_cell_angle_alpha 90.000000
_cell_angle_beta 90.000000
_cell_angle_gamma 90.000000
_cell_volume 3731.023653
_symmetry_space_group_name_H-M "P B C M"
_symmetry_group_IT_number 57
_symmetry_cell_setting 'orthorhombic'
loop_
_space_group_symop_operation_xyz
x,y,z
-x,-y,1/2+z
x,1/2-y,-z
-x,1/2+y,1/2-z
-x,-y,-z
x,y,1/2-z
-x,1/2+y,z
x,1/2-y,1/2+z
loop_
_atom_site_type_symbol
_atom_site_label
_atom_site_fract_x
_atom_site_fract_y
_atom_site_fract_z
Si Si1 0.696982 0.302321 0.428725
Si Si2 0.359303 0.125590 0.427234
Si Si3 0.508719 0.698265 0.571998
Si Si4 0.007213 0.946900 0.427783
Si Si5 0.440424 0.037689 0.584147
Si Si6 0.199242 0.603378 0.928568
Si Si7 0.828540 0.924202 0.573146
Si Si8 0.750705 0.013377 0.415577
O O1 0.710994 0.250000 0.500000
O O2 0.701209 0.296587 0.250000
O O3 0.593904 0.319703 0.464484
O O4 0.769622 0.343257 0.470970
O O5 0.361116 0.131119 0.250000
O O6 0.406309 0.169748 0.506831
O O7 0.423050 0.082680 0.480998
O O8 0.256440 0.109766 0.468842
O O9 0.511426 0.750000 0.500000
O O10 0.515592 0.699824 0.750000
O O11 0.003540 0.952662 0.250000
O O12 0.921723 0.916644 0.486704
O O13 0.098578 0.917076 0.463491
O O14 0.000000 0.000000 0.500000
O O15 0.473658 0.050816 0.750000
O O16 0.500000 0.000000 0.500000
O O17 0.344523 0.012079 0.600141
O O18 0.210981 0.599617 0.750000
O O19 0.260125 0.565118 0.014708
O O20 0.841057 0.921215 0.750000
O O21 0.802735 0.978300 0.527537
O O22 0.793459 0.015301 0.250000
#
# Coordination Sequence:
#
# PCOD9436518 Si02
#       8
#     8   8   8   8   8   8   8   8
#     4   9  20  38  57  80 107 139 176 219 271 324
#     4  10  21  36  54  77 106 142 180 224 274 325
#     4  10  20  36  59  85 110 141 179 225 274 329
#     4  11  21  33  53  79 109 145 184 226 269 320
#     4  10  21  34  47  70 103 142 182 219 263 319
#     4  10  21  35  53  77 107 142 178 220 274 324
#     4  10  20  35  53  74 107 145 179 222 272 316
#     4  10  20  32  48  73 102 137 181 221 260 313
#
# _framework density 17.153469000000001
#
# number of rings (size 3 to 8) (size 9 to 14) (size 15 to 20)
#    0.000    2.000    1.250    2.250    1.750    4.500 
#    0.000    0.000    0.000    0.750    0.000    3.500 
#    0.000    0.000    0.000    0.000    0.000    0.000 
#
# Total GULP energy -356514.783902 kJ/mol
# GULP energy per Si atom -5570.543498 kJ/mol
# Density = 1.711443 g / cm^3
# Si number density = 17.153469 Si / 1000 Ang^3
#
#
#
# Elastic Constant Matrix: (Units=GPa)
#
#
# Indices 1 2 3 4 5 6 
#
# 1 67.0864 47.3545 37.9600 0.0000 0.0000 0.0000
# 2 47.3545 86.4434 30.3237 0.0000 0.0000 0.0000
# 3 37.9600 30.3237 58.1435 0.0000 0.0000 0.0000
# 4 0.0000 0.0000 0.0000 27.9166 0.0000 0.0000
# 5 0.0000 0.0000 0.0000 0.0000 24.5705 0.0000
# 6 0.0000 0.0000 0.0000 0.0000 0.0000 57.1365
#
#
#
# Elastic Compliance Matrix: (Units=1/GPa)
#
#
# Indices 1 2 3 4 5 6 
#
# 1 0.031694 -0.012366 -0.014243 0.000000 0.000000 0.000000
# 2 -0.012366 0.018983 -0.001827 0.000000 0.000000 0.000000
# 3 -0.014243 -0.001827 0.027450 0.000000 0.000000 0.000000
# 4 0.000000 0.000000 0.000000 0.035821 0.000000 0.000000
# 5 0.000000 0.000000 0.000000 0.000000 0.040699 0.000000
# 6 0.000000 0.000000 0.000000 0.000000 0.000000 0.017502
#
#
# Mechanical properties :
#
#
# Convention : Reuss Voigt Hill
#
# Bulk Modulus (GPa) = 47.04534 49.21665 48.13100
# Shear Modulus (GPa) = 21.17682 28.32706 24.75194
#
# Velocity S-wave (km/s) = 3.51743 4.06814 3.80277
# Velocity P-wave (km/s) = 6.63190 7.12885 6.88486
#
# Compressibility (1/GPa) = 0.02125609
#
# Stress axis : x y z
#
# Youngs Moduli (GPa) = 31.55160 52.67753 36.42939
#
# Poissons Ratio (x) = 0.65141 0.51886
# Poissons Ratio (y) = 0.39017 0.06656
# Poissons Ratio (z) = 0.44938 0.09625
#
# Static dielectric constant tensor:
#      x y z
#    x 1.664340 0.000000 0.000000 
#    y 0.000000 1.546980 0.000000 
#    z 0.000000 0.000000 1.582500 
# 
# From -- ./inp_files/5556.got.cif
#   From: 2010.05.17/outbox.cif.g08.bks.cpg/sg57_3_cif.got.tgz:5556.got - 2010.06.03 13:58:18.
