data_PCOD9436256
_publ_section_title
;
Structure prediction by ZEFSAII (Michael W. Deem and Ramdas Pophale) SiO2 
 PCOD9436256
Probable space group: P B C M
;
_chemical_formula_sum "Si O2"
_cell_formula_units_Z 64
_cell_length_a 13.192413
_cell_length_b 18.359699
_cell_length_c 13.673817
_cell_angle_alpha 90.000000
_cell_angle_beta 90.000000
_cell_angle_gamma 90.000000
_cell_volume 3311.917874
_symmetry_space_group_name_H-M "P B C M"
_symmetry_group_IT_number 57
_symmetry_cell_setting 'orthorhombic'
loop_
_space_group_symop_operation_xyz
x,y,z
-x,-y,1/2+z
x,1/2-y,-z
-x,1/2+y,1/2-z
-x,-y,-z
x,y,1/2-z
-x,1/2+y,z
x,1/2-y,1/2+z
loop_
_atom_site_type_symbol
_atom_site_label
_atom_site_fract_x
_atom_site_fract_y
_atom_site_fract_z
Si Si1 0.618945 0.665179 0.364600
Si Si2 0.906500 0.448589 0.030294
Si Si3 0.048526 0.331268 0.019310
Si Si4 0.760520 0.448888 0.864373
Si Si5 0.453469 0.922571 0.969844
Si Si6 0.172538 0.413665 0.633050
Si Si7 0.459664 0.326654 0.132865
Si Si8 0.762451 0.621875 0.861361
O O1 0.634957 0.672720 0.250000
O O2 0.530549 0.610035 0.390897
O O3 0.724906 0.629165 0.399349
O O4 0.574439 0.744309 0.393430
O O5 0.834901 0.503065 0.092565
O O6 0.847356 0.419177 0.935486
O O7 0.000000 0.500000 0.000000
O O8 0.964060 0.379235 0.074902
O O9 0.080806 0.369774 0.917322
O O10 0.015398 0.250000 0.000000
O O11 0.153649 0.334780 0.079184
O O12 0.760094 0.426694 0.750000
O O13 0.654693 0.432424 0.918286
O O14 0.782644 0.535849 0.866322
O O15 0.459185 0.866414 0.062525
O O16 0.500000 0.000000 0.000000
O O17 0.166226 0.414725 0.750000
O O18 0.483223 0.330743 0.250000
O O19 0.354803 0.368985 0.111959
O O20 0.769517 0.647654 0.750000
#
# Coordination Sequence:
#
# PCOD9436256 Si02
#       8
#     8   8   8   8   8   8   8   8
#     4  10  21  37  58  87 120 159 200 249 307 365
#     4  10  21  40  59  88 117 155 209 258 313 369
#     4  11  22  37  59  89 125 158 201 259 322 385
#     4  11  22  39  62  86 116 158 205 250 295 362
#     4  12  22  35  57  87 123 158 200 243 295 361
#     4  10  20  36  59  89 125 159 201 259 319 373
#     4  10  21  37  58  88 126 161 201 248 305 365
#     4  10  19  35  60  90 119 156 202 251 305 364
#
# _framework density 19.324151000000001
#
# number of rings (size 3 to 8) (size 9 to 14) (size 15 to 20)
#    0.000    1.500    3.750    3.000    0.000    4.500 
#    0.000    1.875    0.000    0.000    0.000    1.750 
#    0.000    0.000    0.000    0.000    0.000    0.000 
#
# Total GULP energy -356619.524567 kJ/mol
# GULP energy per Si atom -5572.180071 kJ/mol
# Density = 1.928017 g / cm^3
# Si number density = 19.324151 Si / 1000 Ang^3
#
#
#
# Elastic Constant Matrix: (Units=GPa)
#
#
# Indices 1 2 3 4 5 6 
#
# 1 69.3952 9.3120 26.3442 0.0000 0.0000 0.0000
# 2 9.3120 83.8415 13.5699 0.0000 0.0000 0.0000
# 3 26.3442 13.5699 90.1743 0.0000 0.0000 0.0000
# 4 0.0000 0.0000 0.0000 25.5743 0.0000 0.0000
# 5 0.0000 0.0000 0.0000 0.0000 17.6419 0.0000
# 6 0.0000 0.0000 0.0000 0.0000 0.0000 28.5227
#
#
#
# Elastic Compliance Matrix: (Units=1/GPa)
#
#
# Indices 1 2 3 4 5 6 
#
# 1 0.016300 -0.001066 -0.004602 0.000000 0.000000 0.000000
# 2 -0.001066 0.012295 -0.001539 0.000000 0.000000 0.000000
# 3 -0.004602 -0.001539 0.012666 0.000000 0.000000 0.000000
# 4 0.000000 0.000000 0.000000 0.039102 0.000000 0.000000
# 5 0.000000 0.000000 0.000000 0.000000 0.056683 0.000000
# 6 0.000000 0.000000 0.000000 0.000000 0.000000 0.035060
#
#
# Mechanical properties :
#
#
# Convention : Reuss Voigt Hill
#
# Bulk Modulus (GPa) = 37.24658 37.98480 37.61569
# Shear Modulus (GPa) = 25.57979 27.29345 26.43662
#
# Velocity S-wave (km/s) = 3.64225 3.76227 3.70274
# Velocity P-wave (km/s) = 6.08312 6.21065 6.14722
#
# Compressibility (1/GPa) = 0.02684810
#
# Stress axis : x y z
#
# Youngs Moduli (GPa) = 61.34916 81.33599 78.95416
#
# Poissons Ratio (x) = 0.08667 0.36332
# Poissons Ratio (y) = 0.06537 0.12150
# Poissons Ratio (z) = 0.28231 0.12516
#
# Static dielectric constant tensor:
#      x y z
#    x 1.679240 0.000000 0.000000 
#    y 0.000000 1.845970 0.000000 
#    z 0.000000 0.000000 1.730990 
# 
# From -- ./inp_files/18002.got.cif
#   From: 2010.05.17/outbox.cif.g08.bks.cpg/sg57_10_cif.got.tgz:18002.got - 2010.06.03 13:58:18.
