data_PCOD9436090
_publ_section_title
;
Structure prediction by ZEFSAII (Michael W. Deem and Ramdas Pophale) SiO2 
 PCOD9436090
Probable space group: P B C M
;
_chemical_formula_sum "Si O2"
_cell_formula_units_Z 48
_cell_length_a 15.058371
_cell_length_b 19.015939
_cell_length_c 8.832526
_cell_angle_alpha 90.000000
_cell_angle_beta 90.000000
_cell_angle_gamma 90.000000
_cell_volume 2529.185556
_symmetry_space_group_name_H-M "P B C M"
_symmetry_group_IT_number 57
_symmetry_cell_setting 'orthorhombic'
loop_
_space_group_symop_operation_xyz
x,y,z
-x,-y,1/2+z
x,1/2-y,-z
-x,1/2+y,1/2-z
-x,-y,-z
x,y,1/2-z
-x,1/2+y,z
x,1/2-y,1/2+z
loop_
_atom_site_type_symbol
_atom_site_label
_atom_site_fract_x
_atom_site_fract_y
_atom_site_fract_z
Si Si1 0.051103 0.098927 0.430860
Si Si2 0.465744 0.826285 0.431382
Si Si3 0.225149 0.324249 0.930906
Si Si4 0.681461 0.081283 0.431207
Si Si5 0.629496 0.925422 0.432233
Si Si6 0.126733 0.943090 0.070229
O O1 0.035291 0.100675 0.250000
O O2 0.123525 0.157295 0.471840
O O3 0.958024 0.101877 0.516572
O O4 0.097961 0.023697 0.464709
O O5 0.485863 0.750000 0.500000
O O6 0.464403 0.821589 0.250000
O O7 0.372827 0.855890 0.492818
O O8 0.541158 0.883025 0.476494
O O9 0.231964 0.322750 0.750000
O O10 0.252293 0.250000 0.000000
O O11 0.288176 0.384811 0.994627
O O12 0.678191 0.087842 0.250000
O O13 0.782881 0.076471 0.486094
O O14 0.634698 0.007164 0.475793
O O15 0.637204 0.922080 0.250000
O O16 0.139728 0.937570 0.250000
#
# Coordination Sequence:
#
# PCOD9436090 Si02
#       6
#     8   8   8   8   8   8
#     4   9  19  35  54  81 115 152 192 238 291 346
#     4  11  24  42  61  85 118 156 198 243 296 354
#     4  11  22  36  56  84 121 159 197 242 296 354
#     4  11  22  38  62  91 120 153 196 246 294 350
#     4  10  22  39  61  89 118 153 197 244 295 350
#     4  10  19  34  58  86 114 148 192 241 291 343
#
# _framework density 18.978441
#
# number of rings (size 3 to 8) (size 9 to 14) (size 15 to 20)
#    0.000    1.667    1.667    3.000    0.000    5.333 
#    0.000    0.833    0.000    2.000    0.000    0.000 
#    0.000    0.000    0.000    0.000    0.000    0.000 
#
# Total GULP energy -268193.211014 kJ/mol
# GULP energy per Si atom -5587.358563 kJ/mol
# Density = 1.893525 g / cm^3
# Si number density = 18.978441 Si / 1000 Ang^3
#
#
#
# Elastic Constant Matrix: (Units=GPa)
#
#
# Indices 1 2 3 4 5 6 
#
# 1 99.4553 15.3150 25.8057 0.0000 0.0000 0.0000
# 2 15.3150 38.4003 12.2825 0.0000 0.0000 0.0000
# 3 25.8057 12.2825 22.6092 0.0000 0.0000 0.0000
# 4 0.0000 0.0000 0.0000 22.9401 0.0000 0.0000
# 5 0.0000 0.0000 0.0000 0.0000 32.0752 0.0000
# 6 0.0000 0.0000 0.0000 0.0000 0.0000 15.9794
#
#
#
# Elastic Compliance Matrix: (Units=1/GPa)
#
#
# Indices 1 2 3 4 5 6 
#
# 1 0.014296 -0.000584 -0.016000 0.000000 0.000000 0.000000
# 2 -0.000584 0.031542 -0.016469 0.000000 0.000000 0.000000
# 3 -0.016000 -0.016469 0.071439 0.000000 0.000000 0.000000
# 4 0.000000 0.000000 0.000000 0.043592 0.000000 0.000000
# 5 0.000000 0.000000 0.000000 0.000000 0.031177 0.000000
# 6 0.000000 0.000000 0.000000 0.000000 0.000000 0.062580
#
#
# Mechanical properties :
#
#
# Convention : Reuss Voigt Hill
#
# Bulk Modulus (GPa) = 19.54225 29.69681 24.61953
# Shear Modulus (GPa) = 14.80215 21.33639 18.06927
#
# Velocity S-wave (km/s) = 2.79578 3.35661 3.08895
# Velocity P-wave (km/s) = 4.55426 5.54113 5.07175
#
# Compressibility (1/GPa) = 0.05117119
#
# Stress axis : x y z
#
# Youngs Moduli (GPa) = 69.94834 31.70383 13.99801
#
# Poissons Ratio (x) = 0.01851 0.22397
# Poissons Ratio (y) = 0.04085 0.23053
# Poissons Ratio (z) = 1.11919 0.52212
#
# Static dielectric constant tensor:
#      x y z
#    x 1.650600 0.000000 0.000000 
#    y 0.000000 1.642280 0.000000 
#    z 0.000000 0.000000 1.622900 
# 
# From -- ./inp_files/4579.got.cif
#   From: 2010.05.17/outbox.cif.g08.bks.cpg/sg57_3_cif.got.tgz:4579.got - 2010.06.03 13:58:18.
