data_PCOD9436685
_publ_section_title
;
Structure prediction by ZEFSAII (Michael W. Deem and Ramdas Pophale) SiO2 
 PCOD9436685
Probable space group: P B C M
;
_chemical_formula_sum "Si O2"
_cell_formula_units_Z 64
_cell_length_a 20.677537
_cell_length_b 20.347421
_cell_length_c 7.653983
_cell_angle_alpha 90.000000
_cell_angle_beta 90.000000
_cell_angle_gamma 90.000000
_cell_volume 3220.295098
_symmetry_space_group_name_H-M "P B C M"
_symmetry_group_IT_number 57
_symmetry_cell_setting 'orthorhombic'
loop_
_space_group_symop_operation_xyz
x,y,z
-x,-y,1/2+z
x,1/2-y,-z
-x,1/2+y,1/2-z
-x,-y,-z
x,y,1/2-z
-x,1/2+y,z
x,1/2-y,1/2+z
loop_
_atom_site_type_symbol
_atom_site_label
_atom_site_fract_x
_atom_site_fract_y
_atom_site_fract_z
Si Si1 0.519013 0.575505 0.540089
Si Si2 0.254893 0.675512 0.541207
Si Si3 0.886090 0.824178 0.542321
Si Si4 0.858707 0.078153 0.046825
Si Si5 0.345808 0.462503 0.038482
Si Si6 0.033212 0.824529 0.960496
Si Si7 0.201514 0.053881 0.956535
Si Si8 0.615844 0.387139 0.041599
O O1 0.500000 0.500000 0.500000
O O2 0.520283 0.583539 0.750000
O O3 0.592790 0.580649 0.475326
O O4 0.457736 0.617082 0.471841
O O5 0.236813 0.750000 0.500000
O O6 0.253491 0.666016 0.750000
O O7 0.204238 0.624412 0.462423
O O8 0.327446 0.659894 0.474776
O O9 0.865374 0.750000 0.500000
O O10 0.888880 0.830841 0.750000
O O11 0.959664 0.832402 0.473667
O O12 0.837753 0.879342 0.475997
O O13 0.875673 0.066782 0.250000
O O14 0.917724 0.120504 0.969963
O O15 0.838746 0.007908 0.968687
O O16 0.346532 0.458762 0.250000
O O17 0.274748 0.443293 0.973304
O O18 0.359657 0.538323 0.990123
O O19 0.031942 0.829393 0.750000
O O20 0.054881 0.750000 0.000000
O O21 0.208813 0.040156 0.750000
O O22 0.612009 0.377198 0.250000
#
# Coordination Sequence:
#
# PCOD9436685 Si02
#       8
#     8   8   8   8   8   8   8   8
#     4   8  14  25  43  67  93 123 160 201 244 290
#     4  11  22  33  47  69 100 139 179 215 257 305
#     4  10  21  38  58  78 100 129 168 210 256 311
#     4  10  20  35  53  75 106 137 170 211 253 302
#     4   9  16  28  48  73 100 131 163 199 250 302
#     4   9  19  35  54  75 100 134 173 213 253 297
#     4  10  20  33  52  79 109 138 166 205 257 306
#     4   9  17  29  45  67  96 128 167 213 252 290
#
# _framework density 19.873954999999999
#
# number of rings (size 3 to 8) (size 9 to 14) (size 15 to 20)
#    0.000    2.500    1.250    1.125    0.000    4.000 
#    0.000    0.000    0.000    0.750    0.000    1.750 
#    0.000    0.000    0.000    0.000    0.000    0.000 
#
# Total GULP energy -356797.446003 kJ/mol
# GULP energy per Si atom -5574.960094 kJ/mol
# Density = 1.982872 g / cm^3
# Si number density = 19.873955 Si / 1000 Ang^3
#
#
#
# Elastic Constant Matrix: (Units=GPa)
#
#
# Indices 1 2 3 4 5 6 
#
# 1 121.7770 66.6674 -4.6421 0.0000 0.0000 0.0000
# 2 66.6674 88.9606 -13.8349 0.0000 0.0000 0.0000
# 3 -4.6421 -13.8349 36.7748 0.0000 0.0000 0.0000
# 4 0.0000 0.0000 0.0000 16.5717 0.0000 0.0000
# 5 0.0000 0.0000 0.0000 0.0000 8.8915 0.0000
# 6 0.0000 0.0000 0.0000 0.0000 0.0000 21.3445
#
#
#
# Elastic Compliance Matrix: (Units=1/GPa)
#
#
# Indices 1 2 3 4 5 6 
#
# 1 0.014110 -0.010937 -0.002334 0.000000 0.000000 0.000000
# 2 -0.010937 0.020417 0.006300 0.000000 0.000000 0.000000
# 3 -0.002334 0.006300 0.029268 0.000000 0.000000 0.000000
# 4 0.000000 0.000000 0.000000 0.060344 0.000000 0.000000
# 5 0.000000 0.000000 0.000000 0.000000 0.112467 0.000000
# 6 0.000000 0.000000 0.000000 0.000000 0.000000 0.046851
#
#
# Mechanical properties :
#
#
# Convention : Reuss Voigt Hill
#
# Bulk Modulus (GPa) = 20.05811 38.21035 29.13423
# Shear Modulus (GPa) = 15.92275 22.64967 19.28621
#
# Velocity S-wave (km/s) = 2.83360 3.37956 3.11855
# Velocity P-wave (km/s) = 4.56292 5.87338 5.25913
#
# Compressibility (1/GPa) = 0.04985514
#
# Stress axis : x y z
#
# Youngs Moduli (GPa) = 70.86927 48.97819 34.16672
#
# Poissons Ratio (x) = 0.53569 0.07973
# Poissons Ratio (y) = 0.77512 -0.21527
# Poissons Ratio (z) = 0.16537 -0.30858
#
# Static dielectric constant tensor:
#      x y z
#    x 1.765210 0.000000 0.000000 
#    y 0.000000 1.646730 0.000000 
#    z 0.000000 0.000000 1.767200 
# 
# From -- ./inp_files/8455.got.cif
#   From: 2010.05.17/outbox.cif.g08.bks.cpg/sg57_5_cif.got.tgz:8455.got - 2010.06.03 13:58:18.
