data_PCOD9436000
_publ_section_title
;
Structure prediction by ZEFSAII (Michael W. Deem and Ramdas Pophale) SiO2 
 PCOD9436000
Probable space group: P B C M
;
_chemical_formula_sum "Si O2"
_cell_formula_units_Z 60
_cell_length_a 21.180161
_cell_length_b 4.960677
_cell_length_c 30.430697
_cell_angle_alpha 90.000000
_cell_angle_beta 90.000000
_cell_angle_gamma 90.000000
_cell_volume 3197.290571
_symmetry_space_group_name_H-M "P B C M"
_symmetry_group_IT_number 57
_symmetry_cell_setting 'orthorhombic'
loop_
_space_group_symop_operation_xyz
x,y,z
-x,-y,1/2+z
x,1/2-y,-z
-x,1/2+y,1/2-z
-x,-y,-z
x,y,1/2-z
-x,1/2+y,z
x,1/2-y,1/2+z
loop_
_atom_site_type_symbol
_atom_site_label
_atom_site_fract_x
_atom_site_fract_y
_atom_site_fract_z
Si Si1 0.787889 0.699222 0.902134
Si Si2 0.958337 0.262530 0.394658
Si Si3 0.453092 0.250000 0.500000
Si Si4 0.283645 0.799973 0.800600
Si Si5 0.332145 0.204290 0.147731
Si Si6 0.834930 0.304672 0.351991
Si Si7 0.128704 0.007151 0.471560
Si Si8 0.454823 0.303997 0.404240
O O1 0.713697 0.729073 0.893645
O O2 0.810595 0.397518 0.891123
O O3 0.816057 0.829815 0.946045
O O4 0.817500 0.890456 0.864343
O O5 0.910161 0.289420 0.353772
O O6 0.919088 0.374104 0.436458
O O7 0.019201 0.455042 0.394703
O O8 0.500000 0.500000 0.500000
O O9 0.421689 0.261185 0.452165
O O10 0.295768 0.739442 0.750000
O O11 0.317344 0.590773 0.833664
O O12 0.208775 0.780626 0.811475
O O13 0.309629 0.090175 0.814572
O O14 0.403445 0.248105 0.132835
O O15 0.097522 0.250000 0.500000
O O16 0.150768 0.750000 0.500000
O O17 0.486538 0.596855 0.401587
#
# Coordination Sequence:
#
# PCOD9436000 Si02
#       8
#     8   8   4   8   8   8   8   8
#     4   9  18  34  51  70  98 135 174 217 265 308
#     4  11  21  33  50  71  98 138 179 211 257 319
#     4   8  16  30  50  72 102 140 182 222 244 284
#     4  10  20  36  61  86 106 134 174 226 273 322
#     4  10  20  35  58  83 110 138 181 221 266 334
#     4   9  18  34  54  73  99 131 168 213 261 315
#     4  11  21  33  48  68 103 138 175 227 271 309
#     4  10  19  34  56  80 112 150 185 220 264 311
#
# _framework density 18.765889999999999
#
# number of rings (size 3 to 8) (size 9 to 14) (size 15 to 20)
#    0.000    2.133    0.000    5.200    0.000    1.600 
#    1.200    0.000    5.867    8.800    0.000    0.000 
#    0.000    0.000    0.000    0.000    0.000    0.000 
#
# Total GULP energy -334227.683120 kJ/mol
# GULP energy per Si atom -5570.461385 kJ/mol
# Density = 1.872318 g / cm^3
# Si number density = 18.765890 Si / 1000 Ang^3
#
#
#
# Elastic Constant Matrix: (Units=GPa)
#
#
# Indices 1 2 3 4 5 6 
#
# 1 48.1234 -12.8375 21.7506 0.0000 0.0000 0.0000
# 2 -12.8375 73.2002 -6.2359 0.0000 0.0000 0.0000
# 3 21.7506 -6.2359 49.6938 0.0000 0.0000 0.0000
# 4 0.0000 0.0000 0.0000 18.4813 0.0000 0.0000
# 5 0.0000 0.0000 0.0000 0.0000 14.3879 0.0000
# 6 0.0000 0.0000 0.0000 0.0000 0.0000 18.9913
#
#
#
# Elastic Compliance Matrix: (Units=1/GPa)
#
#
# Indices 1 2 3 4 5 6 
#
# 1 0.026887 0.003753 -0.011297 0.000000 0.000000 0.000000
# 2 0.003753 0.014333 0.000156 0.000000 0.000000 0.000000
# 3 -0.011297 0.000156 0.025088 0.000000 0.000000 0.000000
# 4 0.000000 0.000000 0.000000 0.054109 0.000000 0.000000
# 5 0.000000 0.000000 0.000000 0.000000 0.069503 0.000000
# 6 0.000000 0.000000 0.000000 0.000000 0.000000 0.052656
#
#
# Mechanical properties :
#
#
# Convention : Reuss Voigt Hill
#
# Bulk Modulus (GPa) = 19.40605 19.59687 19.50146
# Shear Modulus (GPa) = 18.21304 21.59477 19.90390
#
# Velocity S-wave (km/s) = 3.11873 3.39594 3.26028
# Velocity P-wave (km/s) = 4.83034 5.08351 4.95854
#
# Compressibility (1/GPa) = 0.05153032
#
# Stress axis : x y z
#
# Youngs Moduli (GPa) = 37.19241 69.77090 39.86040
#
# Poissons Ratio (x) = -0.26185 0.45032
# Poissons Ratio (y) = -0.13958 -0.00621
# Poissons Ratio (z) = 0.42018 -0.01088
#
# Static dielectric constant tensor:
#      x y z
#    x 1.662840 0.000000 0.000000 
#    y 0.000000 1.637930 0.000000 
#    z 0.000000 0.000000 1.681860 
# 
# From -- ./inp_files/29973.got.cif
#   From: 2010.05.17/outbox.cif.g08.bks.cpg/sg57_15_cif.got.tgz:29973.got - 2010.06.03 13:58:18.
