data_PCOD9436507
_publ_section_title
;
Structure prediction by ZEFSAII (Michael W. Deem and Ramdas Pophale) SiO2 
 PCOD9436507
Probable space group: P B C M
;
_chemical_formula_sum "Si O2"
_cell_formula_units_Z 56
_cell_length_a 18.077104
_cell_length_b 20.221244
_cell_length_c 7.520932
_cell_angle_alpha 90.000000
_cell_angle_beta 90.000000
_cell_angle_gamma 90.000000
_cell_volume 2749.212996
_symmetry_space_group_name_H-M "P B C M"
_symmetry_group_IT_number 57
_symmetry_cell_setting 'orthorhombic'
loop_
_space_group_symop_operation_xyz
x,y,z
-x,-y,1/2+z
x,1/2-y,-z
-x,1/2+y,1/2-z
-x,-y,-z
x,y,1/2-z
-x,1/2+y,z
x,1/2-y,1/2+z
loop_
_atom_site_type_symbol
_atom_site_label
_atom_site_fract_x
_atom_site_fract_y
_atom_site_fract_z
Si Si1 0.683870 0.584060 0.965189
Si Si2 0.271786 0.936409 0.460309
Si Si3 0.550332 0.674199 0.963100
Si Si4 0.382668 0.825646 0.463430
Si Si5 0.041611 0.396956 0.456875
Si Si6 0.181124 0.174444 0.536759
Si Si7 0.894056 0.040979 0.967168
O O1 0.683854 0.586657 0.750000
O O2 0.610575 0.621985 0.029209
O O3 0.755825 0.624551 0.029299
O O4 0.690850 0.507914 0.016747
O O5 0.264065 0.923971 0.250000
O O6 0.324224 0.878821 0.533544
O O7 0.187844 0.940649 0.529877
O O8 0.547595 0.667360 0.750000
O O9 0.466689 0.664797 0.031915
O O10 0.573011 0.750000 0.000000
O O11 0.361040 0.750000 0.500000
O O12 0.386267 0.833473 0.250000
O O13 0.031009 0.380011 0.250000
O O14 0.099998 0.345103 0.534702
O O15 0.082963 0.467837 0.470181
O O16 0.959527 0.410067 0.529490
O O17 0.200277 0.250000 0.500000
O O18 0.178505 0.166027 0.750000
O O19 0.895083 0.039033 0.750000
#
# Coordination Sequence:
#
# PCOD9436507 Si02
#       7
#     8   8   8   8   8   8   8
#     4  10  20  33  49  73 102 131 166 205 248 294
#     4  10  20  33  51  76 103 129 162 206 250 296
#     4   9  18  33  52  72  98 133 170 206 244 292
#     4   9  19  36  54  73  98 129 166 206 250 297
#     4   9  17  31  49  69  94 125 162 202 241 285
#     4  10  20  32  47  69 100 133 163 202 246 292
#     4   9  17  30  50  72  94 124 160 199 243 289
#
# _framework density 20.369467
#
# number of rings (size 3 to 8) (size 9 to 14) (size 15 to 20)
#    0.000    2.571    1.429    0.429    0.000    2.857 
#    0.000    0.714    0.000    0.000    0.000    0.000 
#    0.000    0.000    0.000    0.000    0.000    0.000 
#
# Total GULP energy -312457.256316 kJ/mol
# GULP energy per Si atom -5579.593863 kJ/mol
# Density = 2.032310 g / cm^3
# Si number density = 20.369467 Si / 1000 Ang^3
#
#
#
# Elastic Constant Matrix: (Units=GPa)
#
#
# Indices 1 2 3 4 5 6 
#
# 1 153.7029 90.3438 -1.7044 0.0000 0.0000 0.0000
# 2 90.3438 115.1368 -13.5262 0.0000 0.0000 0.0000
# 3 -1.7044 -13.5262 51.4024 0.0000 0.0000 0.0000
# 4 0.0000 0.0000 0.0000 18.7054 0.0000 0.0000
# 5 0.0000 0.0000 0.0000 0.0000 -12.5150 0.0000
# 6 0.0000 0.0000 0.0000 0.0000 0.0000 28.7323
#
#
#
# Elastic Compliance Matrix: (Units=1/GPa)
#
#
# Indices 1 2 3 4 5 6 
#
# 1 0.012312 -0.009920 -0.002202 0.000000 0.000000 0.000000
# 2 -0.009920 0.016954 0.004133 0.000000 0.000000 0.000000
# 3 -0.002202 0.004133 0.020469 0.000000 0.000000 0.000000
# 4 0.000000 0.000000 0.000000 0.053461 0.000000 0.000000
# 5 0.000000 0.000000 0.000000 0.000000 -0.079904 0.000000
# 6 0.000000 0.000000 0.000000 0.000000 0.000000 0.034804
#
#
# Mechanical properties :
#
#
# Convention : Reuss Voigt Hill
#
# Bulk Modulus (GPa) = 29.62346 52.27427 40.94886
# Shear Modulus (GPa) = 58.59860 23.32649 40.96254
#
# Velocity S-wave (km/s) = 5.36939 3.38771 4.48926
# Velocity P-wave (km/s) = 7.28114 6.40475 6.85696
#
# Compressibility (1/GPa) = 0.03375703
#
# Stress axis : x y z
#
# Youngs Moduli (GPa) = 81.21996 58.98168 48.85493
#
# Poissons Ratio (x) = 0.58508 0.10758
# Poissons Ratio (y) = 0.80568 -0.20189
# Poissons Ratio (z) = 0.17885 -0.24374
#
# Static dielectric constant tensor:
#      x y z
#    x 1.758160 0.000000 0.000000 
#    y 0.000000 1.673800 0.000000 
#    z 0.000000 0.000000 1.748450 
# 
# From -- ./inp_files/7041.got.cif
#   From: 2010.05.17/outbox.cif.g08.bks.cpg/sg57_4_cif.got.tgz:7041.got - 2010.06.03 13:58:18.
