data_PCOD9436174
_publ_section_title
;
Structure prediction by ZEFSAII (Michael W. Deem and Ramdas Pophale) SiO2 
 PCOD9436174
Probable space group: P B C M
;
_chemical_formula_sum "Si O2"
_cell_formula_units_Z 48
_cell_length_a 14.988609
_cell_length_b 18.687965
_cell_length_c 9.088729
_cell_angle_alpha 90.000000
_cell_angle_beta 90.000000
_cell_angle_gamma 90.000000
_cell_volume 2545.812982
_symmetry_space_group_name_H-M "P B C M"
_symmetry_group_IT_number 57
_symmetry_cell_setting 'orthorhombic'
loop_
_space_group_symop_operation_xyz
x,y,z
-x,-y,1/2+z
x,1/2-y,-z
-x,1/2+y,1/2-z
-x,-y,-z
x,y,1/2-z
-x,1/2+y,z
x,1/2-y,1/2+z
loop_
_atom_site_type_symbol
_atom_site_label
_atom_site_fract_x
_atom_site_fract_y
_atom_site_fract_z
Si Si1 0.115310 0.562669 0.923657
Si Si2 0.061768 0.396532 0.922676
Si Si3 0.221447 0.323798 0.075313
Si Si4 0.362302 0.075060 0.424601
Si Si5 0.469548 0.824463 0.575825
Si Si6 0.679109 0.087469 0.925660
O O1 0.101656 0.577650 0.750000
O O2 0.100959 0.477175 0.941774
O O3 0.216045 0.583686 0.963332
O O4 0.039048 0.600449 0.018652
O O5 0.066027 0.378989 0.750000
O O6 0.123651 0.344202 0.016032
O O7 0.222928 0.317651 0.250000
O O8 0.250444 0.250000 0.000000
O O9 0.287334 0.385483 0.018929
O O10 0.340239 0.082328 0.250000
O O11 0.455045 0.115465 0.451923
O O12 0.361936 0.990966 0.457929
O O13 0.495025 0.750000 0.500000
O O14 0.462954 0.813929 0.750000
O O15 0.377073 0.853425 0.510392
O O16 0.671963 0.099190 0.750000
#
# Coordination Sequence:
#
# PCOD9436174 Si02
#       6
#     8   8   8   8   8   8
#     4   9  18  34  58  86 116 151 189 236 288 342
#     4  10  19  35  57  83 118 153 191 238 287 344
#     4  12  24  37  57  85 120 159 200 245 298 359
#     4  10  21  40  62  88 119 153 194 245 299 353
#     4  11  24  40  60  85 118 157 200 244 295 355
#     4  10  20  38  63  89 121 154 192 245 296 347
#
# _framework density 18.854489000000001
#
# number of rings (size 3 to 8) (size 9 to 14) (size 15 to 20)
#    0.000    1.667    1.667    3.500    0.000    4.667 
#    0.000    0.833    0.000    4.000    0.000    0.000 
#    0.000    0.000    0.000    0.000    0.000    0.000 
#
# Total GULP energy -268248.435617 kJ/mol
# GULP energy per Si atom -5588.509075 kJ/mol
# Density = 1.881158 g / cm^3
# Si number density = 18.854489 Si / 1000 Ang^3
#
#
#
# Elastic Constant Matrix: (Units=GPa)
#
#
# Indices 1 2 3 4 5 6 
#
# 1 90.9391 7.8257 39.9431 0.0000 0.0000 0.0000
# 2 7.8257 26.0727 22.2190 0.0000 0.0000 0.0000
# 3 39.9431 22.2190 58.4119 0.0000 0.0000 0.0000
# 4 0.0000 0.0000 0.0000 27.4187 0.0000 0.0000
# 5 0.0000 0.0000 0.0000 0.0000 32.6312 0.0000
# 6 0.0000 0.0000 0.0000 0.0000 0.0000 10.2614
#
#
#
# Elastic Compliance Matrix: (Units=1/GPa)
#
#
# Indices 1 2 3 4 5 6 
#
# 1 0.016517 0.006906 -0.013922 0.000000 0.000000 0.000000
# 2 0.006906 0.059638 -0.027408 0.000000 0.000000 0.000000
# 3 -0.013922 -0.027408 0.037065 0.000000 0.000000 0.000000
# 4 0.000000 0.000000 0.000000 0.036471 0.000000 0.000000
# 5 0.000000 0.000000 0.000000 0.000000 0.030646 0.000000
# 6 0.000000 0.000000 0.000000 0.000000 0.000000 0.097453
#
#
# Mechanical properties :
#
#
# Convention : Reuss Voigt Hill
#
# Bulk Modulus (GPa) = 22.53588 35.04434 28.79011
# Shear Modulus (GPa) = 13.83401 21.09133 17.46267
#
# Velocity S-wave (km/s) = 2.71167 3.34823 3.04662
# Velocity P-wave (km/s) = 4.66720 5.79436 5.26105
#
# Compressibility (1/GPa) = 0.04437369
#
# Stress axis : x y z
#
# Youngs Moduli (GPa) = 60.54443 16.76770 26.97945
#
# Poissons Ratio (x) = -0.11580 0.37560
# Poissons Ratio (y) = -0.41814 0.73946
# Poissons Ratio (z) = 0.84287 0.45957
#
# Static dielectric constant tensor:
#      x y z
#    x 1.651480 0.000000 0.000000 
#    y 0.000000 1.640440 0.000000 
#    z 0.000000 0.000000 1.623370 
# 
# From -- ./inp_files/4580.got.cif
#   From: 2010.05.17/outbox.cif.g08.bks.cpg/sg57_3_cif.got.tgz:4580.got - 2010.06.03 13:58:18.
