data_PCOD9436069
_publ_section_title
;
Structure prediction by ZEFSAII (Michael W. Deem and Ramdas Pophale) SiO2 
 PCOD9436069
Probable space group: P B C M
;
_chemical_formula_sum "Si O2"
_cell_formula_units_Z 64
_cell_length_a 13.223518
_cell_length_b 14.880914
_cell_length_c 17.066792
_cell_angle_alpha 90.000000
_cell_angle_beta 90.000000
_cell_angle_gamma 90.000000
_cell_volume 3358.369779
_symmetry_space_group_name_H-M "P B C M"
_symmetry_group_IT_number 57
_symmetry_cell_setting 'orthorhombic'
loop_
_space_group_symop_operation_xyz
x,y,z
-x,-y,1/2+z
x,1/2-y,-z
-x,1/2+y,1/2-z
-x,-y,-z
x,y,1/2-z
-x,1/2+y,z
x,1/2-y,1/2+z
loop_
_atom_site_type_symbol
_atom_site_label
_atom_site_fract_x
_atom_site_fract_y
_atom_site_fract_z
Si Si1 0.622926 0.260958 0.841557
Si Si2 0.852926 0.661685 0.838334
Si Si3 0.433869 0.921973 0.086578
Si Si4 0.110501 0.028996 0.524758
Si Si5 0.366929 0.421495 0.339006
Si Si6 0.702694 0.087907 0.067195
Si Si7 0.784138 0.682919 0.427515
Si Si8 0.580805 0.877455 0.656525
O O1 0.645221 0.272720 0.750000
O O2 0.618167 0.156344 0.862889
O O3 0.699902 0.312751 0.898127
O O4 0.515457 0.312124 0.857476
O O5 0.889009 0.652892 0.750000
O O6 0.898762 0.589074 0.896815
O O7 0.732278 0.639544 0.839891
O O8 0.859691 0.761955 0.871388
O O9 0.552210 0.895402 0.094750
O O10 0.432103 0.021704 0.122984
O O11 0.379624 0.921713 0.002626
O O12 0.164850 0.093909 0.461923
O O13 0.189048 0.947970 0.539223
O O14 0.000000 0.000000 0.500000
O O15 0.409640 0.418466 0.250000
O O16 0.330561 0.521058 0.362282
O O17 0.764256 0.750000 0.500000
O O18 0.680929 0.660629 0.383634
O O19 0.593496 0.882191 0.750000
#
# Coordination Sequence:
#
# PCOD9436069 Si02
#       8
#     8   8   8   8   8   8   8   8
#     4  11  24  38  56  86 125 167 201 233 285 356
#     4   9  19  36  63  93 118 148 198 248 294 351
#     4  12  22  36  56  88 125 163 201 235 284 350
#     4  10  22  42  65  85 113 152 197 252 313 362
#     4  10  19  34  57  85 121 161 195 235 283 341
#     4  11  22  38  58  83 111 154 203 245 290 349
#     4  10  20  37  61  90 118 151 196 253 298 348
#     4  11  22  37  59  85 126 166 197 239 293 348
#
# _framework density 19.056865999999999
#
# number of rings (size 3 to 8) (size 9 to 14) (size 15 to 20)
#    0.000    1.500    2.500    3.375    0.000    3.500 
#    0.000    5.000    0.000    1.500    0.000    0.000 
#    0.000    0.000    0.000    0.000    0.000    0.000 
#
# Total GULP energy -357415.759378 kJ/mol
# GULP energy per Si atom -5584.621240 kJ/mol
# Density = 1.901349 g / cm^3
# Si number density = 19.056866 Si / 1000 Ang^3
#
#
#
# Elastic Constant Matrix: (Units=GPa)
#
#
# Indices 1 2 3 4 5 6 
#
# 1 67.3335 31.0605 39.8561 0.0000 0.0000 0.0000
# 2 31.0605 87.7464 33.7529 0.0000 0.0000 0.0000
# 3 39.8561 33.7529 106.1302 0.0000 0.0000 0.0000
# 4 0.0000 0.0000 0.0000 16.7648 0.0000 0.0000
# 5 0.0000 0.0000 0.0000 0.0000 11.3593 0.0000
# 6 0.0000 0.0000 0.0000 0.0000 0.0000 9.9895
#
#
#
# Elastic Compliance Matrix: (Units=1/GPa)
#
#
# Indices 1 2 3 4 5 6 
#
# 1 0.020843 -0.004976 -0.006245 0.000000 0.000000 0.000000
# 2 -0.004976 0.014173 -0.002639 0.000000 0.000000 0.000000
# 3 -0.006245 -0.002639 0.012607 0.000000 0.000000 0.000000
# 4 0.000000 0.000000 0.000000 0.059649 0.000000 0.000000
# 5 0.000000 0.000000 0.000000 0.000000 0.088034 0.000000
# 6 0.000000 0.000000 0.000000 0.000000 0.000000 0.100106
#
#
# Mechanical properties :
#
#
# Convention : Reuss Voigt Hill
#
# Bulk Modulus (GPa) = 50.24192 52.28323 51.26258
# Shear Modulus (GPa) = 15.16231 18.05875 16.61053
#
# Velocity S-wave (km/s) = 2.82376 3.08169 2.95554
# Velocity P-wave (km/s) = 6.08711 6.33698 6.21330
#
# Compressibility (1/GPa) = 0.01990370
#
# Stress axis : x y z
#
# Youngs Moduli (GPa) = 47.97699 70.55719 79.32191
#
# Poissons Ratio (x) = 0.35109 0.49537
# Poissons Ratio (y) = 0.23873 0.20931
# Poissons Ratio (z) = 0.29962 0.18619
#
# Static dielectric constant tensor:
#      x y z
#    x 1.654110 0.000000 0.000000 
#    y 0.000000 1.707600 0.000000 
#    z 0.000000 0.000000 1.686410 
# 
# From -- ./inp_files/22017.got.cif
#   From: 2010.05.17/outbox.cif.g08.bks.cpg/sg57_12_cif.got.tgz:22017.got - 2010.06.03 13:58:18.
