data_PCOD9436669
_publ_section_title
;
Structure prediction by ZEFSAII (Michael W. Deem and Ramdas Pophale) SiO2 
 PCOD9436669
Probable space group: P B C M
;
_chemical_formula_sum "Si O2"
_cell_formula_units_Z 48
_cell_length_a 19.311146
_cell_length_b 5.251945
_cell_length_c 24.538783
_cell_angle_alpha 90.000000
_cell_angle_beta 90.000000
_cell_angle_gamma 90.000000
_cell_volume 2488.749792
_symmetry_space_group_name_H-M "P B C M"
_symmetry_group_IT_number 57
_symmetry_cell_setting 'orthorhombic'
loop_
_space_group_symop_operation_xyz
x,y,z
-x,-y,1/2+z
x,1/2-y,-z
-x,1/2+y,1/2-z
-x,-y,-z
x,y,1/2-z
-x,1/2+y,z
x,1/2-y,1/2+z
loop_
_atom_site_type_symbol
_atom_site_label
_atom_site_fract_x
_atom_site_fract_y
_atom_site_fract_z
Si Si1 0.180751 0.852008 0.883039
Si Si2 0.222349 0.150279 0.061466
Si Si3 0.044572 0.767569 0.314631
Si Si4 0.577212 0.998611 0.975512
Si Si5 0.322943 0.636372 0.186174
Si Si6 0.364575 0.134880 0.368839
O O1 0.193048 0.633217 0.928540
O O2 0.113558 0.778531 0.848800
O O3 0.248172 0.857870 0.843516
O O4 0.177034 0.133604 0.908231
O O5 0.295934 0.141896 0.093005
O O6 0.228438 0.250000 0.000000
O O7 0.060861 0.757516 0.250000
O O8 0.990749 0.539053 0.325972
O O9 0.577119 0.960280 0.911096
O O10 0.611894 0.750000 0.000000
O O11 0.612235 0.250000 0.000000
O O12 0.500000 0.000000 0.000000
O O13 0.315648 0.584016 0.250000
O O14 0.367989 0.413119 0.157632
O O15 0.354767 0.914214 0.175345
#
# Coordination Sequence:
#
# PCOD9436669 Si02
#       6
#     8   8   8   8   8   8
#     4  10  20  34  53  76 105 138 173 218 267 325
#     4  10  20  33  52  76 105 139 172 214 269 320
#     4  10  20  34  54  77 100 131 173 222 270 313
#     4  10  20  34  54  82 110 139 173 219 266 307
#     4  10  20  34  53  80 111 143 175 214 269 327
#     4  10  20  33  53  81 110 140 177 218 265 317
#
# _framework density 19.286792999999999
#
# number of rings (size 3 to 8) (size 9 to 14) (size 15 to 20)
#    0.000    2.000    0.000    4.000    0.000    2.667 
#    0.000    5.000    0.000   10.000    0.000   46.667 
#    0.000    0.000    0.000    0.000    0.000    0.000 
#
# Total GULP energy -267725.542035 kJ/mol
# GULP energy per Si atom -5577.615459 kJ/mol
# Density = 1.924290 g / cm^3
# Si number density = 19.286793 Si / 1000 Ang^3
#
#
#
# Elastic Constant Matrix: (Units=GPa)
#
#
# Indices 1 2 3 4 5 6 
#
# 1 39.9848 4.3334 17.3728 0.0000 0.0000 0.0000
# 2 4.3334 123.9119 26.1759 0.0000 0.0000 0.0000
# 3 17.3728 26.1759 92.9732 0.0000 0.0000 0.0000
# 4 0.0000 0.0000 0.0000 31.8414 0.0000 0.0000
# 5 0.0000 0.0000 0.0000 0.0000 27.7357 0.0000
# 6 0.0000 0.0000 0.0000 0.0000 0.0000 -39.9698
#
#
#
# Elastic Compliance Matrix: (Units=1/GPa)
#
#
# Indices 1 2 3 4 5 6 
#
# 1 0.027221 0.000130 -0.005123 0.000000 0.000000 0.000000
# 2 0.000130 0.008581 -0.002440 0.000000 0.000000 0.000000
# 3 -0.005123 -0.002440 0.012400 0.000000 0.000000 0.000000
# 4 0.000000 0.000000 0.000000 0.031406 0.000000 0.000000
# 5 0.000000 0.000000 0.000000 0.000000 0.036055 0.000000
# 6 0.000000 0.000000 0.000000 0.000000 0.000000 -0.025019
#
#
# Mechanical properties :
#
#
# Convention : Reuss Voigt Hill
#
# Bulk Modulus (GPa) = 29.99738 39.18154 34.58946
# Shear Modulus (GPa) = 42.87328 17.85396 30.36362
#
# Velocity S-wave (km/s) = 4.71992 3.04585 3.97208
# Velocity P-wave (km/s) = 6.72983 5.72092 6.24578
#
# Compressibility (1/GPa) = 0.03333624
#
# Stress axis : x y z
#
# Youngs Moduli (GPa) = 36.73587 116.53377 80.64420
#
# Poissons Ratio (x) = -0.01518 0.41316
# Poissons Ratio (y) = -0.00479 0.19680
# Poissons Ratio (z) = 0.18821 0.28438
#
# Static dielectric constant tensor:
#      x y z
#    x 1.630320 0.000000 0.000000 
#    y 0.000000 1.714410 0.000000 
#    z 0.000000 0.000000 1.674700 
# 
# From -- ./inp_files/25701.got.cif
#   From: 2010.05.17/outbox.cif.g08.bks.cpg/sg57_13_cif.got.tgz:25701.got - 2010.06.03 13:58:18.
