data_PCOD9436377
_publ_section_title
;
Structure prediction by ZEFSAII (Michael W. Deem and Ramdas Pophale) SiO2 
 PCOD9436377
Probable space group: P B C M
;
_chemical_formula_sum "Si O2"
_cell_formula_units_Z 64
_cell_length_a 13.746913
_cell_length_b 9.036755
_cell_length_c 27.293608
_cell_angle_alpha 90.000000
_cell_angle_beta 90.000000
_cell_angle_gamma 90.000000
_cell_volume 3390.616273
_symmetry_space_group_name_H-M "P B C M"
_symmetry_group_IT_number 57
_symmetry_cell_setting 'orthorhombic'
loop_
_space_group_symop_operation_xyz
x,y,z
-x,-y,1/2+z
x,1/2-y,-z
-x,1/2+y,1/2-z
-x,-y,-z
x,y,1/2-z
-x,1/2+y,z
x,1/2-y,1/2+z
loop_
_atom_site_type_symbol
_atom_site_label
_atom_site_fract_x
_atom_site_fract_y
_atom_site_fract_z
Si Si1 0.236448 0.567186 0.305101
Si Si2 0.551137 0.145843 0.546655
Si Si3 0.124512 0.861487 0.194067
Si Si4 0.409556 0.762612 0.850798
Si Si5 0.581752 0.939060 0.806031
Si Si6 0.227327 0.403056 0.641950
Si Si7 0.903725 0.691993 0.808335
Si Si8 0.642419 0.681822 0.049411
O O1 0.275088 0.547673 0.250000
O O2 0.152418 0.690129 0.303382
O O3 0.323588 0.627978 0.336650
O O4 0.182517 0.420755 0.320554
O O5 0.574301 0.250000 0.500000
O O6 0.605162 0.203922 0.594667
O O7 0.438724 0.189966 0.559930
O O8 0.581508 0.973100 0.540325
O O9 0.143705 0.920356 0.250000
O O10 0.010542 0.872706 0.183220
O O11 0.195193 0.928845 0.152922
O O12 0.415414 0.614612 0.817461
O O13 0.507267 0.857148 0.842072
O O14 0.553787 0.913491 0.750000
O O15 0.688428 0.875985 0.817738
O O16 0.126556 0.326300 0.657323
O O17 0.278928 0.356396 0.591389
O O18 0.900254 0.726319 0.750000
O O19 0.689172 0.750000 0.000000
#
# Coordination Sequence:
#
# PCOD9436377 Si02
#       8
#     8   8   8   8   8   8   8   8
#     4  10  20  34  52  77 114 151 191 237 284 346
#     4  11  21  39  60  83 115 158 206 254 296 341
#     4  10  19  37  59  82 114 152 195 242 296 349
#     4  12  23  39  54  83 118 159 199 239 286 355
#     4  12  24  37  55  81 121 165 195 230 285 356
#     4  12  22  38  60  85 119 153 200 245 297 360
#     4  10  22  35  56  87 115 151 195 243 292 352
#     4  11  23  39  60  87 115 155 201 256 307 352
#
# _framework density 18.875626
#
# number of rings (size 3 to 8) (size 9 to 14) (size 15 to 20)
#    0.000    1.000    3.750    4.500    1.750    4.000 
#    0.000    0.000    0.000    0.750    0.000    1.750 
#    0.000    0.000    0.000    0.000    0.000    0.000 
#
# Total GULP energy -356796.180161 kJ/mol
# GULP energy per Si atom -5574.940315 kJ/mol
# Density = 1.883266 g / cm^3
# Si number density = 18.875626 Si / 1000 Ang^3
#
#
#
# Elastic Constant Matrix: (Units=GPa)
#
#
# Indices 1 2 3 4 5 6 
#
# 1 76.9970 12.0389 15.1938 0.0000 0.0000 0.0000
# 2 12.0389 43.0736 1.0215 0.0000 0.0000 0.0000
# 3 15.1938 1.0215 39.9503 0.0000 0.0000 0.0000
# 4 0.0000 0.0000 0.0000 21.3051 0.0000 0.0000
# 5 0.0000 0.0000 0.0000 0.0000 22.2770 0.0000
# 6 0.0000 0.0000 0.0000 0.0000 0.0000 11.9243
#
#
#
# Elastic Compliance Matrix: (Units=1/GPa)
#
#
# Indices 1 2 3 4 5 6 
#
# 1 0.014692 -0.003976 -0.005486 0.000000 0.000000 0.000000
# 2 -0.003976 0.024306 0.000891 0.000000 0.000000 0.000000
# 3 -0.005486 0.000891 0.027095 0.000000 0.000000 0.000000
# 4 0.000000 0.000000 0.000000 0.046937 0.000000 0.000000
# 5 0.000000 0.000000 0.000000 0.000000 0.044889 0.000000
# 6 0.000000 0.000000 0.000000 0.000000 0.000000 0.083862
#
#
# Mechanical properties :
#
#
# Convention : Reuss Voigt Hill
#
# Bulk Modulus (GPa) = 20.42899 24.05882 22.24390
# Shear Modulus (GPa) = 18.16590 19.88573 19.02581
#
# Velocity S-wave (km/s) = 3.10562 3.24931 3.17828
# Velocity P-wave (km/s) = 4.86891 5.18179 5.02779
#
# Compressibility (1/GPa) = 0.04895005
#
# Stress axis : x y z
#
# Youngs Moduli (GPa) = 68.06542 41.14162 36.90755
#
# Poissons Ratio (x) = 0.16359 0.20247
# Poissons Ratio (y) = 0.27064 -0.03287
# Poissons Ratio (z) = 0.37340 -0.03665
#
# Static dielectric constant tensor:
#      x y z
#    x 1.666960 0.000000 0.000000 
#    y 0.000000 1.836850 0.000000 
#    z 0.000000 0.000000 1.674100 
# 
# From -- ./inp_files/29766.got.cif
#   From: 2010.05.17/outbox.cif.g08.bks.cpg/sg57_15_cif.got.tgz:29766.got - 2010.06.03 13:58:18.
