data_PCOD9436932
_publ_section_title
;
Structure prediction by ZEFSAII (Michael W. Deem and Ramdas Pophale) SiO2 
 PCOD9436932
Probable space group: P B C M
;
_chemical_formula_sum "Si O2"
_cell_formula_units_Z 56
_cell_length_a 12.082089
_cell_length_b 11.256961
_cell_length_c 23.493227
_cell_angle_alpha 90.000000
_cell_angle_beta 90.000000
_cell_angle_gamma 90.000000
_cell_volume 3195.257530
_symmetry_space_group_name_H-M "P B C M"
_symmetry_group_IT_number 57
_symmetry_cell_setting 'orthorhombic'
loop_
_space_group_symop_operation_xyz
x,y,z
-x,-y,1/2+z
x,1/2-y,-z
-x,1/2+y,1/2-z
-x,-y,-z
x,y,1/2-z
-x,1/2+y,z
x,1/2-y,1/2+z
loop_
_atom_site_type_symbol
_atom_site_label
_atom_site_fract_x
_atom_site_fract_y
_atom_site_fract_z
Si Si1 0.908113 0.417571 0.318651
Si Si2 0.703803 0.270871 0.184866
Si Si3 0.414308 0.972204 0.370661
Si Si4 0.590193 0.391610 0.493413
Si Si5 0.836963 0.899241 0.182071
Si Si6 0.748465 0.633152 0.182590
Si Si7 0.338650 0.548663 0.387180
O O1 0.909250 0.412932 0.250000
O O2 0.825781 0.311217 0.335834
O O3 0.845643 0.539844 0.333335
O O4 0.034823 0.407995 0.336074
O O5 0.711113 0.231371 0.250000
O O6 0.627273 0.386736 0.179325
O O7 0.652186 0.171686 0.145962
O O8 0.368826 0.915252 0.429408
O O9 0.545671 0.980705 0.376338
O O10 0.356692 0.097560 0.355879
O O11 0.556595 0.250000 0.500000
O O12 0.500000 0.500000 0.500000
O O13 0.671021 0.421263 0.545994
O O14 0.828890 0.930431 0.250000
O O15 0.792382 0.765560 0.175692
O O16 0.761622 0.980805 0.142434
O O17 0.722990 0.617275 0.250000
#
# Coordination Sequence:
#
# PCOD9436932 Si02
#       7
#     8   8   8   8   8   8   8
#     4   8  17  34  54  78 108 149 191 225 273 344
#     4  10  20  34  55  81 112 147 180 221 284 345
#     4  10  21  37  56  79 112 149 188 227 287 341
#     4  10  21  39  61  82 111 154 200 245 282 338
#     4  10  21  34  54  85 118 148 187 239 288 342
#     4   9  19  35  55  80 113 152 184 226 292 350
#     4  11  23  34  55  86 111 143 193 233 286 333
#
# _framework density 17.525974000000001
#
# number of rings (size 3 to 8) (size 9 to 14) (size 15 to 20)
#    0.000    2.286    1.429    1.714    4.000    3.429 
#    0.000    0.000    0.000    3.429    7.429    0.000 
#    0.000    0.000    0.000    0.000    0.000    0.000 
#
# Total GULP energy -311735.830192 kJ/mol
# GULP energy per Si atom -5566.711253 kJ/mol
# Density = 1.748608 g / cm^3
# Si number density = 17.525974 Si / 1000 Ang^3
#
#
#
# Elastic Constant Matrix: (Units=GPa)
#
#
# Indices 1 2 3 4 5 6 
#
# 1 64.0510 -5.2014 16.1923 0.0000 0.0000 0.0000
# 2 -5.2014 48.5465 15.1012 0.0000 0.0000 0.0000
# 3 16.1923 15.1012 64.0131 0.0000 0.0000 0.0000
# 4 0.0000 0.0000 0.0000 27.0784 0.0000 0.0000
# 5 0.0000 0.0000 0.0000 0.0000 5.1444 0.0000
# 6 0.0000 0.0000 0.0000 0.0000 0.0000 17.9939
#
#
#
# Elastic Compliance Matrix: (Units=1/GPa)
#
#
# Indices 1 2 3 4 5 6 
#
# 1 0.017198 0.003449 -0.005164 0.000000 0.000000 0.000000
# 2 0.003449 0.022922 -0.006280 0.000000 0.000000 0.000000
# 3 -0.005164 -0.006280 0.018410 0.000000 0.000000 0.000000
# 4 0.000000 0.000000 0.000000 0.036930 0.000000 0.000000
# 5 0.000000 0.000000 0.000000 0.000000 0.194385 0.000000
# 6 0.000000 0.000000 0.000000 0.000000 0.000000 0.055574
#
#
# Mechanical properties :
#
#
# Convention : Reuss Voigt Hill
#
# Bulk Modulus (GPa) = 23.50745 25.42167 24.46456
# Shear Modulus (GPa) = 13.31243 20.07789 16.69516
#
# Velocity S-wave (km/s) = 2.75904 3.38835 3.08976
# Velocity P-wave (km/s) = 4.85714 5.46302 5.16896
#
# Compressibility (1/GPa) = 0.04253971
#
# Stress axis : x y z
#
# Youngs Moduli (GPa) = 58.14592 43.62660 54.31975
#
# Poissons Ratio (x) = -0.15047 0.28051
# Poissons Ratio (y) = -0.20054 0.34112
# Poissons Ratio (z) = 0.30026 0.27397
#
# Static dielectric constant tensor:
#      x y z
#    x 1.600500 0.000000 0.000000 
#    y 0.000000 1.645250 0.000000 
#    z 0.000000 0.000000 1.616420 
# 
# From -- ./inp_files/27218.got.cif
#   From: 2010.05.17/outbox.cif.g08.bks.cpg/sg57_14_cif.got.tgz:27218.got - 2010.06.03 13:58:18.
