data_PCOD9436087
_publ_section_title
;
Structure prediction by ZEFSAII (Michael W. Deem and Ramdas Pophale) SiO2 
 PCOD9436087
Probable space group: P B C M
;
_chemical_formula_sum "Si O2"
_cell_formula_units_Z 64
_cell_length_a 12.656144
_cell_length_b 29.497587
_cell_length_c 9.166711
_cell_angle_alpha 90.000000
_cell_angle_beta 90.000000
_cell_angle_gamma 90.000000
_cell_volume 3422.168881
_symmetry_space_group_name_H-M "P B C M"
_symmetry_group_IT_number 57
_symmetry_cell_setting 'orthorhombic'
loop_
_space_group_symop_operation_xyz
x,y,z
-x,-y,1/2+z
x,1/2-y,-z
-x,1/2+y,1/2-z
-x,-y,-z
x,y,1/2-z
-x,1/2+y,z
x,1/2-y,1/2+z
loop_
_atom_site_type_symbol
_atom_site_label
_atom_site_fract_x
_atom_site_fract_y
_atom_site_fract_z
Si Si1 0.425698 0.140920 0.576424
Si Si2 0.514300 0.452884 0.421131
Si Si3 0.022474 0.546893 0.918562
Si Si4 0.245155 0.299690 0.574554
Si Si5 0.963345 0.859404 0.924972
Si Si6 0.808557 0.171633 0.079721
Si Si7 0.386350 0.791736 0.081047
Si Si8 0.251983 0.585330 0.914795
O O1 0.399861 0.141619 0.750000
O O2 0.441451 0.089041 0.526482
O O3 0.341895 0.170697 0.488833
O O4 0.540566 0.164403 0.562230
O O5 0.500000 0.500000 0.500000
O O6 0.491406 0.458203 0.250000
O O7 0.636738 0.438634 0.433877
O O8 0.987215 0.544953 0.750000
O O9 0.149321 0.553744 0.918437
O O10 0.972958 0.591995 0.994285
O O11 0.000000 0.500000 0.000000
O O12 0.241400 0.250000 0.500000
O O13 0.254163 0.294463 0.750000
O O14 0.139839 0.329529 0.542978
O O15 0.967275 0.867654 0.750000
O O16 0.068453 0.830325 0.963245
O O17 0.799670 0.182182 0.250000
O O18 0.728599 0.201451 0.987178
O O19 0.767396 0.121412 0.041241
O O20 0.378151 0.781423 0.250000
O O21 0.440826 0.750000 0.000000
O O22 0.252955 0.606914 0.750000
#
# Coordination Sequence:
#
# PCOD9436087 Si02
#       8
#     8   8   8   8   8   8   8   8
#     4  10  22  41  62  84 117 155 197 248 297 352
#     4  10  21  38  58  84 116 152 195 243 296 353
#     4  10  20  34  58  87 118 157 202 250 304 362
#     4  11  24  42  64  88 120 161 206 255 309 367
#     4   9  21  40  59  84 119 156 199 249 299 355
#     4  10  19  34  58  85 112 145 187 234 289 348
#     4  11  22  37  57  84 117 149 187 235 287 344
#     4   9  18  36  56  76 109 152 190 234 294 348
#
# _framework density 18.701591000000001
#
# number of rings (size 3 to 8) (size 9 to 14) (size 15 to 20)
#    0.000    2.000    1.250    1.875    0.000    6.500 
#    0.000    5.000    0.000    0.000    0.000    0.000 
#    0.000    0.000    0.000    0.000    0.000    0.000 
#
# Total GULP energy -357008.470814 kJ/mol
# GULP energy per Si atom -5578.257356 kJ/mol
# Density = 1.865903 g / cm^3
# Si number density = 18.701591 Si / 1000 Ang^3
#
#
#
# Elastic Constant Matrix: (Units=GPa)
#
#
# Indices 1 2 3 4 5 6 
#
# 1 102.1773 60.1544 58.7400 0.0000 0.0000 0.0000
# 2 60.1544 134.2697 61.5339 0.0000 0.0000 0.0000
# 3 58.7400 61.5339 75.6926 0.0000 0.0000 0.0000
# 4 0.0000 0.0000 0.0000 35.0882 0.0000 0.0000
# 5 0.0000 0.0000 0.0000 0.0000 25.0130 0.0000
# 6 0.0000 0.0000 0.0000 0.0000 0.0000 19.5228
#
#
#
# Elastic Compliance Matrix: (Units=1/GPa)
#
#
# Indices 1 2 3 4 5 6 
#
# 1 0.018259 -0.002688 -0.011984 0.000000 0.000000 0.000000
# 2 -0.002688 0.012266 -0.007885 0.000000 0.000000 0.000000
# 3 -0.011984 -0.007885 0.028922 0.000000 0.000000 0.000000
# 4 0.000000 0.000000 0.000000 0.028500 0.000000 0.000000
# 5 0.000000 0.000000 0.000000 0.000000 0.039979 0.000000
# 6 0.000000 0.000000 0.000000 0.000000 0.000000 0.051222
#
#
# Mechanical properties :
#
#
# Convention : Reuss Voigt Hill
#
# Bulk Modulus (GPa) = 69.77793 74.77736 72.27765
# Shear Modulus (GPa) = 21.83020 24.70555 23.26787
#
# Velocity S-wave (km/s) = 3.42027 3.63855 3.53110
# Velocity P-wave (km/s) = 7.27942 7.59759 7.44020
#
# Compressibility (1/GPa) = 0.01433118
#
# Stress axis : x y z
#
# Youngs Moduli (GPa) = 54.76739 81.52817 34.57566
#
# Poissons Ratio (x) = 0.21914 0.41437
# Poissons Ratio (y) = 0.14721 0.27264
# Poissons Ratio (z) = 0.65636 0.64288
#
# Static dielectric constant tensor:
#      x y z
#    x 1.647370 0.000000 0.000000 
#    y 0.000000 1.673940 0.000000 
#    z 0.000000 0.000000 1.641780 
# 
# From -- ./inp_files/3869.got.cif
#   From: 2010.05.17/outbox.cif.g08.bks.cpg/sg57_2_cif.got.tgz:3869.got - 2010.06.03 13:58:18.
