data_PCOD9436559
_publ_section_title
;
Structure prediction by ZEFSAII (Michael W. Deem and Ramdas Pophale) SiO2 
 PCOD9436559
Probable space group: P B C M
;
_chemical_formula_sum "Si O2"
_cell_formula_units_Z 56
_cell_length_a 18.049508
_cell_length_b 21.973155
_cell_length_c 9.479286
_cell_angle_alpha 90.000000
_cell_angle_beta 90.000000
_cell_angle_gamma 90.000000
_cell_volume 3759.528783
_symmetry_space_group_name_H-M "P B C M"
_symmetry_group_IT_number 57
_symmetry_cell_setting 'orthorhombic'
loop_
_space_group_symop_operation_xyz
x,y,z
-x,-y,1/2+z
x,1/2-y,-z
-x,1/2+y,1/2-z
-x,-y,-z
x,y,1/2-z
-x,1/2+y,z
x,1/2-y,1/2+z
loop_
_atom_site_type_symbol
_atom_site_label
_atom_site_fract_x
_atom_site_fract_y
_atom_site_fract_z
Si Si1 0.553777 0.083873 0.087463
Si Si2 0.899701 0.953795 0.581696
Si Si3 0.160778 0.686713 0.919365
Si Si4 0.587926 0.938258 0.087317
Si Si5 0.696799 0.104834 0.915930
Si Si6 0.962342 0.411577 0.418193
Si Si7 0.731051 0.538311 0.416812
O O1 0.546367 0.102712 0.250000
O O2 0.570036 0.010942 0.086913
O O3 0.478566 0.092393 0.999598
O O4 0.624204 0.113362 0.010468
O O5 0.906832 0.945116 0.750000
O O6 0.814268 0.942965 0.543005
O O7 0.960258 0.914367 0.499874
O O8 0.920141 0.024560 0.552590
O O9 0.158779 0.695646 0.750000
O O10 0.236163 0.649794 0.951360
O O11 0.091471 0.643600 0.957715
O O12 0.158548 0.750000 0.000000
O O13 0.590120 0.918684 0.250000
O O14 0.666286 0.932080 0.008789
O O15 0.678241 0.111840 0.750000
O O16 0.724169 0.035009 0.933573
O O17 0.975019 0.409271 0.250000
O O18 0.719757 0.550627 0.250000
#
# Coordination Sequence:
#
# PCOD9436559 Si02
#       7
#     8   8   8   8   8   8   8
#     4   9  16  25  37  55  79 108 142 175 205 243
#     4   9  16  27  44  64  85 112 145 180 219 268
#     4  10  20  33  47  63  86 116 150 187 226 265
#     4   9  16  24  35  55  82 111 141 170 204 245
#     4   9  16  28  43  57  79 112 145 177 217 258
#     4   9  17  30  44  61  85 113 144 180 225 268
#     4   9  15  25  41  59  83 113 143 175 213 258
#
# _framework density 14.895483
#
# number of rings (size 3 to 8) (size 9 to 14) (size 15 to 20)
#    0.000    2.857    1.429    0.857    0.000    5.143 
#    0.000    0.000    0.000    0.000    0.000    0.000 
#    0.000    1.143    0.000    5.714    0.000    5.857 
#
# Total GULP energy -311926.123294 kJ/mol
# GULP energy per Si atom -5570.109345 kJ/mol
# Density = 1.486158 g / cm^3
# Si number density = 14.895483 Si / 1000 Ang^3
#
#
#
# Elastic Constant Matrix: (Units=GPa)
#
#
# Indices 1 2 3 4 5 6 
#
# 1 173.0467 43.0062 92.5154 0.0000 0.0000 0.0000
# 2 43.0062 44.9542 34.5847 0.0000 0.0000 0.0000
# 3 92.5154 34.5847 80.9927 0.0000 0.0000 0.0000
# 4 0.0000 0.0000 0.0000 17.3848 0.0000 0.0000
# 5 0.0000 0.0000 0.0000 0.0000 31.5131 0.0000
# 6 0.0000 0.0000 0.0000 0.0000 0.0000 9.7733
#
#
#
# Elastic Compliance Matrix: (Units=1/GPa)
#
#
# Indices 1 2 3 4 5 6 
#
# 1 0.014934 -0.001732 -0.016319 0.000000 0.000000 0.000000
# 2 -0.001732 0.033329 -0.012253 0.000000 0.000000 0.000000
# 3 -0.016319 -0.012253 0.036219 0.000000 0.000000 0.000000
# 4 0.000000 0.000000 0.000000 0.057521 0.000000 0.000000
# 5 0.000000 0.000000 0.000000 0.000000 0.031733 0.000000
# 6 0.000000 0.000000 0.000000 0.000000 0.000000 0.102320
#
#
# Mechanical properties :
#
#
# Convention : Reuss Voigt Hill
#
# Bulk Modulus (GPa) = 41.88687 71.02292 56.45490
# Shear Modulus (GPa) = 14.50869 20.32674 17.41771
#
# Velocity S-wave (km/s) = 3.12434 3.69809 3.42325
# Velocity P-wave (km/s) = 6.41848 8.12520 7.32174
#
# Compressibility (1/GPa) = 0.02387383
#
# Stress axis : x y z
#
# Youngs Moduli (GPa) = 66.96306 30.00419 27.60962
#
# Poissons Ratio (x) = 0.05197 0.45055
# Poissons Ratio (y) = 0.11599 0.33831
# Poissons Ratio (z) = 1.09274 0.36765
#
# Static dielectric constant tensor:
#      x y z
#    x 1.492180 0.000000 0.000000 
#    y 0.000000 1.456490 0.000000 
#    z 0.000000 0.000000 1.495830 
# 
# From -- ./inp_files/7012.got.cif
#   From: 2010.05.17/outbox.cif.g08.bks.cpg/sg57_4_cif.got.tgz:7012.got - 2010.06.03 13:58:18.
