data_PCOD9436889
_publ_section_title
;
Structure prediction by ZEFSAII (Michael W. Deem and Ramdas Pophale) SiO2 
 PCOD9436889
Probable space group: P B C M
;
_chemical_formula_sum "Si O2"
_cell_formula_units_Z 40
_cell_length_a 7.310299
_cell_length_b 19.192087
_cell_length_c 11.748075
_cell_angle_alpha 90.000000
_cell_angle_beta 90.000000
_cell_angle_gamma 90.000000
_cell_volume 1648.253682
_symmetry_space_group_name_H-M "P B C M"
_symmetry_group_IT_number 57
_symmetry_cell_setting 'orthorhombic'
loop_
_space_group_symop_operation_xyz
x,y,z
-x,-y,1/2+z
x,1/2-y,-z
-x,1/2+y,1/2-z
-x,-y,-z
x,y,1/2-z
-x,1/2+y,z
x,1/2-y,1/2+z
loop_
_atom_site_type_symbol
_atom_site_label
_atom_site_fract_x
_atom_site_fract_y
_atom_site_fract_z
Si Si1 0.575243 0.739401 0.876585
Si Si2 0.926384 0.918639 0.869184
Si Si3 0.173087 0.717863 0.376045
Si Si4 0.754194 0.993955 0.059231
Si Si5 0.588940 0.083725 0.628958
O O1 0.665050 0.748063 0.750000
O O2 0.394576 0.788702 0.877603
O O3 0.492349 0.661130 0.878905
O O4 0.671819 0.750000 0.000000
O O5 0.821928 0.918215 0.750000
O O6 0.053851 0.851531 0.872694
O O7 0.797799 0.929223 0.976250
O O8 0.066205 0.983775 0.874540
O O9 0.130385 0.750000 0.500000
O O10 0.138205 0.752977 0.250000
O O11 0.708359 0.058939 0.976623
O O12 0.578443 0.970949 0.127716
O O13 0.688368 0.079061 0.750000
#
# Coordination Sequence:
#
# PCOD9436889 Si02
#       5
#     8   8   8   8   8
#     4   9  17  31  52  77 103 135 178 223 266 316
#     4  10  20  35  55  80 110 142 180 225 273 327
#     4   9  17  31  52  77 103 135 178 223 266 316
#     4  10  20  34  54  80 110 142 178 220 276 330
#     4  10  20  35  55  80 110 142 180 225 273 327
#
# _framework density 24.26811
#
# number of rings (size 3 to 8) (size 9 to 14) (size 15 to 20)
#    0.000    2.400    0.000    3.600    0.000    0.000 
#    0.000   11.000    0.000    4.800    0.000    0.000 
#    0.000    0.000    0.000    0.000    0.000    0.000 
#
# Total GULP energy -223062.772394 kJ/mol
# GULP energy per Si atom -5576.569310 kJ/mol
# Density = 2.421287 g / cm^3
# Si number density = 24.268110 Si / 1000 Ang^3
#
#
#
# Elastic Constant Matrix: (Units=GPa)
#
#
# Indices 1 2 3 4 5 6 
#
# 1 38.4469 -2.8481 11.7828 0.0000 0.0000 0.0000
# 2 -2.8481 38.9093 30.4102 0.0000 0.0000 0.0000
# 3 11.7828 30.4102 238.0685 0.0000 0.0000 0.0000
# 4 0.0000 0.0000 0.0000 3.9038 0.0000 0.0000
# 5 0.0000 0.0000 0.0000 0.0000 -18.6789 0.0000
# 6 0.0000 0.0000 0.0000 0.0000 0.0000 28.3724
#
#
#
# Elastic Compliance Matrix: (Units=1/GPa)
#
#
# Indices 1 2 3 4 5 6 
#
# 1 0.026793 0.003330 -0.001751 0.000000 0.000000 0.000000
# 2 0.003330 0.028965 -0.003865 0.000000 0.000000 0.000000
# 3 -0.001751 -0.003865 0.004781 0.000000 0.000000 0.000000
# 4 0.000000 0.000000 0.000000 0.256160 0.000000 0.000000
# 5 0.000000 0.000000 0.000000 0.000000 -0.053536 0.000000
# 6 0.000000 0.000000 0.000000 0.000000 0.000000 0.035246
#
#
# Mechanical properties :
#
#
# Convention : Reuss Voigt Hill
#
# Bulk Modulus (GPa) = 17.86762 43.79050 30.82906
# Shear Modulus (GPa) = 15.54552 21.12477 18.33514
#
# Velocity S-wave (km/s) = 2.53370 2.95358 2.75166
# Velocity P-wave (km/s) = 3.99226 5.45116 4.77772
#
# Compressibility (1/GPa) = 0.05596715
#
# Stress axis : x y z
#
# Youngs Moduli (GPa) = 37.32264 34.52425 209.16868
#
# Poissons Ratio (x) = -0.11497 0.36635
# Poissons Ratio (y) = -0.12429 0.80838
# Poissons Ratio (z) = 0.06537 0.13343
#
# Static dielectric constant tensor:
#      x y z
#    x 1.850650 0.000000 0.000000 
#    y 0.000000 1.932000 0.000000 
#    z 0.000000 0.000000 2.020670 
# 
# From -- ./inp_files/11563.got.cif
#   From: 2010.05.17/outbox.cif.g08.bks.cpg/sg57_6_cif.got.tgz:11563.got - 2010.06.03 13:58:18.
