data_PCOD9436151
_publ_section_title
;
Structure prediction by ZEFSAII (Michael W. Deem and Ramdas Pophale) SiO2 
 PCOD9436151
Probable space group: P B C M
;
_chemical_formula_sum "Si O2"
_cell_formula_units_Z 64
_cell_length_a 11.983271
_cell_length_b 32.214889
_cell_length_c 9.058091
_cell_angle_alpha 90.000000
_cell_angle_beta 90.000000
_cell_angle_gamma 90.000000
_cell_volume 3496.783141
_symmetry_space_group_name_H-M "P B C M"
_symmetry_group_IT_number 57
_symmetry_cell_setting 'orthorhombic'
loop_
_space_group_symop_operation_xyz
x,y,z
-x,-y,1/2+z
x,1/2-y,-z
-x,1/2+y,1/2-z
-x,-y,-z
x,y,1/2-z
-x,1/2+y,z
x,1/2-y,1/2+z
loop_
_atom_site_type_symbol
_atom_site_label
_atom_site_fract_x
_atom_site_fract_y
_atom_site_fract_z
Si Si1 0.884311 0.502492 0.915962
Si Si2 0.148136 0.078267 0.418854
Si Si3 0.937080 0.793601 0.074954
Si Si4 0.487020 0.546317 0.927513
Si Si5 0.623269 0.621320 0.077744
Si Si6 0.938111 0.369242 0.571278
Si Si7 0.733022 0.421421 0.579422
Si Si8 0.670365 0.794556 0.073810
O O1 0.908618 0.514527 0.750000
O O2 0.817902 0.460021 0.917415
O O3 0.813782 0.538793 0.989782
O O4 0.000000 0.500000 0.000000
O O5 0.132010 0.064940 0.250000
O O6 0.244046 0.112308 0.423247
O O7 0.030555 0.096253 0.472967
O O8 0.954223 0.792328 0.250000
O O9 0.804178 0.800810 0.050446
O O10 0.963259 0.750000 0.000000
O O11 0.015157 0.828069 0.002262
O O12 0.499999 0.542958 0.750000
O O13 0.500000 0.500000 0.000000
O O14 0.568333 0.581794 0.995730
O O15 0.366557 0.565031 0.973746
O O16 0.587856 0.622502 0.250000
O O17 0.608523 0.665825 0.998770
O O18 0.943672 0.366399 0.750000
O O19 0.812664 0.383228 0.533314
O O20 0.693832 0.415166 0.750000
O O21 0.651052 0.793132 0.250000
O O22 0.642050 0.750000 0.000000
#
# Coordination Sequence:
#
# PCOD9436151 Si02
#       8
#     8   8   8   8   8   8   8   8
#     4  11  21  33  51  76 109 146 184 228 277 332
#     4  10  20  34  52  80 113 148 187 228 282 339
#     4  10  20  33  53  83 120 159 196 234 285 347
#     4  12  26  44  64  86 115 154 204 255 302 358
#     4  11  22  38  62  87 117 155 196 244 297 354
#     4  10  19  35  56  81 116 151 187 233 285 344
#     4  10  22  40  59  81 112 152 193 237 288 342
#     4  10  20  34  55  87 124 160 198 243 295 352
#
# _framework density 18.302536
#
# number of rings (size 3 to 8) (size 9 to 14) (size 15 to 20)
#    0.000    1.500    2.500    3.375    0.000    6.000 
#    0.000    0.000    0.000    0.750    0.000    1.750 
#    0.000    0.000    0.000    0.000    0.000    0.000 
#
# Total GULP energy -357032.504207 kJ/mol
# GULP energy per Si atom -5578.632878 kJ/mol
# Density = 1.826088 g / cm^3
# Si number density = 18.302536 Si / 1000 Ang^3
#
#
#
# Elastic Constant Matrix: (Units=GPa)
#
#
# Indices 1 2 3 4 5 6 
#
# 1 63.6141 31.9549 33.8883 0.0000 0.0000 0.0000
# 2 31.9549 143.1257 73.9616 0.0000 0.0000 0.0000
# 3 33.8883 73.9616 100.4829 0.0000 0.0000 0.0000
# 4 0.0000 0.0000 0.0000 34.3967 0.0000 0.0000
# 5 0.0000 0.0000 0.0000 0.0000 23.3020 0.0000
# 6 0.0000 0.0000 0.0000 0.0000 0.0000 29.9188
#
#
#
# Elastic Compliance Matrix: (Units=1/GPa)
#
#
# Indices 1 2 3 4 5 6 
#
# 1 0.019368 -0.001531 -0.005405 0.000000 0.000000 0.000000
# 2 -0.001531 0.011397 -0.007872 0.000000 0.000000 0.000000
# 3 -0.005405 -0.007872 0.017569 0.000000 0.000000 0.000000
# 4 0.000000 0.000000 0.000000 0.029073 0.000000 0.000000
# 5 0.000000 0.000000 0.000000 0.000000 0.042915 0.000000
# 6 0.000000 0.000000 0.000000 0.000000 0.000000 0.033424
#
#
# Mechanical properties :
#
#
# Convention : Reuss Voigt Hill
#
# Bulk Modulus (GPa) = 53.42630 65.20360 59.31495
# Shear Modulus (GPa) = 26.37104 28.68469 27.52786
#
# Velocity S-wave (km/s) = 3.79996 3.96315 3.88241
# Velocity P-wave (km/s) = 6.96469 7.52628 7.25092
#
# Compressibility (1/GPa) = 0.01871737
#
# Stress axis : x y z
#
# Youngs Moduli (GPa) = 51.63083 87.74346 56.91719
#
# Poissons Ratio (x) = 0.13435 0.30764
# Poissons Ratio (y) = 0.07905 0.44808
# Poissons Ratio (z) = 0.27907 0.69075
#
# Static dielectric constant tensor:
#      x y z
#    x 1.653940 0.000000 0.000000 
#    y 0.000000 1.641710 0.000000 
#    z 0.000000 0.000000 1.624610 
# 
# From -- ./inp_files/3835.got.cif
#   From: 2010.05.17/outbox.cif.g08.bks.cpg/sg57_2_cif.got.tgz:3835.got - 2010.06.03 13:58:18.
