data_PCOD9436979
_publ_section_title
;
Structure prediction by ZEFSAII (Michael W. Deem and Ramdas Pophale) SiO2 
 PCOD9436979
Probable space group: P B C M
;
_chemical_formula_sum "Si O2"
_cell_formula_units_Z 40
_cell_length_a 6.718558
_cell_length_b 23.246277
_cell_length_c 13.787034
_cell_angle_alpha 90.000000
_cell_angle_beta 90.000000
_cell_angle_gamma 90.000000
_cell_volume 2153.279103
_symmetry_space_group_name_H-M "P B C M"
_symmetry_group_IT_number 57
_symmetry_cell_setting 'orthorhombic'
loop_
_space_group_symop_operation_xyz
x,y,z
-x,-y,1/2+z
x,1/2-y,-z
-x,1/2+y,1/2-z
-x,-y,-z
x,y,1/2-z
-x,1/2+y,z
x,1/2-y,1/2+z
loop_
_atom_site_type_symbol
_atom_site_label
_atom_site_fract_x
_atom_site_fract_y
_atom_site_fract_z
Si Si1 0.888459 0.316251 0.480265
Si Si2 0.146378 0.905515 0.635164
Si Si3 0.817817 0.615355 0.861913
Si Si4 0.133163 0.510801 0.638946
Si Si5 0.577872 0.412346 0.027896
O O1 0.848982 0.250000 0.500000
O O2 0.068824 0.329821 0.407315
O O3 0.930183 0.347920 0.582953
O O4 0.701003 0.354132 0.442276
O O5 0.158219 0.902976 0.750000
O O6 0.361567 0.916755 0.585257
O O7 0.992117 0.955662 0.605625
O O8 0.752755 0.623998 0.750000
O O9 0.640470 0.596425 0.932493
O O10 0.977856 0.563737 0.861584
O O11 0.196146 0.500744 0.750000
O O12 0.318141 0.532510 0.576790
#
# Coordination Sequence:
#
# PCOD9436979 Si02
#       5
#     8   8   8   8   8
#     4   9  21  38  56  75 108 141 186 224 266 310
#     4   9  19  36  55  78 110 143 178 219 270 324
#     4  10  20  34  56  84 108 137 177 220 271 325
#     4   9  17  33  54  82 112 138 172 220 273 328
#     4   9  19  33  57  78 109 140 178 217 268 318
#
# _framework density 18.576319999999999
#
# number of rings (size 3 to 8) (size 9 to 14) (size 15 to 20)
#    1.200    1.600    0.000    1.200    0.000    3.200 
#    0.000    1.000    0.000    0.000    0.000    0.000 
#    0.000    0.000    0.000    0.000    0.000    0.000 
#
# Total GULP energy -222705.578761 kJ/mol
# GULP energy per Si atom -5567.639469 kJ/mol
# Density = 1.853404 g / cm^3
# Si number density = 18.576320 Si / 1000 Ang^3
#
#
#
# Elastic Constant Matrix: (Units=GPa)
#
#
# Indices 1 2 3 4 5 6 
#
# 1 38.3851 -4.4411 13.6939 0.0000 0.0000 0.0000
# 2 -4.4411 84.9284 11.5651 0.0000 0.0000 0.0000
# 3 13.6939 11.5651 84.4442 0.0000 0.0000 0.0000
# 4 0.0000 0.0000 0.0000 12.8382 0.0000 0.0000
# 5 0.0000 0.0000 0.0000 0.0000 20.7607 0.0000
# 6 0.0000 0.0000 0.0000 0.0000 0.0000 10.6420
#
#
#
# Elastic Compliance Matrix: (Units=1/GPa)
#
#
# Indices 1 2 3 4 5 6 
#
# 1 0.028022 0.002124 -0.004835 0.000000 0.000000 0.000000
# 2 0.002124 0.012159 -0.002010 0.000000 0.000000 0.000000
# 3 -0.004835 -0.002010 0.012901 0.000000 0.000000 0.000000
# 4 0.000000 0.000000 0.000000 0.077893 0.000000 0.000000
# 5 0.000000 0.000000 0.000000 0.000000 0.048168 0.000000
# 6 0.000000 0.000000 0.000000 0.000000 0.000000 0.093967
#
#
# Mechanical properties :
#
#
# Convention : Reuss Voigt Hill
#
# Bulk Modulus (GPa) = 22.91415 27.71038 25.31226
# Shear Modulus (GPa) = 16.82937 21.31085 19.07011
#
# Velocity S-wave (km/s) = 3.01318 3.39072 3.20751
# Velocity P-wave (km/s) = 4.94647 5.50261 5.23193
#
# Compressibility (1/GPa) = 0.04364116
#
# Stress axis : x y z
#
# Youngs Moduli (GPa) = 35.68571 82.24121 77.51059
#
# Poissons Ratio (x) = -0.17466 0.37477
# Poissons Ratio (y) = -0.07579 0.15577
# Poissons Ratio (z) = 0.17254 0.16528
#
# Static dielectric constant tensor:
#      x y z
#    x 1.650180 0.000000 0.000000 
#    y 0.000000 1.628060 0.000000 
#    z 0.000000 0.000000 1.671430 
# 
# From -- ./inp_files/14964.got.cif
#   From: 2010.05.17/outbox.cif.g08.bks.cpg/sg57_8_cif.got.tgz:14964.got - 2010.06.03 13:58:18.
