data_PCOD9436520
_publ_section_title
;
Structure prediction by ZEFSAII (Michael W. Deem and Ramdas Pophale) SiO2 
 PCOD9436520
Probable space group: P B C M
;
_chemical_formula_sum "Si O2"
_cell_formula_units_Z 64
_cell_length_a 16.542931
_cell_length_b 24.964158
_cell_length_c 8.628132
_cell_angle_alpha 90.000000
_cell_angle_beta 90.000000
_cell_angle_gamma 90.000000
_cell_volume 3563.248915
_symmetry_space_group_name_H-M "P B C M"
_symmetry_group_IT_number 57
_symmetry_cell_setting 'orthorhombic'
loop_
_space_group_symop_operation_xyz
x,y,z
-x,-y,1/2+z
x,1/2-y,-z
-x,1/2+y,1/2-z
-x,-y,-z
x,y,1/2-z
-x,1/2+y,z
x,1/2-y,1/2+z
loop_
_atom_site_type_symbol
_atom_site_label
_atom_site_fract_x
_atom_site_fract_y
_atom_site_fract_z
Si Si1 0.386581 0.615573 0.434918
Si Si2 0.875192 0.400141 0.068364
Si Si3 0.794353 0.912971 0.064526
Si Si4 0.031081 0.443478 0.933294
Si Si5 0.249980 0.808516 0.068167
Si Si6 0.268363 0.526128 0.437860
Si Si7 0.287755 0.192582 0.435376
Si Si8 0.524566 0.807876 0.937513
O O1 0.394605 0.610464 0.250000
O O2 0.318477 0.659166 0.476213
O O3 0.347826 0.559301 0.491041
O O4 0.469534 0.642433 0.492859
O O5 0.889686 0.411249 0.250000
O O6 0.958332 0.403651 0.976498
O O7 0.831364 0.343176 0.053459
O O8 0.810106 0.443139 0.004418
O O9 0.793274 0.909592 0.250000
O O10 0.884776 0.926454 0.009316
O O11 0.738784 0.964030 0.017562
O O12 0.762622 0.857698 0.995103
O O13 0.041478 0.052430 0.250000
O O14 0.000000 0.500000 0.000000
O O15 0.271834 0.693174 0.750000
O O16 0.241170 0.750000 0.000000
O O17 0.264319 0.529285 0.250000
O O18 0.259776 0.250000 0.500000
O O19 0.285279 0.194148 0.250000
O O20 0.381903 0.185911 0.484292
O O21 0.520837 0.805877 0.750000
O O22 0.495480 0.750000 0.000000
#
# Coordination Sequence:
#
# PCOD9436520 Si02
#       8
#     8   8   8   8   8   8   8   8
#     4   9  17  31  51  77 108 143 183 226 270 320
#     4  10  20  34  52  76 107 140 180 226 268 315
#     4  11  22  37  58  84 111 143 183 226 273 329
#     4  12  23  36  57  84 111 140 178 223 270 321
#     4  10  20  32  48  73 106 145 182 220 266 319
#     4   9  18  32  52  77 109 146 180 218 268 324
#     4  10  21  39  60  82 108 142 182 230 282 329
#     4   9  18  32  53  78 106 140 184 232 277 325
#
# _framework density 17.961137000000001
#
# number of rings (size 3 to 8) (size 9 to 14) (size 15 to 20)
#    0.000    2.000    1.250    3.000    0.000    4.000 
#    0.000    1.250    0.000    1.500    0.000    0.000 
#    0.000    0.000    0.000    0.000    0.000    0.000 
#
# Total GULP energy -357079.026619 kJ/mol
# GULP energy per Si atom -5579.359791 kJ/mol
# Density = 1.792026 g / cm^3
# Si number density = 17.961137 Si / 1000 Ang^3
#
#
#
# Elastic Constant Matrix: (Units=GPa)
#
#
# Indices 1 2 3 4 5 6 
#
# 1 76.8323 57.2667 13.8711 0.0000 0.0000 0.0000
# 2 57.2667 137.5715 27.7031 0.0000 0.0000 0.0000
# 3 13.8711 27.7031 29.7229 0.0000 0.0000 0.0000
# 4 0.0000 0.0000 0.0000 26.1652 0.0000 0.0000
# 5 0.0000 0.0000 0.0000 0.0000 21.6794 0.0000
# 6 0.0000 0.0000 0.0000 0.0000 0.0000 15.3036
#
#
#
# Elastic Compliance Matrix: (Units=1/GPa)
#
#
# Indices 1 2 3 4 5 6 
#
# 1 0.018951 -0.007519 -0.001836 0.000000 0.000000 0.000000
# 2 -0.007519 0.011932 -0.007612 0.000000 0.000000 0.000000
# 3 -0.001836 -0.007612 0.041596 0.000000 0.000000 0.000000
# 4 0.000000 0.000000 0.000000 0.038219 0.000000 0.000000
# 5 0.000000 0.000000 0.000000 0.000000 0.046127 0.000000
# 6 0.000000 0.000000 0.000000 0.000000 0.000000 0.065344
#
#
# Mechanical properties :
#
#
# Convention : Reuss Voigt Hill
#
# Bulk Modulus (GPa) = 25.94405 49.08984 37.51694
# Shear Modulus (GPa) = 18.59082 22.31537 20.45310
#
# Velocity S-wave (km/s) = 3.22072 3.52863 3.37819
# Velocity P-wave (km/s) = 5.32040 6.63265 6.01244
#
# Compressibility (1/GPa) = 0.03854449
#
# Stress axis : x y z
#
# Youngs Moduli (GPa) = 52.76735 83.81020 24.04099
#
# Poissons Ratio (x) = 0.63017 0.04414
# Poissons Ratio (y) = 0.39676 0.18300
# Poissons Ratio (z) = 0.09688 0.63796
#
# Static dielectric constant tensor:
#      x y z
#    x 1.616080 0.000000 0.000000 
#    y 0.000000 1.623530 0.000000 
#    z 0.000000 0.000000 1.607360 
# 
# From -- ./inp_files/7212.got.cif
#   From: 2010.05.17/outbox.cif.g08.bks.cpg/sg57_4_cif.got.tgz:7212.got - 2010.06.03 13:58:18.
