data_PCOD9436399
_publ_section_title
;
Structure prediction by ZEFSAII (Michael W. Deem and Ramdas Pophale) SiO2 
 PCOD9436399
Probable space group: P B C M
;
_chemical_formula_sum "Si O2"
_cell_formula_units_Z 64
_cell_length_a 12.444991
_cell_length_b 17.309072
_cell_length_c 13.914747
_cell_angle_alpha 90.000000
_cell_angle_beta 90.000000
_cell_angle_gamma 90.000000
_cell_volume 2997.392979
_symmetry_space_group_name_H-M "P B C M"
_symmetry_group_IT_number 57
_symmetry_cell_setting 'orthorhombic'
loop_
_space_group_symop_operation_xyz
x,y,z
-x,-y,1/2+z
x,1/2-y,-z
-x,1/2+y,1/2-z
-x,-y,-z
x,y,1/2-z
-x,1/2+y,z
x,1/2-y,1/2+z
loop_
_atom_site_type_symbol
_atom_site_label
_atom_site_fract_x
_atom_site_fract_y
_atom_site_fract_z
Si Si1 0.458821 0.556142 0.134444
Si Si2 0.782880 0.651595 0.857594
Si Si3 0.749617 0.423202 0.990007
Si Si4 0.354315 0.704549 0.900454
Si Si5 0.930066 0.785344 0.605000
Si Si6 0.551667 0.882068 0.436092
Si Si7 0.099814 0.057696 0.010232
Si Si8 0.838820 0.187461 0.348920
O O1 0.471584 0.572954 0.250000
O O2 0.337121 0.569183 0.095804
O O3 0.474960 0.465139 0.112424
O O4 0.524559 0.604663 0.051021
O O5 0.761438 0.623430 0.750000
O O6 0.829868 0.738293 0.853362
O O7 0.674379 0.641947 0.918809
O O8 0.874502 0.601486 0.910394
O O9 0.797692 0.502781 0.023841
O O10 0.836023 0.365573 0.942944
O O11 0.697605 0.378196 0.077836
O O12 0.477179 0.681533 0.881236
O O13 0.264487 0.756182 0.849206
O O14 0.363427 0.750000 0.000000
O O15 0.939159 0.750000 0.500000
O O16 0.912065 0.876868 0.591434
O O17 0.046664 0.770610 0.649914
O O18 0.000000 0.000000 0.000000
O O19 0.834518 0.140381 0.250000
#
# Coordination Sequence:
#
# PCOD9436399 Si02
#       8
#     8   8   8   8   8   8   8   8
#     4  10  20  37  63  99 134 168 222 283 342 404
#     4  11  24  42  67  97 132 180 231 277 337 414
#     4  10  19  37  62  92 121 159 214 264 331 398
#     4   9  21  37  60  87 124 164 212 259 323 398
#     4  10  22  40  61  87 122 170 216 268 329 403
#     4  10  21  38  63  96 130 180 225 272 341 401
#     4  11  22  39  66  94 123 171 221 273 336 401
#     4  11  21  35  59  91 126 161 209 276 334 390
#
# _framework density 21.351887999999999
#
# number of rings (size 3 to 8) (size 9 to 14) (size 15 to 20)
#    0.000    1.750    2.500    2.250    1.750    3.000 
#    0.000    0.000    0.000   25.500    0.000    0.000 
#    0.000    0.000    0.000    0.000    0.000    0.000 
#
# Total GULP energy -356316.915511 kJ/mol
# GULP energy per Si atom -5567.451805 kJ/mol
# Density = 2.130329 g / cm^3
# Si number density = 21.351888 Si / 1000 Ang^3
#
#
#
# Elastic Constant Matrix: (Units=GPa)
#
#
# Indices 1 2 3 4 5 6 
#
# 1 120.3878 45.7364 38.8330 0.0000 0.0000 0.0000
# 2 45.7364 99.4782 7.1100 0.0000 0.0000 0.0000
# 3 38.8330 7.1100 79.0684 0.0000 0.0000 0.0000
# 4 0.0000 0.0000 0.0000 -4.8276 0.0000 0.0000
# 5 0.0000 0.0000 0.0000 0.0000 27.6634 0.0000
# 6 0.0000 0.0000 0.0000 0.0000 0.0000 47.5113
#
#
#
# Elastic Compliance Matrix: (Units=1/GPa)
#
#
# Indices 1 2 3 4 5 6 
#
# 1 0.012011 -0.005133 -0.005437 0.000000 0.000000 0.000000
# 2 -0.005133 0.012312 0.001414 0.000000 0.000000 0.000000
# 3 -0.005437 0.001414 0.015190 0.000000 0.000000 0.000000
# 4 0.000000 0.000000 0.000000 -0.207142 0.000000 0.000000
# 5 0.000000 0.000000 0.000000 0.000000 0.036149 0.000000
# 6 0.000000 0.000000 0.000000 0.000000 0.000000 0.021048
#
#
# Mechanical properties :
#
#
# Convention : Reuss Voigt Hill
#
# Bulk Modulus (GPa) = 47.17063 53.58816 50.37939
# Shear Modulus (GPa) = -58.78652 27.88641 -15.45006
#
# Velocity S-wave (km/s) = -5.25281 3.61784 -2.69288
# Velocity P-wave (km/s) = 3.82745 6.52716 3.73861
#
# Compressibility (1/GPa) = 0.02119963
#
# Stress axis : x y z
#
# Youngs Moduli (GPa) = 83.25998 81.22460 65.83071
#
# Poissons Ratio (x) = 0.41696 0.35793
# Poissons Ratio (y) = 0.42741 -0.09309
# Poissons Ratio (z) = 0.45270 -0.11486
#
# Static dielectric constant tensor:
#      x y z
#    x 1.405150 0.000000 0.000000 
#    y 0.000000 1.843600 0.000000 
#    z 0.000000 0.000000 1.805430 
# 
# From -- ./inp_files/17957.got.cif
#   From: 2010.05.17/outbox.cif.g08.bks.cpg/sg57_9_cif.got.tgz:17957.got - 2010.06.03 13:58:18.
