data_PCOD9436746
_publ_section_title
;
Structure prediction by ZEFSAII (Michael W. Deem and Ramdas Pophale) SiO2 
 PCOD9436746
Probable space group: P B C M
;
_chemical_formula_sum "Si O2"
_cell_formula_units_Z 36
_cell_length_a 12.148276
_cell_length_b 5.422779
_cell_length_c 25.935116
_cell_angle_alpha 90.000000
_cell_angle_beta 90.000000
_cell_angle_gamma 90.000000
_cell_volume 1708.538425
_symmetry_space_group_name_H-M "P B C M"
_symmetry_group_IT_number 57
_symmetry_cell_setting 'orthorhombic'
loop_
_space_group_symop_operation_xyz
x,y,z
-x,-y,1/2+z
x,1/2-y,-z
-x,1/2+y,1/2-z
-x,-y,-z
x,y,1/2-z
-x,1/2+y,z
x,1/2-y,1/2+z
loop_
_atom_site_type_symbol
_atom_site_label
_atom_site_fract_x
_atom_site_fract_y
_atom_site_fract_z
Si Si1 0.259898 0.562604 0.068191
Si Si2 0.567895 0.863483 0.250000
Si Si3 0.895630 0.750000 0.000000
Si Si4 0.573867 0.793927 0.363487
Si Si5 0.963301 0.300724 0.606351
Si Si6 0.567800 0.250000 0.000000
O O1 0.327131 0.345724 0.096676
O O2 0.167227 0.697975 0.100766
O O3 0.352623 0.744475 0.048599
O O4 0.187948 0.456814 0.020699
O O5 0.526670 0.148019 0.250000
O O6 0.622044 0.815227 0.305377
O O7 0.970779 0.685508 0.050068
O O8 0.490111 0.032063 0.368433
O O9 0.995642 0.554982 0.632284
O O10 0.500000 0.500000 0.000000
#
# Coordination Sequence:
#
# PCOD9436746 Si02
#       6
#     8   4   4   8   8   4
#     4  11  21  35  53  73 103 140 174 214 252 300
#     4   8  16  34  56  74 100 130 166 216 256 296
#     4  10  20  36  52  72 100 136 180 216 250 294
#     4  10  21  36  54  79 105 135 172 210 256 310
#     4  10  20  34  51  70  93 127 174 217 249 287
#     4  12  24  34  44  66 102 138 164 194 242 300
#
# _framework density 21.070639
#
# number of rings (size 3 to 8) (size 9 to 14) (size 15 to 20)
#    0.000    1.778    0.000    6.667    0.000    7.111 
#    0.000    0.000    0.000    0.000    0.000    6.222 
#    0.000    0.000    0.000    0.000    0.000    0.000 
#
# Total GULP energy -200755.191893 kJ/mol
# GULP energy per Si atom -5576.533108 kJ/mol
# Density = 2.102268 g / cm^3
# Si number density = 21.070639 Si / 1000 Ang^3
#
#
#
# Elastic Constant Matrix: (Units=GPa)
#
#
# Indices 1 2 3 4 5 6 
#
# 1 109.8403 59.5343 8.4109 0.0000 0.0000 0.0000
# 2 59.5343 150.4565 10.5128 0.0000 0.0000 0.0000
# 3 8.4109 10.5128 28.6681 0.0000 0.0000 0.0000
# 4 0.0000 0.0000 0.0000 17.4808 0.0000 0.0000
# 5 0.0000 0.0000 0.0000 0.0000 7.7995 0.0000
# 6 0.0000 0.0000 0.0000 0.0000 0.0000 27.2423
#
#
#
# Elastic Compliance Matrix: (Units=1/GPa)
#
#
# Indices 1 2 3 4 5 6 
#
# 1 0.011677 -0.004496 -0.001777 0.000000 0.000000 0.000000
# 2 -0.004496 0.008553 -0.001817 0.000000 0.000000 0.000000
# 3 -0.001777 -0.001817 0.036070 0.000000 0.000000 0.000000
# 4 0.000000 0.000000 0.000000 0.057206 0.000000 0.000000
# 5 0.000000 0.000000 0.000000 0.000000 0.128213 0.000000
# 6 0.000000 0.000000 0.000000 0.000000 0.000000 0.036708
#
#
# Mechanical properties :
#
#
# Convention : Reuss Voigt Hill
#
# Bulk Modulus (GPa) = 24.92627 49.54231 37.23429
# Shear Modulus (GPa) = 16.23485 24.53833 20.38659
#
# Velocity S-wave (km/s) = 2.77879 3.41629 3.11390
# Velocity P-wave (km/s) = 4.70650 6.25499 5.53516
#
# Compressibility (1/GPa) = 0.04011832
#
# Stress axis : x y z
#
# Youngs Moduli (GPa) = 85.63621 116.92347 27.72412
#
# Poissons Ratio (x) = 0.52574 0.04927
# Poissons Ratio (y) = 0.38506 0.05038
# Poissons Ratio (z) = 0.15218 0.21246
#
# Static dielectric constant tensor:
#      x y z
#    x 1.754030 0.000000 0.000000 
#    y 0.000000 1.873330 0.000000 
#    z 0.000000 0.000000 1.814880 
# 
# From -- ./inp_files/29678.got.cif
#   From: 2010.05.17/outbox.cif.g08.bks.cpg/sg57_15_cif.got.tgz:29678.got - 2010.06.03 13:58:18.
