data_PCOD9436976
_publ_section_title
;
Structure prediction by ZEFSAII (Michael W. Deem and Ramdas Pophale) SiO2 
 PCOD9436976
Probable space group: P B C M
;
_chemical_formula_sum "Si O2"
_cell_formula_units_Z 48
_cell_length_a 16.730049
_cell_length_b 18.398453
_cell_length_c 8.811668
_cell_angle_alpha 90.000000
_cell_angle_beta 90.000000
_cell_angle_gamma 90.000000
_cell_volume 2712.293270
_symmetry_space_group_name_H-M "P B C M"
_symmetry_group_IT_number 57
_symmetry_cell_setting 'orthorhombic'
loop_
_space_group_symop_operation_xyz
x,y,z
-x,-y,1/2+z
x,1/2-y,-z
-x,1/2+y,1/2-z
-x,-y,-z
x,y,1/2-z
-x,1/2+y,z
x,1/2-y,1/2+z
loop_
_atom_site_type_symbol
_atom_site_label
_atom_site_fract_x
_atom_site_fract_y
_atom_site_fract_z
Si Si1 0.329233 0.399967 0.070037
Si Si2 0.504426 0.918795 0.930817
Si Si3 0.357321 0.670579 0.569060
Si Si4 0.161741 0.171901 0.931667
Si Si5 0.918789 0.969527 0.930892
Si Si6 0.248531 0.538867 0.569881
O O1 0.343759 0.396147 0.250000
O O2 0.254033 0.348754 0.030645
O O3 0.410482 0.385517 0.980678
O O4 0.299630 0.480614 0.024328
O O5 0.498754 0.923357 0.750000
O O6 0.433100 0.870653 0.997592
O O7 0.500000 0.000000 0.000000
O O8 0.348545 0.750000 0.500000
O O9 0.368203 0.675296 0.750000
O O10 0.280976 0.618979 0.538735
O O11 0.154534 0.172368 0.750000
O O12 0.141907 0.250000 0.000000
O O13 0.107439 0.107650 0.999093
O O14 0.926264 0.962429 0.750000
O O15 0.844163 0.023570 0.962611
O O16 0.000000 0.000000 0.000000
O O17 0.261684 0.523940 0.750000
#
# Coordination Sequence:
#
# PCOD9436976 Si02
#       6
#     8   8   8   8   8   8
#     4  10  20  34  56  83 111 146 191 234 281 340
#     4  12  23  36  56  82 113 152 196 242 286 337
#     4  11  23  39  57  81 112 149 191 239 289 338
#     4  10  21  37  58  86 118 152 189 235 289 345
#     4  10  20  37  61  89 117 150 191 235 282 342
#     4   9  19  36  58  80 108 146 188 231 279 337
#
# _framework density 17.697202000000001
#
# number of rings (size 3 to 8) (size 9 to 14) (size 15 to 20)
#    0.000    1.667    1.667    3.500    0.000    4.000 
#    0.000    2.500    0.000    2.000    0.000    0.000 
#    0.000    0.000    0.000    0.000    0.000    0.000 
#
# Total GULP energy -268143.427149 kJ/mol
# GULP energy per Si atom -5586.321399 kJ/mol
# Density = 1.765692 g / cm^3
# Si number density = 17.697202 Si / 1000 Ang^3
#
#
#
# Elastic Constant Matrix: (Units=GPa)
#
#
# Indices 1 2 3 4 5 6 
#
# 1 131.8909 80.8227 68.5899 0.0000 0.0000 0.0000
# 2 80.8227 146.0772 66.9794 0.0000 0.0000 0.0000
# 3 68.5899 66.9794 93.7504 0.0000 0.0000 0.0000
# 4 0.0000 0.0000 0.0000 30.8527 0.0000 0.0000
# 5 0.0000 0.0000 0.0000 0.0000 28.5092 0.0000
# 6 0.0000 0.0000 0.0000 0.0000 0.0000 19.2234
#
#
#
# Elastic Compliance Matrix: (Units=1/GPa)
#
#
# Indices 1 2 3 4 5 6 
#
# 1 0.014005 -0.004537 -0.007005 0.000000 0.000000 0.000000
# 2 -0.004537 0.011651 -0.005004 0.000000 0.000000 0.000000
# 3 -0.007005 -0.005004 0.019367 0.000000 0.000000 0.000000
# 4 0.000000 0.000000 0.000000 0.032412 0.000000 0.000000
# 5 0.000000 0.000000 0.000000 0.000000 0.035076 0.000000
# 6 0.000000 0.000000 0.000000 0.000000 0.000000 0.052020
#
#
# Mechanical properties :
#
#
# Convention : Reuss Voigt Hill
#
# Bulk Modulus (GPa) = 83.82234 89.38916 86.60575
# Shear Modulus (GPa) = 24.80145 26.07215 25.43680
#
# Velocity S-wave (km/s) = 3.74763 3.84244 3.79533
# Velocity P-wave (km/s) = 8.13596 8.38485 8.26135
#
# Compressibility (1/GPa) = 0.01192999
#
# Stress axis : x y z
#
# Youngs Moduli (GPa) = 71.40140 85.83322 51.63390
#
# Poissons Ratio (x) = 0.38942 0.36171
# Poissons Ratio (y) = 0.32394 0.25839
# Poissons Ratio (z) = 0.50018 0.42954
#
# Static dielectric constant tensor:
#      x y z
#    x 1.598420 0.000000 0.000000 
#    y 0.000000 1.580970 0.000000 
#    z 0.000000 0.000000 1.589890 
# 
# From -- ./inp_files/6537.got.cif
#   From: 2010.05.17/outbox.cif.g08.bks.cpg/sg57_4_cif.got.tgz:6537.got - 2010.06.03 13:58:18.
