data_PCOD9436142
_publ_section_title
;
Structure prediction by ZEFSAII (Michael W. Deem and Ramdas Pophale) SiO2 
 PCOD9436142
Probable space group: P B C M
;
_chemical_formula_sum "Si O2"
_cell_formula_units_Z 48
_cell_length_a 9.324973
_cell_length_b 16.393421
_cell_length_c 16.523745
_cell_angle_alpha 90.000000
_cell_angle_beta 90.000000
_cell_angle_gamma 90.000000
_cell_volume 2525.955291
_symmetry_space_group_name_H-M "P B C M"
_symmetry_group_IT_number 57
_symmetry_cell_setting 'orthorhombic'
loop_
_space_group_symop_operation_xyz
x,y,z
-x,-y,1/2+z
x,1/2-y,-z
-x,1/2+y,1/2-z
-x,-y,-z
x,y,1/2-z
-x,1/2+y,z
x,1/2-y,1/2+z
loop_
_atom_site_type_symbol
_atom_site_label
_atom_site_fract_x
_atom_site_fract_y
_atom_site_fract_z
Si Si1 0.209204 0.100576 0.083249
Si Si2 0.372155 0.949884 0.153641
Si Si3 0.942702 0.469805 0.841922
Si Si4 0.829504 0.769562 0.345344
Si Si5 0.309367 0.066210 0.901875
Si Si6 0.894969 0.144556 0.843750
O O1 0.235241 0.193586 0.107378
O O2 0.294551 0.036614 0.139419
O O3 0.257250 0.080498 0.993064
O O4 0.040199 0.083626 0.098915
O O5 0.393881 0.938870 0.250000
O O6 0.522553 0.946978 0.108424
O O7 0.260112 0.880448 0.122708
O O8 0.950268 0.438185 0.750000
O O9 0.781204 0.489707 0.867621
O O10 0.018361 0.558911 0.843122
O O11 0.839451 0.749848 0.250000
O O12 0.736495 0.851479 0.354912
O O13 0.990064 0.791580 0.377656
O O14 0.871840 0.167852 0.750000
#
# Coordination Sequence:
#
# PCOD9436142 Si02
#       6
#     8   8   8   8   8   8
#     4  11  21  34  54  82 112 141 183 242 284 313
#     4  10  19  35  56  79 108 148 187 223 273 342
#     4   9  17  33  54  76 101 140 186 223 263 326
#     4  10  19  35  56  78 104 143 188 230 274 332
#     4  11  21  34  54  82 114 146 182 230 284 335
#     4   7  14  29  52  75  97 130 177 216 254 316
#
# _framework density 19.002711000000001
#
# number of rings (size 3 to 8) (size 9 to 14) (size 15 to 20)
#    0.000    2.333    0.000    6.500    0.000    0.000 
#    0.000    1.667    0.000    8.000    0.000    0.000 
#    0.000    0.000    0.000    0.000    0.000    0.000 
#
# Total GULP energy -267546.879049 kJ/mol
# GULP energy per Si atom -5573.893314 kJ/mol
# Density = 1.895946 g / cm^3
# Si number density = 19.002711 Si / 1000 Ang^3
#
#
#
# Elastic Constant Matrix: (Units=GPa)
#
#
# Indices 1 2 3 4 5 6 
#
# 1 116.3861 10.8467 -5.0186 0.0000 0.0000 0.0000
# 2 10.8467 45.3769 -8.4051 0.0000 0.0000 0.0000
# 3 -5.0186 -8.4051 43.3766 0.0000 0.0000 0.0000
# 4 0.0000 0.0000 0.0000 32.7960 0.0000 0.0000
# 5 0.0000 0.0000 0.0000 0.0000 12.6088 0.0000
# 6 0.0000 0.0000 0.0000 0.0000 0.0000 16.0933
#
#
#
# Elastic Compliance Matrix: (Units=1/GPa)
#
#
# Indices 1 2 3 4 5 6 
#
# 1 0.008805 -0.001987 0.000634 0.000000 0.000000 0.000000
# 2 -0.001987 0.023307 0.004286 0.000000 0.000000 0.000000
# 3 0.000634 0.004286 0.023958 0.000000 0.000000 0.000000
# 4 0.000000 0.000000 0.000000 0.030492 0.000000 0.000000
# 5 0.000000 0.000000 0.000000 0.000000 0.079310 0.000000
# 6 0.000000 0.000000 0.000000 0.000000 0.000000 0.062138
#
#
# Mechanical properties :
#
#
# Convention : Reuss Voigt Hill
#
# Bulk Modulus (GPa) = 16.14621 22.22063 19.18342
# Shear Modulus (GPa) = 20.59415 26.14740 23.37078
#
# Velocity S-wave (km/s) = 3.29560 3.71345 3.51075
# Velocity P-wave (km/s) = 4.79548 5.48681 5.15275
#
# Compressibility (1/GPa) = 0.06193405
#
# Stress axis : x y z
#
# Youngs Moduli (GPa) = 113.57682 42.90634 41.74014
#
# Poissons Ratio (x) = 0.08527 -0.02645
# Poissons Ratio (y) = 0.22571 -0.17891
# Poissons Ratio (z) = -0.07196 -0.18390
#
# Static dielectric constant tensor:
#      x y z
#    x 1.682680 0.000000 0.000000 
#    y 0.000000 1.662150 0.000000 
#    z 0.000000 0.000000 1.692330 
# 
# From -- ./inp_files/16398.got.cif
#   From: 2010.05.17/outbox.cif.g08.bks.cpg/sg57_9_cif.got.tgz:16398.got - 2010.06.03 13:58:18.
