data_PCOD9436072
_publ_section_title
;
Structure prediction by ZEFSAII (Michael W. Deem and Ramdas Pophale) SiO2 
 PCOD9436072
Probable space group: P B C M
;
_chemical_formula_sum "Si O2"
_cell_formula_units_Z 64
_cell_length_a 15.999351
_cell_length_b 24.492346
_cell_length_c 7.998082
_cell_angle_alpha 90.000000
_cell_angle_beta 90.000000
_cell_angle_gamma 90.000000
_cell_volume 3134.141533
_symmetry_space_group_name_H-M "P B C M"
_symmetry_group_IT_number 57
_symmetry_cell_setting 'orthorhombic'
loop_
_space_group_symop_operation_xyz
x,y,z
-x,-y,1/2+z
x,1/2-y,-z
-x,1/2+y,1/2-z
-x,-y,-z
x,y,1/2-z
-x,1/2+y,z
x,1/2-y,1/2+z
loop_
_atom_site_type_symbol
_atom_site_label
_atom_site_fract_x
_atom_site_fract_y
_atom_site_fract_z
Si Si1 0.343308 0.116375 0.955127
Si Si2 0.402983 0.998249 0.548437
Si Si3 0.996746 0.312804 0.452333
Si Si4 0.661339 0.117867 0.448830
Si Si5 0.158725 0.123900 0.949069
Si Si6 0.097221 0.005173 0.450679
Si Si7 0.498616 0.687140 0.949418
Si Si8 0.844686 0.387906 0.050112
O O1 0.343385 0.116823 0.750000
O O2 0.251965 0.135029 0.013814
O O3 0.420550 0.153557 0.012357
O O4 0.359340 0.053935 0.008916
O O5 0.398199 0.997467 0.750000
O O6 0.362351 0.942413 0.483314
O O7 0.500000 0.000000 0.500000
O O8 0.988573 0.250000 0.500000
O O9 0.997291 0.316341 0.250000
O O10 0.083436 0.339010 0.516245
O O11 0.918850 0.349194 0.513840
O O12 0.666264 0.114167 0.250000
O O13 0.586654 0.158695 0.492128
O O14 0.752691 0.133711 0.511899
O O15 0.161451 0.132900 0.750000
O O16 0.135396 0.060666 0.977862
O O17 0.102966 0.007915 0.250000
O O18 0.143064 0.950071 0.512166
O O19 0.000000 0.000000 0.500000
O O20 0.499868 0.683684 0.750000
O O21 0.502469 0.750000 0.000000
O O22 0.854053 0.390569 0.250000
#
# Coordination Sequence:
#
# PCOD9436072 Si02
#       8
#     8   8   8   8   8   8   8   8
#     4   9  19  36  61  87 116 157 193 231 293 350
#     4  10  19  34  57  87 118 150 189 230 285 349
#     4  10  22  40  60  83 114 153 195 242 291 341
#     4  11  23  38  61  92 119 153 196 243 297 355
#     4  10  20  39  62  87 121 156 193 241 294 354
#     4  11  21  36  60  90 122 157 195 239 295 354
#     4  11  23  41  62  85 117 158 201 248 296 348
#     4  10  22  40  59  85 120 158 195 240 296 350
#
# _framework density 20.420266000000002
#
# number of rings (size 3 to 8) (size 9 to 14) (size 15 to 20)
#    0.000    1.750    2.500    1.875    0.000    4.500 
#    0.000    3.125    0.000    0.000    0.000    0.000 
#    0.000    0.000    0.000    0.000    0.000    0.000 
#
# Total GULP energy -357613.707916 kJ/mol
# GULP energy per Si atom -5587.714186 kJ/mol
# Density = 2.037379 g / cm^3
# Si number density = 20.420266 Si / 1000 Ang^3
#
#
#
# Elastic Constant Matrix: (Units=GPa)
#
#
# Indices 1 2 3 4 5 6 
#
# 1 140.6710 34.8909 -10.0152 0.0000 0.0000 0.0000
# 2 34.8909 103.6644 -10.6177 0.0000 0.0000 0.0000
# 3 -10.0152 -10.6177 9.8884 0.0000 0.0000 0.0000
# 4 0.0000 0.0000 0.0000 20.3818 0.0000 0.0000
# 5 0.0000 0.0000 0.0000 0.0000 12.3193 0.0000
# 6 0.0000 0.0000 0.0000 0.0000 0.0000 3.3782
#
#
#
# Elastic Compliance Matrix: (Units=1/GPa)
#
#
# Indices 1 2 3 4 5 6 
#
# 1 0.008051 -0.002106 0.005892 0.000000 0.000000 0.000000
# 2 -0.002106 0.011389 0.010096 0.000000 0.000000 0.000000
# 3 0.005892 0.010096 0.117937 0.000000 0.000000 0.000000
# 4 0.000000 0.000000 0.000000 0.049063 0.000000 0.000000
# 5 0.000000 0.000000 0.000000 0.000000 0.081173 0.000000
# 6 0.000000 0.000000 0.000000 0.000000 0.000000 0.296019
#
#
# Mechanical properties :
#
#
# Convention : Reuss Voigt Hill
#
# Bulk Modulus (GPa) = 6.05540 31.41557 18.73548
# Shear Modulus (GPa) = 8.46145 23.21358 15.83752
#
# Velocity S-wave (km/s) = 2.03781 3.37529 2.78794
# Velocity P-wave (km/s) = 2.91697 5.53245 4.42248
#
# Compressibility (1/GPa) = 0.16514199
#
# Stress axis : x y z
#
# Youngs Moduli (GPa) = 124.21294 87.80033 8.47912
#
# Poissons Ratio (x) = 0.18492 -0.04996
# Poissons Ratio (y) = 0.26161 -0.08561
# Poissons Ratio (z) = -0.73191 -0.88645
#
# Static dielectric constant tensor:
#      x y z
#    x 1.693890 0.000000 0.000000 
#    y 0.000000 1.701510 0.000000 
#    z 0.000000 0.000000 1.730090 
# 
# From -- ./inp_files/5546.got.cif
#   From: 2010.05.17/outbox.cif.g08.bks.cpg/sg57_3_cif.got.tgz:5546.got - 2010.06.03 13:58:18.
