data_PCOD9436331
_publ_section_title
;
Structure prediction by ZEFSAII (Michael W. Deem and Ramdas Pophale) SiO2 
 PCOD9436331
Probable space group: P B C M
;
_chemical_formula_sum "Si O2"
_cell_formula_units_Z 64
_cell_length_a 11.947656
_cell_length_b 15.423719
_cell_length_c 15.831175
_cell_angle_alpha 90.000000
_cell_angle_beta 90.000000
_cell_angle_gamma 90.000000
_cell_volume 2917.326008
_symmetry_space_group_name_H-M "P B C M"
_symmetry_group_IT_number 57
_symmetry_cell_setting 'orthorhombic'
loop_
_space_group_symop_operation_xyz
x,y,z
-x,-y,1/2+z
x,1/2-y,-z
-x,1/2+y,1/2-z
-x,-y,-z
x,y,1/2-z
-x,1/2+y,z
x,1/2-y,1/2+z
loop_
_atom_site_type_symbol
_atom_site_label
_atom_site_fract_x
_atom_site_fract_y
_atom_site_fract_z
Si Si1 0.316137 0.636593 0.351822
Si Si2 0.017232 0.229217 0.347140
Si Si3 0.716489 0.496210 0.344081
Si Si4 0.829324 0.980578 0.421457
Si Si5 0.947071 0.957777 0.897805
Si Si6 0.752563 0.789233 0.408514
Si Si7 0.424929 0.344068 0.852083
Si Si8 0.801689 0.318468 0.351895
O O1 0.309440 0.621828 0.250000
O O2 0.249268 0.560587 0.398059
O O3 0.446183 0.644914 0.375527
O O4 0.259877 0.728984 0.369986
O O5 0.985900 0.208236 0.250000
O O6 0.010548 0.141004 0.400176
O O7 0.144497 0.259903 0.350283
O O8 0.929806 0.301682 0.379046
O O9 0.668186 0.482388 0.250000
O O10 0.841344 0.534493 0.337151
O O11 0.642910 0.571664 0.385288
O O12 0.735677 0.402145 0.385375
O O13 0.886204 0.982840 0.514261
O O14 0.759908 0.892613 0.410889
O O15 0.945653 0.987108 0.368951
O O16 0.780686 0.750000 0.500000
O O17 0.637561 0.742839 0.382355
O O18 0.417546 0.343112 0.750000
O O19 0.804328 0.331571 0.250000
#
# Coordination Sequence:
#
# PCOD9436331 Si02
#       8
#     8   8   8   8   8   8   8   8
#     4  10  22  41  62  88 122 162 213 266 311 371
#     4  11  20  36  63  90 121 164 204 250 317 380
#     4  10  19  36  60  85 115 159 209 258 312 376
#     4  11  24  39  62  92 128 165 205 255 330 382
#     4  11  21  38  60  92 127 163 201 257 321 388
#     4  12  23  40  61  92 127 165 205 264 317 378
#     4  10  22  40  63  88 121 167 217 265 314 369
#     4   9  19  35  58  88 119 153 201 259 313 370
#
# _framework density 21.937897
#
# number of rings (size 3 to 8) (size 9 to 14) (size 15 to 20)
#    0.000    1.500    3.750    1.500    0.000    2.500 
#    0.000    6.875    0.000    0.000    0.000    0.000 
#    0.000    0.000    0.000    0.000    0.000    0.000 
#
# Total GULP energy -357251.841216 kJ/mol
# GULP energy per Si atom -5582.060019 kJ/mol
# Density = 2.188797 g / cm^3
# Si number density = 21.937897 Si / 1000 Ang^3
#
#
#
# Elastic Constant Matrix: (Units=GPa)
#
#
# Indices 1 2 3 4 5 6 
#
# 1 153.6465 72.9617 25.6991 0.0000 0.0000 0.0000
# 2 72.9617 162.6227 13.3449 0.0000 0.0000 0.0000
# 3 25.6991 13.3449 34.9182 0.0000 0.0000 0.0000
# 4 0.0000 0.0000 0.0000 22.2714 0.0000 0.0000
# 5 0.0000 0.0000 0.0000 0.0000 30.9412 0.0000
# 6 0.0000 0.0000 0.0000 0.0000 0.0000 -5.2692
#
#
#
# Elastic Compliance Matrix: (Units=1/GPa)
#
#
# Indices 1 2 3 4 5 6 
#
# 1 0.009139 -0.003663 -0.005326 0.000000 0.000000 0.000000
# 2 -0.003663 0.007817 -0.000291 0.000000 0.000000 0.000000
# 3 -0.005326 -0.000291 0.032670 0.000000 0.000000 0.000000
# 4 0.000000 0.000000 0.000000 0.044901 0.000000 0.000000
# 5 0.000000 0.000000 0.000000 0.000000 0.032319 0.000000
# 6 0.000000 0.000000 0.000000 0.000000 0.000000 -0.189781
#
#
# Mechanical properties :
#
#
# Convention : Reuss Voigt Hill
#
# Bulk Modulus (GPa) = 32.19158 63.91097 48.05128
# Shear Modulus (GPa) = -146.97100 25.53412 -60.71844
#
# Velocity S-wave (km/s) = -8.19387 3.41534 -5.26664
# Velocity P-wave (km/s) = 8.64948 6.68944 3.87717
#
# Compressibility (1/GPa) = 0.03106402
#
# Stress axis : x y z
#
# Youngs Moduli (GPa) = 109.42387 127.93304 30.60954
#
# Poissons Ratio (x) = 0.46863 0.16303
# Poissons Ratio (y) = 0.40083 0.00892
# Poissons Ratio (z) = 0.58279 0.03727
#
# Static dielectric constant tensor:
#      x y z
#    x 1.791930 0.000000 0.000000 
#    y 0.000000 1.825650 0.000000 
#    z 0.000000 0.000000 1.904450 
# 
# From -- ./inp_files/21998.got.cif
#   From: 2010.05.17/outbox.cif.g08.bks.cpg/sg57_11_cif.got.tgz:21998.got - 2010.06.03 13:58:18.
