data_PCOD9436322
_publ_section_title
;
Structure prediction by ZEFSAII (Michael W. Deem and Ramdas Pophale) SiO2 
 PCOD9436322
Probable space group: P B C M
;
_chemical_formula_sum "Si O2"
_cell_formula_units_Z 56
_cell_length_a 8.855490
_cell_length_b 16.801611
_cell_length_c 18.715942
_cell_angle_alpha 90.000000
_cell_angle_beta 90.000000
_cell_angle_gamma 90.000000
_cell_volume 2784.679471
_symmetry_space_group_name_H-M "P B C M"
_symmetry_group_IT_number 57
_symmetry_cell_setting 'orthorhombic'
loop_
_space_group_symop_operation_xyz
x,y,z
-x,-y,1/2+z
x,1/2-y,-z
-x,1/2+y,1/2-z
-x,-y,-z
x,y,1/2-z
-x,1/2+y,z
x,1/2-y,1/2+z
loop_
_atom_site_type_symbol
_atom_site_label
_atom_site_fract_x
_atom_site_fract_y
_atom_site_fract_z
Si Si1 0.731410 0.142284 0.977239
Si Si2 0.967378 0.635793 0.911222
Si Si3 0.543816 0.816710 0.943601
Si Si4 0.841282 0.493977 0.329641
Si Si5 0.767768 0.547039 0.473790
Si Si6 0.293772 0.282857 0.332021
Si Si7 0.419043 0.624492 0.829341
O O1 0.642107 0.160546 0.903232
O O2 0.900240 0.169479 0.961270
O O3 0.738844 0.046382 0.984398
O O4 0.634477 0.174446 0.042778
O O5 0.053440 0.581334 0.851880
O O6 0.857850 0.699001 0.874910
O O7 0.867689 0.579967 0.962207
O O8 0.619003 0.899721 0.966428
O O9 0.606554 0.786210 0.868497
O O10 0.599068 0.750000 0.000000
O O11 0.877182 0.522181 0.250000
O O12 0.851071 0.552894 0.396557
O O13 0.667833 0.460190 0.329125
O O14 0.261895 0.264880 0.250000
O O15 0.401494 0.362110 0.334395
O O16 0.378940 0.658907 0.750000
#
# Coordination Sequence:
#
# PCOD9436322 Si02
#       7
#     8   8   8   8   8   8   8
#     4  10  20  36  60  85 117 155 199 254 299 354
#     4  10  19  36  59  88 116 156 204 251 302 363
#     4  12  22  38  56  87 119 158 203 249 306 359
#     4   9  18  33  56  85 116 155 198 246 305 364
#     4  10  20  36  60  86 117 155 204 258 303 361
#     4  11  22  37  58  86 123 159 199 249 301 367
#     4   8  15  30  51  78 109 145 188 233 284 346
#
# _framework density 20.110035
#
# number of rings (size 3 to 8) (size 9 to 14) (size 15 to 20)
#    0.000    2.286    2.857    2.571    0.000    2.286 
#    2.571    0.000    0.000    4.286    0.000    0.000 
#    0.000    0.000    0.000    0.000    0.000    0.000 
#
# Total GULP energy -311861.750809 kJ/mol
# GULP energy per Si atom -5568.959836 kJ/mol
# Density = 2.006426 g / cm^3
# Si number density = 20.110035 Si / 1000 Ang^3
#
#
#
# Elastic Constant Matrix: (Units=GPa)
#
#
# Indices 1 2 3 4 5 6 
#
# 1 115.3306 29.4456 41.9317 0.0000 0.0000 0.0000
# 2 29.4456 48.7551 45.7073 0.0000 0.0000 0.0000
# 3 41.9317 45.7073 108.1841 0.0000 0.0000 0.0000
# 4 0.0000 0.0000 0.0000 23.2904 0.0000 0.0000
# 5 0.0000 0.0000 0.0000 0.0000 20.1608 0.0000
# 6 0.0000 0.0000 0.0000 0.0000 0.0000 16.2905
#
#
#
# Elastic Compliance Matrix: (Units=1/GPa)
#
#
# Indices 1 2 3 4 5 6 
#
# 1 0.010593 -0.004220 -0.002323 0.000000 0.000000 0.000000
# 2 -0.004220 0.035644 -0.013424 0.000000 0.000000 0.000000
# 3 -0.002323 -0.013424 0.015815 0.000000 0.000000 0.000000
# 4 0.000000 0.000000 0.000000 0.042936 0.000000 0.000000
# 5 0.000000 0.000000 0.000000 0.000000 0.049601 0.000000
# 6 0.000000 0.000000 0.000000 0.000000 0.000000 0.061385
#
#
# Mechanical properties :
#
#
# Convention : Reuss Voigt Hill
#
# Bulk Modulus (GPa) = 45.21007 56.27101 50.74054
# Shear Modulus (GPa) = 18.99117 22.29402 20.64260
#
# Velocity S-wave (km/s) = 3.07638 3.33318 3.20735
# Velocity P-wave (km/s) = 5.92866 6.54643 6.24519
#
# Compressibility (1/GPa) = 0.02211897
#
# Stress axis : x y z
#
# Youngs Moduli (GPa) = 94.40532 28.05537 63.22992
#
# Poissons Ratio (x) = 0.11839 0.14687
# Poissons Ratio (y) = 0.39837 0.84878
# Poissons Ratio (z) = 0.21929 0.37661
#
# Static dielectric constant tensor:
#      x y z
#    x 1.752310 0.000000 0.000000 
#    y 0.000000 1.765410 0.000000 
#    z 0.000000 0.000000 1.742650 
# 
# From -- ./inp_files/24532.got.cif
#   From: 2010.05.17/outbox.cif.g08.bks.cpg/sg57_13_cif.got.tgz:24532.got - 2010.06.03 13:58:18.
