data_PCOD9436633
_publ_section_title
;
Structure prediction by ZEFSAII (Michael W. Deem and Ramdas Pophale) SiO2 
 PCOD9436633
Probable space group: P B C M
;
_chemical_formula_sum "Si O2"
_cell_formula_units_Z 48
_cell_length_a 24.174175
_cell_length_b 13.982940
_cell_length_c 8.725221
_cell_angle_alpha 90.000000
_cell_angle_beta 90.000000
_cell_angle_gamma 90.000000
_cell_volume 2949.351890
_symmetry_space_group_name_H-M "P B C M"
_symmetry_group_IT_number 57
_symmetry_cell_setting 'orthorhombic'
loop_
_space_group_symop_operation_xyz
x,y,z
-x,-y,1/2+z
x,1/2-y,-z
-x,1/2+y,1/2-z
-x,-y,-z
x,y,1/2-z
-x,1/2+y,z
x,1/2-y,1/2+z
loop_
_atom_site_type_symbol
_atom_site_label
_atom_site_fract_x
_atom_site_fract_y
_atom_site_fract_z
Si Si1 0.525949 0.855343 0.933281
Si Si2 0.412756 0.965933 0.933050
Si Si3 0.689831 0.355574 0.066907
Si Si4 0.978682 0.647507 0.066795
Si Si5 0.809541 0.355634 0.566927
Si Si6 0.085445 0.544818 0.566936
O O1 0.532176 0.854974 0.750000
O O2 0.464401 0.895480 0.968821
O O3 0.532621 0.750000 0.000000
O O4 0.568401 0.930713 0.006597
O O5 0.405510 0.967663 0.750000
O O6 0.358053 0.926495 0.012862
O O7 0.692538 0.350146 0.250000
O O8 0.677423 0.250000 0.000000
O O9 0.749715 0.383442 0.000065
O O10 0.985114 0.653143 0.250000
O O11 0.935065 0.562912 0.032563
O O12 0.962655 0.750000 0.000000
O O13 0.036642 0.613755 0.993428
O O14 0.822048 0.250000 0.500000
O O15 0.806873 0.350203 0.750000
O O16 0.857728 0.426003 0.512693
O O17 0.090440 0.555238 0.750000
#
# Coordination Sequence:
#
# PCOD9436633 Si02
#       6
#     8   8   8   8   8   8
#     4  10  20  33  51  75 103 135 169 207 250 297
#     4  10  20  34  52  75 103 134 169 207 250 298
#     4  11  21  34  52  75 103 133 167 205 249 298
#     4  10  20  33  51  74 101 132 165 203 245 292
#     4  11  21  34  52  74 101 132 166 204 248 295
#     4  10  20  34  51  73 101 132 166 203 246 294
#
# _framework density 16.274761999999999
#
# number of rings (size 3 to 8) (size 9 to 14) (size 15 to 20)
#    0.000    1.667    0.000    7.000    0.000    5.333 
#    0.000    0.000    0.000    1.000    0.000    4.667 
#    0.000    0.000    0.000    0.000    0.000    0.000 
#
# Total GULP energy -268158.232106 kJ/mol
# GULP energy per Si atom -5586.629836 kJ/mol
# Density = 1.623772 g / cm^3
# Si number density = 16.274762 Si / 1000 Ang^3
#
#
#
# Elastic Constant Matrix: (Units=GPa)
#
#
# Indices 1 2 3 4 5 6 
#
# 1 117.1559 78.9638 71.6471 0.0000 0.0000 0.0000
# 2 78.9638 119.0049 66.1778 0.0000 0.0000 0.0000
# 3 71.6471 66.1778 122.8379 0.0000 0.0000 0.0000
# 4 0.0000 0.0000 0.0000 30.0451 0.0000 0.0000
# 5 0.0000 0.0000 0.0000 0.0000 29.1745 0.0000
# 6 0.0000 0.0000 0.0000 0.0000 0.0000 18.9060
#
#
#
# Elastic Compliance Matrix: (Units=1/GPa)
#
#
# Indices 1 2 3 4 5 6 
#
# 1 0.017915 -0.008676 -0.005775 0.000000 0.000000 0.000000
# 2 -0.008676 0.016199 -0.003667 0.000000 0.000000 0.000000
# 3 -0.005775 -0.003667 0.013485 0.000000 0.000000 0.000000
# 4 0.000000 0.000000 0.000000 0.033283 0.000000 0.000000
# 5 0.000000 0.000000 0.000000 0.000000 0.034277 0.000000
# 6 0.000000 0.000000 0.000000 0.000000 0.000000 0.052893
#
#
# Mechanical properties :
#
#
# Convention : Reuss Voigt Hill
#
# Bulk Modulus (GPa) = 88.00358 88.06401 88.03380
# Shear Modulus (GPa) = 24.02993 25.10579 24.56786
#
# Velocity S-wave (km/s) = 3.84671 3.93188 3.88953
# Velocity P-wave (km/s) = 8.59771 8.65108 8.62444
#
# Compressibility (1/GPa) = 0.01136317
#
# Stress axis : x y z
#
# Youngs Moduli (GPa) = 55.81946 61.73388 74.15801
#
# Poissons Ratio (x) = 0.53558 0.42828
# Poissons Ratio (y) = 0.48426 0.27191
# Poissons Ratio (z) = 0.32237 0.22636
#
# Static dielectric constant tensor:
#      x y z
#    x 1.526700 0.000000 0.000000 
#    y 0.000000 1.527030 0.000000 
#    z 0.000000 0.000000 1.540020 
# 
# From -- ./inp_files/9103.got.cif
#   From: 2010.05.17/outbox.cif.g08.bks.cpg/sg57_5_cif.got.tgz:9103.got - 2010.06.03 13:58:18.
