data_PCOD9436414
_publ_section_title
;
Structure prediction by ZEFSAII (Michael W. Deem and Ramdas Pophale) SiO2 
 PCOD9436414
Probable space group: P B C M
;
_chemical_formula_sum "Si O2"
_cell_formula_units_Z 64
_cell_length_a 24.283207
_cell_length_b 15.827652
_cell_length_c 8.588556
_cell_angle_alpha 90.000000
_cell_angle_beta 90.000000
_cell_angle_gamma 90.000000
_cell_volume 3300.978431
_symmetry_space_group_name_H-M "P B C M"
_symmetry_group_IT_number 57
_symmetry_cell_setting 'orthorhombic'
loop_
_space_group_symop_operation_xyz
x,y,z
-x,-y,1/2+z
x,1/2-y,-z
-x,1/2+y,1/2-z
-x,-y,-z
x,y,1/2-z
-x,1/2+y,z
x,1/2-y,1/2+z
loop_
_atom_site_type_symbol
_atom_site_label
_atom_site_fract_x
_atom_site_fract_y
_atom_site_fract_z
Si Si1 0.938209 0.497824 0.437231
Si Si2 0.248672 0.099987 0.937852
Si Si3 0.369653 0.658932 0.437415
Si Si4 0.131091 0.840731 0.937059
Si Si5 0.561863 0.000374 0.563884
Si Si6 0.749760 0.096893 0.061026
Si Si7 0.629794 0.658788 0.562852
Si Si8 0.132857 0.339790 0.935859
O O1 0.938580 0.495589 0.250000
O O2 0.906575 0.416117 0.500933
O O3 0.904748 0.581611 0.487871
O O4 0.000000 0.500000 0.500000
O O5 0.244543 0.102882 0.750000
O O6 0.306450 0.142140 0.983052
O O7 0.249864 0.001448 0.986043
O O8 0.195088 0.143571 0.007794
O O9 0.387404 0.750000 0.500000
O O10 0.371192 0.658222 0.250000
O O11 0.406595 0.582769 0.500338
O O12 0.306588 0.640988 0.490070
O O13 0.130050 0.840917 0.750000
O O14 0.193987 0.858974 0.990738
O O15 0.113237 0.750000 0.000000
O O16 0.561614 0.001584 0.750000
O O17 0.500000 0.000000 0.500000
O O18 0.593635 0.917267 0.504248
O O19 0.749557 0.097838 0.250000
O O20 0.612327 0.750000 0.500000
O O21 0.626678 0.656881 0.750000
O O22 0.132307 0.337176 0.750000
O O23 0.113308 0.250000 0.000000
#
# Coordination Sequence:
#
# PCOD9436414 Si02
#       8
#     8   8   8   8   8   8   8   8
#     4  11  25  44  64  89 120 160 210 261 311 366
#     4  10  19  37  64  93 127 166 203 247 305 367
#     4  11  22  41  65  96 131 166 208 255 307 369
#     4  11  22  39  64  93 127 165 205 251 307 367
#     4  12  26  45  67  92 122 164 212 262 315 368
#     4   9  18  35  62  93 127 166 202 245 305 366
#     4  11  23  41  65  95 130 166 207 255 308 370
#     4  11  24  40  62  93 125 160 204 253 307 369
#
# _framework density 19.388190999999999
#
# number of rings (size 3 to 8) (size 9 to 14) (size 15 to 20)
#    0.000    1.250    2.500    3.750    0.000    4.500 
#    0.000    5.625    0.000    0.000    0.000    0.000 
#    0.000    0.000    0.000    0.000    0.000    0.000 
#
# Total GULP energy -357954.402226 kJ/mol
# GULP energy per Si atom -5593.037535 kJ/mol
# Density = 1.934406 g / cm^3
# Si number density = 19.388191 Si / 1000 Ang^3
#
#
#
# Elastic Constant Matrix: (Units=GPa)
#
#
# Indices 1 2 3 4 5 6 
#
# 1 157.5261 91.1083 50.5337 0.0000 0.0000 0.0000
# 2 91.1083 207.1714 56.0228 0.0000 0.0000 0.0000
# 3 50.5337 56.0228 75.9899 0.0000 0.0000 0.0000
# 4 0.0000 0.0000 0.0000 33.3851 0.0000 0.0000
# 5 0.0000 0.0000 0.0000 0.0000 28.3230 0.0000
# 6 0.0000 0.0000 0.0000 0.0000 0.0000 -5.3263
#
#
#
# Elastic Compliance Matrix: (Units=1/GPa)
#
#
# Indices 1 2 3 4 5 6 
#
# 1 0.009395 -0.003050 -0.003999 0.000000 0.000000 0.000000
# 2 -0.003050 0.007019 -0.003146 0.000000 0.000000 0.000000
# 3 -0.003999 -0.003146 0.018139 0.000000 0.000000 0.000000
# 4 0.000000 0.000000 0.000000 0.029953 0.000000 0.000000
# 5 0.000000 0.000000 0.000000 0.000000 0.035307 0.000000
# 6 0.000000 0.000000 0.000000 0.000000 0.000000 -0.187748
#
#
# Mechanical properties :
#
#
# Convention : Reuss Voigt Hill
#
# Bulk Modulus (GPa) = 70.61341 92.89077 81.75209
# Shear Modulus (GPa) = -79.59002 27.47786 -26.05608
#
# Velocity S-wave (km/s) = -6.41404 3.76872 -3.66992
# Velocity P-wave (km/s) = 4.28407 8.18246 4.92947
#
# Compressibility (1/GPa) = 0.01416162
#
# Stress axis : x y z
#
# Youngs Moduli (GPa) = 106.43642 142.46618 55.13090
#
# Poissons Ratio (x) = 0.43457 0.22047
# Poissons Ratio (y) = 0.32467 0.17346
# Poissons Ratio (z) = 0.42565 0.44825
#
# Static dielectric constant tensor:
#      x y z
#    x 1.655100 0.000000 0.000000 
#    y 0.000000 1.660290 0.000000 
#    z 0.000000 0.000000 1.649790 
# 
# From -- ./inp_files/9379.got.cif
#   From: 2010.05.17/outbox.cif.g08.bks.cpg/sg57_5_cif.got.tgz:9379.got - 2010.06.03 13:58:18.
