data_PCOD9436065
_publ_section_title
;
Structure prediction by ZEFSAII (Michael W. Deem and Ramdas Pophale) SiO2 
 PCOD9436065
Probable space group: P B C M
;
_chemical_formula_sum "Si O2"
_cell_formula_units_Z 64
_cell_length_a 10.665220
_cell_length_b 16.643660
_cell_length_c 17.422102
_cell_angle_alpha 90.000000
_cell_angle_beta 90.000000
_cell_angle_gamma 90.000000
_cell_volume 3092.567630
_symmetry_space_group_name_H-M "P B C M"
_symmetry_group_IT_number 57
_symmetry_cell_setting 'orthorhombic'
loop_
_space_group_symop_operation_xyz
x,y,z
-x,-y,1/2+z
x,1/2-y,-z
-x,1/2+y,1/2-z
-x,-y,-z
x,y,1/2-z
-x,1/2+y,z
x,1/2-y,1/2+z
loop_
_atom_site_type_symbol
_atom_site_label
_atom_site_fract_x
_atom_site_fract_y
_atom_site_fract_z
Si Si1 0.407684 0.119917 0.662710
Si Si2 0.637465 0.710208 0.158096
Si Si3 0.777538 0.473685 0.661747
Si Si4 0.348836 0.805201 0.842497
Si Si5 0.406576 0.557691 0.951107
Si Si6 0.807484 0.180494 0.560657
Si Si7 0.251715 0.448090 0.660841
Si Si8 0.020466 0.563320 0.841622
O O1 0.458784 0.129588 0.750000
O O2 0.324074 0.197963 0.645570
O O3 0.507300 0.118464 0.595918
O O4 0.336205 0.036326 0.660486
O O5 0.630729 0.702527 0.250000
O O6 0.494707 0.693455 0.130212
O O7 0.734875 0.643094 0.132592
O O8 0.818912 0.461698 0.750000
O O9 0.724169 0.387665 0.638096
O O10 0.892284 0.524096 0.626380
O O11 0.351579 0.799153 0.750000
O O12 0.274230 0.730668 0.877604
O O13 0.287092 0.612903 0.975950
O O14 0.347395 0.498625 0.888707
O O15 0.500000 0.500000 0.000000
O O16 0.846693 0.250000 0.500000
O O17 0.917869 0.133296 0.606116
O O18 0.289006 0.453787 0.750000
O O19 0.118061 0.489494 0.655312
O O20 0.008336 0.587534 0.750000
#
# Coordination Sequence:
#
# PCOD9436065 Si02
#       8
#     8   8   8   8   8   8   8   8
#     4  10  19  34  57  85 118 149 183 236 299 355
#     4   9  17  30  53  85 113 140 181 232 289 351
#     4   9  19  35  60  90 114 145 194 247 294 351
#     4  10  19  35  59  87 113 147 194 244 299 354
#     4  11  23  34  55  82 116 153 190 239 295 349
#     4  11  24  38  57  85 120 158 199 246 292 351
#     4   9  18  34  57  79 108 148 190 232 287 355
#     4   9  19  40  62  85 117 155 199 243 293 350
#
# _framework density 20.694779
#
# number of rings (size 3 to 8) (size 9 to 14) (size 15 to 20)
#    0.000    2.250    1.250    1.500    3.500    3.000 
#    2.250    0.625    0.000    0.750    0.000    0.000 
#    0.000    0.000    0.000    0.000    0.000    0.000 
#
# Total GULP energy -356349.882797 kJ/mol
# GULP energy per Si atom -5567.966919 kJ/mol
# Density = 2.064768 g / cm^3
# Si number density = 20.694779 Si / 1000 Ang^3
#
#
#
# Elastic Constant Matrix: (Units=GPa)
#
#
# Indices 1 2 3 4 5 6 
#
# 1 28.9086 9.7255 14.0304 0.0000 0.0000 0.0000
# 2 9.7255 117.4279 19.4864 0.0000 0.0000 0.0000
# 3 14.0304 19.4864 52.5944 0.0000 0.0000 0.0000
# 4 0.0000 0.0000 0.0000 27.5307 0.0000 0.0000
# 5 0.0000 0.0000 0.0000 0.0000 -5.8245 0.0000
# 6 0.0000 0.0000 0.0000 0.0000 0.0000 45.2036
#
#
#
# Elastic Compliance Matrix: (Units=1/GPa)
#
#
# Indices 1 2 3 4 5 6 
#
# 1 0.040032 -0.001644 -0.010070 0.000000 0.000000 0.000000
# 2 -0.001644 0.009141 -0.002948 0.000000 0.000000 0.000000
# 3 -0.010070 -0.002948 0.022792 0.000000 0.000000 0.000000
# 4 0.000000 0.000000 0.000000 0.036323 0.000000 0.000000
# 5 0.000000 0.000000 0.000000 0.000000 -0.171687 0.000000
# 6 0.000000 0.000000 0.000000 0.000000 0.000000 0.022122
#
#
# Mechanical properties :
#
#
# Convention : Reuss Voigt Hill
#
# Bulk Modulus (GPa) = 23.45192 31.71284 27.58238
# Shear Modulus (GPa) = 2210.04785 23.76119 1116.90452
#
# Velocity S-wave (km/s) = 32.71458 3.39215 23.25672
# Velocity P-wave (km/s) = 37.92557 5.54072 27.10210
#
# Compressibility (1/GPa) = 0.04264043
#
# Stress axis : x y z
#
# Youngs Moduli (GPa) = 24.97975 109.39368 43.87487
#
# Poissons Ratio (x) = 0.17989 0.44182
# Poissons Ratio (y) = 0.04108 0.12935
# Poissons Ratio (z) = 0.25155 0.32251
#
# Static dielectric constant tensor:
#      x y z
#    x 1.785960 0.000000 0.000000 
#    y 0.000000 1.764740 0.000000 
#    z 0.000000 0.000000 1.783390 
# 
# From -- ./inp_files/22098.got.cif
#   From: 2010.05.17/outbox.cif.g08.bks.cpg/sg57_12_cif.got.tgz:22098.got - 2010.06.03 13:58:18.
