data_PCOD9436437
_publ_section_title
;
Structure prediction by ZEFSAII (Michael W. Deem and Ramdas Pophale) SiO2 
 PCOD9436437
Probable space group: P B C M
;
_chemical_formula_sum "Si O2"
_cell_formula_units_Z 40
_cell_length_a 12.820717
_cell_length_b 10.239318
_cell_length_c 17.025108
_cell_angle_alpha 90.000000
_cell_angle_beta 90.000000
_cell_angle_gamma 90.000000
_cell_volume 2234.977835
_symmetry_space_group_name_H-M "P B C M"
_symmetry_group_IT_number 57
_symmetry_cell_setting 'orthorhombic'
loop_
_space_group_symop_operation_xyz
x,y,z
-x,-y,1/2+z
x,1/2-y,-z
-x,1/2+y,1/2-z
-x,-y,-z
x,y,1/2-z
-x,1/2+y,z
x,1/2-y,1/2+z
loop_
_atom_site_type_symbol
_atom_site_label
_atom_site_fract_x
_atom_site_fract_y
_atom_site_fract_z
Si Si1 0.127249 0.119554 0.952463
Si Si2 0.497559 0.374145 0.055589
Si Si3 0.113500 0.867265 0.061379
Si Si4 0.306792 0.714040 0.657399
Si Si5 0.308307 0.027581 0.657304
O O1 0.206661 0.085920 0.883961
O O2 0.009519 0.133874 0.919529
O O3 0.154156 0.250000 0.000000
O O4 0.131862 0.001608 0.015057
O O5 0.605057 0.349933 0.102389
O O6 0.406877 0.402410 0.117915
O O7 0.476785 0.250000 0.000000
O O8 0.500000 0.500000 0.000000
O O9 0.194651 0.842385 0.131033
O O10 0.131866 0.750000 0.000000
O O11 0.325501 0.691126 0.750000
O O12 0.310640 0.870729 0.643523
O O13 0.307482 0.048541 0.750000
#
# Coordination Sequence:
#
# PCOD9436437 Si02
#       5
#     8   8   8   8   8
#     4  10  21  37  62  92 119 155 201 250 288 343
#     4  12  23  41  65  89 117 157 204 246 292 357
#     4  10  19  38  64  87 117 158 204 239 289 358
#     4  11  23  40  62  89 123 159 196 244 305 361
#     4  11  23  40  61  89 124 157 196 248 305 356
#
# _framework density 17.897269000000001
#
# number of rings (size 3 to 8) (size 9 to 14) (size 15 to 20)
#    0.000    1.200    4.000    3.000    0.000    0.800 
#    0.000    3.000    0.000    0.000    0.000    0.000 
#    0.000    0.000    0.000    0.000    0.000    0.000 
#
# Total GULP energy -223453.979644 kJ/mol
# GULP energy per Si atom -5586.349491 kJ/mol
# Density = 1.785653 g / cm^3
# Si number density = 17.897269 Si / 1000 Ang^3
#
#
#
# Elastic Constant Matrix: (Units=GPa)
#
#
# Indices 1 2 3 4 5 6 
#
# 1 100.9906 46.3988 89.3829 0.0000 0.0000 0.0000
# 2 46.3988 134.9457 69.0642 0.0000 0.0000 0.0000
# 3 89.3829 69.0642 125.6504 0.0000 0.0000 0.0000
# 4 0.0000 0.0000 0.0000 30.5657 0.0000 0.0000
# 5 0.0000 0.0000 0.0000 0.0000 -29.8067 0.0000
# 6 0.0000 0.0000 0.0000 0.0000 0.0000 4.2028
#
#
#
# Elastic Compliance Matrix: (Units=1/GPa)
#
#
# Indices 1 2 3 4 5 6 
#
# 1 0.026788 0.000754 -0.019471 0.000000 0.000000 0.000000
# 2 0.000754 0.010332 -0.006216 0.000000 0.000000 0.000000
# 3 -0.019471 -0.006216 0.025226 0.000000 0.000000 0.000000
# 4 0.000000 0.000000 0.000000 0.032716 0.000000 0.000000
# 5 0.000000 0.000000 0.000000 0.000000 -0.033550 0.000000
# 6 0.000000 0.000000 0.000000 0.000000 0.000000 0.237934
#
#
# Mechanical properties :
#
#
# Convention : Reuss Voigt Hill
#
# Bulk Modulus (GPa) = 80.11575 85.69759 82.90667
# Shear Modulus (GPa) = 14.14540 11.44176 12.79358
#
# Velocity S-wave (km/s) = 2.81440 2.53119 2.67654
# Velocity P-wave (km/s) = 7.44463 7.51861 7.48171
#
# Compressibility (1/GPa) = 0.01248194
#
# Stress axis : x y z
#
# Youngs Moduli (GPa) = 37.33019 96.78489 39.64217
#
# Poissons Ratio (x) = -0.07300 0.77185
# Poissons Ratio (y) = -0.02816 0.24640
# Poissons Ratio (z) = 0.72684 0.60159
#
# Static dielectric constant tensor:
#      x y z
#    x 1.622760 0.000000 0.000000 
#    y 0.000000 1.616110 0.000000 
#    z 0.000000 0.000000 1.579440 
# 
# From -- ./inp_files/18231.got.cif
#   From: 2010.05.17/outbox.cif.g08.bks.cpg/sg57_10_cif.got.tgz:18231.got - 2010.06.03 13:58:18.
