data_PCOD9436852
_publ_section_title
;
Structure prediction by ZEFSAII (Michael W. Deem and Ramdas Pophale) SiO2 
 PCOD9436852
Probable space group: P B C M
;
_chemical_formula_sum "Si O2"
_cell_formula_units_Z 64
_cell_length_a 16.063535
_cell_length_b 25.566814
_cell_length_c 8.761457
_cell_angle_alpha 90.000000
_cell_angle_beta 90.000000
_cell_angle_gamma 90.000000
_cell_volume 3598.272665
_symmetry_space_group_name_H-M "P B C M"
_symmetry_group_IT_number 57
_symmetry_cell_setting 'orthorhombic'
loop_
_space_group_symop_operation_xyz
x,y,z
-x,-y,1/2+z
x,1/2-y,-z
-x,1/2+y,1/2-z
-x,-y,-z
x,y,1/2-z
-x,1/2+y,z
x,1/2-y,1/2+z
loop_
_atom_site_type_symbol
_atom_site_label
_atom_site_fract_x
_atom_site_fract_y
_atom_site_fract_z
Si Si1 0.648072 0.595617 0.933967
Si Si2 0.097472 0.695930 0.430327
Si Si3 0.020688 0.446680 0.081277
Si Si4 0.474598 0.555832 0.932806
Si Si5 0.835261 0.402083 0.077685
Si Si6 0.079421 0.339824 0.435441
Si Si7 0.253916 0.305164 0.567126
Si Si8 0.301014 0.517192 0.565693
O O1 0.655520 0.598699 0.750000
O O2 0.549423 0.594375 0.978780
O O3 0.694262 0.644703 0.008588
O O4 0.684931 0.539296 0.988549
O O5 0.128533 0.750000 0.500000
O O6 0.087057 0.699309 0.250000
O O7 0.159630 0.648938 0.474087
O O8 0.006479 0.684955 0.504742
O O9 0.052746 0.458772 0.250000
O O10 0.930881 0.419328 0.090800
O O11 0.000000 0.500000 0.000000
O O12 0.078767 0.401231 0.013895
O O13 0.478324 0.553896 0.750000
O O14 0.377148 0.557129 0.973174
O O15 0.500000 0.500000 0.000000
O O16 0.805657 0.389136 0.250000
O O17 0.782133 0.451603 0.022481
O O18 0.080066 0.161538 0.750000
O O19 0.160225 0.312722 0.503362
O O20 0.285945 0.250000 0.500000
O O21 0.253265 0.303437 0.750000
O O22 0.300702 0.508799 0.750000
#
# Coordination Sequence:
#
# PCOD9436852 Si02
#       8
#     8   8   8   8   8   8   8   8
#     4  10  20  34  53  80 111 142 176 217 266 320
#     4  11  21  35  55  76 100 135 176 219 264 312
#     4   9  19  32  47  69 102 140 173 210 254 305
#     4   8  15  29  51  78 107 137 169 206 251 304
#     4   9  19  34  50  74 105 137 174 217 262 308
#     4  10  21  38  55  76 103 136 177 222 267 312
#     4  12  25  40  57  78 105 140 182 228 272 321
#     4   9  17  32  55  82 111 143 178 218 265 318
#
# _framework density 17.786311000000001
#
# number of rings (size 3 to 8) (size 9 to 14) (size 15 to 20)
#    0.000    2.250    0.000    4.125    1.750    3.500 
#    0.000    0.000    0.000    0.750    0.000    0.000 
#    0.000    0.000    0.000    0.000    0.000    0.000 
#
# Total GULP energy -356510.135556 kJ/mol
# GULP energy per Si atom -5570.470868 kJ/mol
# Density = 1.774583 g / cm^3
# Si number density = 17.786311 Si / 1000 Ang^3
#
#
#
# Elastic Constant Matrix: (Units=GPa)
#
#
# Indices 1 2 3 4 5 6 
#
# 1 56.0602 30.4545 18.0838 0.0000 0.0000 0.0000
# 2 30.4545 123.0670 49.7882 0.0000 0.0000 0.0000
# 3 18.0838 49.7882 81.3191 0.0000 0.0000 0.0000
# 4 0.0000 0.0000 0.0000 29.7271 0.0000 0.0000
# 5 0.0000 0.0000 0.0000 0.0000 17.9728 0.0000
# 6 0.0000 0.0000 0.0000 0.0000 0.0000 21.1211
#
#
#
# Elastic Compliance Matrix: (Units=1/GPa)
#
#
# Indices 1 2 3 4 5 6 
#
# 1 0.020842 -0.004363 -0.001963 0.000000 0.000000 0.000000
# 2 -0.004363 0.011714 -0.006202 0.000000 0.000000 0.000000
# 3 -0.001963 -0.006202 0.016531 0.000000 0.000000 0.000000
# 4 0.000000 0.000000 0.000000 0.033639 0.000000 0.000000
# 5 0.000000 0.000000 0.000000 0.000000 0.055640 0.000000
# 6 0.000000 0.000000 0.000000 0.000000 0.000000 0.047346
#
#
# Mechanical properties :
#
#
# Convention : Reuss Voigt Hill
#
# Bulk Modulus (GPa) = 41.61460 50.78879 46.20170
# Shear Modulus (GPa) = 22.85408 24.57218 23.71313
#
# Velocity S-wave (km/s) = 3.58847 3.72092 3.65529
# Velocity P-wave (km/s) = 6.37317 6.86129 6.62173
#
# Compressibility (1/GPa) = 0.02403003
#
# Stress axis : x y z
#
# Youngs Moduli (GPa) = 47.98095 85.36453 60.49223
#
# Poissons Ratio (x) = 0.37246 0.11877
# Poissons Ratio (y) = 0.20935 0.37517
# Poissons Ratio (z) = 0.09420 0.52943
#
# Static dielectric constant tensor:
#      x y z
#    x 1.640330 0.000000 0.000000 
#    y 0.000000 1.626210 0.000000 
#    z 0.000000 0.000000 1.625950 
# 
# From -- ./inp_files/5662.got.cif
#   From: 2010.05.17/outbox.cif.g08.bks.cpg/sg57_3_cif.got.tgz:5662.got - 2010.06.03 13:58:18.
