data_PCOD9436123
_publ_section_title
;
Structure prediction by ZEFSAII (Michael W. Deem and Ramdas Pophale) SiO2 
 PCOD9436123
Probable space group: P B C M
;
_chemical_formula_sum "Si O2"
_cell_formula_units_Z 48
_cell_length_a 10.360667
_cell_length_b 14.321579
_cell_length_c 14.315610
_cell_angle_alpha 90.000000
_cell_angle_beta 90.000000
_cell_angle_gamma 90.000000
_cell_volume 2124.166115
_symmetry_space_group_name_H-M "P B C M"
_symmetry_group_IT_number 57
_symmetry_cell_setting 'orthorhombic'
loop_
_space_group_symop_operation_xyz
x,y,z
-x,-y,1/2+z
x,1/2-y,-z
-x,1/2+y,1/2-z
-x,-y,-z
x,y,1/2-z
-x,1/2+y,z
x,1/2-y,1/2+z
loop_
_atom_site_type_symbol
_atom_site_label
_atom_site_fract_x
_atom_site_fract_y
_atom_site_fract_z
Si Si1 0.841891 0.695906 0.644750
Si Si2 0.973954 0.986932 0.364080
Si Si3 0.724111 0.465644 0.135980
Si Si4 0.621080 0.665100 0.135303
Si Si5 0.906888 0.304263 0.597391
Si Si6 0.630992 0.268787 0.357775
O O1 0.799217 0.673124 0.750000
O O2 0.883900 0.597715 0.600868
O O3 0.730907 0.761476 0.605175
O O4 0.972082 0.757094 0.649038
O O5 0.965775 0.991498 0.250000
O O6 0.932178 0.086049 0.403778
O O7 0.123598 0.966393 0.385901
O O8 0.718412 0.463517 0.250000
O O9 0.657246 0.561037 0.103544
O O10 0.657093 0.371181 0.099792
O O11 0.624372 0.660494 0.250000
O O12 0.483442 0.704889 0.104049
O O13 0.906415 0.250000 0.500000
O O14 0.767847 0.283232 0.640533
O O15 0.594309 0.285622 0.250000
#
# Coordination Sequence:
#
# PCOD9436123 Si02
#       6
#     8   8   8   8   8   8
#     4  10  19  36  60  86 109 141 190 241 284 330
#     4  10  19  34  61  86 109 143 188 238 283 331
#     4   9  16  30  56  85 109 140 179 232 289 328
#     4   9  18  32  57  87 113 138 183 240 286 334
#     4  12  24  36  54  83 117 154 188 230 277 336
#     4  10  20  36  57  81 111 148 187 232 284 337
#
# _framework density 22.597103000000001
#
# number of rings (size 3 to 8) (size 9 to 14) (size 15 to 20)
#    0.000    2.000    3.333    1.500    0.000    2.000 
#    0.000    5.833    0.000    2.000    0.000    0.000 
#    0.000    0.000    0.000    0.000    0.000    0.000 
#
# Total GULP energy -268277.732174 kJ/mol
# GULP energy per Si atom -5589.119420 kJ/mol
# Density = 2.254567 g / cm^3
# Si number density = 22.597103 Si / 1000 Ang^3
#
#
#
# Elastic Constant Matrix: (Units=GPa)
#
#
# Indices 1 2 3 4 5 6 
#
# 1 122.6968 55.5568 0.2575 0.0000 0.0000 0.0000
# 2 55.5568 130.0257 -8.4739 0.0000 0.0000 0.0000
# 3 0.2575 -8.4739 52.4129 0.0000 0.0000 0.0000
# 4 0.0000 0.0000 0.0000 15.7281 0.0000 0.0000
# 5 0.0000 0.0000 0.0000 0.0000 8.8687 0.0000
# 6 0.0000 0.0000 0.0000 0.0000 0.0000 23.7141
#
#
#
# Elastic Compliance Matrix: (Units=1/GPa)
#
#
# Indices 1 2 3 4 5 6 
#
# 1 0.010135 -0.004380 -0.000758 0.000000 0.000000 0.000000
# 2 -0.004380 0.009665 0.001584 0.000000 0.000000 0.000000
# 3 -0.000758 0.001584 0.019339 0.000000 0.000000 0.000000
# 4 0.000000 0.000000 0.000000 0.063581 0.000000 0.000000
# 5 0.000000 0.000000 0.000000 0.000000 0.112756 0.000000
# 6 0.000000 0.000000 0.000000 0.000000 0.000000 0.042169
#
#
# Mechanical properties :
#
#
# Convention : Reuss Voigt Hill
#
# Bulk Modulus (GPa) = 31.21840 44.42404 37.82122
# Shear Modulus (GPa) = 18.15349 26.84851 22.50100
#
# Velocity S-wave (km/s) = 2.83743 3.45068 3.15897
# Velocity P-wave (km/s) = 4.95781 5.96474 5.48443
#
# Compressibility (1/GPa) = 0.03203239
#
# Stress axis : x y z
#
# Youngs Moduli (GPa) = 98.66868 103.46172 51.70869
#
# Poissons Ratio (x) = 0.45314 0.03919
# Poissons Ratio (y) = 0.43215 -0.08192
# Poissons Ratio (z) = 0.07478 -0.16390
#
# Static dielectric constant tensor:
#      x y z
#    x 1.800190 0.000000 0.000000 
#    y 0.000000 1.810340 0.000000 
#    z 0.000000 0.000000 1.907220 
# 
# From -- ./inp_files/20901.got.cif
#   From: 2010.05.17/outbox.cif.g08.bks.cpg/sg57_11_cif.got.tgz:20901.got - 2010.06.03 13:58:18.
