data_PCOD9436804
_publ_section_title
;
Structure prediction by ZEFSAII (Michael W. Deem and Ramdas Pophale) SiO2 
 PCOD9436804
Probable space group: P B C M
;
_chemical_formula_sum "Si O2"
_cell_formula_units_Z 48
_cell_length_a 12.077629
_cell_length_b 26.071813
_cell_length_c 8.743934
_cell_angle_alpha 90.000000
_cell_angle_beta 90.000000
_cell_angle_gamma 90.000000
_cell_volume 2753.339645
_symmetry_space_group_name_H-M "P B C M"
_symmetry_group_IT_number 57
_symmetry_cell_setting 'orthorhombic'
loop_
_space_group_symop_operation_xyz
x,y,z
-x,-y,1/2+z
x,1/2-y,-z
-x,1/2+y,1/2-z
-x,-y,-z
x,y,1/2-z
-x,1/2+y,z
x,1/2-y,1/2+z
loop_
_atom_site_type_symbol
_atom_site_label
_atom_site_fract_x
_atom_site_fract_y
_atom_site_fract_z
Si Si1 0.502213 0.442337 0.933637
Si Si2 0.877556 0.999246 0.934115
Si Si3 0.125710 0.694029 0.934271
Si Si4 0.736545 0.600170 0.065509
Si Si5 0.729679 0.402892 0.064817
Si Si6 0.129249 0.306123 0.066840
O O1 0.504864 0.445870 0.750000
O O2 0.389347 0.413071 0.978159
O O3 0.500000 0.500000 0.000000
O O4 0.609908 0.412992 0.994288
O O5 0.883514 0.999322 0.750000
O O6 0.811831 0.948297 0.981805
O O7 0.808142 0.049418 0.979627
O O8 0.000000 0.000000 0.000000
O O9 0.128395 0.696577 0.750000
O O10 0.210241 0.649678 0.982888
O O11 0.998437 0.681148 0.978399
O O12 0.152110 0.750000 0.000000
O O13 0.740732 0.603947 0.250000
O O14 0.787618 0.651234 0.994984
O O15 0.720486 0.403082 0.250000
O O16 0.133856 0.304365 0.250000
O O17 0.153829 0.250000 0.000000
#
# Coordination Sequence:
#
# PCOD9436804 Si02
#       6
#     8   8   8   8   8   8
#     4  11  22  38  58  80 109 148 189 229 275 329
#     4  10  20  34  52  78 112 143 178 228 280 331
#     4   9  19  35  57  82 113 146 181 226 276 328
#     4  10  21  37  55  78 111 146 182 230 277 325
#     4  10  20  37  56  79 112 147 184 229 277 326
#     4  10  20  36  59  85 112 146 184 225 275 333
#
# _framework density 17.433374000000001
#
# number of rings (size 3 to 8) (size 9 to 14) (size 15 to 20)
#    0.000    2.000    1.667    2.000    0.000    5.333 
#    0.000    0.833    0.000    2.000    0.000    0.000 
#    0.000    0.000    0.000    0.000    0.000    0.000 
#
# Total GULP energy -268013.402184 kJ/mol
# GULP energy per Si atom -5583.612545 kJ/mol
# Density = 1.739370 g / cm^3
# Si number density = 17.433374 Si / 1000 Ang^3
#
#
#
# Elastic Constant Matrix: (Units=GPa)
#
#
# Indices 1 2 3 4 5 6 
#
# 1 189.3068 121.2366 47.4750 0.0000 0.0000 0.0000
# 2 121.2366 164.1309 44.3764 0.0000 0.0000 0.0000
# 3 47.4750 44.3764 24.9752 0.0000 0.0000 0.0000
# 4 0.0000 0.0000 0.0000 30.5866 0.0000 0.0000
# 5 0.0000 0.0000 0.0000 0.0000 31.8045 0.0000
# 6 0.0000 0.0000 0.0000 0.0000 0.0000 22.5275
#
#
#
# Elastic Compliance Matrix: (Units=1/GPa)
#
#
# Indices 1 2 3 4 5 6 
#
# 1 0.012032 -0.005203 -0.013626 0.000000 0.000000 0.000000
# 2 -0.005203 0.013976 -0.014942 0.000000 0.000000 0.000000
# 3 -0.013626 -0.014942 0.092490 0.000000 0.000000 0.000000
# 4 0.000000 0.000000 0.000000 0.032694 0.000000 0.000000
# 5 0.000000 0.000000 0.000000 0.000000 0.031442 0.000000
# 6 0.000000 0.000000 0.000000 0.000000 0.000000 0.044390
#
#
# Mechanical properties :
#
#
# Convention : Reuss Voigt Hill
#
# Bulk Modulus (GPa) = 19.62489 89.39875 54.51182
# Shear Modulus (GPa) = 16.04870 28.00538 22.02704
#
# Velocity S-wave (km/s) = 3.03739 4.01237 3.55843
# Velocity P-wave (km/s) = 4.85618 8.53563 6.94404
#
# Compressibility (1/GPa) = 0.05095571
#
# Stress axis : x y z
#
# Youngs Moduli (GPa) = 83.11181 71.55042 10.81200
#
# Poissons Ratio (x) = 0.37231 0.14732
# Poissons Ratio (y) = 0.43247 0.16155
# Poissons Ratio (z) = 1.13246 1.06910
#
# Static dielectric constant tensor:
#      x y z
#    x 1.573720 0.000000 0.000000 
#    y 0.000000 1.565970 0.000000 
#    z 0.000000 0.000000 1.591050 
# 
# From -- ./inp_files/3087.got.cif
#   From: 2010.05.17/outbox.cif.g08.bks.cpg/sg57_2_cif.got.tgz:3087.got - 2010.06.03 13:58:18.
