data_PCOD9436762
_publ_section_title
;
Structure prediction by ZEFSAII (Michael W. Deem and Ramdas Pophale) SiO2 
 PCOD9436762
Probable space group: P B C M
;
_chemical_formula_sum "Si O2"
_cell_formula_units_Z 48
_cell_length_a 15.339662
_cell_length_b 21.199626
_cell_length_c 8.701176
_cell_angle_alpha 90.000000
_cell_angle_beta 90.000000
_cell_angle_gamma 90.000000
_cell_volume 2829.579777
_symmetry_space_group_name_H-M "P B C M"
_symmetry_group_IT_number 57
_symmetry_cell_setting 'orthorhombic'
loop_
_space_group_symop_operation_xyz
x,y,z
-x,-y,1/2+z
x,1/2-y,-z
-x,1/2+y,1/2-z
-x,-y,-z
x,y,1/2-z
-x,1/2+y,z
x,1/2-y,1/2+z
loop_
_atom_site_type_symbol
_atom_site_label
_atom_site_fract_x
_atom_site_fract_y
_atom_site_fract_z
Si Si1 0.695386 0.346406 0.431990
Si Si2 0.924401 0.043551 0.434156
Si Si3 0.882665 0.184380 0.066087
Si Si4 0.489521 0.813175 0.933351
Si Si5 0.569330 0.550823 0.065489
Si Si6 0.725870 0.481807 0.934117
O O1 0.703216 0.338036 0.250000
O O2 0.781917 0.320479 0.513634
O O3 0.606412 0.317666 0.493658
O O4 0.692224 0.419757 0.478703
O O5 0.931906 0.044623 0.250000
O O6 0.924449 0.117318 0.485769
O O7 0.828674 0.015046 0.470406
O O8 0.000000 0.000000 0.500000
O O9 0.886068 0.186486 0.250000
O O10 0.919199 0.250000 0.000000
O O11 0.482013 0.808621 0.750000
O O12 0.537706 0.878536 0.970647
O O13 0.532533 0.750000 0.000000
O O14 0.572909 0.543815 0.250000
O O15 0.500000 0.500000 0.000000
O O16 0.663286 0.536942 0.991379
O O17 0.717003 0.472982 0.750000
#
# Coordination Sequence:
#
# PCOD9436762 Si02
#       6
#     8   8   8   8   8   8
#     4  11  20  31  50  75 105 142 178 213 263 319
#     4   9  20  36  56  81 109 139 174 221 270 320
#     4  10  20  34  51  76 109 141 174 215 266 322
#     4  11  23  36  50  72 105 142 182 226 269 316
#     4  11  22  35  55  79 106 142 183 223 265 316
#     4  10  20  35  54  79 109 139 177 223 268 318
#
# _framework density 16.963650000000001
#
# number of rings (size 3 to 8) (size 9 to 14) (size 15 to 20)
#    0.000    1.667    1.667    5.000    0.000    6.000 
#    0.000    0.000    0.000    1.000    0.000    0.000 
#    0.000    0.000    0.000    0.000    0.000    0.000 
#
# Total GULP energy -267909.464423 kJ/mol
# GULP energy per Si atom -5581.447175 kJ/mol
# Density = 1.692504 g / cm^3
# Si number density = 16.963650 Si / 1000 Ang^3
#
#
#
# Elastic Constant Matrix: (Units=GPa)
#
#
# Indices 1 2 3 4 5 6 
#
# 1 82.4771 67.2704 30.0910 0.0000 0.0000 0.0000
# 2 67.2704 141.4777 46.6676 0.0000 0.0000 0.0000
# 3 30.0910 46.6676 55.9702 0.0000 0.0000 0.0000
# 4 0.0000 0.0000 0.0000 31.5408 0.0000 0.0000
# 5 0.0000 0.0000 0.0000 0.0000 28.1022 0.0000
# 6 0.0000 0.0000 0.0000 0.0000 0.0000 19.2532
#
#
#
# Elastic Compliance Matrix: (Units=1/GPa)
#
#
# Indices 1 2 3 4 5 6 
#
# 1 0.020428 -0.008401 -0.003978 0.000000 0.000000 0.000000
# 2 -0.008401 0.013205 -0.006493 0.000000 0.000000 0.000000
# 3 -0.003978 -0.006493 0.025419 0.000000 0.000000 0.000000
# 4 0.000000 0.000000 0.000000 0.031705 0.000000 0.000000
# 5 0.000000 0.000000 0.000000 0.000000 0.035584 0.000000
# 6 0.000000 0.000000 0.000000 0.000000 0.000000 0.051939
#
#
# Mechanical properties :
#
#
# Convention : Reuss Voigt Hill
#
# Bulk Modulus (GPa) = 46.93184 63.10921 55.02053
# Shear Modulus (GPa) = 22.40867 24.83898 23.62382
#
# Velocity S-wave (km/s) = 3.63847 3.83070 3.73582
# Velocity P-wave (km/s) = 6.73628 7.53983 7.14936
#
# Compressibility (1/GPa) = 0.02130750
#
# Stress axis : x y z
#
# Youngs Moduli (GPa) = 48.95257 75.73064 39.34000
#
# Poissons Ratio (x) = 0.63621 0.15649
# Poissons Ratio (y) = 0.41125 0.25545
# Poissons Ratio (z) = 0.19473 0.49175
#
# Static dielectric constant tensor:
#      x y z
#    x 1.556710 0.000000 0.000000 
#    y 0.000000 1.677930 0.000000 
#    z 0.000000 0.000000 1.567640 
# 
# From -- ./inp_files/4858.got.cif
#   From: 2010.05.17/outbox.cif.g08.bks.cpg/sg57_3_cif.got.tgz:4858.got - 2010.06.03 13:58:18.
