data_PCOD9436321
_publ_section_title
;
Structure prediction by ZEFSAII (Michael W. Deem and Ramdas Pophale) SiO2 
 PCOD9436321
Probable space group: P B C M
;
_chemical_formula_sum "Si O2"
_cell_formula_units_Z 52
_cell_length_a 7.273062
_cell_length_b 11.273641
_cell_length_c 25.457628
_cell_angle_alpha 90.000000
_cell_angle_beta 90.000000
_cell_angle_gamma 90.000000
_cell_volume 2087.369949
_symmetry_space_group_name_H-M "P B C M"
_symmetry_group_IT_number 57
_symmetry_cell_setting 'orthorhombic'
loop_
_space_group_symop_operation_xyz
x,y,z
-x,-y,1/2+z
x,1/2-y,-z
-x,1/2+y,1/2-z
-x,-y,-z
x,y,1/2-z
-x,1/2+y,z
x,1/2-y,1/2+z
loop_
_atom_site_type_symbol
_atom_site_label
_atom_site_fract_x
_atom_site_fract_y
_atom_site_fract_z
Si Si1 0.399599 0.049886 0.919239
Si Si2 0.017501 0.909544 0.088428
Si Si3 0.041733 0.250000 0.500000
Si Si4 0.450961 0.610599 0.806773
Si Si5 0.090389 0.759662 0.190210
Si Si6 0.800389 0.913571 0.841213
Si Si7 0.619461 0.813592 0.930557
O O1 0.180965 0.039961 0.926356
O O2 0.435351 0.068292 0.856948
O O3 0.456752 0.180136 0.941960
O O4 0.494005 0.929139 0.939208
O O5 0.005215 0.832055 0.141651
O O6 0.074170 0.832100 0.038587
O O7 0.157737 0.006345 0.107772
O O8 0.187376 0.184459 0.461973
O O9 0.455246 0.126547 0.750000
O O10 0.308205 0.499832 0.803506
O O11 0.310053 0.721528 0.815776
O O12 0.047220 0.797795 0.250000
O O13 0.990566 0.633908 0.182037
O O14 0.670809 0.815582 0.867931
#
# Coordination Sequence:
#
# PCOD9436321 Si02
#       7
#     8   8   4   8   8   8   8
#     4  10  21  40  59  91 125 168 206 262 307 380
#     4  10  22  37  63  87 124 161 210 258 315 379
#     4  10  20  42  62  94 126 162 210 270 316 376
#     4   9  20  35  56  84 122 161 207 261 311 373
#     4  10  19  36  59  87 121 161 204 257 321 376
#     4  10  19  38  59  87 120 162 203 261 319 373
#     4  10  22  39  63  88 128 162 206 260 317 368
#
# _framework density 24.911732000000001
#
# number of rings (size 3 to 8) (size 9 to 14) (size 15 to 20)
#    0.000    2.154    3.077    0.462    2.154    4.308 
#    0.000    0.769    0.000    8.308    0.000    0.000 
#    0.000    0.000    0.000    0.000    0.000    0.000 
#
# Total GULP energy -289951.861085 kJ/mol
# GULP energy per Si atom -5575.997329 kJ/mol
# Density = 2.485503 g / cm^3
# Si number density = 24.911732 Si / 1000 Ang^3
#
#
#
# Elastic Constant Matrix: (Units=GPa)
#
#
# Indices 1 2 3 4 5 6 
#
# 1 38.0002 3.3959 -2.8754 0.0000 0.0000 0.0000
# 2 3.3959 81.1633 23.5305 0.0000 0.0000 0.0000
# 3 -2.8754 23.5305 96.8808 0.0000 0.0000 0.0000
# 4 0.0000 0.0000 0.0000 -7.9829 0.0000 0.0000
# 5 0.0000 0.0000 0.0000 0.0000 17.6003 0.0000
# 6 0.0000 0.0000 0.0000 0.0000 0.0000 37.0152
#
#
#
# Elastic Compliance Matrix: (Units=1/GPa)
#
#
# Indices 1 2 3 4 5 6 
#
# 1 0.026530 -0.001440 0.001137 0.000000 0.000000 0.000000
# 2 -0.001440 0.013332 -0.003281 0.000000 0.000000 0.000000
# 3 0.001137 -0.003281 0.011153 0.000000 0.000000 0.000000
# 4 0.000000 0.000000 0.000000 -0.125268 0.000000 0.000000
# 5 0.000000 0.000000 0.000000 0.000000 0.056817 0.000000
# 6 0.000000 0.000000 0.000000 0.000000 0.000000 0.027016
#
#
# Mechanical properties :
#
#
# Convention : Reuss Voigt Hill
#
# Bulk Modulus (GPa) = 22.80596 29.34959 26.07778
# Shear Modulus (GPa) = 159.42311 22.12610 90.77460
#
# Velocity S-wave (km/s) = 8.00838 2.98347 6.04298
# Velocity P-wave (km/s) = 9.73071 4.86571 7.69291
#
# Compressibility (1/GPa) = 0.04384818
#
# Stress axis : x y z
#
# Youngs Moduli (GPa) = 37.69272 75.00608 89.66543
#
# Poissons Ratio (x) = 0.10798 -0.10196
# Poissons Ratio (y) = 0.05427 0.29418
# Poissons Ratio (z) = -0.04286 0.24609
#
# Static dielectric constant tensor:
#      x y z
#    x 1.942740 0.000000 0.000000 
#    y 0.000000 2.089880 0.000000 
#    z 0.000000 0.000000 1.938490 
# 
# From -- ./inp_files/28334.got.cif
#   From: 2010.05.17/outbox.cif.g08.bks.cpg/sg57_15_cif.got.tgz:28334.got - 2010.06.03 13:58:18.
