data_PCOD9436449
_publ_section_title
;
Structure prediction by ZEFSAII (Michael W. Deem and Ramdas Pophale) SiO2 
 PCOD9436449
Probable space group: P B C M
;
_chemical_formula_sum "Si O2"
_cell_formula_units_Z 56
_cell_length_a 9.853650
_cell_length_b 20.632046
_cell_length_c 13.262565
_cell_angle_alpha 90.000000
_cell_angle_beta 90.000000
_cell_angle_gamma 90.000000
_cell_volume 2696.292197
_symmetry_space_group_name_H-M "P B C M"
_symmetry_group_IT_number 57
_symmetry_cell_setting 'orthorhombic'
loop_
_space_group_symop_operation_xyz
x,y,z
-x,-y,1/2+z
x,1/2-y,-z
-x,1/2+y,1/2-z
-x,-y,-z
x,y,1/2-z
-x,1/2+y,z
x,1/2-y,1/2+z
loop_
_atom_site_type_symbol
_atom_site_label
_atom_site_fract_x
_atom_site_fract_y
_atom_site_fract_z
Si Si1 0.842020 0.919637 0.367059
Si Si2 0.707147 0.353748 0.057235
Si Si3 0.881707 0.031196 0.631353
Si Si4 0.909689 0.816381 0.541435
Si Si5 0.791557 0.212421 0.368124
Si Si6 0.448886 0.431248 0.456417
Si Si7 0.712258 0.597828 0.361224
O O1 0.852462 0.898359 0.250000
O O2 0.890457 0.865465 0.447170
O O3 0.686909 0.938688 0.389773
O O4 0.956261 0.975388 0.382013
O O5 0.821491 0.408615 0.070693
O O6 0.749568 0.287846 0.114950
O O7 0.569953 0.389856 0.092203
O O8 0.698134 0.331436 0.940661
O O9 0.860052 0.045647 0.750000
O O10 0.796955 0.966870 0.609986
O O11 0.850830 0.750000 0.500000
O O12 0.820813 0.845435 0.630849
O O13 0.059180 0.801069 0.584240
O O14 0.788024 0.197186 0.250000
O O15 0.500000 0.500000 0.500000
O O16 0.398892 0.392324 0.554487
O O17 0.656283 0.589672 0.250000
#
# Coordination Sequence:
#
# PCOD9436449 Si02
#       7
#     8   8   8   8   8   8   8
#     4  10  23  41  66 100 134 175 221 269 335 405
#     4  11  22  42  67  99 133 177 222 275 335 402
#     4  10  19  38  69 101 132 169 217 272 332 400
#     4  11  21  41  65  96 128 168 215 284 336 390
#     4  11  23  41  68  98 128 172 226 277 330 397
#     4  11  24  42  66  95 138 178 216 276 335 406
#     4  10  23  40  65  97 132 174 219 273 340 402
#
# _framework density 20.769262999999999
#
# number of rings (size 3 to 8) (size 9 to 14) (size 15 to 20)
#    0.000    1.429    4.286    0.857    0.000    8.000 
#   10.286    1.429    0.000    0.000    0.000    0.000 
#    0.000    0.000    0.000    0.000    0.000    0.000 
#
# Total GULP energy -312399.193699 kJ/mol
# GULP energy per Si atom -5578.557030 kJ/mol
# Density = 2.072199 g / cm^3
# Si number density = 20.769263 Si / 1000 Ang^3
#
#
#
# Elastic Constant Matrix: (Units=GPa)
#
#
# Indices 1 2 3 4 5 6 
#
# 1 120.6441 24.5845 9.2453 0.0000 0.0000 0.0000
# 2 24.5845 66.3035 3.2798 0.0000 0.0000 0.0000
# 3 9.2453 3.2798 100.3463 0.0000 0.0000 0.0000
# 4 0.0000 0.0000 0.0000 16.1336 0.0000 0.0000
# 5 0.0000 0.0000 0.0000 0.0000 19.2208 0.0000
# 6 0.0000 0.0000 0.0000 0.0000 0.0000 28.4812
#
#
#
# Elastic Compliance Matrix: (Units=1/GPa)
#
#
# Indices 1 2 3 4 5 6 
#
# 1 0.009018 -0.003308 -0.000723 0.000000 0.000000 0.000000
# 2 -0.003308 0.016320 -0.000229 0.000000 0.000000 0.000000
# 3 -0.000723 -0.000229 0.010040 0.000000 0.000000 0.000000
# 4 0.000000 0.000000 0.000000 0.061982 0.000000 0.000000
# 5 0.000000 0.000000 0.000000 0.000000 0.052027 0.000000
# 6 0.000000 0.000000 0.000000 0.000000 0.000000 0.035111
#
#
# Mechanical properties :
#
#
# Convention : Reuss Voigt Hill
#
# Bulk Modulus (GPa) = 37.23158 40.16813 38.69986
# Shear Modulus (GPa) = 24.75611 29.44607 27.10109
#
# Velocity S-wave (km/s) = 3.45622 3.76942 3.61621
# Velocity P-wave (km/s) = 5.82173 6.19087 6.00913
#
# Compressibility (1/GPa) = 0.02685892
#
# Stress axis : x y z
#
# Youngs Moduli (GPa) = 110.88498 61.27423 99.60601
#
# Poissons Ratio (x) = 0.20270 0.07199
# Poissons Ratio (y) = 0.36682 0.02277
# Poissons Ratio (z) = 0.08014 0.01401
#
# Static dielectric constant tensor:
#      x y z
#    x 1.797710 0.000000 0.000000 
#    y 0.000000 1.895500 0.000000 
#    z 0.000000 0.000000 1.761750 
# 
# From -- ./inp_files/16727.got.cif
#   From: 2010.05.17/outbox.cif.g08.bks.cpg/sg57_9_cif.got.tgz:16727.got - 2010.06.03 13:58:18.
