data_PCOD9436245
_publ_section_title
;
Structure prediction by ZEFSAII (Michael W. Deem and Ramdas Pophale) SiO2 
 PCOD9436245
Probable space group: P B C M
;
_chemical_formula_sum "Si O2"
_cell_formula_units_Z 56
_cell_length_a 16.367075
_cell_length_b 14.087050
_cell_length_c 13.603537
_cell_angle_alpha 90.000000
_cell_angle_beta 90.000000
_cell_angle_gamma 90.000000
_cell_volume 3136.483237
_symmetry_space_group_name_H-M "P B C M"
_symmetry_group_IT_number 57
_symmetry_cell_setting 'orthorhombic'
loop_
_space_group_symop_operation_xyz
x,y,z
-x,-y,1/2+z
x,1/2-y,-z
-x,1/2+y,1/2-z
-x,-y,-z
x,y,1/2-z
-x,1/2+y,z
x,1/2-y,1/2+z
loop_
_atom_site_type_symbol
_atom_site_label
_atom_site_fract_x
_atom_site_fract_y
_atom_site_fract_z
Si Si1 0.569073 0.807003 0.135796
Si Si2 0.603727 0.404561 0.131641
Si Si3 0.221158 0.857075 0.135532
Si Si4 0.368607 0.386873 0.557666
Si Si5 0.811265 0.917921 0.864884
Si Si6 0.975658 0.892343 0.978973
Si Si7 0.944652 0.263052 0.133896
O O1 0.588452 0.824430 0.250000
O O2 0.476913 0.842856 0.116715
O O3 0.580283 0.696029 0.111168
O O4 0.624925 0.863299 0.057802
O O5 0.612755 0.420400 0.250000
O O6 0.687083 0.354712 0.094070
O O7 0.598950 0.508334 0.082844
O O8 0.229602 0.830848 0.250000
O O9 0.145545 0.795119 0.099899
O O10 0.194183 0.967262 0.130180
O O11 0.276111 0.381381 0.597456
O O12 0.823866 0.892285 0.750000
O O13 0.885390 0.886267 0.933708
O O14 0.034860 0.843180 0.898978
O O15 0.991462 0.830409 0.076601
O O16 0.000000 0.000000 0.000000
O O17 0.950980 0.275663 0.250000
#
# Coordination Sequence:
#
# PCOD9436245 Si02
#       7
#     8   8   8   8   8   8   8
#     4  10  20  33  53  82 116 147 186 243 290 332
#     4   9  17  32  57  83 109 148 192 235 282 337
#     4   8  15  31  55  80 107 145 192 232 274 334
#     4  10  20  35  55  81 109 150 198 233 279 346
#     4  10  19  35  60  83 110 150 192 233 278 342
#     4  11  22  36  57  86 113 146 190 237 293 340
#     4  10  21  36  56  84 117 151 190 240 287 342
#
# _framework density 17.854391
#
# number of rings (size 3 to 8) (size 9 to 14) (size 15 to 20)
#    0.000    2.286    1.429    3.000    0.000    2.857 
#    0.000    5.000    3.143    0.000    0.000    0.000 
#    0.000    0.000    0.000    0.000    0.000    0.000 
#
# Total GULP energy -312125.146224 kJ/mol
# GULP energy per Si atom -5573.663325 kJ/mol
# Density = 1.781375 g / cm^3
# Si number density = 17.854391 Si / 1000 Ang^3
#
#
#
# Elastic Constant Matrix: (Units=GPa)
#
#
# Indices 1 2 3 4 5 6 
#
# 1 119.2418 72.7240 56.0171 0.0000 0.0000 0.0000
# 2 72.7240 95.9702 39.8153 0.0000 0.0000 0.0000
# 3 56.0171 39.8153 118.4513 0.0000 0.0000 0.0000
# 4 0.0000 0.0000 0.0000 23.2746 0.0000 0.0000
# 5 0.0000 0.0000 0.0000 0.0000 27.7960 0.0000
# 6 0.0000 0.0000 0.0000 0.0000 0.0000 24.2977
#
#
#
# Elastic Compliance Matrix: (Units=1/GPa)
#
#
# Indices 1 2 3 4 5 6 
#
# 1 0.017367 -0.011334 -0.004404 0.000000 0.000000 0.000000
# 2 -0.011334 0.019505 -0.001196 0.000000 0.000000 0.000000
# 3 -0.004404 -0.001196 0.010927 0.000000 0.000000 0.000000
# 4 0.000000 0.000000 0.000000 0.042965 0.000000 0.000000
# 5 0.000000 0.000000 0.000000 0.000000 0.035976 0.000000
# 6 0.000000 0.000000 0.000000 0.000000 0.000000 0.041156
#
#
# Mechanical properties :
#
#
# Convention : Reuss Voigt Hill
#
# Bulk Modulus (GPa) = 71.77864 74.53068 73.15466
# Shear Modulus (GPa) = 24.22394 26.08079 25.15237
#
# Velocity S-wave (km/s) = 3.68740 3.82612 3.75740
# Velocity P-wave (km/s) = 7.64322 7.83283 7.73860
#
# Compressibility (1/GPa) = 0.01393172
#
# Stress axis : x y z
#
# Youngs Moduli (GPa) = 57.57973 51.27018 91.51698
#
# Poissons Ratio (x) = 0.58107 0.40300
# Poissons Ratio (y) = 0.65258 0.10948
# Poissons Ratio (z) = 0.25356 0.06134
#
# Static dielectric constant tensor:
#      x y z
#    x 1.626920 0.000000 0.000000 
#    y 0.000000 1.603940 0.000000 
#    z 0.000000 0.000000 1.626880 
# 
# From -- ./inp_files/18622.got.cif
#   From: 2010.05.17/outbox.cif.g08.bks.cpg/sg57_10_cif.got.tgz:18622.got - 2010.06.03 13:58:18.
