data_PCOD9436336
_publ_section_title
;
Structure prediction by ZEFSAII (Michael W. Deem and Ramdas Pophale) SiO2 
 PCOD9436336
Probable space group: P B C M
;
_chemical_formula_sum "Si O2"
_cell_formula_units_Z 40
_cell_length_a 7.821344
_cell_length_b 29.512893
_cell_length_c 8.898708
_cell_angle_alpha 90.000000
_cell_angle_beta 90.000000
_cell_angle_gamma 90.000000
_cell_volume 2054.093115
_symmetry_space_group_name_H-M "P B C M"
_symmetry_group_IT_number 57
_symmetry_cell_setting 'orthorhombic'
loop_
_space_group_symop_operation_xyz
x,y,z
-x,-y,1/2+z
x,1/2-y,-z
-x,1/2+y,1/2-z
-x,-y,-z
x,y,1/2-z
-x,1/2+y,z
x,1/2-y,1/2+z
loop_
_atom_site_type_symbol
_atom_site_label
_atom_site_fract_x
_atom_site_fract_y
_atom_site_fract_z
Si Si1 0.207609 0.297013 0.428210
Si Si2 0.695629 0.391570 0.571022
Si Si3 0.798015 0.202323 0.571148
Si Si4 0.344327 0.105780 0.930450
Si Si5 0.999974 0.049729 0.570193
O O1 0.266593 0.250000 0.500000
O O2 0.232269 0.293894 0.250000
O O3 0.297693 0.342951 0.480336
O O4 0.003316 0.301600 0.454363
O O5 0.706484 0.391466 0.750000
O O6 0.713114 0.340709 0.506460
O O7 0.513637 0.409935 0.514486
O O8 0.848778 0.420727 0.501195
O O9 0.742688 0.250000 0.500000
O O10 0.767236 0.201681 0.750000
O O11 0.373533 0.106410 0.750000
O O12 0.180085 0.074656 0.959437
O O13 0.977257 0.047820 0.750000
O O14 0.000000 0.000000 0.500000
#
# Coordination Sequence:
#
# PCOD9436336 Si02
#       5
#     8   8   8   8   8
#     4   9  18  34  58  88 121 162 206 250 303 359
#     4  12  25  40  63  96 129 167 210 255 310 374
#     4  10  19  36  60  90 126 168 213 258 308 365
#     4  10  22  42  65  90 125 167 208 255 311 369
#     4  11  24  46  71  94 123 161 205 261 321 376
#
# _framework density 19.473313999999998
#
# number of rings (size 3 to 8) (size 9 to 14) (size 15 to 20)
#    0.000    1.600    2.000    3.000    0.000    4.800 
#    0.000    2.000    0.000    0.000    0.000    0.000 
#    0.000    0.000    0.000    0.000    0.000    0.000 
#
# Total GULP energy -223665.513702 kJ/mol
# GULP energy per Si atom -5591.637843 kJ/mol
# Density = 1.942899 g / cm^3
# Si number density = 19.473314 Si / 1000 Ang^3
#
#
#
# Elastic Constant Matrix: (Units=GPa)
#
#
# Indices 1 2 3 4 5 6 
#
# 1 126.8947 68.0099 86.1820 0.0000 0.0000 0.0000
# 2 68.0099 132.5201 62.3630 0.0000 0.0000 0.0000
# 3 86.1820 62.3630 98.5147 0.0000 0.0000 0.0000
# 4 0.0000 0.0000 0.0000 34.2725 0.0000 0.0000
# 5 0.0000 0.0000 0.0000 0.0000 20.6631 0.0000
# 6 0.0000 0.0000 0.0000 0.0000 0.0000 -7.7213
#
#
#
# Elastic Compliance Matrix: (Units=1/GPa)
#
#
# Indices 1 2 3 4 5 6 
#
# 1 0.020179 -0.002918 -0.015806 0.000000 0.000000 0.000000
# 2 -0.002918 0.011170 -0.004518 0.000000 0.000000 0.000000
# 3 -0.015806 -0.004518 0.026838 0.000000 0.000000 0.000000
# 4 0.000000 0.000000 0.000000 0.029178 0.000000 0.000000
# 5 0.000000 0.000000 0.000000 0.000000 0.048396 0.000000
# 6 0.000000 0.000000 0.000000 0.000000 0.000000 -0.129513
#
#
# Mechanical properties :
#
#
# Convention : Reuss Voigt Hill
#
# Bulk Modulus (GPa) = 85.44750 87.89323 86.67036
# Shear Modulus (GPa) = 88.28817 18.86783 53.57800
#
# Velocity S-wave (km/s) = 6.74066 3.11610 5.25103
# Velocity P-wave (km/s) = 10.22529 7.62758 9.02043
#
# Compressibility (1/GPa) = 0.01170309
#
# Stress axis : x y z
#
# Youngs Moduli (GPa) = 49.55612 89.52775 37.26044
#
# Poissons Ratio (x) = 0.26123 0.58893
# Poissons Ratio (y) = 0.14460 0.16835
# Poissons Ratio (z) = 0.78328 0.40450
#
# Static dielectric constant tensor:
#      x y z
#    x 1.701150 0.000000 0.000000 
#    y 0.000000 1.664260 0.000000 
#    z 0.000000 0.000000 1.644220 
# 
# From -- ./inp_files/1815.got.cif
#   From: 2010.05.17/outbox.cif.g08.bks.cpg/sg57_1_cif.got.tgz:1815.got - 2010.06.03 13:58:18.
