data_PCOD9436508
_publ_section_title
;
Structure prediction by ZEFSAII (Michael W. Deem and Ramdas Pophale) SiO2 
 PCOD9436508
Probable space group: P B C M
;
_chemical_formula_sum "Si O2"
_cell_formula_units_Z 56
_cell_length_a 24.555450
_cell_length_b 8.644613
_cell_length_c 14.765635
_cell_angle_alpha 90.000000
_cell_angle_beta 90.000000
_cell_angle_gamma 90.000000
_cell_volume 3134.336222
_symmetry_space_group_name_H-M "P B C M"
_symmetry_group_IT_number 57
_symmetry_cell_setting 'orthorhombic'
loop_
_space_group_symop_operation_xyz
x,y,z
-x,-y,1/2+z
x,1/2-y,-z
-x,1/2+y,1/2-z
-x,-y,-z
x,y,1/2-z
-x,1/2+y,z
x,1/2-y,1/2+z
loop_
_atom_site_type_symbol
_atom_site_label
_atom_site_fract_x
_atom_site_fract_y
_atom_site_fract_z
Si Si1 0.057955 0.436431 0.145693
Si Si2 0.644017 0.062742 0.355125
Si Si3 0.266428 0.935819 0.500000
Si Si4 0.439218 0.065415 0.500000
Si Si5 0.644017 0.437257 0.355124
Si Si6 0.145283 0.436638 0.500000
Si Si7 0.057955 0.063571 0.145693
O O1 0.064257 0.485263 0.250000
O O2 0.055428 0.250001 0.142448
O O3 0.000000 0.500001 0.112367
O O4 0.109084 0.486439 0.085993
O O5 0.645181 0.015525 0.250000
O O6 0.698082 0.017791 0.411816
O O7 0.640271 0.250000 0.358309
O O8 0.593895 0.994681 0.412221
O O9 0.263352 0.750000 0.500000
O O10 0.301918 0.982209 0.411816
O O11 0.206092 0.001444 0.500000
O O12 0.440083 0.250000 0.500000
O O13 0.500000 0.000000 0.500000
O O14 0.406105 0.005318 0.412221
O O15 0.645181 0.484475 0.250000
O O16 0.147697 0.250000 0.500000
O O17 0.109084 0.486438 0.585993
O O18 0.064257 0.014738 0.250000
#
# Coordination Sequence:
#
# PCOD9436508 Si02
#       7
#     8   8   8   8   8   8   8
#     4   9  18  32  48  67  92 122 158 201 249 301
#     4   9  19  38  60  79 105 142 180 220 265 308
#     4   9  19  34  52  77 104 131 170 216 257 302
#     4  11  22  36  56  84 116 145 177 217 259 308
#     4   9  19  38  60  79 105 142 180 220 265 308
#     4  10  20  32  47  69  98 130 161 199 250 304
#     4   9  18  32  48  67  92 122 158 201 249 301
#
# _framework density 17.866620999999999
#
# number of rings (size 3 to 8) (size 9 to 14) (size 15 to 20)
#    0.000    2.571    0.000    2.571    0.000    5.714 
#    0.000    0.000    0.000    0.000    0.000    0.000 
#    0.000    0.000    0.000    0.000    0.000    0.000 
#
# Total GULP energy -312375.717509 kJ/mol
# GULP energy per Si atom -5578.137813 kJ/mol
# Density = 1.782596 g / cm^3
# Si number density = 17.866621 Si / 1000 Ang^3
#
#
#
# Elastic Constant Matrix: (Units=GPa)
#
#
# Indices 1 2 3 4 5 6 
#
# 1 208.9560 37.7873 108.8038 0.0000 0.0000 0.0000
# 2 37.7873 17.1701 37.4199 0.0000 0.0000 0.0000
# 3 108.8038 37.4199 171.3354 0.0000 0.0000 0.0000
# 4 0.0000 0.0000 0.0000 7.4508 0.0000 0.0000
# 5 0.0000 0.0000 0.0000 0.0000 18.7839 0.0000
# 6 0.0000 0.0000 0.0000 0.0000 0.0000 37.8741
#
#
#
# Elastic Compliance Matrix: (Units=1/GPa)
#
#
# Indices 1 2 3 4 5 6 
#
# 1 0.008474 -0.013209 -0.002497 0.000000 0.000000 0.000000
# 2 -0.013209 0.131731 -0.020382 0.000000 0.000000 0.000000
# 3 -0.002497 -0.020382 0.011873 0.000000 0.000000 0.000000
# 4 0.000000 0.000000 0.000000 0.134213 0.000000 0.000000
# 5 0.000000 0.000000 0.000000 0.000000 0.053237 0.000000
# 6 0.000000 0.000000 0.000000 0.000000 0.000000 0.026403
#
#
# Mechanical properties :
#
#
# Convention : Reuss Voigt Hill
#
# Bulk Modulus (GPa) = 12.51513 85.05371 48.78442
# Shear Modulus (GPa) = 10.75866 27.05181 18.90523
#
# Velocity S-wave (km/s) = 2.45657 3.89536 3.25642
# Velocity P-wave (km/s) = 3.88153 8.24257 6.44229
#
# Compressibility (1/GPa) = 0.07990326
#
# Stress axis : x y z
#
# Youngs Moduli (GPa) = 118.00218 7.59124 84.22158
#
# Poissons Ratio (x) = 0.10027 0.21027
# Poissons Ratio (y) = 1.55869 1.71661
# Poissons Ratio (z) = 0.29461 0.15472
#
# Static dielectric constant tensor:
#      x y z
#    x 1.575410 0.000000 0.000000 
#    y 0.000000 1.602800 0.000000 
#    z 0.000000 0.000000 1.624390 
# 
# From -- ./inp_files/19366.got.cif
#   From: 2010.05.17/outbox.cif.g08.bks.cpg/sg57_10_cif.got.tgz:19366.got - 2010.06.03 13:58:18.
