data_PCOD9436190
_publ_section_title
;
Structure prediction by ZEFSAII (Michael W. Deem and Ramdas Pophale) SiO2 
 PCOD9436190
Probable space group: P B C M
;
_chemical_formula_sum "Si O2"
_cell_formula_units_Z 64
_cell_length_a 5.256997
_cell_length_b 21.203318
_cell_length_c 30.035587
_cell_angle_alpha 90.000000
_cell_angle_beta 90.000000
_cell_angle_gamma 90.000000
_cell_volume 3347.940106
_symmetry_space_group_name_H-M "P B C M"
_symmetry_group_IT_number 57
_symmetry_cell_setting 'orthorhombic'
loop_
_space_group_symop_operation_xyz
x,y,z
-x,-y,1/2+z
x,1/2-y,-z
-x,1/2+y,1/2-z
-x,-y,-z
x,y,1/2-z
-x,1/2+y,z
x,1/2-y,1/2+z
loop_
_atom_site_type_symbol
_atom_site_label
_atom_site_fract_x
_atom_site_fract_y
_atom_site_fract_z
Si Si1 0.417890 0.072348 0.552414
Si Si2 0.788753 0.591083 0.413400
Si Si3 0.483995 0.879200 0.300963
Si Si4 0.256692 0.536550 0.633122
Si Si5 0.860375 0.714637 0.144549
Si Si6 0.274513 0.938110 0.968949
Si Si7 0.139816 0.352708 0.116394
Si Si8 0.342420 0.739771 0.301526
O O1 0.508752 0.043840 0.599390
O O2 0.647754 0.082928 0.518417
O O3 0.281336 0.134508 0.569558
O O4 0.260144 0.014776 0.531108
O O5 0.837158 0.533314 0.378337
O O6 0.811138 0.656443 0.387678
O O7 0.516477 0.582008 0.437959
O O8 0.014139 0.587362 0.449379
O O9 0.575907 0.883896 0.250000
O O10 0.342724 0.942430 0.317715
O O11 0.695291 0.865441 0.338564
O O12 0.308114 0.816356 0.303186
O O13 0.072361 0.593219 0.618258
O O14 0.928661 0.779529 0.118947
O O15 0.601923 0.725177 0.172444
O O16 0.101567 0.705794 0.176814
O O17 0.370578 0.722883 0.250000
#
# Coordination Sequence:
#
# PCOD9436190 Si02
#       8
#     8   8   8   8   8   8   8   8
#     4   9  20  34  60  86 113 144 199 241 285 340
#     4  11  23  38  59  84 120 154 193 232 297 348
#     4   9  19  34  55  86 114 143 189 242 287 336
#     4  10  19  35  59  83 112 150 188 238 288 341
#     4  11  22  38  59  83 117 155 190 237 292 352
#     4  10  21  37  60  87 113 153 193 242 284 346
#     4  10  19  35  58  82 112 153 193 237 289 342
#     4  10  20  37  61  85 108 149 200 239 277 338
#
# _framework density 19.116233000000001
#
# number of rings (size 3 to 8) (size 9 to 14) (size 15 to 20)
#    0.000    2.000    2.500    1.125    1.750    2.500 
#    0.000    1.875    0.000    0.000    0.000    0.000 
#    0.000    0.000    0.000    0.000    0.000    0.000 
#
# Total GULP energy -356624.775347 kJ/mol
# GULP energy per Si atom -5572.262115 kJ/mol
# Density = 1.907272 g / cm^3
# Si number density = 19.116233 Si / 1000 Ang^3
#
#
#
# Elastic Constant Matrix: (Units=GPa)
#
#
# Indices 1 2 3 4 5 6 
#
# 1 66.5913 12.6190 18.6446 0.0000 0.0000 0.0000
# 2 12.6190 78.3334 29.8080 0.0000 0.0000 0.0000
# 3 18.6446 29.8080 85.8457 0.0000 0.0000 0.0000
# 4 0.0000 0.0000 0.0000 27.5458 0.0000 0.0000
# 5 0.0000 0.0000 0.0000 0.0000 16.7563 0.0000
# 6 0.0000 0.0000 0.0000 0.0000 0.0000 13.0890
#
#
#
# Elastic Compliance Matrix: (Units=1/GPa)
#
#
# Indices 1 2 3 4 5 6 
#
# 1 0.016133 -0.001458 -0.002997 0.000000 0.000000 0.000000
# 2 -0.001458 0.014841 -0.004837 0.000000 0.000000 0.000000
# 3 -0.002997 -0.004837 0.013979 0.000000 0.000000 0.000000
# 4 0.000000 0.000000 0.000000 0.036303 0.000000 0.000000
# 5 0.000000 0.000000 0.000000 0.000000 0.059679 0.000000
# 6 0.000000 0.000000 0.000000 0.000000 0.000000 0.076400
#
#
# Mechanical properties :
#
#
# Convention : Reuss Voigt Hill
#
# Bulk Modulus (GPa) = 37.92402 39.21262 38.56832
# Shear Modulus (GPa) = 20.43240 22.79147 21.61194
#
# Velocity S-wave (km/s) = 3.27288 3.45665 3.36602
# Velocity P-wave (km/s) = 5.84500 6.04057 5.94359
#
# Compressibility (1/GPa) = 0.02636851
#
# Stress axis : x y z
#
# Youngs Moduli (GPa) = 61.98642 67.37942 71.53473
#
# Poissons Ratio (x) = 0.09826 0.21442
# Poissons Ratio (y) = 0.09039 0.34599
# Poissons Ratio (z) = 0.18580 0.32589
#
# Static dielectric constant tensor:
#      x y z
#    x 1.742050 0.000000 0.000000 
#    y 0.000000 1.684450 0.000000 
#    z 0.000000 0.000000 1.709910 
# 
# From -- ./inp_files/28137.got.cif
#   From: 2010.05.17/outbox.cif.g08.bks.cpg/sg57_15_cif.got.tgz:28137.got - 2010.06.03 13:58:18.
