data_PCOD9436404
_publ_section_title
;
Structure prediction by ZEFSAII (Michael W. Deem and Ramdas Pophale) SiO2 
 PCOD9436404
Probable space group: P B C M
;
_chemical_formula_sum "Si O2"
_cell_formula_units_Z 48
_cell_length_a 9.293517
_cell_length_b 11.890505
_cell_length_c 18.587870
_cell_angle_alpha 90.000000
_cell_angle_beta 90.000000
_cell_angle_gamma 90.000000
_cell_volume 2054.045332
_symmetry_space_group_name_H-M "P B C M"
_symmetry_group_IT_number 57
_symmetry_cell_setting 'orthorhombic'
loop_
_space_group_symop_operation_xyz
x,y,z
-x,-y,1/2+z
x,1/2-y,-z
-x,1/2+y,1/2-z
-x,-y,-z
x,y,1/2-z
-x,1/2+y,z
x,1/2-y,1/2+z
loop_
_atom_site_type_symbol
_atom_site_label
_atom_site_fract_x
_atom_site_fract_y
_atom_site_fract_z
Si Si1 0.723727 0.627494 0.423972
Si Si2 0.327890 0.512819 0.172833
Si Si3 0.609848 0.203659 0.077840
Si Si4 0.968866 0.873423 0.472617
Si Si5 0.108947 0.308066 0.169664
Si Si6 0.653997 0.422236 0.168422
O O1 0.560294 0.672041 0.425175
O O2 0.800271 0.632214 0.501509
O O3 0.820079 0.700810 0.368871
O O4 0.724636 0.503269 0.390565
O O5 0.302721 0.572379 0.250000
O O6 0.306035 0.593775 0.105194
O O7 0.230894 0.403289 0.172767
O O8 0.491896 0.472038 0.172162
O O9 0.638300 0.298109 0.137263
O O10 0.648881 0.250000 0.000000
O O11 0.025631 0.750000 0.500000
O O12 0.998577 0.861519 0.387943
O O13 0.000000 0.000000 0.500000
O O14 0.056930 0.284310 0.250000
O O15 0.713349 0.427390 0.250000
#
# Coordination Sequence:
#
# PCOD9436404 Si02
#       6
#     8   8   8   8   8   8
#     4  10  21  37  60  87 119 159 208 248 305 373
#     4   9  19  32  51  78 115 154 190 231 282 350
#     4  11  21  31  50  82 122 164 195 237 280 356
#     4  10  23  45  68  90 118 157 211 274 333 378
#     4  10  19  37  63  87 114 157 203 245 303 375
#     4  10  20  33  53  84 123 159 196 240 290 357
#
# _framework density 23.36852
#
# number of rings (size 3 to 8) (size 9 to 14) (size 15 to 20)
#    0.000    2.000    1.667    2.500    2.333    2.667 
#    3.000    4.167    0.000    0.000    0.000    0.000 
#    0.000    0.000    0.000    0.000    0.000    0.000 
#
# Total GULP energy -267884.230953 kJ/mol
# GULP energy per Si atom -5580.921478 kJ/mol
# Density = 2.331533 g / cm^3
# Si number density = 23.368520 Si / 1000 Ang^3
#
#
#
# Elastic Constant Matrix: (Units=GPa)
#
#
# Indices 1 2 3 4 5 6 
#
# 1 41.6034 16.3746 -2.1116 0.0000 0.0000 0.0000
# 2 16.3746 84.0022 0.3558 0.0000 0.0000 0.0000
# 3 -2.1116 0.3558 118.1020 0.0000 0.0000 0.0000
# 4 0.0000 0.0000 0.0000 37.0567 0.0000 0.0000
# 5 0.0000 0.0000 0.0000 0.0000 7.2321 0.0000
# 6 0.0000 0.0000 0.0000 0.0000 0.0000 22.7520
#
#
#
# Elastic Compliance Matrix: (Units=1/GPa)
#
#
# Indices 1 2 3 4 5 6 
#
# 1 0.026061 -0.005082 0.000481 0.000000 0.000000 0.000000
# 2 -0.005082 0.012896 -0.000130 0.000000 0.000000 0.000000
# 3 0.000481 -0.000130 0.008476 0.000000 0.000000 0.000000
# 4 0.000000 0.000000 0.000000 0.026986 0.000000 0.000000
# 5 0.000000 0.000000 0.000000 0.000000 0.138272 0.000000
# 6 0.000000 0.000000 0.000000 0.000000 0.000000 0.043952
#
#
# Mechanical properties :
#
#
# Convention : Reuss Voigt Hill
#
# Bulk Modulus (GPa) = 26.33526 30.32723 28.33124
# Shear Modulus (GPa) = 17.93649 28.68075 23.30862
#
# Velocity S-wave (km/s) = 2.77347 3.50712 3.16165
# Velocity P-wave (km/s) = 4.64222 5.42272 5.04758
#
# Compressibility (1/GPa) = 0.03797191
#
# Stress axis : x y z
#
# Youngs Moduli (GPa) = 38.37121 77.54540 117.97662
#
# Poissons Ratio (x) = 0.39410 -0.05678
# Poissons Ratio (y) = 0.19501 0.01530
# Poissons Ratio (z) = -0.01847 0.01006
#
# Static dielectric constant tensor:
#      x y z
#    x 1.939340 0.000000 0.000000 
#    y 0.000000 1.905020 0.000000 
#    z 0.000000 0.000000 1.911360 
# 
# From -- ./inp_files/21800.got.cif
#   From: 2010.05.17/outbox.cif.g08.bks.cpg/sg57_11_cif.got.tgz:21800.got - 2010.06.03 13:58:18.
