data_PCOD9436917
_publ_section_title
;
Structure prediction by ZEFSAII (Michael W. Deem and Ramdas Pophale) SiO2 
 PCOD9436917
Probable space group: P B C M
;
_chemical_formula_sum "Si O2"
_cell_formula_units_Z 60
_cell_length_a 7.715585
_cell_length_b 13.192856
_cell_length_c 25.076257
_cell_angle_alpha 90.000000
_cell_angle_beta 90.000000
_cell_angle_gamma 90.000000
_cell_volume 2552.527292
_symmetry_space_group_name_H-M "P B C M"
_symmetry_group_IT_number 57
_symmetry_cell_setting 'orthorhombic'
loop_
_space_group_symop_operation_xyz
x,y,z
-x,-y,1/2+z
x,1/2-y,-z
-x,1/2+y,1/2-z
-x,-y,-z
x,y,1/2-z
-x,1/2+y,z
x,1/2-y,1/2+z
loop_
_atom_site_type_symbol
_atom_site_label
_atom_site_fract_x
_atom_site_fract_y
_atom_site_fract_z
Si Si1 0.797071 0.889181 0.193553
Si Si2 0.632854 0.326639 0.873190
Si Si3 0.275700 0.032169 0.575749
Si Si4 0.996854 0.214428 0.352454
Si Si5 0.288550 0.443443 0.853026
Si Si6 0.618045 0.118718 0.563673
Si Si7 0.977646 0.161998 0.538459
Si Si8 0.886432 0.483742 0.250000
O O1 0.693494 0.892297 0.250000
O O2 0.716681 0.919475 0.136665
O O3 0.888038 0.779079 0.188461
O O4 0.961062 0.961752 0.204602
O O5 0.699617 0.414443 0.912923
O O6 0.800436 0.310478 0.834751
O O7 0.455320 0.369694 0.849465
O O8 0.593381 0.223437 0.904307
O O9 0.432902 0.082351 0.542906
O O10 0.101590 0.066965 0.547053
O O11 0.970906 0.286038 0.403329
O O12 0.117819 0.121015 0.368069
O O13 0.325296 0.529407 0.896281
O O14 0.252789 0.494048 0.796835
O O15 0.780365 0.134236 0.524972
O O16 0.045664 0.250000 0.500000
#
# Coordination Sequence:
#
# PCOD9436917 Si02
#       8
#     8   8   8   8   8   8   8   4
#     4   9  20  36  61  88 122 167 202 250 303 361
#     4  10  20  36  61  86 112 169 209 241 315 369
#     4  10  20  40  63  86 127 164 200 258 311 370
#     4  10  20  39  62  85 126 163 199 255 313 366
#     4  11  22  39  60  87 125 169 204 262 306 362
#     4  10  22  41  60  85 128 163 202 259 319 363
#     4  10  21  39  68  96 122 161 207 258 319 383
#     4  10  20  34  54  86 122 156 212 246 290 348
#
# _framework density 23.506117
#
# number of rings (size 3 to 8) (size 9 to 14) (size 15 to 20)
#    0.400    1.600    0.000    5.600    0.933    0.533 
#    6.000    6.667    0.000    8.800    0.000    0.000 
#    0.000    0.000    0.000    0.000    0.000    0.000 
#
# Total GULP energy -334091.535462 kJ/mol
# GULP energy per Si atom -5568.192258 kJ/mol
# Density = 2.345262 g / cm^3
# Si number density = 23.506117 Si / 1000 Ang^3
#
#
#
# Elastic Constant Matrix: (Units=GPa)
#
#
# Indices 1 2 3 4 5 6 
#
# 1 99.6050 28.3986 13.1185 0.0000 0.0000 0.0000
# 2 28.3986 78.2222 -2.9854 0.0000 0.0000 0.0000
# 3 13.1185 -2.9854 52.0551 0.0000 0.0000 0.0000
# 4 0.0000 0.0000 0.0000 -16.2315 0.0000 0.0000
# 5 0.0000 0.0000 0.0000 0.0000 27.4241 0.0000
# 6 0.0000 0.0000 0.0000 0.0000 0.0000 46.4335
#
#
#
# Elastic Compliance Matrix: (Units=1/GPa)
#
#
# Indices 1 2 3 4 5 6 
#
# 1 0.011708 -0.004373 -0.003201 0.000000 0.000000 0.000000
# 2 -0.004373 0.014445 0.001930 0.000000 0.000000 0.000000
# 3 -0.003201 0.001930 0.020128 0.000000 0.000000 0.000000
# 4 0.000000 0.000000 0.000000 -0.061609 0.000000 0.000000
# 5 0.000000 0.000000 0.000000 0.000000 0.036464 0.000000
# 6 0.000000 0.000000 0.000000 0.000000 0.000000 0.021536
#
#
# Mechanical properties :
#
#
# Convention : Reuss Voigt Hill
#
# Bulk Modulus (GPa) = 28.57644 34.10507 31.34076
# Shear Modulus (GPa) = 76.19056 24.28193 50.23624
#
# Velocity S-wave (km/s) = 5.69942 3.21753 4.62795
# Velocity P-wave (km/s) = 7.44947 5.32389 6.47451
#
# Compressibility (1/GPa) = 0.03499386
#
# Stress axis : x y z
#
# Youngs Moduli (GPa) = 85.41154 69.22659 49.68232
#
# Poissons Ratio (x) = 0.30271 0.15905
# Poissons Ratio (y) = 0.37349 -0.09591
# Poissons Ratio (z) = 0.27343 -0.13364
#
# Static dielectric constant tensor:
#      x y z
#    x 1.951610 0.000000 0.000000 
#    y 0.000000 1.935960 0.000000 
#    z 0.000000 0.000000 1.857310 
# 
# From -- ./inp_files/28403.got.cif
#   From: 2010.05.17/outbox.cif.g08.bks.cpg/sg57_15_cif.got.tgz:28403.got - 2010.06.03 13:58:18.
