data_PCOD9436577
_publ_section_title
;
Structure prediction by ZEFSAII (Michael W. Deem and Ramdas Pophale) SiO2 
 PCOD9436577
Probable space group: P B C M
;
_chemical_formula_sum "Si O2"
_cell_formula_units_Z 56
_cell_length_a 19.429606
_cell_length_b 19.059792
_cell_length_c 9.201956
_cell_angle_alpha 90.000000
_cell_angle_beta 90.000000
_cell_angle_gamma 90.000000
_cell_volume 3407.707445
_symmetry_space_group_name_H-M "P B C M"
_symmetry_group_IT_number 57
_symmetry_cell_setting 'orthorhombic'
loop_
_space_group_symop_operation_xyz
x,y,z
-x,-y,1/2+z
x,1/2-y,-z
-x,1/2+y,1/2-z
-x,-y,-z
x,y,1/2-z
-x,1/2+y,z
x,1/2-y,1/2+z
loop_
_atom_site_type_symbol
_atom_site_label
_atom_site_fract_x
_atom_site_fract_y
_atom_site_fract_z
Si Si1 0.476200 0.572378 0.075517
Si Si2 0.886785 0.683348 0.079119
Si Si3 0.658820 0.047809 0.919141
Si Si4 0.750726 0.851561 0.413344
Si Si5 0.792862 0.015845 0.416271
Si Si6 0.378572 0.119734 0.083538
Si Si7 0.069573 0.024806 0.075895
O O1 0.470535 0.563083 0.250000
O O2 0.540381 0.624457 0.048553
O O3 0.500000 0.500000 0.000000
O O4 0.402394 0.587086 0.004432
O O5 0.886635 0.694729 0.250000
O O6 0.921167 0.608240 0.048832
O O7 0.919638 0.750000 0.000000
O O8 0.809082 0.676766 0.019613
O O9 0.661531 0.067760 0.750000
O O10 0.639928 0.964033 0.921896
O O11 0.731996 0.055273 0.998522
O O12 0.757546 0.823600 0.250000
O O13 0.766911 0.934975 0.407813
O O14 0.674530 0.843065 0.476804
O O15 0.801892 0.040289 0.250000
O O16 0.864257 0.012952 0.504018
O O17 0.367029 0.142026 0.250000
O O18 0.068739 0.013887 0.250000
O O19 0.000000 0.000000 0.000000
#
# Coordination Sequence:
#
# PCOD9436577 Si02
#       7
#     8   8   8   8   8   8   8
#     4   9  15  21  29  43  65  95 131 170 210 251
#     4  10  20  33  49  68  91 118 150 187 227 271
#     4   9  15  22  32  47  69  98 133 172 211 253
#     4   9  16  25  39  57  77 104 139 176 214 256
#     4   9  16  26  40  57  78 106 140 177 216 262
#     4   8  14  22  31  45  68  98 132 170 209 247
#     4  10  20  33  49  69  92 119 151 188 230 280
#
# _framework density 16.433336000000001
#
# number of rings (size 3 to 8) (size 9 to 14) (size 15 to 20)
#    0.000    2.857    0.000    3.429    0.000    9.143 
#    0.000    0.000    0.000    0.000    0.000    0.000 
#    0.000    0.000    0.000    1.286    0.000   21.429 
#
# Total GULP energy -311856.910990 kJ/mol
# GULP energy per Si atom -5568.873411 kJ/mol
# Density = 1.639593 g / cm^3
# Si number density = 16.433336 Si / 1000 Ang^3
#
#
#
# Elastic Constant Matrix: (Units=GPa)
#
#
# Indices 1 2 3 4 5 6 
#
# 1 152.4899 26.9615 85.0975 0.0000 0.0000 0.0000
# 2 26.9615 23.3972 31.0590 0.0000 0.0000 0.0000
# 3 85.0975 31.0590 117.8276 0.0000 0.0000 0.0000
# 4 0.0000 0.0000 0.0000 12.2993 0.0000 0.0000
# 5 0.0000 0.0000 0.0000 0.0000 30.8715 0.0000
# 6 0.0000 0.0000 0.0000 0.0000 0.0000 4.8313
#
#
#
# Elastic Compliance Matrix: (Units=1/GPa)
#
#
# Indices 1 2 3 4 5 6 
#
# 1 0.011151 -0.003321 -0.007178 0.000000 0.000000 0.000000
# 2 -0.003321 0.066735 -0.015193 0.000000 0.000000 0.000000
# 3 -0.007178 -0.015193 0.017676 0.000000 0.000000 0.000000
# 4 0.000000 0.000000 0.000000 0.081306 0.000000 0.000000
# 5 0.000000 0.000000 0.000000 0.000000 0.032392 0.000000
# 6 0.000000 0.000000 0.000000 0.000000 0.000000 0.206984
#
#
# Mechanical properties :
#
#
# Convention : Reuss Voigt Hill
#
# Bulk Modulus (GPa) = 22.63557 64.43897 43.53727
# Shear Modulus (GPa) = 10.36588 19.64020 15.00304
#
# Velocity S-wave (km/s) = 2.51426 3.46084 3.02481
# Velocity P-wave (km/s) = 4.71517 7.43420 6.22495
#
# Compressibility (1/GPa) = 0.04417826
#
# Stress axis : x y z
#
# Youngs Moduli (GPa) = 89.68154 14.98471 56.57512
#
# Poissons Ratio (x) = 0.04976 0.40608
# Poissons Ratio (y) = 0.29783 0.85952
# Poissons Ratio (z) = 0.64371 0.22766
#
# Static dielectric constant tensor:
#      x y z
#    x 1.561630 0.000000 0.000000 
#    y 0.000000 1.569490 0.000000 
#    z 0.000000 0.000000 1.555000 
# 
# From -- ./inp_files/7311.got.cif
#   From: 2010.05.17/outbox.cif.g08.bks.cpg/sg57_4_cif.got.tgz:7311.got - 2010.06.03 13:58:18.
