data_PCOD9436810
_publ_section_title
;
Structure prediction by ZEFSAII (Michael W. Deem and Ramdas Pophale) SiO2 
 PCOD9436810
Probable space group: P B C M
;
_chemical_formula_sum "Si O2"
_cell_formula_units_Z 56
_cell_length_a 10.848332
_cell_length_b 14.111788
_cell_length_c 15.780358
_cell_angle_alpha 90.000000
_cell_angle_beta 90.000000
_cell_angle_gamma 90.000000
_cell_volume 2415.804928
_symmetry_space_group_name_H-M "P B C M"
_symmetry_group_IT_number 57
_symmetry_cell_setting 'orthorhombic'
loop_
_space_group_symop_operation_xyz
x,y,z
-x,-y,1/2+z
x,1/2-y,-z
-x,1/2+y,1/2-z
-x,-y,-z
x,y,1/2-z
-x,1/2+y,z
x,1/2-y,1/2+z
loop_
_atom_site_type_symbol
_atom_site_label
_atom_site_fract_x
_atom_site_fract_y
_atom_site_fract_z
Si Si1 0.169032 0.373169 0.653388
Si Si2 0.370456 0.256569 0.152399
Si Si3 0.364079 0.679773 0.653300
Si Si4 0.179928 0.132543 0.531698
Si Si5 0.041706 0.500514 0.347506
Si Si6 0.362122 0.963808 0.484591
Si Si7 0.188945 0.680336 0.424637
O O1 0.130179 0.336158 0.750000
O O2 0.314230 0.349436 0.652933
O O3 0.130311 0.329735 0.559927
O O4 0.102817 0.474292 0.651663
O O5 0.359513 0.290867 0.250000
O O6 0.509659 0.268589 0.122737
O O7 0.278175 0.312571 0.090739
O O8 0.382410 0.662095 0.750000
O O9 0.355878 0.580597 0.607380
O O10 0.245563 0.745316 0.640870
O O11 0.076451 0.086032 0.591515
O O12 0.264398 0.045403 0.500594
O O13 0.080678 0.483763 0.250000
O O14 0.105409 0.597853 0.383031
O O15 0.308502 0.876604 0.540001
O O16 0.500000 0.000000 0.500000
O O17 0.140301 0.750000 0.500000
#
# Coordination Sequence:
#
# PCOD9436810 Si02
#       7
#     8   8   8   8   8   8   8
#     4  10  23  39  57  83 115 149 194 241 286 341
#     4  10  21  36  56  87 115 149 193 234 281 344
#     4  10  20  36  56  83 116 148 190 233 278 342
#     4  11  21  36  62  84 114 153 189 234 293 347
#     4  10  21  40  60  84 114 147 194 244 285 338
#     4  10  20  34  52  81 114 146 182 224 284 337
#     4   9  20  34  56  81 111 151 191 229 281 337
#
# _framework density 23.180679999999999
#
# number of rings (size 3 to 8) (size 9 to 14) (size 15 to 20)
#    0.000    2.000    1.429    1.714    2.000    2.857 
#    0.000    2.143    0.000    3.429    0.000    0.000 
#    0.000    0.000    0.000    0.000    0.000    0.000 
#
# Total GULP energy -311815.583175 kJ/mol
# GULP energy per Si atom -5568.135414 kJ/mol
# Density = 2.312792 g / cm^3
# Si number density = 23.180680 Si / 1000 Ang^3
#
#
#
# Elastic Constant Matrix: (Units=GPa)
#
#
# Indices 1 2 3 4 5 6 
#
# 1 77.8300 20.9731 25.6657 0.0000 0.0000 0.0000
# 2 20.9731 51.6551 28.9670 0.0000 0.0000 0.0000
# 3 25.6657 28.9670 155.2674 0.0000 0.0000 0.0000
# 4 0.0000 0.0000 0.0000 30.0559 0.0000 0.0000
# 5 0.0000 0.0000 0.0000 0.0000 19.7152 0.0000
# 6 0.0000 0.0000 0.0000 0.0000 0.0000 34.6711
#
#
#
# Elastic Compliance Matrix: (Units=1/GPa)
#
#
# Indices 1 2 3 4 5 6 
#
# 1 0.014722 -0.005152 -0.001472 0.000000 0.000000 0.000000
# 2 -0.005152 0.023424 -0.003518 0.000000 0.000000 0.000000
# 3 -0.001472 -0.003518 0.007340 0.000000 0.000000 0.000000
# 4 0.000000 0.000000 0.000000 0.033271 0.000000 0.000000
# 5 0.000000 0.000000 0.000000 0.000000 0.050722 0.000000
# 6 0.000000 0.000000 0.000000 0.000000 0.000000 0.028843
#
#
# Mechanical properties :
#
#
# Convention : Reuss Voigt Hill
#
# Bulk Modulus (GPa) = 39.68073 48.44045 44.06059
# Shear Modulus (GPa) = 26.73674 30.83155 28.78414
#
# Velocity S-wave (km/s) = 3.39987 3.65095 3.52764
# Velocity P-wave (km/s) = 5.70678 6.22212 5.97001
#
# Compressibility (1/GPa) = 0.02520115
#
# Stress axis : x y z
#
# Youngs Moduli (GPa) = 67.92377 42.69125 136.23417
#
# Poissons Ratio (x) = 0.21994 0.20060
# Poissons Ratio (y) = 0.34994 0.47933
# Poissons Ratio (z) = 0.10002 0.15021
#
# Static dielectric constant tensor:
#      x y z
#    x 1.478390 0.000000 0.000000 
#    y 0.000000 1.987800 0.000000 
#    z 0.000000 0.000000 1.940630 
# 
# From -- ./inp_files/17686.got.cif
#   From: 2010.05.17/outbox.cif.g08.bks.cpg/sg57_9_cif.got.tgz:17686.got - 2010.06.03 13:58:18.
