data_PCOD9436748
_publ_section_title
;
Structure prediction by ZEFSAII (Michael W. Deem and Ramdas Pophale) SiO2 
 PCOD9436748
Probable space group: P B C M
;
_chemical_formula_sum "Si O2"
_cell_formula_units_Z 64
_cell_length_a 17.222444
_cell_length_b 23.927522
_cell_length_c 8.035863
_cell_angle_alpha 90.000000
_cell_angle_beta 90.000000
_cell_angle_gamma 90.000000
_cell_volume 3311.502060
_symmetry_space_group_name_H-M "P B C M"
_symmetry_group_IT_number 57
_symmetry_cell_setting 'orthorhombic'
loop_
_space_group_symop_operation_xyz
x,y,z
-x,-y,1/2+z
x,1/2-y,-z
-x,1/2+y,1/2-z
-x,-y,-z
x,y,1/2-z
-x,1/2+y,z
x,1/2-y,1/2+z
loop_
_atom_site_type_symbol
_atom_site_label
_atom_site_fract_x
_atom_site_fract_y
_atom_site_fract_z
Si Si1 0.449454 0.602572 0.444579
Si Si2 0.798211 0.396562 0.944322
Si Si3 0.780987 0.928944 0.050146
Si Si4 0.087162 0.513645 0.049102
Si Si5 0.320427 0.813468 0.058550
Si Si6 0.340415 0.511107 0.445213
Si Si7 0.252032 0.190576 0.447612
Si Si8 0.570531 0.810971 0.951449
O O1 0.465194 0.591447 0.250000
O O2 0.381169 0.649005 0.455687
O O3 0.413431 0.545325 0.518987
O O4 0.522944 0.635586 0.516473
O O5 0.807315 0.381692 0.750000
O O6 0.875792 0.427222 0.007370
O O7 0.731416 0.444746 0.951665
O O8 0.762632 0.343801 0.037581
O O9 0.777818 0.935162 0.250000
O O10 0.853427 0.965630 0.989394
O O11 0.699369 0.955262 0.983517
O O12 0.789886 0.864607 0.008560
O O13 0.091372 0.514864 0.250000
O O14 0.000000 0.500000 0.000000
O O15 0.344860 0.816279 0.250000
O O16 0.318655 0.750000 0.000000
O O17 0.358241 0.501351 0.250000
O O18 0.218042 0.250000 0.500000
O O19 0.256008 0.189033 0.250000
O O20 0.340907 0.187949 0.513433
O O21 0.569690 0.813151 0.750000
O O22 0.536900 0.750000 0.000000
#
# Coordination Sequence:
#
# PCOD9436748 Si02
#       8
#     8   8   8   8   8   8   8   8
#     4   9  16  29  46  64  90 125 162 203 246 291
#     4   8  15  30  47  65  92 126 158 188 222 268
#     4   9  17  32  52  74  99 130 162 192 231 287
#     4   9  18  32  54  81 106 128 152 183 227 280
#     4  11  20  28  41  64  92 125 163 201 237 278
#     4   7  12  25  46  66  88 122 159 188 226 278
#     4  10  20  34  51  72  95 124 163 208 251 291
#     4   9  18  30  45  64  89 122 163 209 256 297
#
# _framework density 19.326577
#
# number of rings (size 3 to 8) (size 9 to 14) (size 15 to 20)
#    0.000    3.000    0.000    4.125    0.000    3.000 
#    0.000    5.625    0.000    0.750    0.000    5.250 
#    0.000    0.000    0.000    0.000    0.000    0.000 
#
# Total GULP energy -356519.215547 kJ/mol
# GULP energy per Si atom -5570.612743 kJ/mol
# Density = 1.928259 g / cm^3
# Si number density = 19.326577 Si / 1000 Ang^3
#
#
#
# Elastic Constant Matrix: (Units=GPa)
#
#
# Indices 1 2 3 4 5 6 
#
# 1 39.0895 9.8426 -4.7511 0.0000 0.0000 0.0000
# 2 9.8426 76.0891 -4.6181 0.0000 0.0000 0.0000
# 3 -4.7511 -4.6181 17.8969 0.0000 0.0000 0.0000
# 4 0.0000 0.0000 0.0000 19.1671 0.0000 0.0000
# 5 0.0000 0.0000 0.0000 0.0000 75.1409 0.0000
# 6 0.0000 0.0000 0.0000 0.0000 0.0000 16.5242
#
#
#
# Elastic Compliance Matrix: (Units=1/GPa)
#
#
# Indices 1 2 3 4 5 6 
#
# 1 0.027147 -0.003123 0.006401 0.000000 0.000000 0.000000
# 2 -0.003123 0.013711 0.002709 0.000000 0.000000 0.000000
# 3 0.006401 0.002709 0.058274 0.000000 0.000000 0.000000
# 4 0.000000 0.000000 0.000000 0.052173 0.000000 0.000000
# 5 0.000000 0.000000 0.000000 0.000000 0.013308 0.000000
# 6 0.000000 0.000000 0.000000 0.000000 0.000000 0.060517
#
#
# Mechanical properties :
#
#
# Convention : Reuss Voigt Hill
#
# Bulk Modulus (GPa) = 9.00056 14.89138 11.94597
# Shear Modulus (GPa) = 19.98470 31.00658 25.49564
#
# Velocity S-wave (km/s) = 3.21916 4.00978 3.63602
# Velocity P-wave (km/s) = 4.29936 5.39997 4.88079
#
# Compressibility (1/GPa) = 0.11110416
#
# Stress axis : x y z
#
# Youngs Moduli (GPa) = 36.83692 72.93468 17.16039
#
# Poissons Ratio (x) = 0.22778 -0.10984
# Poissons Ratio (y) = 0.11505 -0.04648
# Poissons Ratio (z) = -0.23578 -0.19757
#
# Static dielectric constant tensor:
#      x y z
#    x 1.701640 0.000000 0.000000 
#    y 0.000000 1.716810 0.000000 
#    z 0.000000 0.000000 1.688420 
# 
# From -- ./inp_files/7213.got.cif
#   From: 2010.05.17/outbox.cif.g08.bks.cpg/sg57_4_cif.got.tgz:7213.got - 2010.06.03 13:58:18.
