data_PCOD9436150
_publ_section_title
;
Structure prediction by ZEFSAII (Michael W. Deem and Ramdas Pophale) SiO2 
 PCOD9436150
Probable space group: P B C M
;
_chemical_formula_sum "Si O2"
_cell_formula_units_Z 56
_cell_length_a 22.438831
_cell_length_b 14.319965
_cell_length_c 8.801470
_cell_angle_alpha 90.000000
_cell_angle_beta 90.000000
_cell_angle_gamma 90.000000
_cell_volume 2828.117161
_symmetry_space_group_name_H-M "P B C M"
_symmetry_group_IT_number 57
_symmetry_cell_setting 'orthorhombic'
loop_
_space_group_symop_operation_xyz
x,y,z
-x,-y,1/2+z
x,1/2-y,-z
-x,1/2+y,1/2-z
-x,-y,-z
x,y,1/2-z
-x,1/2+y,z
x,1/2-y,1/2+z
loop_
_atom_site_type_symbol
_atom_site_label
_atom_site_fract_x
_atom_site_fract_y
_atom_site_fract_z
Si Si1 0.329772 0.147160 0.065317
Si Si2 0.562451 0.976563 0.924340
Si Si3 0.912853 0.544828 0.930649
Si Si4 0.792355 0.956706 0.568544
Si Si5 0.640036 0.337323 0.425423
Si Si6 0.230887 0.846184 0.929693
Si Si7 0.962978 0.146511 0.568454
O O1 0.331199 0.147142 0.250000
O O2 0.391631 0.100059 0.010651
O O3 0.270516 0.089223 0.020818
O O4 0.324684 0.250000 0.000000
O O5 0.550117 0.950362 0.750000
O O6 0.601192 0.070771 0.926709
O O7 0.500000 0.000000 0.000000
O O8 0.906854 0.534249 0.750000
O O9 0.968750 0.612996 0.961207
O O10 0.852204 0.586395 0.999608
O O11 0.926598 0.441765 0.999904
O O12 0.794543 0.954605 0.750000
O O13 0.793697 0.062469 0.509518
O O14 0.606398 0.250000 0.500000
O O15 0.657506 0.319042 0.250000
O O16 0.699025 0.348569 0.526199
O O17 0.222204 0.848452 0.750000
O O18 0.206705 0.750000 0.000000
O O19 0.951961 0.250000 0.500000
O O20 0.953269 0.149798 0.750000
#
# Coordination Sequence:
#
# PCOD9436150 Si02
#       7
#     8   8   8   8   8   8   8
#     4  10  23  43  63  86 120 158 200 249 298 356
#     4  10  22  40  60  84 117 153 195 246 299 354
#     4  10  22  39  60  91 124 157 206 253 297 357
#     4  11  22  40  62  86 123 161 198 249 304 355
#     4  10  19  35  56  81 113 145 184 231 288 349
#     4  11  21  34  56  85 115 149 190 235 290 355
#     4  10  21  39  63  89 123 164 204 251 303 354
#
# _framework density 19.801159999999999
#
# number of rings (size 3 to 8) (size 9 to 14) (size 15 to 20)
#    0.000    1.714    1.429    3.857    0.000    6.286 
#    0.000    8.571    0.000    0.000    0.000    0.000 
#    0.000    0.000    0.000    0.000    0.000    0.000 
#
# Total GULP energy -312623.717621 kJ/mol
# GULP energy per Si atom -5582.566386 kJ/mol
# Density = 1.975609 g / cm^3
# Si number density = 19.801160 Si / 1000 Ang^3
#
#
#
# Elastic Constant Matrix: (Units=GPa)
#
#
# Indices 1 2 3 4 5 6 
#
# 1 122.2821 27.2662 37.6018 0.0000 0.0000 0.0000
# 2 27.2662 81.8453 23.3742 0.0000 0.0000 0.0000
# 3 37.6018 23.3742 45.7331 0.0000 0.0000 0.0000
# 4 0.0000 0.0000 0.0000 31.2162 0.0000 0.0000
# 5 0.0000 0.0000 0.0000 0.0000 25.1556 0.0000
# 6 0.0000 0.0000 0.0000 0.0000 0.0000 1.7635
#
#
#
# Elastic Compliance Matrix: (Units=1/GPa)
#
#
# Indices 1 2 3 4 5 6 
#
# 1 0.011057 -0.001273 -0.008440 0.000000 0.000000 0.000000
# 2 -0.001273 0.014453 -0.006340 0.000000 0.000000 0.000000
# 3 -0.008440 -0.006340 0.032046 0.000000 0.000000 0.000000
# 4 0.000000 0.000000 0.000000 0.032035 0.000000 0.000000
# 5 0.000000 0.000000 0.000000 0.000000 0.039753 0.000000
# 6 0.000000 0.000000 0.000000 0.000000 0.000000 0.567055
#
#
# Mechanical properties :
#
#
# Convention : Reuss Voigt Hill
#
# Bulk Modulus (GPa) = 39.29457 47.37164 43.33310
# Shear Modulus (GPa) = 6.78436 22.40164 14.59300
#
# Velocity S-wave (km/s) = 1.85302 3.36717 2.71768
# Velocity P-wave (km/s) = 4.94630 6.25242 5.63732
#
# Compressibility (1/GPa) = 0.02544881
#
# Stress axis : x y z
#
# Youngs Moduli (GPa) = 90.43934 69.18990 31.20493
#
# Poissons Ratio (x) = 0.08808 0.26339
# Poissons Ratio (y) = 0.11514 0.19784
# Poissons Ratio (z) = 0.76335 0.43868
#
# Static dielectric constant tensor:
#      x y z
#    x 1.740030 0.000000 0.000000 
#    y 0.000000 1.737170 0.000000 
#    z 0.000000 0.000000 1.676330 
# 
# From -- ./inp_files/8120.got.cif
#   From: 2010.05.17/outbox.cif.g08.bks.cpg/sg57_5_cif.got.tgz:8120.got - 2010.06.03 13:58:18.
