data_PCOD9436257
_publ_section_title
;
Structure prediction by ZEFSAII (Michael W. Deem and Ramdas Pophale) SiO2 
 PCOD9436257
Probable space group: P B C M
;
_chemical_formula_sum "Si O2"
_cell_formula_units_Z 64
_cell_length_a 17.577692
_cell_length_b 9.381819
_cell_length_c 19.557319
_cell_angle_alpha 90.000000
_cell_angle_beta 90.000000
_cell_angle_gamma 90.000000
_cell_volume 3225.211651
_symmetry_space_group_name_H-M "P B C M"
_symmetry_group_IT_number 57
_symmetry_cell_setting 'orthorhombic'
loop_
_space_group_symop_operation_xyz
x,y,z
-x,-y,1/2+z
x,1/2-y,-z
-x,1/2+y,1/2-z
-x,-y,-z
x,y,1/2-z
-x,1/2+y,z
x,1/2-y,1/2+z
loop_
_atom_site_type_symbol
_atom_site_label
_atom_site_fract_x
_atom_site_fract_y
_atom_site_fract_z
Si Si1 0.756576 0.724850 0.168029
Si Si2 0.067459 0.408339 0.032380
Si Si3 0.378711 0.912907 0.991193
Si Si4 0.504496 0.538215 0.892606
Si Si5 0.104338 0.472200 0.830671
Si Si6 0.580563 0.694354 0.326391
Si Si7 0.766763 0.598444 0.537741
Si Si8 0.990465 0.805457 0.168910
O O1 0.768187 0.752769 0.250000
O O2 0.819648 0.607957 0.144193
O O3 0.669878 0.672673 0.158526
O O4 0.763950 0.861254 0.118490
O O5 0.151498 0.467625 0.019055
O O6 0.060578 0.387332 0.113809
O O7 0.062825 0.250000 0.000000
O O8 0.000000 0.500000 0.000000
O O9 0.428049 0.942944 0.923578
O O10 0.304165 0.007600 0.986311
O O11 0.357285 0.750000 0.000000
O O12 0.437110 0.950555 0.051919
O O13 0.465309 0.452286 0.831765
O O14 0.541506 0.690044 0.875629
O O15 0.117718 0.483417 0.750000
O O16 0.073486 0.629050 0.850439
O O17 0.034680 0.358932 0.840535
O O18 0.576256 0.753663 0.250000
O O19 0.762099 0.750000 0.500000
O O20 0.977869 0.835702 0.250000
#
# Coordination Sequence:
#
# PCOD9436257 Si02
#       8
#     8   8   8   8   8   8   8   8
#     4  10  20  37  61  90 119 156 203 256 303 358
#     4  11  24  39  58  88 125 160 198 258 316 363
#     4  11  23  39  63  87 122 160 202 258 299 358
#     4  11  22  39  60  93 120 156 209 246 302 371
#     4   9  18  33  58  88 115 149 203 249 290 351
#     4  11  22  38  64  92 125 160 199 253 317 375
#     4  11  23  39  63  90 120 161 213 255 308 371
#     4  10  19  35  61  85 113 158 203 245 293 366
#
# _framework density 19.843658999999999
#
# number of rings (size 3 to 8) (size 9 to 14) (size 15 to 20)
#    0.000    1.500    3.750    1.875    1.750    0.500 
#    0.000    0.000    0.000    0.000    0.000    0.000 
#    0.000    0.000    0.000    0.000    0.000    0.000 
#
# Total GULP energy -356710.788327 kJ/mol
# GULP energy per Si atom -5573.606068 kJ/mol
# Density = 1.979849 g / cm^3
# Si number density = 19.843659 Si / 1000 Ang^3
#
#
#
# Elastic Constant Matrix: (Units=GPa)
#
#
# Indices 1 2 3 4 5 6 
#
# 1 154.8965 52.9151 24.8476 0.0000 0.0000 0.0000
# 2 52.9151 54.6008 5.0934 0.0000 0.0000 0.0000
# 3 24.8476 5.0934 71.2840 0.0000 0.0000 0.0000
# 4 0.0000 0.0000 0.0000 22.9983 0.0000 0.0000
# 5 0.0000 0.0000 0.0000 0.0000 23.8382 0.0000
# 6 0.0000 0.0000 0.0000 0.0000 0.0000 31.6794
#
#
#
# Elastic Compliance Matrix: (Units=1/GPa)
#
#
# Indices 1 2 3 4 5 6 
#
# 1 0.010202 -0.009620 -0.002869 0.000000 0.000000 0.000000
# 2 -0.009620 0.027508 0.001388 0.000000 0.000000 0.000000
# 3 -0.002869 0.001388 0.014929 0.000000 0.000000 0.000000
# 4 0.000000 0.000000 0.000000 0.043481 0.000000 0.000000
# 5 0.000000 0.000000 0.000000 0.000000 0.041949 0.000000
# 6 0.000000 0.000000 0.000000 0.000000 0.000000 0.031566
#
#
# Mechanical properties :
#
#
# Convention : Reuss Voigt Hill
#
# Bulk Modulus (GPa) = 32.85399 49.61040 41.23219
# Shear Modulus (GPa) = 24.75432 28.89821 26.82626
#
# Velocity S-wave (km/s) = 3.53578 3.82028 3.68078
# Velocity P-wave (km/s) = 5.76727 6.67190 6.23601
#
# Compressibility (1/GPa) = 0.03043770
#
# Stress axis : x y z
#
# Youngs Moduli (GPa) = 98.01589 36.35285 66.98256
#
# Poissons Ratio (x) = 0.34971 0.19217
# Poissons Ratio (y) = 0.94290 -0.09295
# Poissons Ratio (z) = 0.28120 -0.05045
#
# Static dielectric constant tensor:
#      x y z
#    x 1.715620 0.000000 0.000000 
#    y 0.000000 1.687210 0.000000 
#    z 0.000000 0.000000 1.776730 
# 
# From -- ./inp_files/25604.got.cif
#   From: 2010.05.17/outbox.cif.g08.bks.cpg/sg57_13_cif.got.tgz:25604.got - 2010.06.03 13:58:18.
