data_PCOD9436997
_publ_section_title
;
Structure prediction by ZEFSAII (Michael W. Deem and Ramdas Pophale) SiO2 
 PCOD9436997
Probable space group: P B C M
;
_chemical_formula_sum "Si O2"
_cell_formula_units_Z 48
_cell_length_a 19.442737
_cell_length_b 8.507642
_cell_length_c 15.760163
_cell_angle_alpha 90.000000
_cell_angle_beta 90.000000
_cell_angle_gamma 90.000000
_cell_volume 2606.917653
_symmetry_space_group_name_H-M "P B C M"
_symmetry_group_IT_number 57
_symmetry_cell_setting 'orthorhombic'
loop_
_space_group_symop_operation_xyz
x,y,z
-x,-y,1/2+z
x,1/2-y,-z
-x,1/2+y,1/2-z
-x,-y,-z
x,y,1/2-z
-x,1/2+y,z
x,1/2-y,1/2+z
loop_
_atom_site_type_symbol
_atom_site_label
_atom_site_fract_x
_atom_site_fract_y
_atom_site_fract_z
Si Si1 0.823146 0.957365 0.349068
Si Si2 0.689973 0.361383 0.916945
Si Si3 0.922639 0.939385 0.500166
Si Si4 0.576988 0.563541 0.493458
Si Si5 0.670389 0.456182 0.155621
Si Si6 0.820991 0.922438 0.848791
O O1 0.834558 0.000343 0.250000
O O2 0.884012 0.996300 0.414948
O O3 0.816230 0.767394 0.352488
O O4 0.755351 0.041054 0.385649
O O5 0.669749 0.232008 0.847876
O O6 0.703219 0.250000 0.000000
O O7 0.627595 0.477447 0.939852
O O8 0.924103 0.750000 0.500000
O O9 0.877765 0.980814 0.583984
O O10 0.000000 0.000000 0.500000
O O11 0.577792 0.750000 0.500000
O O12 0.500000 0.500000 0.500000
O O13 0.611273 0.518198 0.404427
O O14 0.661969 0.517400 0.250000
O O15 0.746281 0.511167 0.126433
O O16 0.835174 0.965976 0.750000
#
# Coordination Sequence:
#
# PCOD9436997 Si02
#       6
#     8   8   8   8   8   8
#     4  10  20  36  56  80 108 144 186 228 274 330
#     4  10  20  34  57  84 112 143 180 224 274 329
#     4  10  21  35  52  76 108 144 182 226 276 330
#     4  11  22  39  59  80 111 151 188 224 272 327
#     4  10  20  36  58  86 113 140 180 231 277 324
#     4   9  19  36  58  80 107 144 188 231 274 324
#
# _framework density 18.412548999999999
#
# number of rings (size 3 to 8) (size 9 to 14) (size 15 to 20)
#    0.000    2.000    0.000    5.000    0.000    4.000 
#    0.000    5.000    0.000    0.000    0.000    0.000 
#    0.000    0.000    0.000    0.000    0.000    0.000 
#
# Total GULP energy -267815.935237 kJ/mol
# GULP energy per Si atom -5579.498651 kJ/mol
# Density = 1.837064 g / cm^3
# Si number density = 18.412549 Si / 1000 Ang^3
#
#
#
# Elastic Constant Matrix: (Units=GPa)
#
#
# Indices 1 2 3 4 5 6 
#
# 1 194.8020 59.0697 101.1757 0.0000 0.0000 0.0000
# 2 59.0697 62.1085 34.8402 0.0000 0.0000 0.0000
# 3 101.1757 34.8402 120.7625 0.0000 0.0000 0.0000
# 4 0.0000 0.0000 0.0000 8.9406 0.0000 0.0000
# 5 0.0000 0.0000 0.0000 0.0000 16.0989 0.0000
# 6 0.0000 0.0000 0.0000 0.0000 0.0000 39.2310
#
#
#
# Elastic Compliance Matrix: (Units=1/GPa)
#
#
# Indices 1 2 3 4 5 6 
#
# 1 0.010766 -0.006180 -0.007237 0.000000 0.000000 0.000000
# 2 -0.006180 0.022757 -0.001388 0.000000 0.000000 0.000000
# 3 -0.007237 -0.001388 0.014744 0.000000 0.000000 0.000000
# 4 0.000000 0.000000 0.000000 0.111849 0.000000 0.000000
# 5 0.000000 0.000000 0.000000 0.000000 0.062116 0.000000
# 6 0.000000 0.000000 0.000000 0.000000 0.000000 0.025490
#
#
# Mechanical properties :
#
#
# Convention : Reuss Voigt Hill
#
# Bulk Modulus (GPa) = 53.59687 85.31603 69.45645
# Shear Modulus (GPa) = 17.63350 25.02659 21.33004
#
# Velocity S-wave (km/s) = 3.09801 3.69075 3.40730
# Velocity P-wave (km/s) = 6.47835 8.03732 7.29957
#
# Compressibility (1/GPa) = 0.01865781
#
# Stress axis : x y z
#
# Youngs Moduli (GPa) = 92.88518 43.94306 67.82246
#
# Poissons Ratio (x) = 0.27155 0.49083
# Poissons Ratio (y) = 0.57399 0.09414
# Poissons Ratio (z) = 0.67221 0.06100
#
# Static dielectric constant tensor:
#      x y z
#    x 1.589850 0.000000 0.000000 
#    y 0.000000 1.634510 0.000000 
#    z 0.000000 0.000000 1.658940 
# 
# From -- ./inp_files/18964.got.cif
#   From: 2010.05.17/outbox.cif.g08.bks.cpg/sg57_10_cif.got.tgz:18964.got - 2010.06.03 13:58:18.
