data_PCOD9436452
_publ_section_title
;
Structure prediction by ZEFSAII (Michael W. Deem and Ramdas Pophale) SiO2 
 PCOD9436452
Probable space group: P B C M
;
_chemical_formula_sum "Si O2"
_cell_formula_units_Z 48
_cell_length_a 29.690795
_cell_length_b 5.126400
_cell_length_c 14.373947
_cell_angle_alpha 90.000000
_cell_angle_beta 90.000000
_cell_angle_gamma 90.000000
_cell_volume 2187.813791
_symmetry_space_group_name_H-M "P B C M"
_symmetry_group_IT_number 57
_symmetry_cell_setting 'orthorhombic'
loop_
_space_group_symop_operation_xyz
x,y,z
-x,-y,1/2+z
x,1/2-y,-z
-x,1/2+y,1/2-z
-x,-y,-z
x,y,1/2-z
-x,1/2+y,z
x,1/2-y,1/2+z
loop_
_atom_site_type_symbol
_atom_site_label
_atom_site_fract_x
_atom_site_fract_y
_atom_site_fract_z
Si Si1 0.741496 0.115943 0.637258
Si Si2 0.315291 0.377625 0.137014
Si Si3 0.470758 0.026663 0.750000
Si Si4 0.971186 0.488213 0.750000
Si Si5 0.156905 0.833739 0.141069
Si Si6 0.585439 0.991314 0.061864
Si Si7 0.100152 0.344517 0.401440
O O1 0.743141 0.092136 0.750000
O O2 0.719264 0.391104 0.614989
O O3 0.793051 0.100512 0.605856
O O4 0.708067 0.889280 0.605797
O O5 0.321311 0.371711 0.250000
O O6 0.363334 0.428333 0.091545
O O7 0.511785 0.822889 0.750000
O O8 0.442228 0.978717 0.656846
O O9 0.939920 0.555834 0.837293
O O10 0.987267 0.190173 0.750000
O O11 0.160128 0.752434 0.250000
O O12 0.134577 0.586728 0.090542
O O13 0.126581 0.092782 0.137252
O O14 0.583750 0.250000 0.000000
O O15 0.568078 0.750000 0.000000
O O16 0.082192 0.250000 0.500000
#
# Coordination Sequence:
#
# PCOD9436452 Si02
#       7
#     8   8   4   4   8   8   8
#     4   9  19  32  63  95 128 179 229 265 314 376
#     4  10  19  39  61  94 135 178 224 273 322 384
#     4  12  28  50  76 103 136 177 226 292 360 422
#     4  12  26  46  72  95 126 167 214 272 340 406
#     4  11  20  41  66  96 135 180 223 269 323 388
#     4  12  26  45  72 104 140 182 229 282 347 417
#     4  12  25  43  68  99 133 169 216 271 333 398
#
# _framework density 21.939712
#
# number of rings (size 3 to 8) (size 9 to 14) (size 15 to 20)
#    0.000    1.000    2.500    4.500    0.000    5.333 
#    0.000    8.333    0.000    0.000    0.000    0.000 
#    0.000    0.000    0.000    0.000    0.000    0.000 
#
# Total GULP energy -268863.920811 kJ/mol
# GULP energy per Si atom -5601.331684 kJ/mol
# Density = 2.188978 g / cm^3
# Si number density = 21.939712 Si / 1000 Ang^3
#
#
#
# Elastic Constant Matrix: (Units=GPa)
#
#
# Indices 1 2 3 4 5 6 
#
# 1 65.5237 -3.0080 28.0401 0.0000 0.0000 0.0000
# 2 -3.0080 100.2926 18.0053 0.0000 0.0000 0.0000
# 3 28.0401 18.0053 104.3906 0.0000 0.0000 0.0000
# 4 0.0000 0.0000 0.0000 29.4790 0.0000 0.0000
# 5 0.0000 0.0000 0.0000 0.0000 108.0622 0.0000
# 6 0.0000 0.0000 0.0000 0.0000 0.0000 22.7899
#
#
#
# Elastic Compliance Matrix: (Units=1/GPa)
#
#
# Indices 1 2 3 4 5 6 
#
# 1 0.017434 0.001407 -0.004926 0.000000 0.000000 0.000000
# 2 0.001407 0.010403 -0.002172 0.000000 0.000000 0.000000
# 3 -0.004926 -0.002172 0.011277 0.000000 0.000000 0.000000
# 4 0.000000 0.000000 0.000000 0.033922 0.000000 0.000000
# 5 0.000000 0.000000 0.000000 0.000000 0.009254 0.000000
# 6 0.000000 0.000000 0.000000 0.000000 0.000000 0.043879
#
#
# Mechanical properties :
#
#
# Convention : Reuss Voigt Hill
#
# Bulk Modulus (GPa) = 36.05843 39.58687 37.82265
# Shear Modulus (GPa) = 34.06100 47.21087 40.63593
#
# Velocity S-wave (km/s) = 3.94443 4.64383 4.30835
# Velocity P-wave (km/s) = 6.10046 6.84370 6.48274
#
# Compressibility (1/GPa) = 0.02773276
#
# Stress axis : x y z
#
# Youngs Moduli (GPa) = 57.35879 96.12598 88.67494
#
# Poissons Ratio (x) = -0.13527 0.43678
# Poissons Ratio (y) = -0.08071 0.19263
# Poissons Ratio (z) = 0.28253 0.20881
#
# Static dielectric constant tensor:
#      x y z
#    x 1.757340 0.000000 0.000000 
#    y 0.000000 1.748130 0.000000 
#    z 0.000000 0.000000 1.863040 
# 
# From -- ./inp_files/19610.got.cif
#   From: 2010.05.17/outbox.cif.g08.bks.cpg/sg57_10_cif.got.tgz:19610.got - 2010.06.03 13:58:18.
