data_PCOD9436035
_publ_section_title
;
Structure prediction by ZEFSAII (Michael W. Deem and Ramdas Pophale) SiO2 
 PCOD9436035
Probable space group: P B C M
;
_chemical_formula_sum "Si O2"
_cell_formula_units_Z 64
_cell_length_a 8.970180
_cell_length_b 15.001792
_cell_length_c 21.991579
_cell_angle_alpha 90.000000
_cell_angle_beta 90.000000
_cell_angle_gamma 90.000000
_cell_volume 2959.379837
_symmetry_space_group_name_H-M "P B C M"
_symmetry_group_IT_number 57
_symmetry_cell_setting 'orthorhombic'
loop_
_space_group_symop_operation_xyz
x,y,z
-x,-y,1/2+z
x,1/2-y,-z
-x,1/2+y,1/2-z
-x,-y,-z
x,y,1/2-z
-x,1/2+y,z
x,1/2-y,1/2+z
loop_
_atom_site_type_symbol
_atom_site_label
_atom_site_fract_x
_atom_site_fract_y
_atom_site_fract_z
Si Si1 0.343869 0.439795 0.091553
Si Si2 0.761951 0.167786 0.820092
Si Si3 0.306815 0.343448 0.867119
Si Si4 0.821178 0.973873 0.966170
Si Si5 0.944092 0.345880 0.481250
Si Si6 0.899439 0.816557 0.361141
Si Si7 0.442324 0.723061 0.570438
Si Si8 0.550907 0.994778 0.814092
O O1 0.259557 0.472278 0.031554
O O2 0.227679 0.392265 0.138160
O O3 0.471707 0.371498 0.069821
O O4 0.433213 0.509793 0.131430
O O5 0.736395 0.202012 0.750000
O O6 0.688914 0.220626 0.877961
O O7 0.674234 0.073103 0.821576
O O8 0.941810 0.164410 0.829790
O O9 0.175398 0.277569 0.846310
O O10 0.431205 0.286041 0.900970
O O11 0.371542 0.399905 0.812820
O O12 0.262359 0.419802 0.914997
O O13 0.971665 0.912599 0.972094
O O14 0.841579 0.078224 0.950619
O O15 0.880554 0.250000 0.500000
O O16 0.066329 0.313593 0.433269
O O17 0.415816 0.750000 0.500000
O O18 0.473825 0.014732 0.750000
#
# Coordination Sequence:
#
# PCOD9436035 Si02
#       8
#     8   8   8   8   8   8   8   8
#     4   9  20  39  66  93 127 170 220 270 338 404
#     4  10  23  44  63  91 135 181 229 281 339 410
#     4  11  21  38  67  94 130 171 219 280 340 406
#     4  10  19  34  61  93 132 171 212 270 335 410
#     4  10  19  34  56  92 139 170 204 265 341 397
#     4  10  21  38  65  95 127 171 220 266 332 413
#     4  10  20  40  65  97 130 175 224 281 341 405
#     4  10  23  43  63  89 129 174 229 284 331 395
#
# _framework density 21.626152000000001
#
# number of rings (size 3 to 8) (size 9 to 14) (size 15 to 20)
#    0.000    2.000    2.500    0.750    0.000    2.500 
#    4.500    2.500    0.000    0.000    0.000    0.000 
#    0.000    0.000    0.000    0.000    0.000    0.000 
#
# Total GULP energy -356434.848531 kJ/mol
# GULP energy per Si atom -5569.294508 kJ/mol
# Density = 2.157693 g / cm^3
# Si number density = 21.626152 Si / 1000 Ang^3
#
#
#
# Elastic Constant Matrix: (Units=GPa)
#
#
# Indices 1 2 3 4 5 6 
#
# 1 89.0384 7.3915 26.1405 0.0000 0.0000 0.0000
# 2 7.3915 81.3095 9.3132 0.0000 0.0000 0.0000
# 3 26.1405 9.3132 102.1923 0.0000 0.0000 0.0000
# 4 0.0000 0.0000 0.0000 15.5274 0.0000 0.0000
# 5 0.0000 0.0000 0.0000 0.0000 24.0591 0.0000
# 6 0.0000 0.0000 0.0000 0.0000 0.0000 28.7423
#
#
#
# Elastic Compliance Matrix: (Units=1/GPa)
#
#
# Indices 1 2 3 4 5 6 
#
# 1 0.012189 -0.000759 -0.003049 0.000000 0.000000 0.000000
# 2 -0.000759 0.012476 -0.000943 0.000000 0.000000 0.000000
# 3 -0.003049 -0.000943 0.010651 0.000000 0.000000 0.000000
# 4 0.000000 0.000000 0.000000 0.064402 0.000000 0.000000
# 5 0.000000 0.000000 0.000000 0.000000 0.041564 0.000000
# 6 0.000000 0.000000 0.000000 0.000000 0.000000 0.034792
#
#
# Mechanical properties :
#
#
# Convention : Reuss Voigt Hill
#
# Bulk Modulus (GPa) = 38.73702 39.80343 39.27023
# Shear Modulus (GPa) = 25.74921 28.97876 27.36398
#
# Velocity S-wave (km/s) = 3.45432 3.66455 3.56099
# Velocity P-wave (km/s) = 5.81900 6.02913 5.92500
#
# Compressibility (1/GPa) = 0.02581510
#
# Stress axis : x y z
#
# Youngs Moduli (GPa) = 82.03982 80.15608 93.88548
#
# Poissons Ratio (x) = 0.06083 0.28624
# Poissons Ratio (y) = 0.06226 0.08852
# Poissons Ratio (z) = 0.25012 0.07558
#
# Static dielectric constant tensor:
#      x y z
#    x 1.887540 0.000000 0.000000 
#    y 0.000000 1.805020 0.000000 
#    z 0.000000 0.000000 2.011690 
# 
# From -- ./inp_files/26909.got.cif
#   From: 2010.05.17/outbox.cif.g08.bks.cpg/sg57_14_cif.got.tgz:26909.got - 2010.06.03 13:58:18.
