data_PCOD9436077
_publ_section_title
;
Structure prediction by ZEFSAII (Michael W. Deem and Ramdas Pophale) SiO2 
 PCOD9436077
Probable space group: P B C M
;
_chemical_formula_sum "Si O2"
_cell_formula_units_Z 40
_cell_length_a 8.629678
_cell_length_b 17.165222
_cell_length_c 11.711349
_cell_angle_alpha 90.000000
_cell_angle_beta 90.000000
_cell_angle_gamma 90.000000
_cell_volume 1734.806094
_symmetry_space_group_name_H-M "P B C M"
_symmetry_group_IT_number 57
_symmetry_cell_setting 'orthorhombic'
loop_
_space_group_symop_operation_xyz
x,y,z
-x,-y,1/2+z
x,1/2-y,-z
-x,1/2+y,1/2-z
-x,-y,-z
x,y,1/2-z
-x,1/2+y,z
x,1/2-y,1/2+z
loop_
_atom_site_type_symbol
_atom_site_label
_atom_site_fract_x
_atom_site_fract_y
_atom_site_fract_z
Si Si1 0.183200 0.420694 0.506651
Si Si2 0.308893 0.717440 0.120386
Si Si3 0.127840 0.569998 0.123481
Si Si4 0.576023 0.481010 0.377154
Si Si5 0.584371 0.678529 0.624131
O O1 0.173100 0.481960 0.402813
O O2 0.261133 0.474454 0.605460
O O3 0.289836 0.349380 0.467479
O O4 0.008505 0.401943 0.540562
O O5 0.254214 0.741790 0.250000
O O6 0.274732 0.626123 0.114174
O O7 0.489067 0.741535 0.116552
O O8 0.241754 0.750000 0.000000
O O9 0.065695 0.577477 0.250000
O O10 0.500000 0.500000 0.500000
O O11 0.516559 0.504689 0.250000
O O12 0.552923 0.387335 0.376001
O O13 0.658336 0.675994 0.750000
#
# Coordination Sequence:
#
# PCOD9436077 Si02
#       5
#     8   8   8   8   8
#     4  10  19  34  57  88 123 158 203 257 318 378
#     4  10  21  40  62  86 120 163 209 256 313 377
#     4  10  21  36  58  90 126 164 208 262 322 384
#     4   9  17  30  52  84 117 150 194 247 301 358
#     4   9  18  34  58  86 117 157 203 248 299 365
#
# _framework density 23.057334000000001
#
# number of rings (size 3 to 8) (size 9 to 14) (size 15 to 20)
#    0.000    2.400    0.000    2.400    0.000    0.800 
#    0.000   15.000    0.000    4.800    0.000    0.000 
#    0.000    0.000    0.000    0.000    0.000    0.000 
#
# Total GULP energy -222670.610347 kJ/mol
# GULP energy per Si atom -5566.765259 kJ/mol
# Density = 2.300485 g / cm^3
# Si number density = 23.057334 Si / 1000 Ang^3
#
#
#
# Elastic Constant Matrix: (Units=GPa)
#
#
# Indices 1 2 3 4 5 6 
#
# 1 86.9553 59.2012 25.0129 0.0000 0.0000 0.0000
# 2 59.2012 79.2340 25.4257 0.0000 0.0000 0.0000
# 3 25.0129 25.4257 138.6937 0.0000 0.0000 0.0000
# 4 0.0000 0.0000 0.0000 24.4126 0.0000 0.0000
# 5 0.0000 0.0000 0.0000 0.0000 28.8479 0.0000
# 6 0.0000 0.0000 0.0000 0.0000 0.0000 38.8519
#
#
#
# Elastic Compliance Matrix: (Units=1/GPa)
#
#
# Indices 1 2 3 4 5 6 
#
# 1 0.023560 -0.017255 -0.001086 0.000000 0.000000 0.000000
# 2 -0.017255 0.026047 -0.001663 0.000000 0.000000 0.000000
# 3 -0.001086 -0.001663 0.007711 0.000000 0.000000 0.000000
# 4 0.000000 0.000000 0.000000 0.040962 0.000000 0.000000
# 5 0.000000 0.000000 0.000000 0.000000 0.034665 0.000000
# 6 0.000000 0.000000 0.000000 0.000000 0.000000 0.025739
#
#
# Mechanical properties :
#
#
# Convention : Reuss Voigt Hill
#
# Bulk Modulus (GPa) = 57.76955 58.24029 58.00492
# Shear Modulus (GPa) = 24.45454 31.43870 27.94662
#
# Velocity S-wave (km/s) = 3.26021 3.69657 3.48523
# Velocity P-wave (km/s) = 6.26747 6.59797 6.43484
#
# Compressibility (1/GPa) = 0.01731016
#
# Stress axis : x y z
#
# Youngs Moduli (GPa) = 42.44479 38.39234 129.68771
#
# Poissons Ratio (x) = 0.66246 0.14081
# Poissons Ratio (y) = 0.73238 0.21569
# Poissons Ratio (z) = 0.04608 0.06385
#
# Static dielectric constant tensor:
#      x y z
#    x 1.942010 0.000000 0.000000 
#    y 0.000000 1.905110 0.000000 
#    z 0.000000 0.000000 1.969500 
# 
# From -- ./inp_files/11556.got.cif
#   From: 2010.05.17/outbox.cif.g08.bks.cpg/sg57_6_cif.got.tgz:11556.got - 2010.06.03 13:58:18.
