data_PCOD9436774
_publ_section_title
;
Structure prediction by ZEFSAII (Michael W. Deem and Ramdas Pophale) SiO2 
 PCOD9436774
Probable space group: P B C M
;
_chemical_formula_sum "Si O2"
_cell_formula_units_Z 56
_cell_length_a 19.958445
_cell_length_b 18.771581
_cell_length_c 8.711603
_cell_angle_alpha 90.000000
_cell_angle_beta 90.000000
_cell_angle_gamma 90.000000
_cell_volume 3263.815715
_symmetry_space_group_name_H-M "P B C M"
_symmetry_group_IT_number 57
_symmetry_cell_setting 'orthorhombic'
loop_
_space_group_symop_operation_xyz
x,y,z
-x,-y,1/2+z
x,1/2-y,-z
-x,1/2+y,1/2-z
-x,-y,-z
x,y,1/2-z
-x,1/2+y,z
x,1/2-y,1/2+z
loop_
_atom_site_type_symbol
_atom_site_label
_atom_site_fract_x
_atom_site_fract_y
_atom_site_fract_z
Si Si1 0.430207 0.669912 0.935190
Si Si2 0.980750 0.672129 0.929953
Si Si3 0.345753 0.972251 0.433284
Si Si4 0.544013 0.564788 0.934045
Si Si5 0.860999 0.172403 0.929815
Si Si6 0.932020 0.533726 0.069115
Si Si7 0.800055 0.037625 0.069507
O O1 0.426397 0.674858 0.750000
O O2 0.379010 0.604895 0.982012
O O3 0.503825 0.636973 0.977049
O O4 0.419181 0.750000 0.000000
O O5 0.963004 0.669499 0.750000
O O6 0.060025 0.653769 0.940690
O O7 0.972878 0.750000 0.000000
O O8 0.939265 0.616443 0.028486
O O9 0.352503 0.974143 0.250000
O O10 0.269256 0.977364 0.484575
O O11 0.384307 0.040974 0.501879
O O12 0.544911 0.562086 0.750000
O O13 0.500000 0.500000 0.000000
O O14 0.842487 0.169305 0.750000
O O15 0.853209 0.250000 0.000000
O O16 0.818444 0.118724 0.030044
O O17 0.930662 0.519861 0.250000
O O18 0.864353 0.504604 0.994038
O O19 0.000000 0.500000 0.000000
O O20 0.792948 0.025999 0.250000
#
# Coordination Sequence:
#
# PCOD9436774 Si02
#       7
#     8   8   8   8   8   8   8
#     4   9  19  33  54  83 114 145 180 220 261 314
#     4  10  20  35  56  80 106 137 175 224 279 333
#     4  10  21  37  54  77 110 147 186 227 273 328
#     4   9  17  32  53  79 107 140 181 222 263 311
#     4  10  20  34  52  74 105 140 178 222 271 330
#     4  12  23  37  57  81 109 142 185 238 286 336
#     4  12  24  37  55  79 109 147 187 230 283 338
#
# _framework density 17.157831000000002
#
# number of rings (size 3 to 8) (size 9 to 14) (size 15 to 20)
#    0.000    1.714    1.429    5.143    0.000    5.143 
#    0.000    1.429    0.000    0.857    0.000    4.000 
#    0.000    0.000    0.000    0.000    0.000    0.000 
#
# Total GULP energy -312271.289066 kJ/mol
# GULP energy per Si atom -5576.273019 kJ/mol
# Density = 1.711878 g / cm^3
# Si number density = 17.157831 Si / 1000 Ang^3
#
#
#
# Elastic Constant Matrix: (Units=GPa)
#
#
# Indices 1 2 3 4 5 6 
#
# 1 93.7372 35.3997 18.5068 0.0000 0.0000 0.0000
# 2 35.3997 44.7703 12.8779 0.0000 0.0000 0.0000
# 3 18.5068 12.8779 67.3309 0.0000 0.0000 0.0000
# 4 0.0000 0.0000 0.0000 30.1074 0.0000 0.0000
# 5 0.0000 0.0000 0.0000 0.0000 27.6818 0.0000
# 6 0.0000 0.0000 0.0000 0.0000 0.0000 355.3771
#
#
#
# Elastic Compliance Matrix: (Units=1/GPa)
#
#
# Indices 1 2 3 4 5 6 
#
# 1 0.015466 -0.011647 -0.002023 0.000000 0.000000 0.000000
# 2 -0.011647 0.032407 -0.002997 0.000000 0.000000 0.000000
# 3 -0.002023 -0.002997 0.015981 0.000000 0.000000 0.000000
# 4 0.000000 0.000000 0.000000 0.033214 0.000000 0.000000
# 5 0.000000 0.000000 0.000000 0.000000 0.036125 0.000000
# 6 0.000000 0.000000 0.000000 0.000000 0.000000 0.002814
#
#
# Mechanical properties :
#
#
# Convention : Reuss Voigt Hill
#
# Bulk Modulus (GPa) = 32.76521 37.71192 35.23857
# Shear Modulus (GPa) = 27.85263 91.90351 59.87807
#
# Velocity S-wave (km/s) = 4.03341 7.32666 5.91389
# Velocity P-wave (km/s) = 6.38976 9.67473 8.19846
#
# Compressibility (1/GPa) = 0.03052018
#
# Stress axis : x y z
#
# Youngs Moduli (GPa) = 64.65779 30.85707 62.57272
#
# Poissons Ratio (x) = 0.35939 0.12661
# Poissons Ratio (y) = 0.75306 0.18753
# Poissons Ratio (z) = 0.13083 0.09248
#
# Static dielectric constant tensor:
#      x y z
#    x 1.592620 0.000000 0.000000 
#    y 0.000000 1.681910 0.000000 
#    z 0.000000 0.000000 1.572890 
# 
# From -- ./inp_files/8280.got.cif
#   From: 2010.05.17/outbox.cif.g08.bks.cpg/sg57_5_cif.got.tgz:8280.got - 2010.06.03 13:58:18.
