data_PCOD9436872
_publ_section_title
;
Structure prediction by ZEFSAII (Michael W. Deem and Ramdas Pophale) SiO2 
 PCOD9436872
Probable space group: P B C M
;
_chemical_formula_sum "Si O2"
_cell_formula_units_Z 64
_cell_length_a 22.531699
_cell_length_b 18.051947
_cell_length_c 8.806209
_cell_angle_alpha 90.000000
_cell_angle_beta 90.000000
_cell_angle_gamma 90.000000
_cell_volume 3581.846573
_symmetry_space_group_name_H-M "P B C M"
_symmetry_group_IT_number 57
_symmetry_cell_setting 'orthorhombic'
loop_
_space_group_symop_operation_xyz
x,y,z
-x,-y,1/2+z
x,1/2-y,-z
-x,1/2+y,1/2-z
-x,-y,-z
x,y,1/2-z
-x,1/2+y,z
x,1/2-y,1/2+z
loop_
_atom_site_type_symbol
_atom_site_label
_atom_site_fract_x
_atom_site_fract_y
_atom_site_fract_z
Si Si1 0.139997 0.969053 0.431619
Si Si2 0.741520 0.517775 0.570552
Si Si3 0.057444 0.830410 0.432424
Si Si4 0.293298 0.171603 0.430554
Si Si5 0.549872 0.327071 0.430176
Si Si6 0.957087 0.936887 0.067777
Si Si7 0.570878 0.626433 0.429592
Si Si8 0.394380 0.973552 0.930153
O O1 0.137097 0.972642 0.250000
O O2 0.206980 0.972033 0.489081
O O3 0.106074 0.040796 0.499644
O O4 0.104488 0.894434 0.479783
O O5 0.752887 0.520277 0.750000
O O6 0.738467 0.601024 0.504885
O O7 0.676195 0.483372 0.546479
O O8 0.068980 0.750000 0.500000
O O9 0.060338 0.826057 0.250000
O O10 0.991547 0.861292 0.472764
O O11 0.274935 0.250000 0.500000
O O12 0.284361 0.170648 0.250000
O O13 0.363974 0.160050 0.459259
O O14 0.571664 0.250000 0.500000
O O15 0.556935 0.328225 0.250000
O O16 0.480682 0.335709 0.474668
O O17 0.582673 0.396206 0.506784
O O18 0.955197 0.942242 0.250000
O O19 0.000000 0.000000 0.000000
O O20 0.558061 0.632450 0.250000
O O21 0.574735 0.540860 0.480427
O O22 0.406563 0.980438 0.750000
#
# Coordination Sequence:
#
# PCOD9436872 Si02
#       8
#     8   8   8   8   8   8   8   8
#     4  10  20  35  55  80 108 141 182 222 262 312
#     4  10  21  37  58  80 104 140 183 223 264 314
#     4   9  19  33  52  80 111 141 174 216 262 308
#     4  10  20  34  54  79 108 139 172 216 267 319
#     4  12  24  37  54  77 106 138 174 220 273 326
#     4   9  17  31  51  77 106 136 171 210 256 308
#     4  10  20  35  56  81 107 137 173 214 266 326
#     4  10  21  38  57  78 105 138 178 221 268 323
#
# _framework density 17.867878000000001
#
# number of rings (size 3 to 8) (size 9 to 14) (size 15 to 20)
#    0.000    2.000    0.000    4.875    0.000    7.000 
#    0.000    1.250    0.000    3.000    0.000    0.000 
#    0.000    0.000    0.000    0.000    0.000    0.000 
#
# Total GULP energy -357252.433739 kJ/mol
# GULP energy per Si atom -5582.069277 kJ/mol
# Density = 1.782721 g / cm^3
# Si number density = 17.867878 Si / 1000 Ang^3
#
#
#
# Elastic Constant Matrix: (Units=GPa)
#
#
# Indices 1 2 3 4 5 6 
#
# 1 37.2631 19.4148 20.2484 0.0000 0.0000 0.0000
# 2 19.4148 102.7991 20.6521 0.0000 0.0000 0.0000
# 3 20.2484 20.6521 51.6898 0.0000 0.0000 0.0000
# 4 0.0000 0.0000 0.0000 29.3829 0.0000 0.0000
# 5 0.0000 0.0000 0.0000 0.0000 31.0992 0.0000
# 6 0.0000 0.0000 0.0000 0.0000 0.0000 17.5209
#
#
#
# Elastic Compliance Matrix: (Units=1/GPa)
#
#
# Indices 1 2 3 4 5 6 
#
# 1 0.035747 -0.004282 -0.012292 0.000000 0.000000 0.000000
# 2 -0.004282 0.011090 -0.002753 0.000000 0.000000 0.000000
# 3 -0.012292 -0.002753 0.025261 0.000000 0.000000 0.000000
# 4 0.000000 0.000000 0.000000 0.034033 0.000000 0.000000
# 5 0.000000 0.000000 0.000000 0.000000 0.032155 0.000000
# 6 0.000000 0.000000 0.000000 0.000000 0.000000 0.057075
#
#
# Mechanical properties :
#
#
# Convention : Reuss Voigt Hill
#
# Bulk Modulus (GPa) = 29.90175 34.70916 32.30545
# Shear Modulus (GPa) = 20.39459 24.36304 22.37882
#
# Velocity S-wave (km/s) = 3.38214 3.69658 3.54285
# Velocity P-wave (km/s) = 5.65890 6.13899 5.90383
#
# Compressibility (1/GPa) = 0.03344286
#
# Stress axis : x y z
#
# Youngs Moduli (GPa) = 27.97473 90.17529 39.58595
#
# Poissons Ratio (x) = 0.38610 0.48660
# Poissons Ratio (y) = 0.11978 0.10900
# Poissons Ratio (z) = 0.34387 0.24829
#
# Static dielectric constant tensor:
#      x y z
#    x 2.772610 0.000000 0.000000 
#    y 0.000000 1.602480 0.000000 
#    z 0.000000 0.000000 1.591470 
# 
# From -- ./inp_files/9279.got.cif
#   From: 2010.05.17/outbox.cif.g08.bks.cpg/sg57_5_cif.got.tgz:9279.got - 2010.06.03 13:58:18.
