data_PCOD9436355
_publ_section_title
;
Structure prediction by ZEFSAII (Michael W. Deem and Ramdas Pophale) SiO2 
 PCOD9436355
Probable space group: P B C M
;
_chemical_formula_sum "Si O2"
_cell_formula_units_Z 48
_cell_length_a 10.138110
_cell_length_b 14.481176
_cell_length_c 17.494598
_cell_angle_alpha 90.000000
_cell_angle_beta 90.000000
_cell_angle_gamma 90.000000
_cell_volume 2568.412639
_symmetry_space_group_name_H-M "P B C M"
_symmetry_group_IT_number 57
_symmetry_cell_setting 'orthorhombic'
loop_
_space_group_symop_operation_xyz
x,y,z
-x,-y,1/2+z
x,1/2-y,-z
-x,1/2+y,1/2-z
-x,-y,-z
x,y,1/2-z
-x,1/2+y,z
x,1/2-y,1/2+z
loop_
_atom_site_type_symbol
_atom_site_label
_atom_site_fract_x
_atom_site_fract_y
_atom_site_fract_z
Si Si1 0.977850 0.254543 0.093174
Si Si2 0.380210 0.059302 0.158540
Si Si3 0.858042 0.051226 0.913588
Si Si4 0.285522 0.251693 0.091716
Si Si5 0.361711 0.054319 0.659597
Si Si6 0.871374 0.438449 0.908151
O O1 0.906557 0.349153 0.114870
O O2 0.895722 0.165701 0.119047
O O3 0.131124 0.251714 0.117511
O O4 0.980804 0.250000 0.000000
O O5 0.380831 0.068579 0.250000
O O6 0.356321 0.160059 0.122572
O O7 0.260644 0.994086 0.131857
O O8 0.515140 0.008722 0.134337
O O9 0.823365 0.060109 0.003584
O O10 0.984875 0.985052 0.908771
O O11 0.351853 0.346345 0.119515
O O12 0.285545 0.250000 0.000000
O O13 0.373372 0.069528 0.750000
O O14 0.229508 0.997781 0.640617
#
# Coordination Sequence:
#
# PCOD9436355 Si02
#       6
#     8   8   8   8   8   8
#     4   9  18  34  59  92 122 150 193 259 310 341
#     4  11  25  42  59  87 129 166 199 245 303 364
#     4  10  19  36  62  90 120 154 203 257 299 349
#     4  11  21  40  67  90 116 156 205 253 306 359
#     4  11  25  42  59  87 129 166 199 245 303 364
#     4  10  19  36  62  90 120 154 203 257 299 349
#
# _framework density 18.688586000000001
#
# number of rings (size 3 to 8) (size 9 to 14) (size 15 to 20)
#    0.000    1.667    3.333    1.500    0.000    4.667 
#    0.000    4.167    0.000    0.000    0.000    0.000 
#    0.000    0.000    0.000    0.000    0.000    0.000 
#
# Total GULP energy -268080.999507 kJ/mol
# GULP energy per Si atom -5585.020823 kJ/mol
# Density = 1.864605 g / cm^3
# Si number density = 18.688586 Si / 1000 Ang^3
#
#
#
# Elastic Constant Matrix: (Units=GPa)
#
#
# Indices 1 2 3 4 5 6 
#
# 1 48.3742 1.6629 18.9636 0.0000 0.0000 0.0000
# 2 1.6629 116.9773 23.9108 0.0000 0.0000 0.0000
# 3 18.9636 23.9108 34.1497 0.0000 0.0000 0.0000
# 4 0.0000 0.0000 0.0000 21.0343 0.0000 0.0000
# 5 0.0000 0.0000 0.0000 0.0000 28.7766 0.0000
# 6 0.0000 0.0000 0.0000 0.0000 0.0000 26.8929
#
#
#
# Elastic Compliance Matrix: (Units=1/GPa)
#
#
# Indices 1 2 3 4 5 6 
#
# 1 0.027399 0.003175 -0.017438 0.000000 0.000000 0.000000
# 2 0.003175 0.010344 -0.009006 0.000000 0.000000 0.000000
# 3 -0.017438 -0.009006 0.045272 0.000000 0.000000 0.000000
# 4 0.000000 0.000000 0.000000 0.047541 0.000000 0.000000
# 5 0.000000 0.000000 0.000000 0.000000 0.034751 0.000000
# 6 0.000000 0.000000 0.000000 0.000000 0.000000 0.037185
#
#
# Mechanical properties :
#
#
# Convention : Reuss Voigt Hill
#
# Bulk Modulus (GPa) = 27.41412 32.06396 29.73904
# Shear Modulus (GPa) = 19.14325 25.67168 22.40746
#
# Velocity S-wave (km/s) = 3.20399 3.71031 3.46640
# Velocity P-wave (km/s) = 5.32805 5.96233 5.65409
#
# Compressibility (1/GPa) = 0.03647755
#
# Stress axis : x y z
#
# Youngs Moduli (GPa) = 36.49766 96.67073 22.08876
#
# Poissons Ratio (x) = -0.30692 0.38518
# Poissons Ratio (y) = -0.11588 0.19893
# Poissons Ratio (z) = 0.63644 0.87061
#
# Static dielectric constant tensor:
#      x y z
#    x 1.620240 0.000000 0.000000 
#    y 0.000000 1.642160 0.000000 
#    z 0.000000 0.000000 1.641050 
# 
# From -- ./inp_files/24237.got.cif
#   From: 2010.05.17/outbox.cif.g08.bks.cpg/sg57_13_cif.got.tgz:24237.got - 2010.06.03 13:58:18.
