data_PCOD9436488
_publ_section_title
;
Structure prediction by ZEFSAII (Michael W. Deem and Ramdas Pophale) SiO2 
 PCOD9436488
Probable space group: P B C M
;
_chemical_formula_sum "Si O2"
_cell_formula_units_Z 48
_cell_length_a 12.020871
_cell_length_b 8.495996
_cell_length_c 25.395074
_cell_angle_alpha 90.000000
_cell_angle_beta 90.000000
_cell_angle_gamma 90.000000
_cell_volume 2593.580418
_symmetry_space_group_name_H-M "P B C M"
_symmetry_group_IT_number 57
_symmetry_cell_setting 'orthorhombic'
loop_
_space_group_symop_operation_xyz
x,y,z
-x,-y,1/2+z
x,1/2-y,-z
-x,1/2+y,1/2-z
-x,-y,-z
x,y,1/2-z
-x,1/2+y,z
x,1/2-y,1/2+z
loop_
_atom_site_type_symbol
_atom_site_label
_atom_site_fract_x
_atom_site_fract_y
_atom_site_fract_z
Si Si1 0.917070 0.355109 0.111731
Si Si2 0.124347 0.357751 0.189565
Si Si3 0.754334 0.190800 0.190918
Si Si4 0.459573 0.634935 0.687850
Si Si5 0.943576 0.874613 0.538607
Si Si6 0.335266 0.321484 0.814411
O O1 0.819647 0.285863 0.146902
O O2 0.884196 0.512886 0.080618
O O3 0.021307 0.383347 0.151073
O O4 0.964088 0.225582 0.070536
O O5 0.086855 0.328529 0.250000
O O6 0.200013 0.514270 0.189911
O O7 0.208407 0.219557 0.172069
O O8 0.778221 0.254904 0.250000
O O9 0.623002 0.214984 0.183593
O O10 0.476785 0.603754 0.750000
O O11 0.579060 0.686333 0.666611
O O12 0.389231 0.486061 0.667866
O O13 0.882614 0.750000 0.500000
O O14 0.000000 0.000000 0.500000
O O15 0.335585 0.320567 0.750000
#
# Coordination Sequence:
#
# PCOD9436488 Si02
#       6
#     8   8   8   8   8   8
#     4  11  19  34  51  74 103 132 161 201 252 301
#     4  10  20  31  45  71 107 142 169 194 234 293
#     4  10  20  31  45  71 107 142 169 194 234 292
#     4   9  17  29  45  64  93 135 176 208 233 268
#     4   9  20  36  54  70  92 124 166 215 254 297
#     4   9  17  29  45  64  93 135 176 208 233 267
#
# _framework density 18.507235000000001
#
# number of rings (size 3 to 8) (size 9 to 14) (size 15 to 20)
#    0.000    2.333    1.667    1.500    2.333    4.000 
#    0.000    0.000    0.000    0.000    0.000    0.000 
#    0.000   26.667    0.000    0.000    0.000    0.000 
#
# Total GULP energy -267467.512398 kJ/mol
# GULP energy per Si atom -5572.239842 kJ/mol
# Density = 1.846511 g / cm^3
# Si number density = 18.507235 Si / 1000 Ang^3
#
#
#
# Elastic Constant Matrix: (Units=GPa)
#
#
# Indices 1 2 3 4 5 6 
#
# 1 39.4702 -7.2358 16.9153 0.0000 0.0000 0.0000
# 2 -7.2358 60.4977 26.4549 0.0000 0.0000 0.0000
# 3 16.9153 26.4549 73.0964 0.0000 0.0000 0.0000
# 4 0.0000 0.0000 0.0000 38.3736 0.0000 0.0000
# 5 0.0000 0.0000 0.0000 0.0000 1.8785 0.0000
# 6 0.0000 0.0000 0.0000 0.0000 0.0000 24.3344
#
#
#
# Elastic Compliance Matrix: (Units=1/GPa)
#
#
# Indices 1 2 3 4 5 6 
#
# 1 0.031199 0.008184 -0.010182 0.000000 0.000000 0.000000
# 2 0.008184 0.021784 -0.009778 0.000000 0.000000 0.000000
# 3 -0.010182 -0.009778 0.019576 0.000000 0.000000 0.000000
# 4 0.000000 0.000000 0.000000 0.026060 0.000000 0.000000
# 5 0.000000 0.000000 0.000000 0.000000 0.532340 0.000000
# 6 0.000000 0.000000 0.000000 0.000000 0.000000 0.041094
#
#
# Mechanical properties :
#
#
# Convention : Reuss Voigt Hill
#
# Bulk Modulus (GPa) = 20.40504 27.25925 23.83214
# Shear Modulus (GPa) = 7.02306 22.04595 14.53451
#
# Velocity S-wave (km/s) = 1.95013 3.45513 2.80544
# Velocity P-wave (km/s) = 4.01498 5.53879 4.83726
#
# Compressibility (1/GPa) = 0.04900751
#
# Stress axis : x y z
#
# Youngs Moduli (GPa) = 32.05191 45.90493 51.08410
#
# Poissons Ratio (x) = -0.37568 0.52013
# Poissons Ratio (y) = -0.26231 0.49950
# Poissons Ratio (z) = 0.32635 0.44886
#
# Static dielectric constant tensor:
#      x y z
#    x 1.641890 0.000000 0.000000 
#    y 0.000000 1.731440 0.000000 
#    z 0.000000 0.000000 1.637770 
# 
# From -- ./inp_files/27083.got.cif
#   From: 2010.05.17/outbox.cif.g08.bks.cpg/sg57_14_cif.got.tgz:27083.got - 2010.06.03 13:58:18.
