data_PCOD9436750
_publ_section_title
;
Structure prediction by ZEFSAII (Michael W. Deem and Ramdas Pophale) SiO2 
 PCOD9436750
Probable space group: P B C M
;
_chemical_formula_sum "Si O2"
_cell_formula_units_Z 48
_cell_length_a 16.452484
_cell_length_b 18.878518
_cell_length_c 9.160386
_cell_angle_alpha 90.000000
_cell_angle_beta 90.000000
_cell_angle_gamma 90.000000
_cell_volume 2845.202292
_symmetry_space_group_name_H-M "P B C M"
_symmetry_group_IT_number 57
_symmetry_cell_setting 'orthorhombic'
loop_
_space_group_symop_operation_xyz
x,y,z
-x,-y,1/2+z
x,1/2-y,-z
-x,1/2+y,1/2-z
-x,-y,-z
x,y,1/2-z
-x,1/2+y,z
x,1/2-y,1/2+z
loop_
_atom_site_type_symbol
_atom_site_label
_atom_site_fract_x
_atom_site_fract_y
_atom_site_fract_z
Si Si1 0.606829 0.562549 0.082395
Si Si2 0.451769 0.897210 0.415847
Si Si3 0.303642 0.858890 0.911752
Si Si4 0.080950 0.969654 0.426202
Si Si5 0.239047 0.021119 0.582610
Si Si6 0.120662 0.820734 0.923562
O O1 0.621595 0.581490 0.250000
O O2 0.578297 0.479641 0.080537
O O3 0.531777 0.605351 0.014605
O O4 0.689127 0.566852 0.988759
O O5 0.471721 0.879734 0.250000
O O6 0.376058 0.851894 0.474315
O O7 0.334790 0.842084 0.750000
O O8 0.218928 0.819866 0.936143
O O9 0.275741 0.941343 0.912048
O O10 0.077804 0.969750 0.250000
O O11 0.092543 0.890441 0.490159
O O12 0.158580 0.014382 0.484567
O O13 0.000000 0.000000 0.500000
O O14 0.220374 0.041289 0.750000
O O15 0.101934 0.825430 0.750000
O O16 0.088164 0.750000 0.000000
#
# Coordination Sequence:
#
# PCOD9436750 Si02
#       6
#     8   8   8   8   8   8
#     4   9  15  22  33  51  77 110 145 180 220 264
#     4   9  15  21  32  51  76 108 145 181 216 256
#     4   8  15  26  39  56  82 114 147 183 223 269
#     4  11  21  34  51  71  96 127 162 202 251 305
#     4   9  16  27  41  59  84 114 149 188 231 281
#     4  10  20  34  51  72  97 127 162 200 243 293
#
# _framework density 16.870505000000001
#
# number of rings (size 3 to 8) (size 9 to 14) (size 15 to 20)
#    0.000    2.667    0.000    4.500    0.000    8.667 
#    0.000    0.000    0.000    0.000    0.000    0.000 
#    0.000    1.333    0.000   11.333    0.000   19.167 
#
# Total GULP energy -267364.618809 kJ/mol
# GULP energy per Si atom -5570.096225 kJ/mol
# Density = 1.683211 g / cm^3
# Si number density = 16.870505 Si / 1000 Ang^3
#
#
#
# Elastic Constant Matrix: (Units=GPa)
#
#
# Indices 1 2 3 4 5 6 
#
# 1 84.5627 11.7516 67.7378 0.0000 0.0000 0.0000
# 2 11.7516 12.1005 30.7306 0.0000 0.0000 0.0000
# 3 67.7378 30.7306 163.6052 0.0000 0.0000 0.0000
# 4 0.0000 0.0000 0.0000 11.8542 0.0000 0.0000
# 5 0.0000 0.0000 0.0000 0.0000 31.6929 0.0000
# 6 0.0000 0.0000 0.0000 0.0000 0.0000 6.1648
#
#
#
# Elastic Compliance Matrix: (Units=1/GPa)
#
#
# Indices 1 2 3 4 5 6 
#
# 1 0.017741 0.002725 -0.007857 0.000000 0.000000 0.000000
# 2 0.002725 0.158440 -0.030888 0.000000 0.000000 0.000000
# 3 -0.007857 -0.030888 0.015167 0.000000 0.000000 0.000000
# 4 0.000000 0.000000 0.000000 0.084358 0.000000 0.000000
# 5 0.000000 0.000000 0.000000 0.000000 0.031553 0.000000
# 6 0.000000 0.000000 0.000000 0.000000 0.000000 0.162211
#
#
# Mechanical properties :
#
#
# Convention : Reuss Voigt Hill
#
# Bulk Modulus (GPa) = 8.38179 53.41204 30.89691
# Shear Modulus (GPa) = 8.60169 19.94561 14.27365
#
# Velocity S-wave (km/s) = 2.26047 3.44216 2.91189
# Velocity P-wave (km/s) = 3.43396 6.89396 5.44604
#
# Compressibility (1/GPa) = 0.11930624
#
# Stress axis : x y z
#
# Youngs Moduli (GPa) = 56.36788 6.31153 65.93181
#
# Poissons Ratio (x) = -0.01720 0.51802
# Poissons Ratio (y) = -0.15358 2.03653
# Poissons Ratio (z) = 0.44288 0.19495
#
# Static dielectric constant tensor:
#      x y z
#    x 1.561390 0.000000 0.000000 
#    y 0.000000 1.585620 0.000000 
#    z 0.000000 0.000000 1.578360 
# 
# From -- ./inp_files/4638.got.cif
#   From: 2010.05.17/outbox.cif.g08.bks.cpg/sg57_3_cif.got.tgz:4638.got - 2010.06.03 13:58:18.
