data_PCOD9436983
_publ_section_title
;
Structure prediction by ZEFSAII (Michael W. Deem and Ramdas Pophale) SiO2 
 PCOD9436983
Probable space group: P B C M
;
_chemical_formula_sum "Si O2"
_cell_formula_units_Z 48
_cell_length_a 9.537284
_cell_length_b 17.887308
_cell_length_c 15.222601
_cell_angle_alpha 90.000000
_cell_angle_beta 90.000000
_cell_angle_gamma 90.000000
_cell_volume 2596.919961
_symmetry_space_group_name_H-M "P B C M"
_symmetry_group_IT_number 57
_symmetry_cell_setting 'orthorhombic'
loop_
_space_group_symop_operation_xyz
x,y,z
-x,-y,1/2+z
x,1/2-y,-z
-x,1/2+y,1/2-z
-x,-y,-z
x,y,1/2-z
-x,1/2+y,z
x,1/2-y,1/2+z
loop_
_atom_site_type_symbol
_atom_site_label
_atom_site_fract_x
_atom_site_fract_y
_atom_site_fract_z
Si Si1 0.980743 0.183928 0.250000
Si Si2 0.683416 0.703480 0.250000
Si Si3 0.609101 0.962785 0.563511
Si Si4 0.805408 0.195601 0.083506
Si Si5 0.141280 0.981113 0.550802
Si Si6 0.518349 0.793156 0.590505
Si Si7 0.527187 0.958196 0.750000
Si Si8 0.187995 0.527413 0.250000
O O1 0.149905 0.189289 0.250000
O O2 0.913882 0.216569 0.160745
O O3 0.914852 0.099904 0.250000
O O4 0.621577 0.741727 0.336938
O O5 0.597899 0.624380 0.250000
O O6 0.574693 0.875778 0.570690
O O7 0.585431 0.994676 0.661246
O O8 0.500000 0.000000 0.500000
O O9 0.751119 0.979607 0.514773
O O10 0.830093 0.108662 0.056484
O O11 0.644985 0.201704 0.118463
O O12 0.819895 0.250000 0.000000
O O13 0.156312 0.007780 0.653274
O O14 0.000000 0.000000 0.500000
O O15 0.521049 0.750000 0.500000
O O16 0.356813 0.955247 0.750000
#
# Coordination Sequence:
#
# PCOD9436983 Si02
#       8
#     4   4   8   8   8   8   4   4
#     4  10  20  34  56  84 115 152 190 230 285 353
#     4  10  20  34  56  88 114 146 190 238 284 343
#     4  11  19  37  60  87 115 149 195 239 288 333
#     4  10  21  40  62  81 113 156 195 231 284 345
#     4  11  23  37  60  88 119 155 191 240 290 349
#     4  10  21  38  62  85 112 151 196 238 282 340
#     4  10  20  34  60  84 115 156 196 238 279 351
#     4  10  20  38  56  82 116 160 196 228 290 351
#
# _framework density 18.483433999999999
#
# number of rings (size 3 to 8) (size 9 to 14) (size 15 to 20)
#    0.000    1.667    3.333    3.500    9.333    0.667 
#    0.000    3.333    0.000    0.000    0.000    0.000 
#    0.000    0.000    0.000    0.000    0.000    0.000 
#
# Total GULP energy -267241.622554 kJ/mol
# GULP energy per Si atom -5567.533803 kJ/mol
# Density = 1.844136 g / cm^3
# Si number density = 18.483434 Si / 1000 Ang^3
#
#
#
# Elastic Constant Matrix: (Units=GPa)
#
#
# Indices 1 2 3 4 5 6 
#
# 1 190.0893 9.1518 79.3525 0.0000 0.0000 0.0000
# 2 9.1518 24.9297 21.3481 0.0000 0.0000 0.0000
# 3 79.3525 21.3481 171.4389 0.0000 0.0000 0.0000
# 4 0.0000 0.0000 0.0000 24.1497 0.0000 0.0000
# 5 0.0000 0.0000 0.0000 0.0000 34.6292 0.0000
# 6 0.0000 0.0000 0.0000 0.0000 0.0000 12.2030
#
#
#
# Elastic Compliance Matrix: (Units=1/GPa)
#
#
# Indices 1 2 3 4 5 6 
#
# 1 0.006522 0.000214 -0.003045 0.000000 0.000000 0.000000
# 2 0.000214 0.044908 -0.005691 0.000000 0.000000 0.000000
# 3 -0.003045 -0.005691 0.007951 0.000000 0.000000 0.000000
# 4 0.000000 0.000000 0.000000 0.041408 0.000000 0.000000
# 5 0.000000 0.000000 0.000000 0.000000 0.028877 0.000000
# 6 0.000000 0.000000 0.000000 0.000000 0.000000 0.081947
#
#
# Mechanical properties :
#
#
# Convention : Reuss Voigt Hill
#
# Bulk Modulus (GPa) = 23.62085 67.35139 45.48612
# Shear Modulus (GPa) = 20.59559 32.63673 26.61616
#
# Velocity S-wave (km/s) = 3.34169 4.20662 3.79885
# Velocity P-wave (km/s) = 5.26274 7.75320 6.62603
#
# Compressibility (1/GPa) = 0.04233547
#
# Stress axis : x y z
#
# Youngs Moduli (GPa) = 153.33615 22.26787 125.76813
#
# Poissons Ratio (x) = -0.00476 0.38299
# Poissons Ratio (y) = -0.03275 0.71574
# Poissons Ratio (z) = 0.46694 0.12672
#
# Static dielectric constant tensor:
#      x y z
#    x 1.550020 0.000000 0.000000 
#    y 0.000000 1.639320 0.000000 
#    z 0.000000 0.000000 1.729380 
# 
# From -- ./inp_files/16608.got.cif
#   From: 2010.05.17/outbox.cif.g08.bks.cpg/sg57_9_cif.got.tgz:16608.got - 2010.06.03 13:58:18.
