data_PCOD9436463
_publ_section_title
;
Structure prediction by ZEFSAII (Michael W. Deem and Ramdas Pophale) SiO2 
 PCOD9436463
Probable space group: P B C M
;
_chemical_formula_sum "Si O2"
_cell_formula_units_Z 44
_cell_length_a 9.360078
_cell_length_b 18.849865
_cell_length_c 13.671909
_cell_angle_alpha 90.000000
_cell_angle_beta 90.000000
_cell_angle_gamma 90.000000
_cell_volume 2412.219762
_symmetry_space_group_name_H-M "P B C M"
_symmetry_group_IT_number 57
_symmetry_cell_setting 'orthorhombic'
loop_
_space_group_symop_operation_xyz
x,y,z
-x,-y,1/2+z
x,1/2-y,-z
-x,1/2+y,1/2-z
-x,-y,-z
x,y,1/2-z
-x,1/2+y,z
x,1/2-y,1/2+z
loop_
_atom_site_type_symbol
_atom_site_label
_atom_site_fract_x
_atom_site_fract_y
_atom_site_fract_z
Si Si1 0.664757 0.276503 0.250000
Si Si2 0.894873 0.191570 0.917055
Si Si3 0.962439 0.132100 0.250000
Si Si4 0.889329 0.789332 0.250000
Si Si5 0.610802 0.123045 0.250000
Si Si6 0.596048 0.005152 0.403949
Si Si7 0.596621 0.879179 0.250000
Si Si8 0.906946 0.058194 0.447980
O O1 0.766938 0.283648 0.154742
O O2 0.570597 0.204846 0.250000
O O3 0.552308 0.338898 0.250000
O O4 0.030887 0.182133 0.846710
O O5 0.921181 0.250000 0.000000
O O6 0.866947 0.120471 0.976781
O O7 0.785877 0.135211 0.250000
O O8 0.984658 0.090550 0.351809
O O9 0.056737 0.205060 0.250000
O O10 0.729438 0.822780 0.250000
O O11 0.558399 0.075610 0.340585
O O12 0.761682 0.019388 0.421452
O O13 0.500000 0.000000 0.500000
O O14 0.593354 0.933030 0.341681
O O15 0.000000 0.000000 0.500000
#
# Coordination Sequence:
#
# PCOD9436463 Si02
#       8
#     4   8   4   4   4   8   4   8
#     4  11  22  38  60  92 115 157 212 257 303 370
#     4  11  20  37  66  89 114 156 213 257 300 370
#     4  10  19  40  62  84 120 164 194 266 308 358
#     4  11  21  40  61  88 132 156 197 262 330 361
#     4   9  18  39  65  84 115 159 211 251 305 360
#     4  10  21  41  61  84 124 165 201 252 310 369
#     4  11  24  39  58  92 128 166 194 254 330 371
#     4  11  22  37  62  91 116 159 212 246 309 377
#
# _framework density 18.240462000000001
#
# number of rings (size 3 to 8) (size 9 to 14) (size 15 to 20)
#    0.000    1.455    3.636    3.818    0.000    1.455 
#    3.273    1.818    0.000    0.000    0.000    0.000 
#    0.000    0.000    0.000    0.000    0.000    0.000 
#
# Total GULP energy -245092.516353 kJ/mol
# GULP energy per Si atom -5570.284463 kJ/mol
# Density = 1.819895 g / cm^3
# Si number density = 18.240462 Si / 1000 Ang^3
#
#
#
# Elastic Constant Matrix: (Units=GPa)
#
#
# Indices 1 2 3 4 5 6 
#
# 1 39.0374 11.4146 28.5376 0.0000 0.0000 0.0000
# 2 11.4146 99.7103 48.0620 0.0000 0.0000 0.0000
# 3 28.5376 48.0620 128.3456 0.0000 0.0000 0.0000
# 4 0.0000 0.0000 0.0000 -19.1493 0.0000 0.0000
# 5 0.0000 0.0000 0.0000 0.0000 15.4873 0.0000
# 6 0.0000 0.0000 0.0000 0.0000 0.0000 28.2868
#
#
#
# Elastic Compliance Matrix: (Units=1/GPa)
#
#
# Indices 1 2 3 4 5 6 
#
# 1 0.030595 -0.000273 -0.006701 0.000000 0.000000 0.000000
# 2 -0.000273 0.012240 -0.004523 0.000000 0.000000 0.000000
# 3 -0.006701 -0.004523 0.010975 0.000000 0.000000 0.000000
# 4 0.000000 0.000000 0.000000 -0.052221 0.000000 0.000000
# 5 0.000000 0.000000 0.000000 0.000000 0.064569 0.000000
# 6 0.000000 0.000000 0.000000 0.000000 0.000000 0.035352
#
#
# Mechanical properties :
#
#
# Convention : Reuss Voigt Hill
#
# Bulk Modulus (GPa) = 32.44910 49.23574 40.84242
# Shear Modulus (GPa) = 37.09875 16.86356 26.98115
#
# Velocity S-wave (km/s) = 4.51474 3.04388 3.85020
# Velocity P-wave (km/s) = 6.70861 6.27732 6.49655
#
# Compressibility (1/GPa) = 0.03081749
#
# Stress axis : x y z
#
# Youngs Moduli (GPa) = 32.68558 81.69614 91.11503
#
# Poissons Ratio (x) = 0.02227 0.61053
# Poissons Ratio (y) = 0.00891 0.41212
# Poissons Ratio (z) = 0.21901 0.36952
#
# Static dielectric constant tensor:
#      x y z
#    x 1.602160 0.000000 0.000000 
#    y 0.000000 1.654660 0.000000 
#    z 0.000000 0.000000 1.661900 
# 
# From -- ./inp_files/16285.got.cif
#   From: 2010.05.17/outbox.cif.g08.bks.cpg/sg57_9_cif.got.tgz:16285.got - 2010.06.03 13:58:18.
