data_PCOD9436341
_publ_section_title
;
Structure prediction by ZEFSAII (Michael W. Deem and Ramdas Pophale) SiO2 
 PCOD9436341
Probable space group: P B C M
;
_chemical_formula_sum "Si O2"
_cell_formula_units_Z 48
_cell_length_a 8.752626
_cell_length_b 19.549175
_cell_length_c 14.285211
_cell_angle_alpha 90.000000
_cell_angle_beta 90.000000
_cell_angle_gamma 90.000000
_cell_volume 2444.294133
_symmetry_space_group_name_H-M "P B C M"
_symmetry_group_IT_number 57
_symmetry_cell_setting 'orthorhombic'
loop_
_space_group_symop_operation_xyz
x,y,z
-x,-y,1/2+z
x,1/2-y,-z
-x,1/2+y,1/2-z
-x,-y,-z
x,y,1/2-z
-x,1/2+y,z
x,1/2-y,1/2+z
loop_
_atom_site_type_symbol
_atom_site_label
_atom_site_fract_x
_atom_site_fract_y
_atom_site_fract_z
Si Si1 0.794048 0.589933 0.537553
Si Si2 0.863843 0.362064 0.467494
Si Si3 0.616136 0.871541 0.640911
Si Si4 0.718441 0.774529 0.141182
Si Si5 0.074534 0.767180 0.642378
Si Si6 0.367798 0.958468 0.551334
O O1 0.738955 0.593822 0.429247
O O2 0.711088 0.655817 0.583428
O O3 0.743745 0.518942 0.584938
O O4 0.974392 0.600635 0.546785
O O5 0.848117 0.304013 0.388828
O O6 0.877352 0.323336 0.567304
O O7 0.725316 0.413517 0.477203
O O8 0.660225 0.876569 0.750000
O O9 0.613029 0.790362 0.617031
O O10 0.454979 0.908761 0.622797
O O11 0.696220 0.790886 0.250000
O O12 0.892362 0.746234 0.129707
O O13 0.104090 0.784423 0.750000
O O14 0.500000 0.000000 0.500000
#
# Coordination Sequence:
#
# PCOD9436341 Si02
#       6
#     8   8   8   8   8   8
#     4  10  19  36  61  86 113 154 203 250 297 350
#     4  10  19  36  61  86 116 153 198 251 296 348
#     4  10  20  36  57  83 119 158 196 242 296 358
#     4   9  17  33  60  88 113 148 196 248 299 349
#     4   9  18  34  60  92 115 141 194 255 299 339
#     4  10  23  39  53  80 121 160 197 237 296 362
#
# _framework density 19.637571000000001
#
# number of rings (size 3 to 8) (size 9 to 14) (size 15 to 20)
#    0.000    2.333    1.667    1.000    0.000    1.333 
#   12.000    3.333    0.000    6.000    0.000    0.000 
#    0.000    0.000    0.000    0.000    0.000    0.000 
#
# Total GULP energy -267689.673665 kJ/mol
# GULP energy per Si atom -5576.868201 kJ/mol
# Density = 1.959287 g / cm^3
# Si number density = 19.637571 Si / 1000 Ang^3
#
#
#
# Elastic Constant Matrix: (Units=GPa)
#
#
# Indices 1 2 3 4 5 6 
#
# 1 48.7772 41.1004 4.4862 0.0000 0.0000 0.0000
# 2 41.1004 98.7985 16.6083 0.0000 0.0000 0.0000
# 3 4.4862 16.6083 56.8284 0.0000 0.0000 0.0000
# 4 0.0000 0.0000 0.0000 13.3244 0.0000 0.0000
# 5 0.0000 0.0000 0.0000 0.0000 18.8837 0.0000
# 6 0.0000 0.0000 0.0000 0.0000 0.0000 38.2155
#
#
#
# Elastic Compliance Matrix: (Units=1/GPa)
#
#
# Indices 1 2 3 4 5 6 
#
# 1 0.031675 -0.013416 0.001420 0.000000 0.000000 0.000000
# 2 -0.013416 0.016327 -0.003712 0.000000 0.000000 0.000000
# 3 0.001420 -0.003712 0.018570 0.000000 0.000000 0.000000
# 4 0.000000 0.000000 0.000000 0.075050 0.000000 0.000000
# 5 0.000000 0.000000 0.000000 0.000000 0.052956 0.000000
# 6 0.000000 0.000000 0.000000 0.000000 0.000000 0.026167
#
#
# Mechanical properties :
#
#
# Convention : Reuss Voigt Hill
#
# Bulk Modulus (GPa) = 28.44494 36.53266 32.48880
# Shear Modulus (GPa) = 18.94809 23.56533 21.25671
#
# Velocity S-wave (km/s) = 3.10964 3.46788 3.29363
# Velocity P-wave (km/s) = 5.23541 5.88887 5.57173
#
# Compressibility (1/GPa) = 0.03515564
#
# Stress axis : x y z
#
# Youngs Moduli (GPa) = 31.57064 61.24970 53.85116
#
# Poissons Ratio (x) = 0.82170 -0.07648
# Poissons Ratio (y) = 0.42354 0.19992
# Poissons Ratio (z) = -0.04484 0.22739
#
# Static dielectric constant tensor:
#      x y z
#    x 1.727760 0.000000 0.000000 
#    y 0.000000 1.735030 0.000000 
#    z 0.000000 0.000000 1.676710 
# 
# From -- ./inp_files/16305.got.cif
#   From: 2010.05.17/outbox.cif.g08.bks.cpg/sg57_9_cif.got.tgz:16305.got - 2010.06.03 13:58:18.
