data_PCOD9436147
_publ_section_title
;
Structure prediction by ZEFSAII (Michael W. Deem and Ramdas Pophale) SiO2 
 PCOD9436147
Probable space group: P B C M
;
_chemical_formula_sum "Si O2"
_cell_formula_units_Z 48
_cell_length_a 14.646519
_cell_length_b 7.931560
_cell_length_c 15.575793
_cell_angle_alpha 90.000000
_cell_angle_beta 90.000000
_cell_angle_gamma 90.000000
_cell_volume 1809.435889
_symmetry_space_group_name_H-M "P B C M"
_symmetry_group_IT_number 57
_symmetry_cell_setting 'orthorhombic'
loop_
_space_group_symop_operation_xyz
x,y,z
-x,-y,1/2+z
x,1/2-y,-z
-x,1/2+y,1/2-z
-x,-y,-z
x,y,1/2-z
-x,1/2+y,z
x,1/2-y,1/2+z
loop_
_atom_site_type_symbol
_atom_site_label
_atom_site_fract_x
_atom_site_fract_y
_atom_site_fract_z
Si Si1 0.700565 0.356455 0.144932
Si Si2 0.138923 0.852220 0.850268
Si Si3 0.816168 0.684167 0.096868
Si Si4 0.020031 0.964306 0.401300
Si Si5 0.482868 0.011566 0.349291
Si Si6 0.637426 0.819971 0.403767
O O1 0.703295 0.377181 0.250000
O O2 0.758954 0.191507 0.119706
O O3 0.754715 0.511735 0.101206
O O4 0.594709 0.375984 0.123380
O O5 0.139079 0.818223 0.750000
O O6 0.074200 0.708787 0.891586
O O7 0.081286 0.022402 0.862146
O O8 0.910208 0.607731 0.134166
O O9 0.740034 0.813809 0.134271
O O10 0.835871 0.750000 0.000000
O O11 0.000000 0.000000 0.500000
O O12 0.508475 0.990118 0.250000
O O13 0.575827 0.986038 0.401245
O O14 0.427074 0.184527 0.356582
O O15 0.645325 0.750000 0.500000
#
# Coordination Sequence:
#
# PCOD9436147 Si02
#       6
#     8   8   8   8   8   8
#     4   8  17  33  53  74 103 141 179 217 267 323
#     4  10  20  36  56  80 108 142 180 221 268 321
#     4   9  18  33  52  76 106 140 178 218 266 321
#     4  11  21  36  57  82 111 145 182 223 268 322
#     4  10  19  35  56  79 106 141 181 223 268 322
#     4  10  20  35  55  79 109 143 180 224 273 325
#
# _framework density 26.527604
#
# number of rings (size 3 to 8) (size 9 to 14) (size 15 to 20)
#    0.000    2.333    0.000    3.000    0.000    1.333 
#    0.000   10.000    0.000    0.000    0.000    0.000 
#    0.000    0.000    0.000    0.000    0.000    0.000 
#
# Total GULP energy -268033.448769 kJ/mol
# GULP energy per Si atom -5584.030183 kJ/mol
# Density = 2.646723 g / cm^3
# Si number density = 26.527604 Si / 1000 Ang^3
#
#
#
# Elastic Constant Matrix: (Units=GPa)
#
#
# Indices 1 2 3 4 5 6 
#
# 1 181.1787 10.3563 13.6839 0.0000 0.0000 0.0000
# 2 10.3563 82.8702 -12.6541 0.0000 0.0000 0.0000
# 3 13.6839 -12.6541 44.5209 0.0000 0.0000 0.0000
# 4 0.0000 0.0000 0.0000 29.8818 0.0000 0.0000
# 5 0.0000 0.0000 0.0000 0.0000 12.2582 0.0000
# 6 0.0000 0.0000 0.0000 0.0000 0.0000 51.4070
#
#
#
# Elastic Compliance Matrix: (Units=1/GPa)
#
#
# Indices 1 2 3 4 5 6 
#
# 1 0.005734 -0.001030 -0.002055 0.000000 0.000000 0.000000
# 2 -0.001030 0.012800 0.003955 0.000000 0.000000 0.000000
# 3 -0.002055 0.003955 0.024217 0.000000 0.000000 0.000000
# 4 0.000000 0.000000 0.000000 0.033465 0.000000 0.000000
# 5 0.000000 0.000000 0.000000 0.000000 0.081578 0.000000
# 6 0.000000 0.000000 0.000000 0.000000 0.000000 0.019453
#
#
# Mechanical properties :
#
#
# Convention : Reuss Voigt Hill
#
# Bulk Modulus (GPa) = 22.47754 36.81578 29.64666
# Shear Modulus (GPa) = 26.26916 38.52163 32.39540
#
# Velocity S-wave (km/s) = 3.15025 3.81482 3.49835
# Velocity P-wave (km/s) = 4.66088 5.77168 5.24576
#
# Compressibility (1/GPa) = 0.04448885
#
# Stress axis : x y z
#
# Youngs Moduli (GPa) = 174.41291 78.12683 41.29322
#
# Poissons Ratio (x) = 0.08050 0.08486
# Poissons Ratio (y) = 0.17970 -0.16330
# Poissons Ratio (z) = 0.35844 -0.30897
#
# Static dielectric constant tensor:
#      x y z
#    x 2.075190 0.000000 0.000000 
#    y 0.000000 2.267160 0.000000 
#    z 0.000000 0.000000 2.029510 
# 
# From -- ./inp_files/22417.got.cif
#   From: 2010.05.17/outbox.cif.g08.bks.cpg/sg57_12_cif.got.tgz:22417.got - 2010.06.03 13:58:18.
