data_PCOD9436586
_publ_section_title
;
Structure prediction by ZEFSAII (Michael W. Deem and Ramdas Pophale) SiO2 
 PCOD9436586
Probable space group: P B C M
;
_chemical_formula_sum "Si O2"
_cell_formula_units_Z 64
_cell_length_a 20.984433
_cell_length_b 21.000034
_cell_length_c 8.805709
_cell_angle_alpha 90.000000
_cell_angle_beta 90.000000
_cell_angle_gamma 90.000000
_cell_volume 3880.445304
_symmetry_space_group_name_H-M "P B C M"
_symmetry_group_IT_number 57
_symmetry_cell_setting 'orthorhombic'
loop_
_space_group_symop_operation_xyz
x,y,z
-x,-y,1/2+z
x,1/2-y,-z
-x,1/2+y,1/2-z
-x,-y,-z
x,y,1/2-z
-x,1/2+y,z
x,1/2-y,1/2+z
loop_
_atom_site_type_symbol
_atom_site_label
_atom_site_fract_x
_atom_site_fract_y
_atom_site_fract_z
Si Si1 0.785351 0.335329 0.422811
Si Si2 0.920097 0.314689 0.569425
Si Si3 0.056772 0.958819 0.568775
Si Si4 0.346232 0.646161 0.069104
Si Si5 0.673005 0.493211 0.067421
Si Si6 0.480805 0.683845 0.568668
Si Si7 0.541215 0.942021 0.568759
Si Si8 0.811246 0.486658 0.421535
O O1 0.787648 0.310607 0.250000
O O2 0.846070 0.315210 0.519977
O O3 0.718279 0.323461 0.502784
O O4 0.792805 0.411906 0.414337
O O5 0.948998 0.250000 0.500000
O O6 0.925206 0.311759 0.750000
O O7 0.945510 0.384232 0.517501
O O8 0.052753 0.958810 0.750000
O O9 0.124923 0.988316 0.519528
O O10 0.000000 0.000000 0.500000
O O11 0.349230 0.652925 0.250000
O O12 0.342990 0.571527 0.022192
O O13 0.408759 0.674449 0.991579
O O14 0.674384 0.478883 0.250000
O O15 0.615419 0.541749 0.042440
O O16 0.744196 0.516726 0.025344
O O17 0.505485 0.750000 0.500000
O O18 0.480895 0.685547 0.750000
O O19 0.519600 0.623230 0.508116
O O20 0.529981 0.938952 0.750000
O O21 0.500000 0.000000 0.500000
O O22 0.825740 0.508482 0.250000
#
# Coordination Sequence:
#
# PCOD9436586 Si02
#       8
#     8   8   8   8   8   8   8   8
#     4   9  17  30  47  67  96 133 170 207 248 292
#     4  10  20  33  49  72 100 133 174 212 249 295
#     4  10  20  33  51  76 105 138 173 211 252 303
#     4  11  20  31  49  72  99 132 172 213 257 304
#     4   9  18  32  52  76 104 135 170 211 256 305
#     4  12  25  40  53  70  99 133 173 220 271 325
#     4  11  21  35  56  81 105 135 174 216 263 313
#     4   8  15  29  48  72 101 133 166 205 250 296
#
# _framework density 16.492953
#
# number of rings (size 3 to 8) (size 9 to 14) (size 15 to 20)
#    0.000    2.000    1.250    4.500    0.000    5.500 
#    0.000    2.500    0.000    0.000    0.000    0.875 
#    0.000    4.000    0.000    0.000    0.000    0.000 
#
# Total GULP energy -357043.483056 kJ/mol
# GULP energy per Si atom -5578.804423 kJ/mol
# Density = 1.645541 g / cm^3
# Si number density = 16.492953 Si / 1000 Ang^3
#
#
#
# Elastic Constant Matrix: (Units=GPa)
#
#
# Indices 1 2 3 4 5 6 
#
# 1 104.7905 57.6147 42.8911 0.0000 0.0000 0.0000
# 2 57.6147 101.3938 43.7119 0.0000 0.0000 0.0000
# 3 42.8911 43.7119 89.3726 0.0000 0.0000 0.0000
# 4 0.0000 0.0000 0.0000 22.7711 0.0000 0.0000
# 5 0.0000 0.0000 0.0000 0.0000 24.9048 0.0000
# 6 0.0000 0.0000 0.0000 0.0000 0.0000 9.1896
#
#
#
# Elastic Compliance Matrix: (Units=1/GPa)
#
#
# Indices 1 2 3 4 5 6 
#
# 1 0.014830 -0.006790 -0.003796 0.000000 0.000000 0.000000
# 2 -0.006790 0.015607 -0.004375 0.000000 0.000000 0.000000
# 3 -0.003796 -0.004375 0.015150 0.000000 0.000000 0.000000
# 4 0.000000 0.000000 0.000000 0.043915 0.000000 0.000000
# 5 0.000000 0.000000 0.000000 0.000000 0.040153 0.000000
# 6 0.000000 0.000000 0.000000 0.000000 0.000000 0.108818
#
#
# Mechanical properties :
#
#
# Convention : Reuss Voigt Hill
#
# Bulk Modulus (GPa) = 63.83397 64.88804 64.36101
# Shear Modulus (GPa) = 18.27372 21.46239 19.86806
#
# Velocity S-wave (km/s) = 3.33223 3.61128 3.47456
# Velocity P-wave (km/s) = 7.32071 7.53769 7.42999
#
# Compressibility (1/GPa) = 0.01566564
#
# Stress axis : x y z
#
# Youngs Moduli (GPa) = 67.43141 64.07444 66.00483
#
# Poissons Ratio (x) = 0.43508 0.25055
# Poissons Ratio (y) = 0.45788 0.28874
# Poissons Ratio (z) = 0.25597 0.28030
#
# Static dielectric constant tensor:
#      x y z
#    x 1.559170 0.000000 0.000000 
#    y 0.000000 1.581490 0.000000 
#    z 0.000000 0.000000 1.564580 
# 
# From -- ./inp_files/8594.got.cif
#   From: 2010.05.17/outbox.cif.g08.bks.cpg/sg57_5_cif.got.tgz:8594.got - 2010.06.03 13:58:18.
