data_PCOD9436430
_publ_section_title
;
Structure prediction by ZEFSAII (Michael W. Deem and Ramdas Pophale) SiO2 
 PCOD9436430
Probable space group: P B C M
;
_chemical_formula_sum "Si O2"
_cell_formula_units_Z 64
_cell_length_a 16.046690
_cell_length_b 9.852843
_cell_length_c 21.337718
_cell_angle_alpha 90.000000
_cell_angle_beta 90.000000
_cell_angle_gamma 90.000000
_cell_volume 3373.610941
_symmetry_space_group_name_H-M "P B C M"
_symmetry_group_IT_number 57
_symmetry_cell_setting 'orthorhombic'
loop_
_space_group_symop_operation_xyz
x,y,z
-x,-y,1/2+z
x,1/2-y,-z
-x,1/2+y,1/2-z
-x,-y,-z
x,y,1/2-z
-x,1/2+y,z
x,1/2-y,1/2+z
loop_
_atom_site_type_symbol
_atom_site_label
_atom_site_fract_x
_atom_site_fract_y
_atom_site_fract_z
Si Si1 0.580708 0.408460 0.008742
Si Si2 0.085752 0.308463 0.872626
Si Si3 0.730328 0.726082 0.823896
Si Si4 0.315006 0.496860 0.621575
Si Si5 0.812598 0.894512 0.518902
Si Si6 0.781118 0.270638 0.179717
Si Si7 0.267872 0.530249 0.087989
Si Si8 0.036513 0.903243 0.177503
O O1 0.613336 0.441286 0.078648
O O2 0.562126 0.250000 0.000000
O O3 0.500000 0.500000 0.000000
O O4 0.654073 0.444188 0.958515
O O5 0.174834 0.273175 0.840610
O O6 0.104856 0.351557 0.944158
O O7 0.045915 0.439008 0.839194
O O8 0.027810 0.178540 0.864999
O O9 0.723153 0.703915 0.750000
O O10 0.672513 0.850703 0.846883
O O11 0.713466 0.592098 0.864311
O O12 0.240929 0.472141 0.571024
O O13 0.281908 0.603949 0.671626
O O14 0.770849 0.750000 0.500000
O O15 0.808854 0.982613 0.456510
O O16 0.776313 0.212849 0.250000
O O17 0.757679 0.161183 0.127504
O O18 0.873226 0.332527 0.171036
O O19 0.009870 0.889750 0.250000
#
# Coordination Sequence:
#
# PCOD9436430 Si02
#       8
#     8   8   8   8   8   8   8   8
#     4  11  25  42  69  99 128 163 202 249 308 374
#     4  11  23  39  58  86 119 163 216 268 318 365
#     4  11  21  38  66  93 123 166 215 258 312 372
#     4  10  20  39  65  92 123 158 207 255 299 365
#     4  10  19  38  61  82 120 159 204 255 307 362
#     4  11  22  40  64  92 123 163 211 264 313 363
#     4  11  23  40  65  95 126 159 208 256 306 376
#     4  11  23  39  58  85 121 163 215 265 317 374
#
# _framework density 18.970772
#
# number of rings (size 3 to 8) (size 9 to 14) (size 15 to 20)
#    0.000    1.250    6.250    1.875    3.500    0.000 
#    0.000    2.500    0.000    4.500    0.000    0.000 
#    0.000    0.000    0.000    0.000    0.000    0.000 
#
# Total GULP energy -357200.581585 kJ/mol
# GULP energy per Si atom -5581.259087 kJ/mol
# Density = 1.892759 g / cm^3
# Si number density = 18.970772 Si / 1000 Ang^3
#
#
#
# Elastic Constant Matrix: (Units=GPa)
#
#
# Indices 1 2 3 4 5 6 
#
# 1 50.1346 13.4653 10.2332 0.0000 0.0000 0.0000
# 2 13.4653 98.3989 17.9933 0.0000 0.0000 0.0000
# 3 10.2332 17.9933 91.8866 0.0000 0.0000 0.0000
# 4 0.0000 0.0000 0.0000 35.0599 0.0000 0.0000
# 5 0.0000 0.0000 0.0000 0.0000 15.6909 0.0000
# 6 0.0000 0.0000 0.0000 0.0000 0.0000 23.9191
#
#
#
# Elastic Compliance Matrix: (Units=1/GPa)
#
#
# Indices 1 2 3 4 5 6 
#
# 1 0.021004 -0.002537 -0.001842 0.000000 0.000000 0.000000
# 2 -0.002537 0.010847 -0.001841 0.000000 0.000000 0.000000
# 3 -0.001842 -0.001841 0.011449 0.000000 0.000000 0.000000
# 4 0.000000 0.000000 0.000000 0.028523 0.000000 0.000000
# 5 0.000000 0.000000 0.000000 0.000000 0.063731 0.000000
# 6 0.000000 0.000000 0.000000 0.000000 0.000000 0.041808
#
#
# Mechanical properties :
#
#
# Convention : Reuss Voigt Hill
#
# Bulk Modulus (GPa) = 32.40748 35.97821 34.19285
# Shear Modulus (GPa) = 24.98895 28.18252 26.58573
#
# Velocity S-wave (km/s) = 3.63331 3.85850 3.74760
# Velocity P-wave (km/s) = 5.89247 6.23353 6.06540
#
# Compressibility (1/GPa) = 0.03085708
#
# Stress axis : x y z
#
# Youngs Moduli (GPa) = 47.61037 92.19425 87.34586
#
# Poissons Ratio (x) = 0.23393 0.16092
# Poissons Ratio (y) = 0.12081 0.16084
# Poissons Ratio (z) = 0.08771 0.16977
#
# Static dielectric constant tensor:
#      x y z
#    x 1.660790 0.000000 0.000000 
#    y 0.000000 1.673190 0.000000 
#    z 0.000000 0.000000 1.685850 
# 
# From -- ./inp_files/25617.got.cif
#   From: 2010.05.17/outbox.cif.g08.bks.cpg/sg57_13_cif.got.tgz:25617.got - 2010.06.03 13:58:18.
