data_PCOD9436193
_publ_section_title
;
Structure prediction by ZEFSAII (Michael W. Deem and Ramdas Pophale) SiO2 
 PCOD9436193
Probable space group: P B C M
;
_chemical_formula_sum "Si O2"
_cell_formula_units_Z 64
_cell_length_a 20.408192
_cell_length_b 20.619297
_cell_length_c 8.615783
_cell_angle_alpha 90.000000
_cell_angle_beta 90.000000
_cell_angle_gamma 90.000000
_cell_volume 3625.543647
_symmetry_space_group_name_H-M "P B C M"
_symmetry_group_IT_number 57
_symmetry_cell_setting 'orthorhombic'
loop_
_space_group_symop_operation_xyz
x,y,z
-x,-y,1/2+z
x,1/2-y,-z
-x,1/2+y,1/2-z
-x,-y,-z
x,y,1/2-z
-x,1/2+y,z
x,1/2-y,1/2+z
loop_
_atom_site_type_symbol
_atom_site_label
_atom_site_fract_x
_atom_site_fract_y
_atom_site_fract_z
Si Si1 0.931295 0.820348 0.062615
Si Si2 0.312589 0.938904 0.063749
Si Si3 0.339936 0.081273 0.936971
Si Si4 0.805608 0.605473 0.562144
Si Si5 0.407085 0.679919 0.563577
Si Si6 0.553322 0.820628 0.564694
Si Si7 0.969137 0.066453 0.936216
Si Si8 0.170821 0.956128 0.563864
O O1 0.930162 0.818912 0.250000
O O2 0.859397 0.843648 0.006519
O O3 0.984226 0.874262 0.015776
O O4 0.947379 0.750000 0.000000
O O5 0.312063 0.944829 0.250000
O O6 0.358630 0.878497 0.020574
O O7 0.238574 0.928975 0.003656
O O8 0.338427 0.006664 0.992692
O O9 0.342920 0.082111 0.750000
O O10 0.269652 0.111404 0.988189
O O11 0.398428 0.123513 0.005512
O O12 0.805024 0.608379 0.750000
O O13 0.829001 0.532812 0.521709
O O14 0.385142 0.750000 0.500000
O O15 0.411264 0.683266 0.750000
O O16 0.479682 0.667941 0.496764
O O17 0.574025 0.750000 0.500000
O O18 0.552830 0.818415 0.750000
O O19 0.968599 0.063256 0.750000
O O20 0.895486 0.073877 0.998079
O O21 0.000000 0.000000 0.000000
O O22 0.171835 0.951539 0.750000
#
# Coordination Sequence:
#
# PCOD9436193 Si02
#       8
#     8   8   8   8   8   8   8   8
#     4  10  21  37  53  77 112 145 182 229 276 327
#     4  10  21  37  57  86 117 145 183 232 283 337
#     4  10  20  35  57  83 115 151 187 231 281 331
#     4   8  16  33  53  75 106 141 176 220 270 322
#     4  10  21  38  60  83 111 145 188 236 284 343
#     4  11  22  37  57  80 111 148 192 237 282 341
#     4  11  21  35  58  83 110 143 186 234 277 332
#     4  10  19  35  58  83 111 142 183 229 276 331
#
# _framework density 17.652525000000001
#
# number of rings (size 3 to 8) (size 9 to 14) (size 15 to 20)
#    0.000    2.000    1.250    4.500    0.000    4.000 
#    0.000    3.125    0.000    0.000    0.000    0.000 
#    0.000    0.000    0.000    0.000    0.000    0.000 
#
# Total GULP energy -357251.334744 kJ/mol
# GULP energy per Si atom -5582.052105 kJ/mol
# Density = 1.761235 g / cm^3
# Si number density = 17.652525 Si / 1000 Ang^3
#
#
#
# Elastic Constant Matrix: (Units=GPa)
#
#
# Indices 1 2 3 4 5 6 
#
# 1 131.1352 102.6405 47.2935 0.0000 0.0000 0.0000
# 2 102.6405 136.9606 46.5611 0.0000 0.0000 0.0000
# 3 47.2935 46.5611 66.3200 0.0000 0.0000 0.0000
# 4 0.0000 0.0000 0.0000 29.8099 0.0000 0.0000
# 5 0.0000 0.0000 0.0000 0.0000 27.8765 0.0000
# 6 0.0000 0.0000 0.0000 0.0000 0.0000 30.4059
#
#
#
# Elastic Compliance Matrix: (Units=1/GPa)
#
#
# Indices 1 2 3 4 5 6 
#
# 1 0.019543 -0.013014 -0.004799 0.000000 0.000000 0.000000
# 2 -0.013014 0.018257 -0.003537 0.000000 0.000000 0.000000
# 3 -0.004799 -0.003537 0.020984 0.000000 0.000000 0.000000
# 4 0.000000 0.000000 0.000000 0.033546 0.000000 0.000000
# 5 0.000000 0.000000 0.000000 0.000000 0.035873 0.000000
# 6 0.000000 0.000000 0.000000 0.000000 0.000000 0.032888
#
#
# Mechanical properties :
#
#
# Convention : Reuss Voigt Hill
#
# Bulk Modulus (GPa) = 62.17858 80.82289 71.50073
# Shear Modulus (GPa) = 23.90599 26.81317 25.35958
#
# Velocity S-wave (km/s) = 3.68401 3.90159 3.79436
# Velocity P-wave (km/s) = 7.30726 8.13519 7.73231
#
# Compressibility (1/GPa) = 0.01608271
#
# Stress axis : x y z
#
# Youngs Moduli (GPa) = 51.16958 54.77408 47.65503
#
# Poissons Ratio (x) = 0.71284 0.22872
# Poissons Ratio (y) = 0.66593 0.16856
# Poissons Ratio (z) = 0.24558 0.19374
#
# Static dielectric constant tensor:
#      x y z
#    x 1.599610 0.000000 0.000000 
#    y 0.000000 1.576850 0.000000 
#    z 0.000000 0.000000 1.596840 
# 
# From -- ./inp_files/7166.got.cif
#   From: 2010.05.17/outbox.cif.g08.bks.cpg/sg57_4_cif.got.tgz:7166.got - 2010.06.03 13:58:18.
