data_PCOD9436133
_publ_section_title
;
Structure prediction by ZEFSAII (Michael W. Deem and Ramdas Pophale) SiO2 
 PCOD9436133
Probable space group: P B C M
;
_chemical_formula_sum "Si O2"
_cell_formula_units_Z 56
_cell_length_a 12.168700
_cell_length_b 16.735620
_cell_length_c 14.966521
_cell_angle_alpha 90.000000
_cell_angle_beta 90.000000
_cell_angle_gamma 90.000000
_cell_volume 3047.943063
_symmetry_space_group_name_H-M "P B C M"
_symmetry_group_IT_number 57
_symmetry_cell_setting 'orthorhombic'
loop_
_space_group_symop_operation_xyz
x,y,z
-x,-y,1/2+z
x,1/2-y,-z
-x,1/2+y,1/2-z
-x,-y,-z
x,y,1/2-z
-x,1/2+y,z
x,1/2-y,1/2+z
loop_
_atom_site_type_symbol
_atom_site_label
_atom_site_fract_x
_atom_site_fract_y
_atom_site_fract_z
Si Si1 0.389629 0.700814 0.908046
Si Si2 0.807260 0.413411 0.352923
Si Si3 0.193486 0.063534 0.011485
Si Si4 0.566599 0.687864 0.344538
Si Si5 0.437996 0.081205 0.982777
Si Si6 0.060706 0.123273 0.646417
Si Si7 0.809337 0.786773 0.646425
O O1 0.283145 0.654229 0.874702
O O2 0.453884 0.763679 0.846928
O O3 0.367854 0.750000 0.000000
O O4 0.485006 0.634970 0.921690
O O5 0.790522 0.441439 0.250000
O O6 0.801664 0.486102 0.424099
O O7 0.929136 0.376352 0.358292
O O8 0.310720 0.069971 0.960688
O O9 0.175898 0.140602 0.076702
O O10 0.104818 0.065508 0.931905
O O11 0.579342 0.646005 0.250000
O O12 0.564898 0.626639 0.423646
O O13 0.679699 0.737488 0.358525
O O14 0.500000 0.000000 0.000000
O O15 0.089946 0.101539 0.750000
O O16 0.115260 0.209999 0.628337
O O17 0.829944 0.811671 0.750000
#
# Coordination Sequence:
#
# PCOD9436133 Si02
#       7
#     8   8   8   8   8   8   8
#     4  10  20  35  56  79 114 152 182 222 275 337
#     4  11  23  38  57  83 113 148 188 234 280 336
#     4  11  20  36  62  82 113 147 187 231 290 329
#     4   9  18  33  55  82 110 143 184 226 270 323
#     4  10  19  35  54  83 114 142 180 226 274 331
#     4  10  22  38  55  80 112 145 192 238 278 332
#     4   9  18  34  58  87 110 140 188 238 275 326
#
# _framework density 18.373045000000001
#
# number of rings (size 3 to 8) (size 9 to 14) (size 15 to 20)
#    0.000    2.000    1.429    2.571    0.000    4.000 
#    0.000    1.429    0.000    0.000    0.000    0.000 
#    0.000    0.000    0.000    0.000    0.000    0.000 
#
# Total GULP energy -311982.844774 kJ/mol
# GULP energy per Si atom -5571.122228 kJ/mol
# Density = 1.833123 g / cm^3
# Si number density = 18.373045 Si / 1000 Ang^3
#
#
#
# Elastic Constant Matrix: (Units=GPa)
#
#
# Indices 1 2 3 4 5 6 
#
# 1 114.6082 27.2697 44.7021 0.0000 0.0000 0.0000
# 2 27.2697 46.8017 14.3402 0.0000 0.0000 0.0000
# 3 44.7021 14.3402 66.3787 0.0000 0.0000 0.0000
# 4 0.0000 0.0000 0.0000 -2.2726 0.0000 0.0000
# 5 0.0000 0.0000 0.0000 0.0000 26.0429 0.0000
# 6 0.0000 0.0000 0.0000 0.0000 0.0000 23.5598
#
#
#
# Elastic Compliance Matrix: (Units=1/GPa)
#
#
# Indices 1 2 3 4 5 6 
#
# 1 0.012919 -0.005206 -0.007575 0.000000 0.000000 0.000000
# 2 -0.005206 0.024979 -0.001890 0.000000 0.000000 0.000000
# 3 -0.007575 -0.001890 0.020575 0.000000 0.000000 0.000000
# 4 0.000000 0.000000 0.000000 -0.440026 0.000000 0.000000
# 5 0.000000 0.000000 0.000000 0.000000 0.038398 0.000000
# 6 0.000000 0.000000 0.000000 0.000000 0.000000 0.042445
#
#
# Mechanical properties :
#
#
# Convention : Reuss Voigt Hill
#
# Bulk Modulus (GPa) = 34.32958 44.49028 39.40993
# Shear Modulus (GPa) = -19.10911 18.89780 -0.10566
#
# Velocity S-wave (km/s) = -3.22850 3.21060 -0.24007
# Velocity P-wave (km/s) = 2.19720 6.16534 4.62813
#
# Compressibility (1/GPa) = 0.02912940
#
# Stress axis : x y z
#
# Youngs Moduli (GPa) = 77.40625 40.03287 48.60272
#
# Poissons Ratio (x) = 0.20842 0.36818
# Poissons Ratio (y) = 0.40300 0.09188
# Poissons Ratio (z) = 0.58638 0.07568
#
# Static dielectric constant tensor:
#      x y z
#    x 1.648690 0.000000 0.000000 
#    y 0.000000 1.636540 0.000000 
#    z 0.000000 0.000000 1.651210 
# 
# From -- ./inp_files/17734.got.cif
#   From: 2010.05.17/outbox.cif.g08.bks.cpg/sg57_9_cif.got.tgz:17734.got - 2010.06.03 13:58:18.
