data_PCOD9436840
_publ_section_title
;
Structure prediction by ZEFSAII (Michael W. Deem and Ramdas Pophale) SiO2 
 PCOD9436840
Probable space group: P B C M
;
_chemical_formula_sum "Si O2"
_cell_formula_units_Z 48
_cell_length_a 15.709582
_cell_length_b 19.821450
_cell_length_c 8.942649
_cell_angle_alpha 90.000000
_cell_angle_beta 90.000000
_cell_angle_gamma 90.000000
_cell_volume 2784.621909
_symmetry_space_group_name_H-M "P B C M"
_symmetry_group_IT_number 57
_symmetry_cell_setting 'orthorhombic'
loop_
_space_group_symop_operation_xyz
x,y,z
-x,-y,1/2+z
x,1/2-y,-z
-x,1/2+y,1/2-z
-x,-y,-z
x,y,1/2-z
-x,1/2+y,z
x,1/2-y,1/2+z
loop_
_atom_site_type_symbol
_atom_site_label
_atom_site_fract_x
_atom_site_fract_y
_atom_site_fract_z
Si Si1 0.395925 0.323391 0.571933
Si Si2 0.910154 0.920142 0.579396
Si Si3 0.404726 0.676584 0.071882
Si Si4 0.729956 0.075740 0.569513
Si Si5 0.080961 0.915762 0.078405
Si Si6 0.264811 0.427199 0.428191
O O1 0.381448 0.250000 0.500000
O O2 0.380768 0.321101 0.750000
O O3 0.495622 0.340557 0.548026
O O4 0.334932 0.377280 0.494840
O O5 0.894550 0.899510 0.750000
O O6 0.829401 0.902949 0.477741
O O7 0.000714 0.894312 0.519812
O O8 0.916451 0.002121 0.577468
O O9 0.389624 0.678811 0.250000
O O10 0.390282 0.750000 0.000000
O O11 0.343334 0.623045 0.994063
O O12 0.726992 0.070978 0.750000
O O13 0.824140 0.104131 0.528911
O O14 0.722797 0.001224 0.499952
O O15 0.067628 0.894751 0.250000
O O16 0.270328 0.431251 0.250000
#
# Coordination Sequence:
#
# PCOD9436840 Si02
#       6
#     8   8   8   8   8   8
#     4  10  21  38  57  77 102 134 173 213 256 309
#     4   9  16  27  45  70 101 135 169 208 253 301
#     4  10  21  37  57  78 102 135 173 212 256 310
#     4  10  20  34  53  78 108 138 172 216 259 301
#     4   8  15  27  44  69 100 134 169 206 251 300
#     4  11  21  33  52  78 107 138 173 214 259 305
#
# _framework density 17.23753
#
# number of rings (size 3 to 8) (size 9 to 14) (size 15 to 20)
#    0.000    2.333    0.000    4.500    0.000    7.333 
#    0.000    0.000    0.000    1.000    0.000    2.333 
#    0.000    0.000    0.000    0.000    0.000    0.000 
#
# Total GULP energy -267728.007223 kJ/mol
# GULP energy per Si atom -5577.666817 kJ/mol
# Density = 1.719830 g / cm^3
# Si number density = 17.237530 Si / 1000 Ang^3
#
#
#
# Elastic Constant Matrix: (Units=GPa)
#
#
# Indices 1 2 3 4 5 6 
#
# 1 141.3005 76.0947 92.9649 0.0000 0.0000 0.0000
# 2 76.0947 57.6545 52.8578 0.0000 0.0000 0.0000
# 3 92.9649 52.8578 128.7586 0.0000 0.0000 0.0000
# 4 0.0000 0.0000 0.0000 25.3556 0.0000 0.0000
# 5 0.0000 0.0000 0.0000 0.0000 27.1086 0.0000
# 6 0.0000 0.0000 0.0000 0.0000 0.0000 -16.3445
#
#
#
# Elastic Compliance Matrix: (Units=1/GPa)
#
#
# Indices 1 2 3 4 5 6 
#
# 1 0.029271 -0.030879 -0.008457 0.000000 0.000000 0.000000
# 2 -0.030879 0.060388 -0.002495 0.000000 0.000000 0.000000
# 3 -0.008457 -0.002495 0.014897 0.000000 0.000000 0.000000
# 4 0.000000 0.000000 0.000000 0.039439 0.000000 0.000000
# 5 0.000000 0.000000 0.000000 0.000000 0.036889 0.000000
# 6 0.000000 0.000000 0.000000 0.000000 0.000000 -0.061183
#
#
# Mechanical properties :
#
#
# Convention : Reuss Voigt Hill
#
# Bulk Modulus (GPa) = 47.86466 85.72759 66.79613
# Shear Modulus (GPa) = 23.77241 14.27702 19.02471
#
# Velocity S-wave (km/s) = 3.71766 2.88106 3.32577
# Velocity P-wave (km/s) = 6.80118 7.80438 7.31999
#
# Compressibility (1/GPa) = 0.02089224
#
# Stress axis : x y z
#
# Youngs Moduli (GPa) = 34.16396 16.55966 67.12690
#
# Poissons Ratio (x) = 0.51134 0.56771
# Poissons Ratio (y) = 1.05494 0.16751
# Poissons Ratio (z) = 0.28894 0.04132
#
# Static dielectric constant tensor:
#      x y z
#    x 1.593960 0.000000 0.000000 
#    y 0.000000 1.551330 0.000000 
#    z 0.000000 0.000000 1.575670 
# 
# From -- ./inp_files/4600.got.cif
#   From: 2010.05.17/outbox.cif.g08.bks.cpg/sg57_3_cif.got.tgz:4600.got - 2010.06.03 13:58:18.
