data_PCOD9436753
_publ_section_title
;
Structure prediction by ZEFSAII (Michael W. Deem and Ramdas Pophale) SiO2 
 PCOD9436753
Probable space group: P B C M
;
_chemical_formula_sum "Si O2"
_cell_formula_units_Z 64
_cell_length_a 17.178126
_cell_length_b 20.270048
_cell_length_c 8.969539
_cell_angle_alpha 90.000000
_cell_angle_beta 90.000000
_cell_angle_gamma 90.000000
_cell_volume 3123.206383
_symmetry_space_group_name_H-M "P B C M"
_symmetry_group_IT_number 57
_symmetry_cell_setting 'orthorhombic'
loop_
_space_group_symop_operation_xyz
x,y,z
-x,-y,1/2+z
x,1/2-y,-z
-x,1/2+y,1/2-z
-x,-y,-z
x,y,1/2-z
-x,1/2+y,z
x,1/2-y,1/2+z
loop_
_atom_site_type_symbol
_atom_site_label
_atom_site_fract_x
_atom_site_fract_y
_atom_site_fract_z
Si Si1 0.414495 0.157365 0.581314
Si Si2 0.212819 0.033597 0.427303
Si Si3 0.369850 0.494704 0.083215
Si Si4 0.102260 0.822354 0.074387
Si Si5 0.252007 0.316514 0.927619
Si Si6 0.283747 0.820751 0.423909
Si Si7 0.931183 0.042605 0.428625
Si Si8 0.566020 0.371870 0.576759
O O1 0.408968 0.183390 0.750000
O O2 0.403841 0.078420 0.585650
O O3 0.341557 0.180130 0.483308
O O4 0.499286 0.166725 0.511111
O O5 0.199447 0.028054 0.250000
O O6 0.298595 0.006290 0.467739
O O7 0.214609 0.112142 0.468206
O O8 0.148147 0.992370 0.514787
O O9 0.336826 0.507965 0.250000
O O10 0.436306 0.549000 0.060578
O O11 0.081970 0.819285 0.250000
O O12 0.194059 0.841412 0.065026
O O13 0.091832 0.750000 0.000000
O O14 0.061640 0.882514 0.989540
O O15 0.249582 0.311041 0.750000
O O16 0.217248 0.250000 0.000000
O O17 0.285993 0.750000 0.500000
O O18 0.304648 0.818413 0.250000
O O19 0.348307 0.859830 0.513146
O O20 0.934219 0.042534 0.250000
O O21 0.000000 0.000000 0.500000
O O22 0.560377 0.354436 0.750000
#
# Coordination Sequence:
#
# PCOD9436753 Si02
#       8
#     8   8   8   8   8   8   8   8
#     4  10  20  34  51  73 104 142 187 237 292 351
#     4  10  21  38  61  89 119 152 194 244 298 358
#     4   9  19  34  53  77 105 141 184 231 285 348
#     4  10  21  40  66  95 127 164 205 246 293 352
#     4  10  21  38  60  84 112 149 196 249 303 361
#     4  10  21  36  54  77 106 142 185 231 278 333
#     4  12  25  42  66  96 131 166 202 245 295 352
#     4  11  21  32  48  73 106 142 184 235 292 349
#
# _framework density 20.491761
#
# number of rings (size 3 to 8) (size 9 to 14) (size 15 to 20)
#    0.000    1.750    0.000    4.500    0.000    7.000 
#    0.000    3.125    0.000    1.500    0.000    0.000 
#    0.000    0.000    0.000    0.000    0.000    0.000 
#
# Total GULP energy -357338.593500 kJ/mol
# GULP energy per Si atom -5583.415523 kJ/mol
# Density = 2.044512 g / cm^3
# Si number density = 20.491761 Si / 1000 Ang^3
#
#
#
# Elastic Constant Matrix: (Units=GPa)
#
#
# Indices 1 2 3 4 5 6 
#
# 1 34.2065 36.8097 45.6364 0.0000 0.0000 0.0000
# 2 36.8097 103.0404 57.5073 0.0000 0.0000 0.0000
# 3 45.6364 57.5073 121.9082 0.0000 0.0000 0.0000
# 4 0.0000 0.0000 0.0000 30.5318 0.0000 0.0000
# 5 0.0000 0.0000 0.0000 0.0000 28.6382 0.0000
# 6 0.0000 0.0000 0.0000 0.0000 0.0000 20.1390
#
#
#
# Elastic Compliance Matrix: (Units=1/GPa)
#
#
# Indices 1 2 3 4 5 6 
#
# 1 0.071194 -0.014332 -0.019891 0.000000 0.000000 0.000000
# 2 -0.014332 0.016058 -0.002210 0.000000 0.000000 0.000000
# 3 -0.019891 -0.002210 0.016691 0.000000 0.000000 0.000000
# 4 0.000000 0.000000 0.000000 0.032753 0.000000 0.000000
# 5 0.000000 0.000000 0.000000 0.000000 0.034918 0.000000
# 6 0.000000 0.000000 0.000000 0.000000 0.000000 0.049655
#
#
# Mechanical properties :
#
#
# Convention : Reuss Voigt Hill
#
# Bulk Modulus (GPa) = 32.17659 59.89576 46.03618
# Shear Modulus (GPa) = 16.42067 23.80858 20.11463
#
# Velocity S-wave (km/s) = 2.83385 3.41231 3.13644
# Velocity P-wave (km/s) = 5.14236 6.69461 5.96916
#
# Compressibility (1/GPa) = 0.03107850
#
# Stress axis : x y z
#
# Youngs Moduli (GPa) = 14.04614 62.27367 59.91088
#
# Poissons Ratio (x) = 0.89250 1.19167
# Poissons Ratio (y) = 0.20131 0.13240
# Poissons Ratio (z) = 0.27939 0.13762
#
# Static dielectric constant tensor:
#      x y z
#    x 1.749220 0.000000 0.000000 
#    y 0.000000 1.808300 0.000000 
#    z 0.000000 0.000000 1.739450 
# 
# From -- ./inp_files/7222.got.cif
#   From: 2010.05.17/outbox.cif.g08.bks.cpg/sg57_4_cif.got.tgz:7222.got - 2010.06.03 13:58:18.
