data_PCOD9436259
_publ_section_title
;
Structure prediction by ZEFSAII (Michael W. Deem and Ramdas Pophale) SiO2 
 PCOD9436259
Probable space group: P B C M
;
_chemical_formula_sum "Si O2"
_cell_formula_units_Z 64
_cell_length_a 22.189418
_cell_length_b 9.394417
_cell_length_c 14.463870
_cell_angle_alpha 90.000000
_cell_angle_beta 90.000000
_cell_angle_gamma 90.000000
_cell_volume 3015.089824
_symmetry_space_group_name_H-M "P B C M"
_symmetry_group_IT_number 57
_symmetry_cell_setting 'orthorhombic'
loop_
_space_group_symop_operation_xyz
x,y,z
-x,-y,1/2+z
x,1/2-y,-z
-x,1/2+y,1/2-z
-x,-y,-z
x,y,1/2-z
-x,1/2+y,z
x,1/2-y,1/2+z
loop_
_atom_site_type_symbol
_atom_site_label
_atom_site_fract_x
_atom_site_fract_y
_atom_site_fract_z
Si Si1 0.346822 0.447534 0.648122
Si Si2 0.779101 0.411694 0.356144
Si Si3 0.959009 0.489360 0.354185
Si Si4 0.877186 0.211630 0.352999
Si Si5 0.672250 0.891704 0.356605
Si Si6 0.080075 0.445229 0.448269
Si Si7 0.562576 0.919001 0.011173
Si Si8 0.789300 0.596443 0.533551
O O1 0.373085 0.459877 0.750000
O O2 0.291769 0.557187 0.639615
O O3 0.324856 0.282623 0.638427
O O4 0.395878 0.471933 0.572006
O O5 0.796307 0.456003 0.250000
O O6 0.807642 0.255541 0.368430
O O7 0.802144 0.502911 0.442682
O O8 0.961857 0.553568 0.250000
O O9 0.911896 0.360570 0.350543
O O10 0.939769 0.581445 0.445044
O O11 0.023232 0.420821 0.382380
O O12 0.882867 0.146061 0.250000
O O13 0.905606 0.112309 0.429945
O O14 0.674285 0.931971 0.250000
O O15 0.608203 0.934472 0.401716
O O16 0.731635 0.952743 0.407731
O O17 0.144986 0.382440 0.420407
O O18 0.551922 0.750000 0.000000
O O19 0.500000 0.000000 0.000000
O O20 0.770196 0.750000 0.500000
#
# Coordination Sequence:
#
# PCOD9436259 Si02
#       8
#     8   8   8   8   8   8   8   8
#     4   9  17  34  60  86 114 152 197 240 288 349
#     4  10  19  35  61  87 111 146 194 247 296 351
#     4  10  22  40  57  78 108 150 197 240 290 359
#     4  10  21  40  62  84 114 150 192 242 303 369
#     4  10  20  36  58  84 120 159 198 244 293 348
#     4  11  24  38  61  85 115 152 195 245 307 362
#     4  10  20  37  59  87 121 159 202 246 294 349
#     4  12  22  36  58  89 119 149 194 245 300 357
#
# _framework density 21.226565999999998
#
# number of rings (size 3 to 8) (size 9 to 14) (size 15 to 20)
#    0.000    1.750    3.750    1.125    0.000    3.500 
#    0.000    1.250    0.000    1.500    0.000    0.000 
#    0.000    0.000    0.000    0.000    0.000    0.000 
#
# Total GULP energy -356786.943745 kJ/mol
# GULP energy per Si atom -5574.795996 kJ/mol
# Density = 2.117825 g / cm^3
# Si number density = 21.226566 Si / 1000 Ang^3
#
#
#
# Elastic Constant Matrix: (Units=GPa)
#
#
# Indices 1 2 3 4 5 6 
#
# 1 151.9291 28.2043 76.7874 0.0000 0.0000 0.0000
# 2 28.2043 19.0405 13.6784 0.0000 0.0000 0.0000
# 3 76.7874 13.6784 114.1196 0.0000 0.0000 0.0000
# 4 0.0000 0.0000 0.0000 14.4517 0.0000 0.0000
# 5 0.0000 0.0000 0.0000 0.0000 -2.3086 0.0000
# 6 0.0000 0.0000 0.0000 0.0000 0.0000 25.2871
#
#
#
# Elastic Compliance Matrix: (Units=1/GPa)
#
#
# Indices 1 2 3 4 5 6 
#
# 1 0.012576 -0.013732 -0.006816 0.000000 0.000000 0.000000
# 2 -0.013732 0.072462 0.000555 0.000000 0.000000 0.000000
# 3 -0.006816 0.000555 0.013283 0.000000 0.000000 0.000000
# 4 0.000000 0.000000 0.000000 0.069196 0.000000 0.000000
# 5 0.000000 0.000000 0.000000 0.000000 -0.433170 0.000000
# 6 0.000000 0.000000 0.000000 0.000000 0.000000 0.039546
#
#
# Mechanical properties :
#
#
# Convention : Reuss Voigt Hill
#
# Bulk Modulus (GPa) = 17.14278 58.04771 37.59525
# Shear Modulus (GPa) = -29.99865 18.58065 -5.70900
#
# Velocity S-wave (km/s) = -3.76341 2.96184 -1.64176
# Velocity P-wave (km/s) = 3.28493 6.25322 3.76245
#
# Compressibility (1/GPa) = 0.05833361
#
# Stress axis : x y z
#
# Youngs Moduli (GPa) = 79.51433 13.80026 75.28587
#
# Poissons Ratio (x) = 0.18951 0.51317
# Poissons Ratio (y) = 1.09192 -0.04176
# Poissons Ratio (z) = 0.54199 -0.00765
#
# Static dielectric constant tensor:
#      x y z
#    x 1.794260 0.000000 0.000000 
#    y 0.000000 1.799760 0.000000 
#    z 0.000000 0.000000 1.814160 
# 
# From -- ./inp_files/19481.got.cif
#   From: 2010.05.17/outbox.cif.g08.bks.cpg/sg57_10_cif.got.tgz:19481.got - 2010.06.03 13:58:18.
