data_PCOD9436900
_publ_section_title
;
Structure prediction by ZEFSAII (Michael W. Deem and Ramdas Pophale) SiO2 
 PCOD9436900
Probable space group: P B C M
;
_chemical_formula_sum "Si O2"
_cell_formula_units_Z 64
_cell_length_a 23.102453
_cell_length_b 16.585732
_cell_length_c 8.685052
_cell_angle_alpha 90.000000
_cell_angle_beta 90.000000
_cell_angle_gamma 90.000000
_cell_volume 3327.860876
_symmetry_space_group_name_H-M "P B C M"
_symmetry_group_IT_number 57
_symmetry_cell_setting 'orthorhombic'
loop_
_space_group_symop_operation_xyz
x,y,z
-x,-y,1/2+z
x,1/2-y,-z
-x,1/2+y,1/2-z
-x,-y,-z
x,y,1/2-z
-x,1/2+y,z
x,1/2-y,1/2+z
loop_
_atom_site_type_symbol
_atom_site_label
_atom_site_fract_x
_atom_site_fract_y
_atom_site_fract_z
Si Si1 0.388714 0.662824 0.564633
Si Si2 0.310279 0.509355 0.562338
Si Si3 0.504967 0.908742 0.935114
Si Si4 0.857530 0.838903 0.432067
Si Si5 0.988791 0.663223 0.568423
Si Si6 0.059575 0.538635 0.070304
Si Si7 0.367822 0.340024 0.935505
Si Si8 0.817431 0.506439 0.432125
O O1 0.369553 0.750000 0.500000
O O2 0.388377 0.666092 0.750000
O O3 0.350759 0.584405 0.515905
O O4 0.452901 0.643425 0.504036
O O5 0.311695 0.507137 0.750000
O O6 0.330762 0.419347 0.512769
O O7 0.244231 0.526728 0.514131
O O8 0.500756 0.912746 0.750000
O O9 0.566250 0.866873 0.973330
O O10 0.500000 0.000000 0.000000
O O11 0.853099 0.750000 0.500000
O O12 0.846109 0.838416 0.250000
O O13 0.817183 0.899263 0.523893
O O14 0.923625 0.872283 0.451919
O O15 0.978957 0.750000 0.500000
O O16 0.001236 0.660977 0.750000
O O17 0.041329 0.629173 0.470706
O O18 0.059251 0.521947 0.250000
O O19 0.123587 0.526269 0.005333
O O20 0.000000 0.500000 0.000000
O O21 0.362492 0.335053 0.750000
O O22 0.354725 0.250000 0.000000
O O23 0.822103 0.496507 0.250000
#
# Coordination Sequence:
#
# PCOD9436900 Si02
#       8
#     8   8   8   8   8   8   8   8
#     4  11  22  41  65  92 126 163 211 262 311 368
#     4   9  21  42  62  83 120 166 206 254 309 366
#     4  11  21  36  62  94 129 166 208 256 312 365
#     4  10  20  34  54  81 115 148 186 234 287 352
#     4  10  20  35  56  83 115 147 181 226 286 350
#     4  12  23  37  58  85 115 147 187 236 293 355
#     4  10  21  39  60  88 125 166 205 248 301 360
#     4  11  22  38  61  84 112 153 199 245 301 358
#
# _framework density 19.231573000000001
#
# number of rings (size 3 to 8) (size 9 to 14) (size 15 to 20)
#    0.000    1.500    2.500    3.375    0.000    3.500 
#    0.000    5.625    0.000    1.500    0.000    0.000 
#    0.000    0.000    0.000    0.000    0.000    0.000 
#
# Total GULP energy -356734.055093 kJ/mol
# GULP energy per Si atom -5573.969611 kJ/mol
# Density = 1.918780 g / cm^3
# Si number density = 19.231573 Si / 1000 Ang^3
#
#
#
# Elastic Constant Matrix: (Units=GPa)
#
#
# Indices 1 2 3 4 5 6 
#
# 1 114.0130 36.5267 41.9560 0.0000 0.0000 0.0000
# 2 36.5267 87.0994 18.4574 0.0000 0.0000 0.0000
# 3 41.9560 18.4574 56.6852 0.0000 0.0000 0.0000
# 4 0.0000 0.0000 0.0000 35.8285 0.0000 0.0000
# 5 0.0000 0.0000 0.0000 0.0000 19.8328 0.0000
# 6 0.0000 0.0000 0.0000 0.0000 0.0000 -8.5373
#
#
#
# Elastic Compliance Matrix: (Units=1/GPa)
#
#
# Indices 1 2 3 4 5 6 
#
# 1 0.013070 -0.003685 -0.008474 0.000000 0.000000 0.000000
# 2 -0.003685 0.013371 -0.001626 0.000000 0.000000 0.000000
# 3 -0.008474 -0.001626 0.024443 0.000000 0.000000 0.000000
# 4 0.000000 0.000000 0.000000 0.027911 0.000000 0.000000
# 5 0.000000 0.000000 0.000000 0.000000 0.050422 0.000000
# 6 0.000000 0.000000 0.000000 0.000000 0.000000 -0.117132
#
#
# Mechanical properties :
#
#
# Convention : Reuss Voigt Hill
#
# Bulk Modulus (GPa) = 42.89388 50.18642 46.54015
# Shear Modulus (GPa) = 105.42851 20.14862 62.78857
#
# Velocity S-wave (km/s) = 7.41212 3.24031 5.72010
# Velocity P-wave (km/s) = 9.77778 6.33656 8.23884
#
# Compressibility (1/GPa) = 0.02331335
#
# Stress axis : x y z
#
# Youngs Moduli (GPa) = 76.51149 74.78727 40.91199
#
# Poissons Ratio (x) = 0.27562 0.34668
# Poissons Ratio (y) = 0.28198 0.06653
# Poissons Ratio (z) = 0.64834 0.12161
#
# Static dielectric constant tensor:
#      x y z
#    x 1.703610 0.000000 0.000000 
#    y 0.000000 1.750000 0.000000 
#    z 0.000000 0.000000 1.640450 
# 
# From -- ./inp_files/8588.got.cif
#   From: 2010.05.17/outbox.cif.g08.bks.cpg/sg57_5_cif.got.tgz:8588.got - 2010.06.03 13:58:18.
