data_PCOD9436906
_publ_section_title
;
Structure prediction by ZEFSAII (Michael W. Deem and Ramdas Pophale) SiO2 
 PCOD9436906
Probable space group: P B C M
;
_chemical_formula_sum "Si O2"
_cell_formula_units_Z 64
_cell_length_a 12.237648
_cell_length_b 32.809479
_cell_length_c 8.646652
_cell_angle_alpha 90.000000
_cell_angle_beta 90.000000
_cell_angle_gamma 90.000000
_cell_volume 3471.724638
_symmetry_space_group_name_H-M "P B C M"
_symmetry_group_IT_number 57
_symmetry_cell_setting 'orthorhombic'
loop_
_space_group_symop_operation_xyz
x,y,z
-x,-y,1/2+z
x,1/2-y,-z
-x,1/2+y,1/2-z
-x,-y,-z
x,y,1/2-z
-x,1/2+y,z
x,1/2-y,1/2+z
loop_
_atom_site_type_symbol
_atom_site_label
_atom_site_fract_x
_atom_site_fract_y
_atom_site_fract_z
Si Si1 0.243312 0.929923 0.567403
Si Si2 0.944197 0.127540 0.433695
Si Si3 0.150903 0.413362 0.430944
Si Si4 0.507608 0.046223 0.434084
Si Si5 0.639067 0.622014 0.432746
Si Si6 0.120496 0.495761 0.931121
Si Si7 0.942299 0.706284 0.564696
Si Si8 0.685093 0.794037 0.065203
O O1 0.223045 0.939502 0.750000
O O2 0.179538 0.887608 0.537431
O O3 0.371884 0.934702 0.542407
O O4 0.185572 0.963231 0.461229
O O5 0.962585 0.126226 0.250000
O O6 0.028292 0.096331 0.514896
O O7 0.981544 0.171009 0.497340
O O8 0.162800 0.404429 0.250000
O O9 0.234903 0.387092 0.529187
O O10 0.175916 0.459876 0.471589
O O11 0.488186 0.042077 0.250000
O O12 0.425755 0.081871 0.492828
O O13 0.500000 0.000000 0.500000
O O14 0.620004 0.624579 0.250000
O O15 0.619157 0.666543 0.505441
O O16 0.116626 0.485337 0.750000
O O17 0.000000 0.500000 0.000000
O O18 0.976418 0.750000 0.500000
O O19 0.947136 0.705308 0.750000
O O20 0.813987 0.701007 0.520161
O O21 0.680580 0.793081 0.250000
O O22 0.649689 0.750000 0.000000
#
# Coordination Sequence:
#
# PCOD9436906 Si02
#       8
#     8   8   8   8   8   8   8   8
#     4  10  22  40  59  81 112 149 191 237 286 339
#     4  11  21  34  56  82 113 149 186 230 285 342
#     4  12  23  35  52  79 114 149 188 232 281 337
#     4  10  23  42  62  85 113 153 201 250 298 349
#     4  11  22  37  59  85 116 153 195 241 293 349
#     4  12  23  35  52  77 109 145 185 229 280 333
#     4  10  20  34  54  82 119 155 189 228 282 344
#     4  10  20  34  55  85 120 155 190 236 294 350
#
# _framework density 18.434642
#
# number of rings (size 3 to 8) (size 9 to 14) (size 15 to 20)
#    0.000    1.250    2.500    4.500    0.000    5.000 
#    0.000    0.000    0.000    0.750    0.000    0.000 
#    0.000    0.000    0.000    0.000    0.000    0.000 
#
# Total GULP energy -357204.831220 kJ/mol
# GULP energy per Si atom -5581.325488 kJ/mol
# Density = 1.839268 g / cm^3
# Si number density = 18.434642 Si / 1000 Ang^3
#
#
#
# Elastic Constant Matrix: (Units=GPa)
#
#
# Indices 1 2 3 4 5 6 
#
# 1 53.3730 35.4102 18.5754 0.0000 0.0000 0.0000
# 2 35.4102 152.9569 32.2594 0.0000 0.0000 0.0000
# 3 18.5754 32.2594 38.2701 0.0000 0.0000 0.0000
# 4 0.0000 0.0000 0.0000 33.2747 0.0000 0.0000
# 5 0.0000 0.0000 0.0000 0.0000 14.4641 0.0000
# 6 0.0000 0.0000 0.0000 0.0000 0.0000 28.1662
#
#
#
# Elastic Compliance Matrix: (Units=1/GPa)
#
#
# Indices 1 2 3 4 5 6 
#
# 1 0.024240 -0.003807 -0.008556 0.000000 0.000000 0.000000
# 2 -0.003807 0.008549 -0.005359 0.000000 0.000000 0.000000
# 3 -0.008556 -0.005359 0.034800 0.000000 0.000000 0.000000
# 4 0.000000 0.000000 0.000000 0.030053 0.000000 0.000000
# 5 0.000000 0.000000 0.000000 0.000000 0.069137 0.000000
# 6 0.000000 0.000000 0.000000 0.000000 0.000000 0.035504
#
#
# Mechanical properties :
#
#
# Convention : Reuss Voigt Hill
#
# Bulk Modulus (GPa) = 31.10889 46.34331 38.72610
# Shear Modulus (GPa) = 20.12548 25.73800 22.93174
#
# Velocity S-wave (km/s) = 3.30770 3.74060 3.53079
# Velocity P-wave (km/s) = 5.61246 6.62193 6.13798
#
# Compressibility (1/GPa) = 0.03214515
#
# Stress axis : x y z
#
# Youngs Moduli (GPa) = 41.25467 116.96842 28.73550
#
# Poissons Ratio (x) = 0.44530 0.24587
# Poissons Ratio (y) = 0.15706 0.15399
# Poissons Ratio (z) = 0.35299 0.62680
#
# Static dielectric constant tensor:
#      x y z
#    x 1.621120 0.000000 0.000000 
#    y 0.000000 1.645130 0.000000 
#    z 0.000000 0.000000 1.632120 
# 
# From -- ./inp_files/3783.got.cif
#   From: 2010.05.17/outbox.cif.g08.bks.cpg/sg57_2_cif.got.tgz:3783.got - 2010.06.03 13:58:18.
