data_PCOD9436410
_publ_section_title
;
Structure prediction by ZEFSAII (Michael W. Deem and Ramdas Pophale) SiO2 
 PCOD9436410
Probable space group: P B C M
;
_chemical_formula_sum "Si O2"
_cell_formula_units_Z 64
_cell_length_a 5.373016
_cell_length_b 15.788559
_cell_length_c 31.405111
_cell_angle_alpha 90.000000
_cell_angle_beta 90.000000
_cell_angle_gamma 90.000000
_cell_volume 2664.164033
_symmetry_space_group_name_H-M "P B C M"
_symmetry_group_IT_number 57
_symmetry_cell_setting 'orthorhombic'
loop_
_space_group_symop_operation_xyz
x,y,z
-x,-y,1/2+z
x,1/2-y,-z
-x,1/2+y,1/2-z
-x,-y,-z
x,y,1/2-z
-x,1/2+y,z
x,1/2-y,1/2+z
loop_
_atom_site_type_symbol
_atom_site_label
_atom_site_fract_x
_atom_site_fract_y
_atom_site_fract_z
Si Si1 0.504949 0.784997 0.799010
Si Si2 0.426680 0.527649 0.338119
Si Si3 0.528082 0.540663 0.928305
Si Si4 0.991632 0.270822 0.670924
Si Si5 0.785397 0.738822 0.046658
Si Si6 0.204813 0.069046 0.489949
Si Si7 0.069506 0.032673 0.300335
Si Si8 0.270728 0.709410 0.914334
O O1 0.566633 0.804972 0.750000
O O2 0.236770 0.740581 0.800006
O O3 0.733907 0.734949 0.819988
O O4 0.457434 0.872566 0.825300
O O5 0.368534 0.507678 0.387241
O O6 0.195542 0.492597 0.311421
O O7 0.694365 0.492749 0.323773
O O8 0.412634 0.472882 0.960144
O O9 0.338084 0.610575 0.910393
O O10 0.696759 0.591841 0.962443
O O11 0.039626 0.370222 0.682158
O O12 0.881501 0.251048 0.624678
O O13 0.884448 0.642669 0.041236
O O14 0.544618 0.748199 0.077715
O O15 0.051234 0.785713 0.050856
O O16 0.666006 0.750000 0.000000
O O17 0.000000 0.000000 0.500000
O O18 0.108198 0.034450 0.250000
#
# Coordination Sequence:
#
# PCOD9436410 Si02
#       8
#     8   8   8   8   8   8   8   8
#     4  10  19  37  63  97 129 169 225 280 331 404
#     4  10  21  34  64  91 130 171 217 277 340 397
#     4  11  27  45  64 102 142 182 230 290 355 414
#     4  10  20  34  60  92 127 166 212 274 334 387
#     4  12  26  46  72  95 133 183 233 279 346 412
#     4  11  27  46  72  97 137 186 232 293 349 409
#     4  10  20  37  62  97 130 170 227 283 336 405
#     4  12  27  44  67 100 140 178 229 282 346 420
#
# _framework density 24.022544
#
# number of rings (size 3 to 8) (size 9 to 14) (size 15 to 20)
#    0.000    1.250    1.250    5.625   12.250    0.000 
#    0.000    0.000    0.000    8.250    0.000    0.000 
#    0.000    0.000    0.000    0.000    0.000    0.000 
#
# Total GULP energy -356603.369147 kJ/mol
# GULP energy per Si atom -5571.927643 kJ/mol
# Density = 2.396787 g / cm^3
# Si number density = 24.022544 Si / 1000 Ang^3
#
#
#
# Elastic Constant Matrix: (Units=GPa)
#
#
# Indices 1 2 3 4 5 6 
#
# 1 158.9680 -12.8807 11.0976 0.0000 0.0000 0.0000
# 2 -12.8807 18.5839 -0.0738 0.0000 0.0000 0.0000
# 3 11.0976 -0.0738 120.1636 0.0000 0.0000 0.0000
# 4 0.0000 0.0000 0.0000 44.2310 0.0000 0.0000
# 5 0.0000 0.0000 0.0000 0.0000 35.4489 0.0000
# 6 0.0000 0.0000 0.0000 0.0000 0.0000 8.9006
#
#
#
# Elastic Compliance Matrix: (Units=1/GPa)
#
#
# Indices 1 2 3 4 5 6 
#
# 1 0.006710 0.004649 -0.000617 0.000000 0.000000 0.000000
# 2 0.004649 0.057030 -0.000394 0.000000 0.000000 0.000000
# 3 -0.000617 -0.000394 0.008379 0.000000 0.000000 0.000000
# 4 0.000000 0.000000 0.000000 0.022609 0.000000 0.000000
# 5 0.000000 0.000000 0.000000 0.000000 0.028210 0.000000
# 6 0.000000 0.000000 0.000000 0.000000 0.000000 0.112352
#
#
# Mechanical properties :
#
#
# Convention : Reuss Voigt Hill
#
# Bulk Modulus (GPa) = 12.59538 32.66685 22.63111
# Shear Modulus (GPa) = 19.64794 37.68760 28.66777
#
# Velocity S-wave (km/s) = 2.86299 3.96516 3.45827
# Velocity P-wave (km/s) = 4.02287 5.88143 5.03859
#
# Compressibility (1/GPa) = 0.07939416
#
# Stress axis : x y z
#
# Youngs Moduli (GPa) = 149.02480 17.53451 119.35003
#
# Poissons Ratio (x) = -0.08151 0.07362
# Poissons Ratio (y) = -0.69274 0.04706
# Poissons Ratio (z) = 0.09193 0.00691
#
# Static dielectric constant tensor:
#      x y z
#    x 2.028260 0.000000 0.000000 
#    y 0.000000 2.623530 0.000000 
#    z 0.000000 0.000000 1.969650 
# 
# From -- ./inp_files/29281.got.cif
#   From: 2010.05.17/outbox.cif.g08.bks.cpg/sg57_15_cif.got.tgz:29281.got - 2010.06.03 13:58:18.
