data_PCOD9436529
_publ_section_title
;
Structure prediction by ZEFSAII (Michael W. Deem and Ramdas Pophale) SiO2 
 PCOD9436529
Probable space group: P B C M
;
_chemical_formula_sum "Si O2"
_cell_formula_units_Z 40
_cell_length_a 9.968941
_cell_length_b 26.382113
_cell_length_c 8.736679
_cell_angle_alpha 90.000000
_cell_angle_beta 90.000000
_cell_angle_gamma 90.000000
_cell_volume 2297.761674
_symmetry_space_group_name_H-M "P B C M"
_symmetry_group_IT_number 57
_symmetry_cell_setting 'orthorhombic'
loop_
_space_group_symop_operation_xyz
x,y,z
-x,-y,1/2+z
x,1/2-y,-z
-x,1/2+y,1/2-z
-x,-y,-z
x,y,1/2-z
-x,1/2+y,z
x,1/2-y,1/2+z
loop_
_atom_site_type_symbol
_atom_site_label
_atom_site_fract_x
_atom_site_fract_y
_atom_site_fract_z
Si Si1 0.246679 0.415776 0.065784
Si Si2 0.256084 0.693850 0.433802
Si Si3 0.252617 0.966933 0.564889
Si Si4 0.543136 0.387411 0.066086
Si Si5 0.031222 0.885659 0.566466
O O1 0.242164 0.415477 0.250000
O O2 0.244869 0.474804 0.016732
O O3 0.388091 0.391447 0.018648
O O4 0.115220 0.388319 0.004021
O O5 0.256151 0.750000 0.500000
O O6 0.262351 0.694979 0.250000
O O7 0.379555 0.660535 0.496323
O O8 0.121971 0.662531 0.478480
O O9 0.265773 0.964664 0.750000
O O10 0.376985 0.937000 0.491956
O O11 0.119371 0.935158 0.522580
O O12 0.550180 0.385500 0.250000
O O13 0.020100 0.885652 0.750000
#
# Coordination Sequence:
#
# PCOD9436529 Si02
#       5
#     8   8   8   8   8
#     4  10  20  32  49  76 110 141 172 210 252 298
#     4  10  21  39  60  79  98 127 168 214 260 310
#     4   9  18  33  50  73 106 143 179 213 247 293
#     4  10  20  33  51  78 106 137 175 211 251 302
#     4   9  19  33  51  76 104 134 171 210 254 303
#
# _framework density 17.408245999999998
#
# number of rings (size 3 to 8) (size 9 to 14) (size 15 to 20)
#    0.000    2.400    0.000    3.600    0.000    6.400 
#    0.000    1.000    0.000    2.400    0.000    0.000 
#    0.000    0.000    0.000    0.000    0.000    0.000 
#
# Total GULP energy -223235.262449 kJ/mol
# GULP energy per Si atom -5580.881561 kJ/mol
# Density = 1.736862 g / cm^3
# Si number density = 17.408246 Si / 1000 Ang^3
#
#
#
# Elastic Constant Matrix: (Units=GPa)
#
#
# Indices 1 2 3 4 5 6 
#
# 1 179.6638 76.5013 38.2802 0.0000 0.0000 0.0000
# 2 76.5013 130.7718 31.1359 0.0000 0.0000 0.0000
# 3 38.2802 31.1359 27.2716 0.0000 0.0000 0.0000
# 4 0.0000 0.0000 0.0000 16.8100 0.0000 0.0000
# 5 0.0000 0.0000 0.0000 0.0000 30.8628 0.0000
# 6 0.0000 0.0000 0.0000 0.0000 0.0000 5.0659
#
#
#
# Elastic Compliance Matrix: (Units=1/GPa)
#
#
# Indices 1 2 3 4 5 6 
#
# 1 0.008723 -0.003004 -0.008814 0.000000 0.000000 0.000000
# 2 -0.003004 0.011536 -0.008954 0.000000 0.000000 0.000000
# 3 -0.008814 -0.008954 0.059263 0.000000 0.000000 0.000000
# 4 0.000000 0.000000 0.000000 0.059488 0.000000 0.000000
# 5 0.000000 0.000000 0.000000 0.000000 0.032401 0.000000
# 6 0.000000 0.000000 0.000000 0.000000 0.000000 0.197399
#
#
# Mechanical properties :
#
#
# Convention : Reuss Voigt Hill
#
# Bulk Modulus (GPa) = 26.33139 69.94911 48.14025
# Shear Modulus (GPa) = 11.81990 23.33374 17.57682
#
# Velocity S-wave (km/s) = 2.60856 3.66510 3.18100
# Velocity P-wave (km/s) = 4.92254 7.62754 6.41914
#
# Compressibility (1/GPa) = 0.03797748
#
# Stress axis : x y z
#
# Youngs Moduli (GPa) = 114.63541 86.68260 16.87393
#
# Poissons Ratio (x) = 0.26044 0.14873
# Poissons Ratio (y) = 0.34442 0.15108
# Poissons Ratio (z) = 1.01044 0.77613
#
# Static dielectric constant tensor:
#      x y z
#    x 1.581050 0.000000 0.000000 
#    y 0.000000 1.570510 0.000000 
#    z 0.000000 0.000000 1.605630 
# 
# From -- ./inp_files/1514.got.cif
#   From: 2010.05.17/outbox.cif.g08.bks.cpg/sg57_1_cif.got.tgz:1514.got - 2010.06.03 13:58:18.
