data_PCOD9436473
_publ_section_title
;
Structure prediction by ZEFSAII (Michael W. Deem and Ramdas Pophale) SiO2 
 PCOD9436473
Probable space group: P B C M
;
_chemical_formula_sum "Si O2"
_cell_formula_units_Z 40
_cell_length_a 12.243060
_cell_length_b 10.940281
_cell_length_c 14.780522
_cell_angle_alpha 90.000000
_cell_angle_beta 90.000000
_cell_angle_gamma 90.000000
_cell_volume 1979.740315
_symmetry_space_group_name_H-M "P B C M"
_symmetry_group_IT_number 57
_symmetry_cell_setting 'orthorhombic'
loop_
_space_group_symop_operation_xyz
x,y,z
-x,-y,1/2+z
x,1/2-y,-z
-x,1/2+y,1/2-z
-x,-y,-z
x,y,1/2-z
-x,1/2+y,z
x,1/2-y,1/2+z
loop_
_atom_site_type_symbol
_atom_site_label
_atom_site_fract_x
_atom_site_fract_y
_atom_site_fract_z
Si Si1 0.766872 0.985416 0.388046
Si Si2 0.088727 0.134821 0.750000
Si Si3 0.889384 0.499361 0.438002
Si Si4 0.401586 0.702323 0.750000
Si Si5 0.778672 0.240444 0.897510
Si Si6 0.940514 0.898386 0.750000
Si Si7 0.426109 0.515549 0.250000
O O1 0.833618 0.881199 0.336677
O O2 0.649792 0.993035 0.339196
O O3 0.789303 0.970224 0.494125
O O4 0.814126 0.123134 0.369358
O O5 0.022840 0.258873 0.750000
O O6 0.020129 0.012493 0.750000
O O7 0.872499 0.360596 0.402985
O O8 0.884840 0.582058 0.348533
O O9 0.000000 0.500000 0.500000
O O10 0.318995 0.698270 0.665638
O O11 0.480918 0.586701 0.750000
O O12 0.455173 0.839252 0.750000
O O13 0.736569 0.250000 0.000000
#
# Coordination Sequence:
#
# PCOD9436473 Si02
#       7
#     8   4   8   4   8   4   4
#     4   9  20  41  62  88 125 172 205 254 322 391
#     4  11  24  38  58  86 129 163 225 248 315 376
#     4  11  22  39  63  95 130 167 218 264 307 375
#     4  10  19  42  67  95 128 161 218 267 323 382
#     4   9  20  38  68  93 122 166 219 255 317 393
#     4  12  27  36  58  92 121 174 219 262 305 372
#     4   9  20  40  73  93 124 168 208 269 333 384
#
# _framework density 20.20467
#
# number of rings (size 3 to 8) (size 9 to 14) (size 15 to 20)
#    0.000    2.000    2.000    1.200    2.800    2.400 
#    7.200    9.000    0.000    0.000    0.000    0.000 
#    0.000    0.000    0.000    0.000    0.000    0.000 
#
# Total GULP energy -222807.611163 kJ/mol
# GULP energy per Si atom -5570.190279 kJ/mol
# Density = 2.015868 g / cm^3
# Si number density = 20.204670 Si / 1000 Ang^3
#
#
#
# Elastic Constant Matrix: (Units=GPa)
#
#
# Indices 1 2 3 4 5 6 
#
# 1 58.8404 60.5181 39.5639 0.0000 0.0000 0.0000
# 2 60.5181 136.3405 51.7270 0.0000 0.0000 0.0000
# 3 39.5639 51.7270 142.6336 0.0000 0.0000 0.0000
# 4 0.0000 0.0000 0.0000 7.3663 0.0000 0.0000
# 5 0.0000 0.0000 0.0000 0.0000 4.9720 0.0000
# 6 0.0000 0.0000 0.0000 0.0000 0.0000 42.5038
#
#
#
# Elastic Compliance Matrix: (Units=1/GPa)
#
#
# Indices 1 2 3 4 5 6 
#
# 1 0.033628 -0.013205 -0.004539 0.000000 0.000000 0.000000
# 2 -0.013205 0.013690 -0.001302 0.000000 0.000000 0.000000
# 3 -0.004539 -0.001302 0.008742 0.000000 0.000000 0.000000
# 4 0.000000 0.000000 0.000000 0.135753 0.000000 0.000000
# 5 0.000000 0.000000 0.000000 0.000000 0.201128 0.000000
# 6 0.000000 0.000000 0.000000 0.000000 0.000000 0.023527
#
#
# Mechanical properties :
#
#
# Convention : Reuss Voigt Hill
#
# Bulk Modulus (GPa) = 55.65189 71.27029 63.46109
# Shear Modulus (GPa) = 10.85659 23.36878 17.11269
#
# Velocity S-wave (km/s) = 2.32055 3.40458 2.91343
# Velocity P-wave (km/s) = 5.89778 7.12780 6.54177
#
# Compressibility (1/GPa) = 0.01796884
#
# Stress axis : x y z
#
# Youngs Moduli (GPa) = 29.73678 73.04734 114.38761
#
# Poissons Ratio (x) = 0.96457 0.51922
# Poissons Ratio (y) = 0.39266 0.14893
# Poissons Ratio (z) = 0.13498 0.09510
#
# Static dielectric constant tensor:
#      x y z
#    x 1.730910 0.000000 0.000000 
#    y 0.000000 1.730420 0.000000 
#    z 0.000000 0.000000 1.749120 
# 
# From -- ./inp_files/21677.got.cif
#   From: 2010.05.17/outbox.cif.g08.bks.cpg/sg57_11_cif.got.tgz:21677.got - 2010.06.03 13:58:18.
