data_PCOD9436195
_publ_section_title
;
Structure prediction by ZEFSAII (Michael W. Deem and Ramdas Pophale) SiO2 
 PCOD9436195
Probable space group: P B C M
;
_chemical_formula_sum "Si O2"
_cell_formula_units_Z 56
_cell_length_a 17.264412
_cell_length_b 20.251113
_cell_length_c 8.897285
_cell_angle_alpha 90.000000
_cell_angle_beta 90.000000
_cell_angle_gamma 90.000000
_cell_volume 3110.700441
_symmetry_space_group_name_H-M "P B C M"
_symmetry_group_IT_number 57
_symmetry_cell_setting 'orthorhombic'
loop_
_space_group_symop_operation_xyz
x,y,z
-x,-y,1/2+z
x,1/2-y,-z
-x,1/2+y,1/2-z
-x,-y,-z
x,y,1/2-z
-x,1/2+y,z
x,1/2-y,1/2+z
loop_
_atom_site_type_symbol
_atom_site_label
_atom_site_fract_x
_atom_site_fract_y
_atom_site_fract_z
Si Si1 0.184905 0.320610 0.430634
Si Si2 0.629393 0.179480 0.071897
Si Si3 0.888042 0.048854 0.427068
Si Si4 0.324534 0.080907 0.569496
Si Si5 0.720606 0.057811 0.570842
Si Si6 0.444669 0.320696 0.571982
Si Si7 0.039845 0.403006 0.071348
O O1 0.202906 0.250000 0.500000
O O2 0.185064 0.315717 0.250000
O O3 0.249301 0.374927 0.470894
O O4 0.100345 0.347089 0.477400
O O5 0.644844 0.180018 0.250000
O O6 0.536824 0.170574 0.050834
O O7 0.650201 0.250000 0.000000
O O8 0.675033 0.120517 0.993605
O O9 0.873838 0.057849 0.250000
O O10 0.809677 0.060832 0.517172
O O11 0.959463 0.093267 0.483389
O O12 0.916402 0.973214 0.449963
O O13 0.327810 0.075201 0.750000
O O14 0.397586 0.121173 0.507350
O O15 0.315241 0.009154 0.497689
O O16 0.716220 0.056122 0.750000
O O17 0.422838 0.250000 0.500000
O O18 0.428241 0.319590 0.750000
O O19 0.024879 0.396686 0.250000
#
# Coordination Sequence:
#
# PCOD9436195 Si02
#       7
#     8   8   8   8   8   8   8
#     4  10  21  36  54  80 117 156 193 237 288 343
#     4  10  22  42  65  87 116 151 192 240 295 353
#     4  10  19  35  58  83 112 145 188 237 289 342
#     4  11  22  38  58  84 119 157 197 245 294 343
#     4  12  24  38  60  89 119 152 195 243 294 353
#     4  10  21  38  60  87 117 156 198 239 289 350
#     4   9  18  35  55  79 111 147 190 235 284 342
#
# _framework density 18.002376000000002
#
# number of rings (size 3 to 8) (size 9 to 14) (size 15 to 20)
#    0.000    1.714    1.429    3.429    0.000    5.714 
#    0.000    0.714    0.000    1.714    0.000    0.000 
#    0.000    0.000    0.000    0.000    0.000    0.000 
#
# Total GULP energy -312894.999282 kJ/mol
# GULP energy per Si atom -5587.410701 kJ/mol
# Density = 1.796140 g / cm^3
# Si number density = 18.002376 Si / 1000 Ang^3
#
#
#
# Elastic Constant Matrix: (Units=GPa)
#
#
# Indices 1 2 3 4 5 6 
#
# 1 79.4434 72.6841 71.9411 0.0000 0.0000 0.0000
# 2 72.6841 148.0992 80.4515 0.0000 0.0000 0.0000
# 3 71.9411 80.4515 111.6033 0.0000 0.0000 0.0000
# 4 0.0000 0.0000 0.0000 33.7478 0.0000 0.0000
# 5 0.0000 0.0000 0.0000 0.0000 28.1375 0.0000
# 6 0.0000 0.0000 0.0000 0.0000 0.0000 21.6219
#
#
#
# Elastic Compliance Matrix: (Units=1/GPa)
#
#
# Indices 1 2 3 4 5 6 
#
# 1 0.035390 -0.008179 -0.016917 0.000000 0.000000 0.000000
# 2 -0.008179 0.012989 -0.004091 0.000000 0.000000 0.000000
# 3 -0.016917 -0.004091 0.022814 0.000000 0.000000 0.000000
# 4 0.000000 0.000000 0.000000 0.029632 0.000000 0.000000
# 5 0.000000 0.000000 0.000000 0.000000 0.035540 0.000000
# 6 0.000000 0.000000 0.000000 0.000000 0.000000 0.046249
#
#
# Mechanical properties :
#
#
# Convention : Reuss Voigt Hill
#
# Bulk Modulus (GPa) = 78.00720 87.69993 82.85357
# Shear Modulus (GPa) = 20.38651 24.30604 22.34628
#
# Velocity S-wave (km/s) = 3.36882 3.67844 3.52703
# Velocity P-wave (km/s) = 7.65229 8.17696 7.91897
#
# Compressibility (1/GPa) = 0.01281933
#
# Stress axis : x y z
#
# Youngs Moduli (GPa) = 28.25644 76.99114 43.83239
#
# Poissons Ratio (x) = 0.62971 0.74151
# Poissons Ratio (y) = 0.23111 0.17931
# Poissons Ratio (z) = 0.47802 0.31495
#
# Static dielectric constant tensor:
#      x y z
#    x 1.610520 0.000000 0.000000 
#    y 0.000000 1.586720 0.000000 
#    z 0.000000 0.000000 1.600990 
# 
# From -- ./inp_files/5141.got.cif
#   From: 2010.05.17/outbox.cif.g08.bks.cpg/sg57_3_cif.got.tgz:5141.got - 2010.06.03 13:58:18.
