data_PCOD9436350
_publ_section_title
;
Structure prediction by ZEFSAII (Michael W. Deem and Ramdas Pophale) SiO2 
 PCOD9436350
Probable space group: P B C M
;
_chemical_formula_sum "Si O2"
_cell_formula_units_Z 56
_cell_length_a 19.205703
_cell_length_b 16.410109
_cell_length_c 8.818038
_cell_angle_alpha 90.000000
_cell_angle_beta 90.000000
_cell_angle_gamma 90.000000
_cell_volume 2779.160576
_symmetry_space_group_name_H-M "P B C M"
_symmetry_group_IT_number 57
_symmetry_cell_setting 'orthorhombic'
loop_
_space_group_symop_operation_xyz
x,y,z
-x,-y,1/2+z
x,1/2-y,-z
-x,1/2+y,1/2-z
-x,-y,-z
x,y,1/2-z
-x,1/2+y,z
x,1/2-y,1/2+z
loop_
_atom_site_type_symbol
_atom_site_label
_atom_site_fract_x
_atom_site_fract_y
_atom_site_fract_z
Si Si1 0.577168 0.001730 0.433699
Si Si2 0.336957 0.836014 0.933848
Si Si3 0.344723 0.164026 0.932265
Si Si4 0.922942 0.830691 0.572527
Si Si5 0.192898 0.904946 0.925509
Si Si6 0.800659 0.591541 0.575260
Si Si7 0.958173 0.422961 0.070471
O O1 0.575471 0.001790 0.250000
O O2 0.618004 0.084492 0.479413
O O3 0.500000 0.000000 0.500000
O O4 0.614595 0.917367 0.481622
O O5 0.337178 0.833002 0.750000
O O6 0.256484 0.850433 0.983484
O O7 0.362306 0.750000 0.000000
O O8 0.349036 0.168279 0.750000
O O9 0.263783 0.147331 0.970457
O O10 0.368428 0.250000 0.000000
O O11 0.890919 0.750000 0.500000
O O12 0.935031 0.824552 0.750000
O O13 0.866131 0.898960 0.533873
O O14 0.993538 0.848715 0.483414
O O15 0.178077 0.883468 0.750000
O O16 0.221998 0.997530 0.925462
O O17 0.119760 0.908095 0.011652
O O18 0.821854 0.610121 0.750000
O O19 0.958426 0.432257 0.250000
O O20 0.000000 0.500000 0.000000
#
# Coordination Sequence:
#
# PCOD9436350 Si02
#       7
#     8   8   8   8   8   8   8
#     4  10  22  42  65  92 127 166 205 246 303 365
#     4  10  22  42  67  94 126 167 211 259 312 370
#     4  10  21  38  61  91 125 162 202 247 302 366
#     4  12  25  40  58  85 119 157 200 252 309 369
#     4  10  20  38  64  88 117 160 207 255 313 373
#     4  10  19  36  62  87 117 158 200 249 307 367
#     4  12  24  39  59  86 118 157 206 258 313 375
#
# _framework density 20.149968999999999
#
# number of rings (size 3 to 8) (size 9 to 14) (size 15 to 20)
#    0.000    1.429    2.857    3.000    0.000    4.571 
#    0.000    4.286    0.000    0.000    0.000    0.000 
#    0.000    0.000    0.000    0.000    0.000    0.000 
#
# Total GULP energy -312694.449603 kJ/mol
# GULP energy per Si atom -5583.829457 kJ/mol
# Density = 2.010411 g / cm^3
# Si number density = 20.149969 Si / 1000 Ang^3
#
#
#
# Elastic Constant Matrix: (Units=GPa)
#
#
# Indices 1 2 3 4 5 6 
#
# 1 125.2990 58.3249 44.8118 0.0000 0.0000 0.0000
# 2 58.3249 124.7359 26.0413 0.0000 0.0000 0.0000
# 3 44.8118 26.0413 68.1979 0.0000 0.0000 0.0000
# 4 0.0000 0.0000 0.0000 28.6729 0.0000 0.0000
# 5 0.0000 0.0000 0.0000 0.0000 30.2629 0.0000
# 6 0.0000 0.0000 0.0000 0.0000 0.0000 16.9125
#
#
#
# Elastic Compliance Matrix: (Units=1/GPa)
#
#
# Indices 1 2 3 4 5 6 
#
# 1 0.012337 -0.004429 -0.006415 0.000000 0.000000 0.000000
# 2 -0.004429 0.010302 -0.001023 0.000000 0.000000 0.000000
# 3 -0.006415 -0.001023 0.019269 0.000000 0.000000 0.000000
# 4 0.000000 0.000000 0.000000 0.034876 0.000000 0.000000
# 5 0.000000 0.000000 0.000000 0.000000 0.033044 0.000000
# 6 0.000000 0.000000 0.000000 0.000000 0.000000 0.059128
#
#
# Mechanical properties :
#
#
# Convention : Reuss Voigt Hill
#
# Bulk Modulus (GPa) = 55.02820 64.06543 59.54682
# Shear Modulus (GPa) = 25.15741 27.77330 26.46536
#
# Velocity S-wave (km/s) = 3.53726 3.71661 3.62804
# Velocity P-wave (km/s) = 6.63713 7.09091 6.86777
#
# Compressibility (1/GPa) = 0.01817250
#
# Stress axis : x y z
#
# Youngs Moduli (GPa) = 81.05699 97.07180 51.89625
#
# Poissons Ratio (x) = 0.42996 0.33292
# Poissons Ratio (y) = 0.35903 0.05310
# Poissons Ratio (z) = 0.51999 0.09933
#
# Static dielectric constant tensor:
#      x y z
#    x 1.718350 0.000000 0.000000 
#    y 0.000000 1.734690 0.000000 
#    z 0.000000 0.000000 1.683560 
# 
# From -- ./inp_files/8082.got.cif
#   From: 2010.05.17/outbox.cif.g08.bks.cpg/sg57_5_cif.got.tgz:8082.got - 2010.06.03 13:58:18.
