data_PCOD9436244
_publ_section_title
;
Structure prediction by ZEFSAII (Michael W. Deem and Ramdas Pophale) SiO2 
 PCOD9436244
Probable space group: P B C M
;
_chemical_formula_sum "Si O2"
_cell_formula_units_Z 64
_cell_length_a 22.254021
_cell_length_b 18.269804
_cell_length_c 8.773511
_cell_angle_alpha 90.000000
_cell_angle_beta 90.000000
_cell_angle_gamma 90.000000
_cell_volume 3567.104289
_symmetry_space_group_name_H-M "P B C M"
_symmetry_group_IT_number 57
_symmetry_cell_setting 'orthorhombic'
loop_
_space_group_symop_operation_xyz
x,y,z
-x,-y,1/2+z
x,1/2-y,-z
-x,1/2+y,1/2-z
-x,-y,-z
x,y,1/2-z
-x,1/2+y,z
x,1/2-y,1/2+z
loop_
_atom_site_type_symbol
_atom_site_label
_atom_site_fract_x
_atom_site_fract_y
_atom_site_fract_z
Si Si1 0.753527 0.101118 0.434896
Si Si2 0.503670 0.169856 0.567776
Si Si3 0.875437 0.172969 0.433843
Si Si4 0.380169 0.907737 0.565945
Si Si5 0.936182 0.478422 0.933547
Si Si6 0.273224 0.331141 0.568675
Si Si7 0.813131 0.946668 0.433888
Si Si8 0.614993 0.920394 0.066655
O O1 0.753217 0.102812 0.250000
O O2 0.807230 0.154018 0.485475
O O3 0.686146 0.117831 0.485707
O O4 0.773158 0.018237 0.474997
O O5 0.493234 0.250000 0.500000
O O6 0.505981 0.174479 0.750000
O O7 0.565726 0.136996 0.506131
O O8 0.448209 0.117011 0.525911
O O9 0.895346 0.250000 0.500000
O O10 0.875523 0.176024 0.250000
O O11 0.915690 0.103383 0.479579
O O12 0.383575 0.901515 0.750000
O O13 0.385143 0.993858 0.527130
O O14 0.938982 0.479287 0.750000
O O15 0.881357 0.532564 0.976854
O O16 0.000000 0.500000 0.000000
O O17 0.274793 0.250000 0.500000
O O18 0.273853 0.326984 0.750000
O O19 0.215237 0.376115 0.511161
O O20 0.330867 0.376770 0.510668
O O21 0.810195 0.939020 0.250000
O O22 0.623196 0.915416 0.250000
#
# Coordination Sequence:
#
# PCOD9436244 Si02
#       8
#     8   8   8   8   8   8   8   8
#     4   8  15  31  56  79 105 140 177 216 269 328
#     4  11  24  39  54  76 107 144 187 233 279 334
#     4   9  18  33  53  81 112 147 184 222 268 319
#     4  10  19  35  60  83 107 143 179 224 282 337
#     4   9  19  35  59  85 113 151 191 230 273 322
#     4  12  24  36  56  85 114 144 182 233 284 335
#     4   9  17  36  59  79 109 147 184 223 272 330
#     4  10  21  39  61  81 106 144 185 227 282 341
#
# _framework density 17.941723
#
# number of rings (size 3 to 8) (size 9 to 14) (size 15 to 20)
#    0.000    2.250    1.250    3.750    0.000    4.000 
#    0.000    4.375    0.000    1.500    0.000    0.000 
#    0.000    0.000    0.000    0.000    0.000    0.000 
#
# Total GULP energy -357221.697984 kJ/mol
# GULP energy per Si atom -5581.589031 kJ/mol
# Density = 1.790089 g / cm^3
# Si number density = 17.941723 Si / 1000 Ang^3
#
#
#
# Elastic Constant Matrix: (Units=GPa)
#
#
# Indices 1 2 3 4 5 6 
#
# 1 125.1265 20.5851 22.2770 0.0000 0.0000 0.0000
# 2 20.5851 43.2119 9.0590 0.0000 0.0000 0.0000
# 3 22.2770 9.0590 19.4123 0.0000 0.0000 0.0000
# 4 0.0000 0.0000 0.0000 26.9583 0.0000 0.0000
# 5 0.0000 0.0000 0.0000 0.0000 28.8270 0.0000
# 6 0.0000 0.0000 0.0000 0.0000 0.0000 17.8339
#
#
#
# Elastic Compliance Matrix: (Units=1/GPa)
#
#
# Indices 1 2 3 4 5 6 
#
# 1 0.010320 -0.002697 -0.010584 0.000000 0.000000 0.000000
# 2 -0.002697 0.026356 -0.009204 0.000000 0.000000 0.000000
# 3 -0.010584 -0.009204 0.067955 0.000000 0.000000 0.000000
# 4 0.000000 0.000000 0.000000 0.037094 0.000000 0.000000
# 5 0.000000 0.000000 0.000000 0.000000 0.034690 0.000000
# 6 0.000000 0.000000 0.000000 0.000000 0.000000 0.056073
#
#
# Mechanical properties :
#
#
# Convention : Reuss Voigt Hill
#
# Bulk Modulus (GPa) = 16.76161 32.39919 24.58040
# Shear Modulus (GPa) = 16.81537 23.77914 20.29726
#
# Velocity S-wave (km/s) = 3.06473 3.64449 3.36711
# Velocity P-wave (km/s) = 4.67824 5.98389 5.37089
#
# Compressibility (1/GPa) = 0.05966014
#
# Stress axis : x y z
#
# Youngs Moduli (GPa) = 96.89893 37.94158 14.71555
#
# Poissons Ratio (x) = 0.10234 0.15575
# Poissons Ratio (y) = 0.26137 0.13545
# Poissons Ratio (z) = 1.02560 0.34922
#
# Static dielectric constant tensor:
#      x y z
#    x 1.610360 0.000000 0.000000 
#    y 0.000000 1.592890 0.000000 
#    z 0.000000 0.000000 1.605580 
# 
# From -- ./inp_files/8449.got.cif
#   From: 2010.05.17/outbox.cif.g08.bks.cpg/sg57_5_cif.got.tgz:8449.got - 2010.06.03 13:58:18.
