data_PCOD9436417
_publ_section_title
;
Structure prediction by ZEFSAII (Michael W. Deem and Ramdas Pophale) SiO2 
 PCOD9436417
Probable space group: P B C M
;
_chemical_formula_sum "Si O2"
_cell_formula_units_Z 64
_cell_length_a 12.499782
_cell_length_b 14.184466
_cell_length_c 16.731445
_cell_angle_alpha 90.000000
_cell_angle_beta 90.000000
_cell_angle_gamma 90.000000
_cell_volume 2966.530922
_symmetry_space_group_name_H-M "P B C M"
_symmetry_group_IT_number 57
_symmetry_cell_setting 'orthorhombic'
loop_
_space_group_symop_operation_xyz
x,y,z
-x,-y,1/2+z
x,1/2-y,-z
-x,1/2+y,1/2-z
-x,-y,-z
x,y,1/2-z
-x,1/2+y,z
x,1/2-y,1/2+z
loop_
_atom_site_type_symbol
_atom_site_label
_atom_site_fract_x
_atom_site_fract_y
_atom_site_fract_z
Si Si1 0.296625 0.007706 0.015927
Si Si2 0.500761 0.301501 0.843591
Si Si3 0.067299 0.094917 0.011723
Si Si4 0.069695 0.626962 0.160409
Si Si5 0.568268 0.482260 0.164057
Si Si6 0.630138 0.634791 0.886283
Si Si7 0.125615 0.098094 0.660934
Si Si8 0.727466 0.314067 0.576453
O O1 0.186371 0.060945 0.033670
O O2 0.351045 0.963856 0.092897
O O3 0.279669 0.921880 0.954769
O O4 0.369811 0.085364 0.972650
O O5 0.508395 0.275488 0.750000
O O6 0.473372 0.411444 0.845952
O O7 0.405594 0.242493 0.883945
O O8 0.613634 0.285107 0.886885
O O9 0.011498 0.144459 0.086928
O O10 0.074810 0.138103 0.921864
O O11 0.000000 0.000000 0.000000
O O12 0.029899 0.647457 0.250000
O O13 0.100378 0.514574 0.159661
O O14 0.177384 0.684541 0.140525
O O15 0.621669 0.472518 0.250000
O O16 0.464626 0.417351 0.159889
O O17 0.747118 0.616080 0.849834
O O18 0.093221 0.131991 0.750000
O O19 0.753501 0.250000 0.500000
#
# Coordination Sequence:
#
# PCOD9436417 Si02
#       8
#     8   8   8   8   8   8   8   8
#     4  11  22  39  62  89 124 162 219 265 320 384
#     4  11  24  38  58  90 126 163 213 262 314 389
#     4   9  17  35  61  88 116 147 211 263 309 381
#     4  10  19  37  65  91 120 163 209 258 325 390
#     4  11  23  37  55  83 124 166 204 258 320 381
#     4  11  20  37  62  85 125 169 212 255 313 386
#     4   9  16  30  59  92 121 156 203 257 307 371
#     4  12  23  37  61  92 127 169 211 268 318 387
#
# _framework density 21.574020999999998
#
# number of rings (size 3 to 8) (size 9 to 14) (size 15 to 20)
#    0.000    1.500    5.000    2.625    1.750    2.500 
#    0.000    0.625    5.500    1.500    0.000    0.000 
#    0.000    0.000    0.000    0.000    0.000    0.000 
#
# Total GULP energy -357417.129108 kJ/mol
# GULP energy per Si atom -5584.642642 kJ/mol
# Density = 2.152492 g / cm^3
# Si number density = 21.574021 Si / 1000 Ang^3
#
#
#
# Elastic Constant Matrix: (Units=GPa)
#
#
# Indices 1 2 3 4 5 6 
#
# 1 61.2864 1.6941 46.3065 0.0000 0.0000 0.0000
# 2 1.6941 51.5338 -2.3598 0.0000 0.0000 0.0000
# 3 46.3065 -2.3598 169.0186 0.0000 0.0000 0.0000
# 4 0.0000 0.0000 0.0000 22.6451 0.0000 0.0000
# 5 0.0000 0.0000 0.0000 0.0000 30.2186 0.0000
# 6 0.0000 0.0000 0.0000 0.0000 0.0000 19.4823
#
#
#
# Elastic Compliance Matrix: (Units=1/GPa)
#
#
# Indices 1 2 3 4 5 6 
#
# 1 0.020621 -0.000937 -0.005663 0.000000 0.000000 0.000000
# 2 -0.000937 0.019460 0.000528 0.000000 0.000000 0.000000
# 3 -0.005663 0.000528 0.007475 0.000000 0.000000 0.000000
# 4 0.000000 0.000000 0.000000 0.044160 0.000000 0.000000
# 5 0.000000 0.000000 0.000000 0.000000 0.033092 0.000000
# 6 0.000000 0.000000 0.000000 0.000000 0.000000 0.051329
#
#
# Mechanical properties :
#
#
# Convention : Reuss Voigt Hill
#
# Bulk Modulus (GPa) = 28.23786 41.45781 34.84784
# Shear Modulus (GPa) = 24.98945 30.21574 27.60259
#
# Velocity S-wave (km/s) = 3.40709 3.74647 3.58080
# Velocity P-wave (km/s) = 5.34742 6.16222 5.76922
#
# Compressibility (1/GPa) = 0.03541345
#
# Stress axis : x y z
#
# Youngs Moduli (GPa) = 48.49329 51.38809 133.77325
#
# Poissons Ratio (x) = 0.04816 0.75753
# Poissons Ratio (y) = 0.04545 -0.07069
# Poissons Ratio (z) = 0.27461 -0.02716
#
# Static dielectric constant tensor:
#      x y z
#    x 1.872220 0.000000 0.000000 
#    y 0.000000 1.774620 0.000000 
#    z 0.000000 0.000000 1.838850 
# 
# From -- ./inp_files/22059.got.cif
#   From: 2010.05.17/outbox.cif.g08.bks.cpg/sg57_12_cif.got.tgz:22059.got - 2010.06.03 13:58:18.
