data_PCOD9436984
_publ_section_title
;
Structure prediction by ZEFSAII (Michael W. Deem and Ramdas Pophale) SiO2 
 PCOD9436984
Probable space group: P B C M
;
_chemical_formula_sum "Si O2"
_cell_formula_units_Z 64
_cell_length_a 12.920734
_cell_length_b 29.535259
_cell_length_c 8.602521
_cell_angle_alpha 90.000000
_cell_angle_beta 90.000000
_cell_angle_gamma 90.000000
_cell_volume 3282.870193
_symmetry_space_group_name_H-M "P B C M"
_symmetry_group_IT_number 57
_symmetry_cell_setting 'orthorhombic'
loop_
_space_group_symop_operation_xyz
x,y,z
-x,-y,1/2+z
x,1/2-y,-z
-x,1/2+y,1/2-z
-x,-y,-z
x,y,1/2-z
-x,1/2+y,z
x,1/2-y,1/2+z
loop_
_atom_site_type_symbol
_atom_site_label
_atom_site_fract_x
_atom_site_fract_y
_atom_site_fract_z
Si Si1 0.894287 0.978926 0.064482
Si Si2 0.480515 0.549457 0.935979
Si Si3 0.155655 0.376658 0.439711
Si Si4 0.429933 0.800792 0.935253
Si Si5 0.782630 0.342023 0.062089
Si Si6 0.242851 0.942330 0.436240
Si Si7 0.608527 0.635510 0.561416
Si Si8 0.003852 0.701022 0.937745
O O1 0.901388 0.977014 0.250000
O O2 0.872073 0.927704 0.008381
O O3 0.804990 0.013973 0.016427
O O4 0.000000 0.000000 0.000000
O O5 0.487946 0.547805 0.750000
O O6 0.363513 0.563018 0.975365
O O7 0.560983 0.587259 0.990164
O O8 0.500000 0.500000 0.000000
O O9 0.154492 0.377626 0.250000
O O10 0.271805 0.362661 0.486500
O O11 0.072599 0.339156 0.489352
O O12 0.431038 0.800080 0.750000
O O13 0.427513 0.750000 0.000000
O O14 0.325935 0.826055 0.992536
O O15 0.531712 0.826544 0.996873
O O16 0.772699 0.340468 0.250000
O O17 0.807965 0.394267 0.021352
O O18 0.878817 0.311007 0.013666
O O19 0.232648 0.948186 0.250000
O O20 0.604437 0.637459 0.750000
O O21 0.002251 0.701796 0.750000
O O22 0.973042 0.750000 0.000000
#
# Coordination Sequence:
#
# PCOD9436984 Si02
#       8
#     8   8   8   8   8   8   8   8
#     4  11  22  38  60  88 120 160 208 252 301 360
#     4  10  20  34  56  84 118 157 197 243 296 354
#     4   9  20  39  63  86 117 161 203 243 295 363
#     4  12  25  40  61  89 121 157 203 256 310 368
#     4  10  20  39  63  86 121 160 199 247 305 367
#     4  10  20  36  58  85 119 158 197 244 302 360
#     4  10  20  40  63  85 117 159 204 248 300 358
#     4  10  21  38  61  87 113 149 193 246 303 361
#
# _framework density 19.495135000000001
#
# number of rings (size 3 to 8) (size 9 to 14) (size 15 to 20)
#    0.000    1.750    1.250    3.375    0.000    6.500 
#    0.000    5.625    0.000    0.000    0.000    0.000 
#    0.000    0.000    0.000    0.000    0.000    0.000 
#
# Total GULP energy -357538.127584 kJ/mol
# GULP energy per Si atom -5586.533243 kJ/mol
# Density = 1.945076 g / cm^3
# Si number density = 19.495135 Si / 1000 Ang^3
#
#
#
# Elastic Constant Matrix: (Units=GPa)
#
#
# Indices 1 2 3 4 5 6 
#
# 1 126.8810 67.9047 34.0398 0.0000 0.0000 0.0000
# 2 67.9047 161.4006 29.8781 0.0000 0.0000 0.0000
# 3 34.0398 29.8781 24.4135 0.0000 0.0000 0.0000
# 4 0.0000 0.0000 0.0000 32.8164 0.0000 0.0000
# 5 0.0000 0.0000 0.0000 0.0000 22.1408 0.0000
# 6 0.0000 0.0000 0.0000 0.0000 0.0000 35.7348
#
#
#
# Elastic Compliance Matrix: (Units=1/GPa)
#
#
# Indices 1 2 3 4 5 6 
#
# 1 0.013532 -0.002845 -0.015385 0.000000 0.000000 0.000000
# 2 -0.002845 0.008609 -0.006569 0.000000 0.000000 0.000000
# 3 -0.015385 -0.006569 0.070452 0.000000 0.000000 0.000000
# 4 0.000000 0.000000 0.000000 0.030473 0.000000 0.000000
# 5 0.000000 0.000000 0.000000 0.000000 0.045166 0.000000
# 6 0.000000 0.000000 0.000000 0.000000 0.000000 0.027984
#
#
# Mechanical properties :
#
#
# Convention : Reuss Voigt Hill
#
# Bulk Modulus (GPa) = 23.25907 64.03780 43.64843
# Shear Modulus (GPa) = 19.22007 30.19654 24.70831
#
# Velocity S-wave (km/s) = 3.14330 3.93991 3.56393
# Velocity P-wave (km/s) = 5.01302 7.32234 6.27483
#
# Compressibility (1/GPa) = 0.04299399
#
# Stress axis : x y z
#
# Youngs Moduli (GPa) = 73.90118 116.16140 14.19399
#
# Poissons Ratio (x) = 0.33047 0.21838
# Poissons Ratio (y) = 0.21024 0.09324
# Poissons Ratio (z) = 1.13700 0.76306
#
# Static dielectric constant tensor:
#      x y z
#    x 1.686700 0.000000 0.000000 
#    y 0.000000 1.675540 0.000000 
#    z 0.000000 0.000000 1.667410 
# 
# From -- ./inp_files/3873.got.cif
#   From: 2010.05.17/outbox.cif.g08.bks.cpg/sg57_2_cif.got.tgz:3873.got - 2010.06.03 13:58:18.
