data_PCOD9436921
_publ_section_title
;
Structure prediction by ZEFSAII (Michael W. Deem and Ramdas Pophale) SiO2 
 PCOD9436921
Probable space group: P B C M
;
_chemical_formula_sum "Si O2"
_cell_formula_units_Z 64
_cell_length_a 21.232840
_cell_length_b 18.766562
_cell_length_c 8.807416
_cell_angle_alpha 90.000000
_cell_angle_beta 90.000000
_cell_angle_gamma 90.000000
_cell_volume 3509.468227
_symmetry_space_group_name_H-M "P B C M"
_symmetry_group_IT_number 57
_symmetry_cell_setting 'orthorhombic'
loop_
_space_group_symop_operation_xyz
x,y,z
-x,-y,1/2+z
x,1/2-y,-z
-x,1/2+y,1/2-z
-x,-y,-z
x,y,1/2-z
-x,1/2+y,z
x,1/2-y,1/2+z
loop_
_atom_site_type_symbol
_atom_site_label
_atom_site_fract_x
_atom_site_fract_y
_atom_site_fract_z
Si Si1 0.997805 0.829928 0.567897
Si Si2 0.620022 0.098577 0.567683
Si Si3 0.244960 0.908741 0.569967
Si Si4 0.499108 0.327036 0.567428
Si Si5 0.386388 0.432281 0.567743
Si Si6 0.747437 0.921499 0.071172
Si Si7 0.125810 0.829684 0.068668
Si Si8 0.141494 0.170765 0.431268
O O1 0.995702 0.750000 0.500000
O O2 0.005167 0.827119 0.750000
O O3 0.060294 0.862700 0.494172
O O4 0.928422 0.859894 0.531641
O O5 0.620774 0.104571 0.750000
O O6 0.688718 0.115886 0.500932
O O7 0.565791 0.147055 0.497680
O O8 0.605891 0.015648 0.526496
O O9 0.243676 0.893898 0.750000
O O10 0.186031 0.872687 0.488706
O O11 0.242158 0.994041 0.547925
O O12 0.483394 0.250000 0.500000
O O13 0.501770 0.323781 0.750000
O O14 0.445807 0.384557 0.522769
O O15 0.380385 0.429198 0.750000
O O16 0.321471 0.405175 0.495480
O O17 0.747941 0.906965 0.250000
O O18 0.802569 0.877490 0.992675
O O19 0.123685 0.825898 0.250000
O O20 0.130368 0.750000 0.000000
O O21 0.146351 0.250000 0.500000
O O22 0.145143 0.176397 0.250000
#
# Coordination Sequence:
#
# PCOD9436921 Si02
#       8
#     8   8   8   8   8   8   8   8
#     4   9  17  31  51  76 105 140 179 221 267 319
#     4  10  20  37  60  83 106 139 180 221 266 320
#     4  10  21  38  57  80 110 143 180 223 267 319
#     4  11  23  38  56  82 113 144 176 218 267 314
#     4   9  20  38  59  80 107 143 182 220 263 318
#     4  10  21  36  57  82 110 143 180 223 271 319
#     4  11  21  34  55  81 108 141 179 223 271 322
#     4  10  20  34  55  80 109 143 182 225 270 321
#
# _framework density 18.236381000000002
#
# number of rings (size 3 to 8) (size 9 to 14) (size 15 to 20)
#    0.000    2.000    0.000    4.500    0.000    5.500 
#    0.000    4.375    0.000    0.000    0.000    0.000 
#    0.000    0.000    0.000    0.000    0.000    0.000 
#
# Total GULP energy -357308.437297 kJ/mol
# GULP energy per Si atom -5582.944333 kJ/mol
# Density = 1.819487 g / cm^3
# Si number density = 18.236381 Si / 1000 Ang^3
#
#
#
# Elastic Constant Matrix: (Units=GPa)
#
#
# Indices 1 2 3 4 5 6 
#
# 1 84.6275 7.0220 28.7006 0.0000 0.0000 0.0000
# 2 7.0220 10.7564 14.4741 0.0000 0.0000 0.0000
# 3 28.7006 14.4741 65.2645 0.0000 0.0000 0.0000
# 4 0.0000 0.0000 0.0000 26.5541 0.0000 0.0000
# 5 0.0000 0.0000 0.0000 0.0000 111.0218 0.0000
# 6 0.0000 0.0000 0.0000 0.0000 0.0000 32.5785
#
#
#
# Elastic Compliance Matrix: (Units=1/GPa)
#
#
# Indices 1 2 3 4 5 6 
#
# 1 0.013899 -0.001210 -0.005844 0.000000 0.000000 0.000000
# 2 -0.001210 0.132618 -0.028879 0.000000 0.000000 0.000000
# 3 -0.005844 -0.028879 0.024297 0.000000 0.000000 0.000000
# 4 0.000000 0.000000 0.000000 0.037659 0.000000 0.000000
# 5 0.000000 0.000000 0.000000 0.000000 0.009007 0.000000
# 6 0.000000 0.000000 0.000000 0.000000 0.000000 0.030695
#
#
# Mechanical properties :
#
#
# Convention : Reuss Voigt Hill
#
# Bulk Modulus (GPa) = 10.10636 29.00466 19.55551
# Shear Modulus (GPa) = 14.16337 41.39432 27.77885
#
# Velocity S-wave (km/s) = 2.78988 4.76949 3.90714
# Velocity P-wave (km/s) = 3.99146 6.80221 5.57682
#
# Compressibility (1/GPa) = 0.09894757
#
# Stress axis : x y z
#
# Youngs Moduli (GPa) = 71.94898 7.54046 41.15766
#
# Poissons Ratio (x) = 0.00912 0.24052
# Poissons Ratio (y) = 0.08705 1.18860
# Poissons Ratio (z) = 0.42045 0.21776
#
# Static dielectric constant tensor:
#      x y z
#    x 1.629100 0.000000 0.000000 
#    y 0.000000 1.614680 0.000000 
#    z 0.000000 0.000000 1.606180 
# 
# From -- ./inp_files/7204.got.cif
#   From: 2010.05.17/outbox.cif.g08.bks.cpg/sg57_4_cif.got.tgz:7204.got - 2010.06.03 13:58:18.
