data_PCOD9436621
_publ_section_title
;
Structure prediction by ZEFSAII (Michael W. Deem and Ramdas Pophale) SiO2 
 PCOD9436621
Probable space group: P B C M
;
_chemical_formula_sum "Si O2"
_cell_formula_units_Z 40
_cell_length_a 15.521803
_cell_length_b 13.597834
_cell_length_c 8.225024
_cell_angle_alpha 90.000000
_cell_angle_beta 90.000000
_cell_angle_gamma 90.000000
_cell_volume 1735.997423
_symmetry_space_group_name_H-M "P B C M"
_symmetry_group_IT_number 57
_symmetry_cell_setting 'orthorhombic'
loop_
_space_group_symop_operation_xyz
x,y,z
-x,-y,1/2+z
x,1/2-y,-z
-x,1/2+y,1/2-z
-x,-y,-z
x,y,1/2-z
-x,1/2+y,z
x,1/2-y,1/2+z
loop_
_atom_site_type_symbol
_atom_site_label
_atom_site_fract_x
_atom_site_fract_y
_atom_site_fract_z
Si Si1 0.197436 0.426779 0.946300
Si Si2 0.563624 0.357058 0.557936
Si Si3 0.381009 0.429801 0.444786
Si Si4 0.988488 0.612349 0.445963
Si Si5 0.170935 0.647730 0.936570
O O1 0.194747 0.430901 0.750000
O O2 0.110819 0.368120 0.993609
O O3 0.192022 0.540564 0.011599
O O4 0.289142 0.387817 0.002636
O O5 0.591756 0.250000 0.500000
O O6 0.573781 0.358673 0.750000
O O7 0.463262 0.372902 0.513583
O O8 0.610100 0.456254 0.493852
O O9 0.387102 0.429306 0.250000
O O10 0.999362 0.624148 0.250000
O O11 0.000000 0.500000 0.500000
O O12 0.067576 0.657737 0.543507
O O13 0.194706 0.641394 0.750000
O O14 0.208792 0.750000 0.000000
#
# Coordination Sequence:
#
# PCOD9436621 Si02
#       5
#     8   8   8   8   8
#     4   9  19  34  52  75 104 137 173 215 262 313
#     4  10  21  38  59  82 110 143 179 221 270 326
#     4  10  21  36  57  84 111 143 181 222 271 325
#     4   9  17  31  50  71  97 132 170 207 251 301
#     4  10  20  33  50  74 104 139 177 219 266 313
#
# _framework density 23.041506999999999
#
# number of rings (size 3 to 8) (size 9 to 14) (size 15 to 20)
#    0.000    2.400    0.000    3.600    0.000    8.000 
#    0.000    5.000    0.000    4.800    0.000    0.000 
#    0.000    0.000    0.000    0.000    0.000    0.000 
#
# Total GULP energy -223137.487770 kJ/mol
# GULP energy per Si atom -5578.437194 kJ/mol
# Density = 2.298906 g / cm^3
# Si number density = 23.041507 Si / 1000 Ang^3
#
#
#
# Elastic Constant Matrix: (Units=GPa)
#
#
# Indices 1 2 3 4 5 6 
#
# 1 118.3646 -4.4505 -11.7721 0.0000 0.0000 0.0000
# 2 -4.4505 72.3738 -1.1951 0.0000 0.0000 0.0000
# 3 -11.7721 -1.1951 20.4403 0.0000 0.0000 0.0000
# 4 0.0000 0.0000 0.0000 24.6137 0.0000 0.0000
# 5 0.0000 0.0000 0.0000 0.0000 16.4037 0.0000
# 6 0.0000 0.0000 0.0000 0.0000 0.0000 -43.2923
#
#
#
# Elastic Compliance Matrix: (Units=1/GPa)
#
#
# Indices 1 2 3 4 5 6 
#
# 1 0.008991 0.000639 0.005216 0.000000 0.000000 0.000000
# 2 0.000639 0.013876 0.001179 0.000000 0.000000 0.000000
# 3 0.005216 0.001179 0.051996 0.000000 0.000000 0.000000
# 4 0.000000 0.000000 0.000000 0.040628 0.000000 0.000000
# 5 0.000000 0.000000 0.000000 0.000000 0.060962 0.000000
# 6 0.000000 0.000000 0.000000 0.000000 0.000000 -0.023099
#
#
# Mechanical properties :
#
#
# Convention : Reuss Voigt Hill
#
# Bulk Modulus (GPa) = 11.24467 19.59370 15.41919
# Shear Modulus (GPa) = 29.59812 14.78476 22.19144
#
# Velocity S-wave (km/s) = 3.58796 2.53584 3.10676
# Velocity P-wave (km/s) = 4.69632 4.13475 4.42445
#
# Compressibility (1/GPa) = 0.08893100
#
# Stress axis : x y z
#
# Youngs Moduli (GPa) = 111.21949 72.06727 19.23231
#
# Poissons Ratio (x) = -0.04605 -0.10031
# Poissons Ratio (y) = -0.07107 -0.02268
# Poissons Ratio (z) = -0.58008 -0.08499
#
# Static dielectric constant tensor:
#      x y z
#    x 1.875260 0.000000 0.000000 
#    y 0.000000 1.913320 0.000000 
#    z 0.000000 0.000000 1.794060 
# 
# From -- ./inp_files/4283.got.cif
#   From: 2010.05.17/outbox.cif.g08.bks.cpg/sg57_3_cif.got.tgz:4283.got - 2010.06.03 13:58:18.
