data_PCOD9436327
_publ_section_title
;
Structure prediction by ZEFSAII (Michael W. Deem and Ramdas Pophale) SiO2 
 PCOD9436327
Probable space group: P B C M
;
_chemical_formula_sum "Si O2"
_cell_formula_units_Z 48
_cell_length_a 29.821895
_cell_length_b 5.379893
_cell_length_c 13.576375
_cell_angle_alpha 90.000000
_cell_angle_beta 90.000000
_cell_angle_gamma 90.000000
_cell_volume 2178.174655
_symmetry_space_group_name_H-M "P B C M"
_symmetry_group_IT_number 57
_symmetry_cell_setting 'orthorhombic'
loop_
_space_group_symop_operation_xyz
x,y,z
-x,-y,1/2+z
x,1/2-y,-z
-x,1/2+y,1/2-z
-x,-y,-z
x,y,1/2-z
-x,1/2+y,z
x,1/2-y,1/2+z
loop_
_atom_site_type_symbol
_atom_site_label
_atom_site_fract_x
_atom_site_fract_y
_atom_site_fract_z
Si Si1 0.600269 0.925450 0.750000
Si Si2 0.719669 0.993760 0.439585
Si Si3 0.342290 0.928440 0.750000
Si Si4 0.820668 0.603082 0.869277
Si Si5 0.025489 0.599889 0.629742
Si Si6 0.519593 0.992504 0.887943
Si Si7 0.871944 0.102523 0.870097
O O1 0.634087 0.158780 0.750000
O O2 0.569862 0.944829 0.849738
O O3 0.622853 0.656184 0.750000
O O4 0.719093 0.250000 0.500000
O O5 0.704106 0.750000 0.500000
O O6 0.688750 0.037370 0.345290
O O7 0.770632 0.937538 0.407303
O O8 0.818949 0.603174 0.750000
O O9 0.851554 0.368957 0.898441
O O10 0.841379 0.868377 0.899169
O O11 0.026057 0.599597 0.750000
O O12 0.076817 0.571029 0.597046
O O13 0.995519 0.364045 0.600583
O O14 0.507644 0.260602 0.848399
O O15 0.500000 0.000000 0.000000
O O16 0.872675 0.100869 0.750000
#
# Coordination Sequence:
#
# PCOD9436327 Si02
#       7
#     4   8   4   8   8   8   8
#     4  12  24  45  74 102 148 190 234 285 346 402
#     4  12  26  48  72 100 138 181 231 284 356 415
#     4  12  28  51  70 110 146 190 236 287 344 426
#     4  10  19  36  60  84 120 162 213 279 332 401
#     4   9  15  23  36  62 110 158 197 255 326 395
#     4  10  21  41  67 103 140 184 235 289 336 389
#     4   9  17  27  48  80 110 159 217 264 331 401
#
# _framework density 22.036801000000001
#
# number of rings (size 3 to 8) (size 9 to 14) (size 15 to 20)
#    0.000    1.667    0.833    4.500    0.000    4.000 
#   18.000    0.000    0.000    0.000    0.000    0.000 
#    0.000   46.667    0.000    0.000    0.000    0.000 
#
# Total GULP energy -268305.207659 kJ/mol
# GULP energy per Si atom -5589.691826 kJ/mol
# Density = 2.198664 g / cm^3
# Si number density = 22.036801 Si / 1000 Ang^3
#
#
#
# Elastic Constant Matrix: (Units=GPa)
#
#
# Indices 1 2 3 4 5 6 
#
# 1 93.9567 18.8388 29.7354 0.0000 0.0000 0.0000
# 2 18.8388 147.8611 31.1176 0.0000 0.0000 0.0000
# 3 29.7354 31.1176 125.1689 0.0000 0.0000 0.0000
# 4 0.0000 0.0000 0.0000 -30.1589 0.0000 0.0000
# 5 0.0000 0.0000 0.0000 0.0000 3.2527 0.0000
# 6 0.0000 0.0000 0.0000 0.0000 0.0000 33.1606
#
#
#
# Elastic Compliance Matrix: (Units=1/GPa)
#
#
# Indices 1 2 3 4 5 6 
#
# 1 0.011634 -0.000950 -0.002527 0.000000 0.000000 0.000000
# 2 -0.000950 0.007214 -0.001568 0.000000 0.000000 0.000000
# 3 -0.002527 -0.001568 0.008979 0.000000 0.000000 0.000000
# 4 0.000000 0.000000 0.000000 -0.033158 0.000000 0.000000
# 5 0.000000 0.000000 0.000000 0.000000 0.307435 0.000000
# 6 0.000000 0.000000 0.000000 0.000000 0.000000 0.030156
#
#
# Mechanical properties :
#
#
# Convention : Reuss Voigt Hill
#
# Bulk Modulus (GPa) = 56.38199 58.48557 57.43378
# Shear Modulus (GPa) = 14.35696 20.40387 17.38041
#
# Velocity S-wave (km/s) = 2.55522 3.04616 2.81143
# Velocity P-wave (km/s) = 5.86058 6.24257 6.05459
#
# Compressibility (1/GPa) = 0.01773616
#
# Stress axis : x y z
#
# Youngs Moduli (GPa) = 85.95765 138.61724 111.36635
#
# Poissons Ratio (x) = 0.13173 0.28147
# Poissons Ratio (y) = 0.08169 0.17459
# Poissons Ratio (z) = 0.21725 0.21731
#
# Static dielectric constant tensor:
#      x y z
#    x 1.750940 0.000000 0.000000 
#    y 0.000000 1.739260 0.000000 
#    z 0.000000 0.000000 1.843570 
# 
# From -- ./inp_files/19588.got.cif
#   From: 2010.05.17/outbox.cif.g08.bks.cpg/sg57_10_cif.got.tgz:19588.got - 2010.06.03 13:58:18.
