data_PCOD9436242
_publ_section_title
;
Structure prediction by ZEFSAII (Michael W. Deem and Ramdas Pophale) SiO2 
 PCOD9436242
Probable space group: P B C M
;
_chemical_formula_sum "Si O2"
_cell_formula_units_Z 60
_cell_length_a 17.324658
_cell_length_b 5.624716
_cell_length_c 27.766539
_cell_angle_alpha 90.000000
_cell_angle_beta 90.000000
_cell_angle_gamma 90.000000
_cell_volume 2705.745963
_symmetry_space_group_name_H-M "P B C M"
_symmetry_group_IT_number 57
_symmetry_cell_setting 'orthorhombic'
loop_
_space_group_symop_operation_xyz
x,y,z
-x,-y,1/2+z
x,1/2-y,-z
-x,1/2+y,1/2-z
-x,-y,-z
x,y,1/2-z
-x,1/2+y,z
x,1/2-y,1/2+z
loop_
_atom_site_type_symbol
_atom_site_label
_atom_site_fract_x
_atom_site_fract_y
_atom_site_fract_z
Si Si1 0.710298 0.149149 0.304386
Si Si2 0.925825 0.750000 0.500000
Si Si3 0.514747 0.665351 0.571700
Si Si4 0.688779 0.798429 0.106251
Si Si5 0.808169 0.068832 0.871663
Si Si6 0.962595 0.833147 0.891975
Si Si7 0.800283 0.096366 0.458094
Si Si8 0.541882 0.335266 0.178674
O O1 0.720671 0.062810 0.250000
O O2 0.784584 0.298528 0.322849
O O3 0.630462 0.301110 0.305936
O O4 0.698970 0.940778 0.343646
O O5 0.966560 0.828910 0.549311
O O6 0.869680 0.538908 0.516500
O O7 0.505703 0.411883 0.547098
O O8 0.601499 0.690184 0.590646
O O9 0.462916 0.662674 0.620528
O O10 0.726675 0.542079 0.112051
O O11 0.739275 0.921700 0.065151
O O12 0.832030 0.250510 0.913601
O O13 0.874493 0.870175 0.873544
O O14 0.994438 0.576073 0.875934
O O15 0.762163 0.250000 0.500000
O O16 0.504178 0.590672 0.193510
#
# Coordination Sequence:
#
# PCOD9436242 Si02
#       8
#     8   4   8   8   8   8   8   8
#     4  11  25  40  63  95 128 177 229 283 338 395
#     4  12  22  42  62 108 142 174 204 268 334 420
#     4  10  19  35  59  89 122 173 221 273 337 392
#     4  11  22  39  65  89 131 184 222 276 333 402
#     4  11  24  42  66  93 136 174 227 268 328 405
#     4  12  26  42  69 104 141 178 206 266 335 412
#     4  11  21  38  65  96 136 180 220 266 322 397
#     4  10  19  37  57  91 132 168 211 272 344 404
#
# _framework density 22.17503
#
# number of rings (size 3 to 8) (size 9 to 14) (size 15 to 20)
#    0.000    1.067    5.333    2.800    3.733    1.067 
#    0.000    0.000    0.000    1.600    0.000    0.000 
#    0.000    0.000    0.000    0.000    0.000    0.000 
#
# Total GULP energy -335352.826561 kJ/mol
# GULP energy per Si atom -5589.213776 kJ/mol
# Density = 2.212456 g / cm^3
# Si number density = 22.175030 Si / 1000 Ang^3
#
#
#
# Elastic Constant Matrix: (Units=GPa)
#
#
# Indices 1 2 3 4 5 6 
#
# 1 64.4772 22.6953 10.9420 0.0000 0.0000 0.0000
# 2 22.6953 134.3367 12.1402 0.0000 0.0000 0.0000
# 3 10.9420 12.1402 60.1430 0.0000 0.0000 0.0000
# 4 0.0000 0.0000 0.0000 1.8223 0.0000 0.0000
# 5 0.0000 0.0000 0.0000 0.0000 16.9656 0.0000
# 6 0.0000 0.0000 0.0000 0.0000 0.0000 32.0512
#
#
#
# Elastic Compliance Matrix: (Units=1/GPa)
#
#
# Indices 1 2 3 4 5 6 
#
# 1 0.016862 -0.002619 -0.002539 0.000000 0.000000 0.000000
# 2 -0.002619 0.007989 -0.001136 0.000000 0.000000 0.000000
# 3 -0.002539 -0.001136 0.017318 0.000000 0.000000 0.000000
# 4 0.000000 0.000000 0.000000 0.548753 0.000000 0.000000
# 5 0.000000 0.000000 0.000000 0.000000 0.058943 0.000000
# 6 0.000000 0.000000 0.000000 0.000000 0.000000 0.031200
#
#
# Mechanical properties :
#
#
# Convention : Reuss Voigt Hill
#
# Bulk Modulus (GPa) = 33.80581 38.94576 36.37579
# Shear Modulus (GPa) = 7.10718 24.37979 15.74348
#
# Velocity S-wave (km/s) = 1.79220 3.31936 2.66741
# Velocity P-wave (km/s) = 4.42275 5.68259 5.09179
#
# Compressibility (1/GPa) = 0.02958071
#
# Stress axis : x y z
#
# Youngs Moduli (GPa) = 59.30425 125.16951 57.74235
#
# Poissons Ratio (x) = 0.32786 0.14661
# Poissons Ratio (y) = 0.15534 0.06560
# Poissons Ratio (z) = 0.15058 0.14221
#
# Static dielectric constant tensor:
#      x y z
#    x 1.825450 0.000000 0.000000 
#    y 0.000000 1.912730 0.000000 
#    z 0.000000 0.000000 1.770690 
# 
# From -- ./inp_files/29942.got.cif
#   From: 2010.05.17/outbox.cif.g08.bks.cpg/sg57_15_cif.got.tgz:29942.got - 2010.06.03 13:58:18.
