data_PCOD9436755
_publ_section_title
;
Structure prediction by ZEFSAII (Michael W. Deem and Ramdas Pophale) SiO2 
 PCOD9436755
Probable space group: P B C M
;
_chemical_formula_sum "Si O2"
_cell_formula_units_Z 48
_cell_length_a 7.940519
_cell_length_b 15.047229
_cell_length_c 20.318390
_cell_angle_alpha 90.000000
_cell_angle_beta 90.000000
_cell_angle_gamma 90.000000
_cell_volume 2427.698287
_symmetry_space_group_name_H-M "P B C M"
_symmetry_group_IT_number 57
_symmetry_cell_setting 'orthorhombic'
loop_
_space_group_symop_operation_xyz
x,y,z
-x,-y,1/2+z
x,1/2-y,-z
-x,1/2+y,1/2-z
-x,-y,-z
x,y,1/2-z
-x,1/2+y,z
x,1/2-y,1/2+z
loop_
_atom_site_type_symbol
_atom_site_label
_atom_site_fract_x
_atom_site_fract_y
_atom_site_fract_z
Si Si1 0.972229 0.161750 0.823797
Si Si2 0.641521 0.688484 0.822908
Si Si3 0.987523 0.403790 0.034657
Si Si4 0.319939 0.809477 0.822737
Si Si5 0.330781 0.604166 0.459021
Si Si6 0.646431 0.608721 0.962663
O O1 0.959552 0.121797 0.750000
O O2 0.819220 0.231331 0.830071
O O3 0.157731 0.207934 0.826825
O O4 0.966574 0.095620 0.886135
O O5 0.615675 0.646467 0.750000
O O6 0.508094 0.768408 0.825396
O O7 0.602423 0.630803 0.887265
O O8 0.824185 0.360767 0.002297
O O9 0.000000 0.500000 0.000000
O O10 0.166249 0.357286 0.021905
O O11 0.295118 0.849023 0.750000
O O12 0.301163 0.874539 0.883436
O O13 0.342049 0.497992 0.467479
O O14 0.504865 0.641677 0.487583
#
# Coordination Sequence:
#
# PCOD9436755 Si02
#       6
#     8   8   8   8   8   8
#     4   9  18  33  52  73 100 135 171 207 251 304
#     4   9  18  33  52  74 100 131 169 207 245 300
#     4   9  18  33  52  75 101 129 167 212 253 302
#     4  10  21  35  52  76 104 134 171 214 258 306
#     4  10  20  34  51  74 105 133 166 214 259 301
#     4   9  19  34  52  73 100 135 169 205 252 303
#
# _framework density 19.771815
#
# number of rings (size 3 to 8) (size 9 to 14) (size 15 to 20)
#    0.000    2.667    0.000    1.000    0.000    4.667 
#    0.000    5.833    0.000    6.000    0.000    9.333 
#    0.000    0.000    0.000    0.000    0.000    0.000 
#
# Total GULP energy -267299.049980 kJ/mol
# GULP energy per Si atom -5568.730208 kJ/mol
# Density = 1.972681 g / cm^3
# Si number density = 19.771815 Si / 1000 Ang^3
#
#
#
# Elastic Constant Matrix: (Units=GPa)
#
#
# Indices 1 2 3 4 5 6 
#
# 1 91.8726 9.4256 67.5557 0.0000 0.0000 0.0000
# 2 9.4256 22.8305 15.9893 0.0000 0.0000 0.0000
# 3 67.5557 15.9893 137.5651 0.0000 0.0000 0.0000
# 4 0.0000 0.0000 0.0000 36.0459 0.0000 0.0000
# 5 0.0000 0.0000 0.0000 0.0000 33.3155 0.0000
# 6 0.0000 0.0000 0.0000 0.0000 0.0000 1.1807
#
#
#
# Elastic Compliance Matrix: (Units=1/GPa)
#
#
# Indices 1 2 3 4 5 6 
#
# 1 0.017071 -0.001281 -0.008234 0.000000 0.000000 0.000000
# 2 -0.001281 0.047779 -0.004924 0.000000 0.000000 0.000000
# 3 -0.008234 -0.004924 0.011885 0.000000 0.000000 0.000000
# 4 0.000000 0.000000 0.000000 0.027742 0.000000 0.000000
# 5 0.000000 0.000000 0.000000 0.000000 0.030016 0.000000
# 6 0.000000 0.000000 0.000000 0.000000 0.000000 0.846949
#
#
# Mechanical properties :
#
#
# Convention : Reuss Voigt Hill
#
# Bulk Modulus (GPa) = 20.89605 48.68993 34.79299
# Shear Modulus (GPa) = 4.87200 24.72825 14.80012
#
# Velocity S-wave (km/s) = 1.57145 3.54033 2.73893
# Velocity P-wave (km/s) = 3.72615 6.43361 5.25716
#
# Compressibility (1/GPa) = 0.04785594
#
# Stress axis : x y z
#
# Youngs Moduli (GPa) = 58.57915 20.92981 84.13695
#
# Poissons Ratio (x) = 0.02681 0.69281
# Poissons Ratio (y) = 0.07503 0.41432
# Poissons Ratio (z) = 0.48236 0.10307
#
# Static dielectric constant tensor:
#      x y z
#    x 1.761460 0.000000 0.000000 
#    y 0.000000 1.680310 0.000000 
#    z 0.000000 0.000000 1.696740 
# 
# From -- ./inp_files/16371.got.cif
#   From: 2010.05.17/outbox.cif.g08.bks.cpg/sg57_9_cif.got.tgz:16371.got - 2010.06.03 13:58:18.
