data_PCOD9436435
_publ_section_title
;
Structure prediction by ZEFSAII (Michael W. Deem and Ramdas Pophale) SiO2 
 PCOD9436435
Probable space group: P B C M
;
_chemical_formula_sum "Si O2"
_cell_formula_units_Z 40
_cell_length_a 12.378302
_cell_length_b 10.415156
_cell_length_c 16.186640
_cell_angle_alpha 90.000000
_cell_angle_beta 90.000000
_cell_angle_gamma 90.000000
_cell_volume 2086.813134
_symmetry_space_group_name_H-M "P B C M"
_symmetry_group_IT_number 57
_symmetry_cell_setting 'orthorhombic'
loop_
_space_group_symop_operation_xyz
x,y,z
-x,-y,1/2+z
x,1/2-y,-z
-x,1/2+y,1/2-z
-x,-y,-z
x,y,1/2-z
-x,1/2+y,z
x,1/2-y,1/2+z
loop_
_atom_site_type_symbol
_atom_site_label
_atom_site_fract_x
_atom_site_fract_y
_atom_site_fract_z
Si Si1 0.051423 0.734870 0.843066
Si Si2 0.289488 0.740288 0.098544
Si Si3 0.498080 0.124597 0.441436
Si Si4 0.068511 0.038703 0.080353
Si Si5 0.299851 0.025127 0.347824
O O1 0.021360 0.761408 0.750000
O O2 0.174104 0.781696 0.859722
O O3 0.045144 0.583251 0.860014
O O4 0.974923 0.821707 0.897651
O O5 0.386826 0.640065 0.104701
O O6 0.328892 0.875873 0.135631
O O7 0.267049 0.750000 0.000000
O O8 0.487215 0.250000 0.500000
O O9 0.500000 0.000000 0.500000
O O10 0.399890 0.110031 0.377904
O O11 0.198156 0.047160 0.090430
O O12 0.000000 0.000000 0.000000
O O13 0.273630 0.042336 0.250000
#
# Coordination Sequence:
#
# PCOD9436435 Si02
#       5
#     8   8   8   8   8
#     4  11  22  39  62  91 123 159 207 261 311 367
#     4  10  19  38  64  86 122 163 208 242 311 372
#     4  11  22  41  66  90 124 164 213 252 304 377
#     4  11  23  40  64  89 122 166 210 249 313 373
#     4  11  23  41  63  93 129 165 206 265 317 361
#
# _framework density 19.167983
#
# number of rings (size 3 to 8) (size 9 to 14) (size 15 to 20)
#    0.000    1.200    4.000    6.600    0.000    3.200 
#    0.000    0.000    0.000    0.000    0.000    0.000 
#    0.000    0.000    0.000    0.000    0.000    0.000 
#
# Total GULP energy -222943.234296 kJ/mol
# GULP energy per Si atom -5573.580857 kJ/mol
# Density = 1.912436 g / cm^3
# Si number density = 19.167983 Si / 1000 Ang^3
#
#
#
# Elastic Constant Matrix: (Units=GPa)
#
#
# Indices 1 2 3 4 5 6 
#
# 1 48.9655 11.6933 -4.6129 0.0000 0.0000 0.0000
# 2 11.6933 63.3015 -22.1010 0.0000 0.0000 0.0000
# 3 -4.6129 -22.1010 62.1660 0.0000 0.0000 0.0000
# 4 0.0000 0.0000 0.0000 25.4500 0.0000 0.0000
# 5 0.0000 0.0000 0.0000 0.0000 -54.9707 0.0000
# 6 0.0000 0.0000 0.0000 0.0000 0.0000 40.2341
#
#
#
# Elastic Compliance Matrix: (Units=1/GPa)
#
#
# Indices 1 2 3 4 5 6 
#
# 1 0.021367 -0.003874 0.000208 0.000000 0.000000 0.000000
# 2 -0.003874 0.018739 0.006374 0.000000 0.000000 0.000000
# 3 0.000208 0.006374 0.018368 0.000000 0.000000 0.000000
# 4 0.000000 0.000000 0.000000 0.039293 0.000000 0.000000
# 5 0.000000 0.000000 0.000000 0.000000 -0.018192 0.000000
# 6 0.000000 0.000000 0.000000 0.000000 0.000000 0.024855
#
#
# Mechanical properties :
#
#
# Convention : Reuss Voigt Hill
#
# Bulk Modulus (GPa) = 15.65194 16.04353 15.84773
# Shear Modulus (GPa) = 41.55938 14.77293 28.16616
#
# Velocity S-wave (km/s) = 4.66141 2.77918 3.83748
# Velocity P-wave (km/s) = 6.09549 4.32280 5.28401
#
# Compressibility (1/GPa) = 0.06388986
#
# Stress axis : x y z
#
# Youngs Moduli (GPa) = 46.80028 53.36566 54.44372
#
# Poissons Ratio (x) = 0.20676 -0.01133
# Poissons Ratio (y) = 0.18132 -0.34705
# Poissons Ratio (z) = -0.00974 -0.34017
#
# Static dielectric constant tensor:
#      x y z
#    x 1.764020 0.000000 0.000000 
#    y 0.000000 1.665200 0.000000 
#    z 0.000000 0.000000 2.105720 
# 
# From -- ./inp_files/17407.got.cif
#   From: 2010.05.17/outbox.cif.g08.bks.cpg/sg57_9_cif.got.tgz:17407.got - 2010.06.03 13:58:18.
