data_PCOD9436785
_publ_section_title
;
Structure prediction by ZEFSAII (Michael W. Deem and Ramdas Pophale) SiO2 
 PCOD9436785
Probable space group: P B C M
;
_chemical_formula_sum "Si O2"
_cell_formula_units_Z 64
_cell_length_a 22.895862
_cell_length_b 16.162052
_cell_length_c 9.207064
_cell_angle_alpha 90.000000
_cell_angle_beta 90.000000
_cell_angle_gamma 90.000000
_cell_volume 3407.019824
_symmetry_space_group_name_H-M "P B C M"
_symmetry_group_IT_number 57
_symmetry_cell_setting 'orthorhombic'
loop_
_space_group_symop_operation_xyz
x,y,z
-x,-y,1/2+z
x,1/2-y,-z
-x,1/2+y,1/2-z
-x,-y,-z
x,y,1/2-z
-x,1/2+y,z
x,1/2-y,1/2+z
loop_
_atom_site_type_symbol
_atom_site_label
_atom_site_fract_x
_atom_site_fract_y
_atom_site_fract_z
Si Si1 0.760038 0.500458 0.079971
Si Si2 0.859419 0.084844 0.417606
Si Si3 0.974934 0.167060 0.422895
Si Si4 0.073845 0.409567 0.414237
Si Si5 0.802530 0.665624 0.922849
Si Si6 0.584600 0.664779 0.578619
Si Si7 0.376129 0.998069 0.421685
Si Si8 0.555737 0.334485 0.078599
O O1 0.773278 0.513343 0.250000
O O2 0.692331 0.478115 0.065012
O O3 0.802999 0.431414 0.014207
O O4 0.772268 0.585681 0.993875
O O5 0.843075 0.102063 0.250000
O O6 0.908433 0.148645 0.469471
O O7 0.895438 0.998621 0.417483
O O8 0.995455 0.250000 0.500000
O O9 0.975479 0.172875 0.250000
O O10 0.021115 0.098979 0.475019
O O11 0.052195 0.394708 0.250000
O O12 0.127745 0.347769 0.444696
O O13 0.791941 0.667404 0.750000
O O14 0.783834 0.750000 0.000000
O O15 0.603404 0.750000 0.500000
O O16 0.598038 0.668882 0.750000
O O17 0.610737 0.582488 0.506875
O O18 0.514235 0.658483 0.561404
O O19 0.389198 0.011533 0.250000
O O20 0.413755 0.919120 0.473188
O O21 0.568353 0.326743 0.250000
O O22 0.574636 0.250000 0.000000
#
# Coordination Sequence:
#
# PCOD9436785 Si02
#       8
#     8   8   8   8   8   8   8   8
#     4  10  21  36  55  76 100 136 178 218 262 309
#     4   9  20  38  55  72  98 132 169 210 254 302
#     4  11  22  34  51  76 103 130 162 204 255 308
#     4   9  18  33  53  76 100 127 161 204 254 308
#     4  10  20  34  52  75 105 138 173 214 260 312
#     4  10  20  34  56  85 116 151 184 217 265 322
#     4  10  21  37  56  81 113 145 182 229 273 317
#     4   9  19  36  57  83 114 145 181 226 273 322
#
# _framework density 18.784745999999998
#
# number of rings (size 3 to 8) (size 9 to 14) (size 15 to 20)
#    0.000    2.250    0.000    3.375    0.000    7.000 
#    0.000    0.625    0.000    3.000    0.000    0.000 
#    0.000    0.000    0.000    0.000    0.000    0.000 
#
# Total GULP energy -357147.180115 kJ/mol
# GULP energy per Si atom -5580.424689 kJ/mol
# Density = 1.874199 g / cm^3
# Si number density = 18.784746 Si / 1000 Ang^3
#
#
#
# Elastic Constant Matrix: (Units=GPa)
#
#
# Indices 1 2 3 4 5 6 
#
# 1 39.0899 18.6087 37.6869 0.0000 0.0000 0.0000
# 2 18.6087 57.4423 22.8257 0.0000 0.0000 0.0000
# 3 37.6869 22.8257 65.4058 0.0000 0.0000 0.0000
# 4 0.0000 0.0000 0.0000 25.0549 0.0000 0.0000
# 5 0.0000 0.0000 0.0000 0.0000 24.2108 0.0000
# 6 0.0000 0.0000 0.0000 0.0000 0.0000 10.2068
#
#
#
# Elastic Compliance Matrix: (Units=1/GPa)
#
#
# Indices 1 2 3 4 5 6 
#
# 1 0.059620 -0.006575 -0.032059 0.000000 0.000000 0.000000
# 2 -0.006575 0.020937 -0.003518 0.000000 0.000000 0.000000
# 3 -0.032059 -0.003518 0.034989 0.000000 0.000000 0.000000
# 4 0.000000 0.000000 0.000000 0.039912 0.000000 0.000000
# 5 0.000000 0.000000 0.000000 0.000000 0.041304 0.000000
# 6 0.000000 0.000000 0.000000 0.000000 0.000000 0.097973
#
#
# Mechanical properties :
#
#
# Convention : Reuss Voigt Hill
#
# Bulk Modulus (GPa) = 32.00768 35.57563 33.79166
# Shear Modulus (GPa) = 12.83849 17.41561 15.12705
#
# Velocity S-wave (km/s) = 2.61713 3.04816 2.84083
# Velocity P-wave (km/s) = 5.11944 5.60072 5.36548
#
# Compressibility (1/GPa) = 0.03124250
#
# Stress axis : x y z
#
# Youngs Moduli (GPa) = 16.77281 47.76281 28.58027
#
# Poissons Ratio (x) = 0.31405 0.91625
# Poissons Ratio (y) = 0.11028 0.10055
# Poissons Ratio (z) = 0.53771 0.16803
#
# Static dielectric constant tensor:
#      x y z
#    x 1.652570 0.000000 0.000000 
#    y 0.000000 1.665990 0.000000 
#    z 0.000000 0.000000 1.635400 
# 
# From -- ./inp_files/9311.got.cif
#   From: 2010.05.17/outbox.cif.g08.bks.cpg/sg57_5_cif.got.tgz:9311.got - 2010.06.03 13:58:18.
