data_PCOD9436502
_publ_section_title
;
Structure prediction by ZEFSAII (Michael W. Deem and Ramdas Pophale) SiO2 
 PCOD9436502
Probable space group: P B C M
;
_chemical_formula_sum "Si O2"
_cell_formula_units_Z 48
_cell_length_a 17.808784
_cell_length_b 13.239851
_cell_length_c 8.966616
_cell_angle_alpha 90.000000
_cell_angle_beta 90.000000
_cell_angle_gamma 90.000000
_cell_volume 2114.199352
_symmetry_space_group_name_H-M "P B C M"
_symmetry_group_IT_number 57
_symmetry_cell_setting 'orthorhombic'
loop_
_space_group_symop_operation_xyz
x,y,z
-x,-y,1/2+z
x,1/2-y,-z
-x,1/2+y,1/2-z
-x,-y,-z
x,y,1/2-z
-x,1/2+y,z
x,1/2-y,1/2+z
loop_
_atom_site_type_symbol
_atom_site_label
_atom_site_fract_x
_atom_site_fract_y
_atom_site_fract_z
Si Si1 0.557140 0.856882 0.925429
Si Si2 0.786787 0.650542 0.076258
Si Si3 0.937283 0.877643 0.415622
Si Si4 0.610807 0.063567 0.075183
Si Si5 0.086644 0.881145 0.581608
Si Si6 0.759728 0.081323 0.571284
O O1 0.577028 0.857542 0.750000
O O2 0.467548 0.876740 0.938365
O O3 0.575031 0.750000 0.000000
O O4 0.595023 0.952630 0.005917
O O5 0.773767 0.658490 0.250000
O O6 0.761519 0.538710 0.028887
O O7 0.753375 0.750000 0.000000
O O8 0.875165 0.650849 0.036660
O O9 0.920732 0.837203 0.250000
O O10 0.020068 0.850945 0.470347
O O11 0.928707 0.998571 0.405109
O O12 0.629560 0.054632 0.250000
O O13 0.679152 0.115706 0.988036
O O14 0.082834 0.839415 0.750000
O O15 0.168590 0.869609 0.509126
O O16 0.766574 0.089789 0.750000
#
# Coordination Sequence:
#
# PCOD9436502 Si02
#       6
#     8   8   8   8   8   8
#     4  10  21  38  61  87 114 147 185 226 273 327
#     4  10  20  32  46  67  97 135 177 220 269 323
#     4   9  16  27  44  65  90 122 162 207 253 304
#     4  10  21  37  58  85 116 148 185 228 275 331
#     4   9  16  27  45  68  93 123 162 207 255 307
#     4  10  20  33  50  74 105 139 176 219 268 322
#
# _framework density 22.703628999999999
#
# number of rings (size 3 to 8) (size 9 to 14) (size 15 to 20)
#    0.000    2.333    0.000    3.000    0.000    8.667 
#    0.000    1.667    0.000    1.000    0.000    4.667 
#    0.000    0.000    0.000    0.000    0.000    0.000 
#
# Total GULP energy -268315.653580 kJ/mol
# GULP energy per Si atom -5589.909450 kJ/mol
# Density = 2.265195 g / cm^3
# Si number density = 22.703629 Si / 1000 Ang^3
#
#
#
# Elastic Constant Matrix: (Units=GPa)
#
#
# Indices 1 2 3 4 5 6 
#
# 1 135.3136 -12.3264 34.9441 0.0000 0.0000 0.0000
# 2 -12.3264 76.3972 15.2784 0.0000 0.0000 0.0000
# 3 34.9441 15.2784 70.9496 0.0000 0.0000 0.0000
# 4 0.0000 0.0000 0.0000 25.4282 0.0000 0.0000
# 5 0.0000 0.0000 0.0000 0.0000 23.0103 0.0000
# 6 0.0000 0.0000 0.0000 0.0000 0.0000 -12.5102
#
#
#
# Elastic Compliance Matrix: (Units=1/GPa)
#
#
# Indices 1 2 3 4 5 6 
#
# 1 0.008872 0.002409 -0.004888 0.000000 0.000000 0.000000
# 2 0.002409 0.014333 -0.004273 0.000000 0.000000 0.000000
# 3 -0.004888 -0.004273 0.017422 0.000000 0.000000 0.000000
# 4 0.000000 0.000000 0.000000 0.039326 0.000000 0.000000
# 5 0.000000 0.000000 0.000000 0.000000 0.043459 0.000000
# 6 0.000000 0.000000 0.000000 0.000000 0.000000 -0.079935
#
#
# Mechanical properties :
#
#
# Convention : Reuss Voigt Hill
#
# Bulk Modulus (GPa) = 36.86975 39.82807 38.34891
# Shear Modulus (GPa) = 75.73079 23.50327 49.61703
#
# Velocity S-wave (km/s) = 5.78175 3.22098 4.67992
# Velocity P-wave (km/s) = 7.80041 5.60478 6.79191
#
# Compressibility (1/GPa) = 0.02712251
#
# Stress axis : x y z
#
# Youngs Moduli (GPa) = 112.71259 69.77047 57.39762
#
# Poissons Ratio (x) = -0.16808 0.28059
# Poissons Ratio (y) = -0.27154 0.24526
# Poissons Ratio (z) = 0.55099 0.29813
#
# Static dielectric constant tensor:
#      x y z
#    x 1.834950 0.000000 0.000000 
#    y 0.000000 1.886360 0.000000 
#    z 0.000000 0.000000 1.801230 
# 
# From -- ./inp_files/6560.got.cif
#   From: 2010.05.17/outbox.cif.g08.bks.cpg/sg57_4_cif.got.tgz:6560.got - 2010.06.03 13:58:18.
