data_PCOD9436823
_publ_section_title
;
Structure prediction by ZEFSAII (Michael W. Deem and Ramdas Pophale) SiO2 
 PCOD9436823
Probable space group: P B C M
;
_chemical_formula_sum "Si O2"
_cell_formula_units_Z 48
_cell_length_a 21.674571
_cell_length_b 14.390906
_cell_length_c 8.909460
_cell_angle_alpha 90.000000
_cell_angle_beta 90.000000
_cell_angle_gamma 90.000000
_cell_volume 2779.009485
_symmetry_space_group_name_H-M "P B C M"
_symmetry_group_IT_number 57
_symmetry_cell_setting 'orthorhombic'
loop_
_space_group_symop_operation_xyz
x,y,z
-x,-y,1/2+z
x,1/2-y,-z
-x,1/2+y,1/2-z
-x,-y,-z
x,y,1/2-z
-x,1/2+y,z
x,1/2-y,1/2+z
loop_
_atom_site_type_symbol
_atom_site_label
_atom_site_fract_x
_atom_site_fract_y
_atom_site_fract_z
Si Si1 0.238771 0.010329 0.569739
Si Si2 0.336091 0.648506 0.430014
Si Si3 0.000287 0.148901 0.070644
Si Si4 0.567287 0.490184 0.070292
Si Si5 0.333741 0.149174 0.071395
Si Si6 0.904012 0.989135 0.069396
O O1 0.241659 0.022029 0.750000
O O2 0.274388 0.095542 0.493635
O O3 0.167390 0.004595 0.525274
O O4 0.277352 0.917159 0.533317
O O5 0.329756 0.750000 0.500000
O O6 0.341593 0.654113 0.250000
O O7 0.395106 0.595215 0.498198
O O8 0.004007 0.155728 0.250000
O O9 0.994141 0.250000 0.000000
O O10 0.060246 0.095703 0.007639
O O11 0.942345 0.082274 0.031729
O O12 0.563848 0.478850 0.250000
O O13 0.608124 0.582101 0.037838
O O14 0.500000 0.500000 0.000000
O O15 0.328268 0.157246 0.250000
O O16 0.340795 0.250000 0.000000
O O17 0.907165 0.977525 0.250000
#
# Coordination Sequence:
#
# PCOD9436823 Si02
#       6
#     8   8   8   8   8   8
#     4   9  19  36  56  77 104 137 173 215 260 307
#     4  10  20  35  55  79 107 139 174 214 261 311
#     4  10  20  34  53  77 105 137 173 214 260 309
#     4  10  21  37  56  79 107 139 176 217 260 308
#     4  10  21  36  55  79 106 137 173 213 258 308
#     4   9  19  36  55  76 103 136 175 216 258 306
#
# _framework density 17.27234
#
# number of rings (size 3 to 8) (size 9 to 14) (size 15 to 20)
#    0.000    2.333    0.000    2.000    0.000    6.000 
#    0.000    1.667    0.000    0.000    0.000    0.000 
#    0.000    0.000    0.000    0.000    0.000    0.000 
#
# Total GULP energy -267926.669564 kJ/mol
# GULP energy per Si atom -5581.805616 kJ/mol
# Density = 1.723303 g / cm^3
# Si number density = 17.272340 Si / 1000 Ang^3
#
#
#
# Elastic Constant Matrix: (Units=GPa)
#
#
# Indices 1 2 3 4 5 6 
#
# 1 154.3320 61.3779 53.7858 0.0000 0.0000 0.0000
# 2 61.3779 145.7192 59.0093 0.0000 0.0000 0.0000
# 3 53.7858 59.0093 50.4066 0.0000 0.0000 0.0000
# 4 0.0000 0.0000 0.0000 29.7979 0.0000 0.0000
# 5 0.0000 0.0000 0.0000 0.0000 27.3344 0.0000
# 6 0.0000 0.0000 0.0000 0.0000 0.0000 6.1352
#
#
#
# Elastic Compliance Matrix: (Units=1/GPa)
#
#
# Indices 1 2 3 4 5 6 
#
# 1 0.010319 0.000214 -0.011261 0.000000 0.000000 0.000000
# 2 0.000214 0.013053 -0.015508 0.000000 0.000000 0.000000
# 3 -0.011261 -0.015508 0.050010 0.000000 0.000000 0.000000
# 4 0.000000 0.000000 0.000000 0.033559 0.000000 0.000000
# 5 0.000000 0.000000 0.000000 0.000000 0.036584 0.000000
# 6 0.000000 0.000000 0.000000 0.000000 0.000000 0.162993
#
#
# Mechanical properties :
#
#
# Convention : Reuss Voigt Hill
#
# Bulk Modulus (GPa) = 49.33366 77.64488 63.48927
# Shear Modulus (GPa) = 13.64680 24.40582 19.02631
#
# Velocity S-wave (km/s) = 2.81391 3.76307 3.32256
# Velocity P-wave (km/s) = 6.25953 7.99574 7.18030
#
# Compressibility (1/GPa) = 0.02027014
#
# Stress axis : x y z
#
# Youngs Moduli (GPa) = 96.90751 76.61290 19.99605
#
# Poissons Ratio (x) = -0.01638 0.22518
# Poissons Ratio (y) = -0.02071 0.31011
# Poissons Ratio (z) = 1.09129 1.18814
#
# Static dielectric constant tensor:
#      x y z
#    x 1.567410 0.000000 0.000000 
#    y 0.000000 1.555140 0.000000 
#    z 0.000000 0.000000 1.572990 
# 
# From -- ./inp_files/7877.got.cif
#   From: 2010.05.17/outbox.cif.g08.bks.cpg/sg57_4_cif.got.tgz:7877.got - 2010.06.03 13:58:18.
