data_PCOD9436723
_publ_section_title
;
Structure prediction by ZEFSAII (Michael W. Deem and Ramdas Pophale) SiO2 
 PCOD9436723
Probable space group: P B C M
;
_chemical_formula_sum "Si O2"
_cell_formula_units_Z 64
_cell_length_a 15.307876
_cell_length_b 21.689670
_cell_length_c 9.081711
_cell_angle_alpha 90.000000
_cell_angle_beta 90.000000
_cell_angle_gamma 90.000000
_cell_volume 3015.334923
_symmetry_space_group_name_H-M "P B C M"
_symmetry_group_IT_number 57
_symmetry_cell_setting 'orthorhombic'
loop_
_space_group_symop_operation_xyz
x,y,z
-x,-y,1/2+z
x,1/2-y,-z
-x,1/2+y,1/2-z
-x,-y,-z
x,y,1/2-z
-x,1/2+y,z
x,1/2-y,1/2+z
loop_
_atom_site_type_symbol
_atom_site_label
_atom_site_fract_x
_atom_site_fract_y
_atom_site_fract_z
Si Si1 0.831554 0.009334 0.414149
Si Si2 0.031461 0.689390 0.576597
Si Si3 0.910309 0.595645 0.079629
Si Si4 0.381090 0.633149 0.925554
Si Si5 0.575230 0.632232 0.926663
Si Si6 0.629620 0.497618 0.578942
Si Si7 0.253594 0.313405 0.576747
Si Si8 0.204228 0.655382 0.421602
O O1 0.865301 0.995939 0.250000
O O2 0.818939 0.082350 0.428578
O O3 0.889950 0.973787 0.530695
O O4 0.732151 0.984858 0.424185
O O5 0.991805 0.750000 0.500000
O O6 0.025160 0.694931 0.750000
O O7 0.131059 0.685425 0.522405
O O8 0.982366 0.629099 0.518201
O O9 0.936412 0.599032 0.250000
O O10 0.821302 0.635078 0.058537
O O11 0.366962 0.637456 0.750000
O O12 0.478421 0.656931 0.961049
O O13 0.381059 0.561208 0.975087
O O14 0.301323 0.663313 0.014250
O O15 0.588045 0.636029 0.750000
O O16 0.578564 0.559155 0.964439
O O17 0.654796 0.665015 0.007310
O O18 0.609277 0.480898 0.750000
O O19 0.226491 0.250000 0.500000
O O20 0.265086 0.303068 0.750000
O O21 0.198739 0.674069 0.250000
#
# Coordination Sequence:
#
# PCOD9436723 Si02
#       8
#     8   8   8   8   8   8   8   8
#     4   9  18  34  59  89 124 164 200 240 297 356
#     4  12  26  45  69  93 118 153 198 249 301 358
#     4  11  23  39  62  93 124 157 198 244 298 361
#     4  10  20  33  55  87 120 156 199 246 297 351
#     4  10  20  35  55  81 117 158 200 246 294 348
#     4   9  17  31  52  81 119 162 199 239 291 347
#     4  11  24  39  58  84 116 158 202 250 301 358
#     4  10  22  42  64  89 124 162 201 249 303 358
#
# _framework density 21.224838999999999
#
# number of rings (size 3 to 8) (size 9 to 14) (size 15 to 20)
#    0.000    1.750    1.250    4.125    0.000    7.000 
#    0.000    0.625    0.000    3.000    0.000    0.000 
#    0.000    0.000    0.000    0.000    0.000    0.000 
#
# Total GULP energy -357780.526101 kJ/mol
# GULP energy per Si atom -5590.320720 kJ/mol
# Density = 2.117653 g / cm^3
# Si number density = 21.224839 Si / 1000 Ang^3
#
#
#
# Elastic Constant Matrix: (Units=GPa)
#
#
# Indices 1 2 3 4 5 6 
#
# 1 92.3880 3.9965 47.3882 0.0000 0.0000 0.0000
# 2 3.9965 14.2257 10.3870 0.0000 0.0000 0.0000
# 3 47.3882 10.3870 103.1215 0.0000 0.0000 0.0000
# 4 0.0000 0.0000 0.0000 29.1695 0.0000 0.0000
# 5 0.0000 0.0000 0.0000 0.0000 28.8443 0.0000
# 6 0.0000 0.0000 0.0000 0.0000 0.0000 -11.4185
#
#
#
# Elastic Compliance Matrix: (Units=1/GPa)
#
#
# Indices 1 2 3 4 5 6 
#
# 1 0.014171 0.000835 -0.006596 0.000000 0.000000 0.000000
# 2 0.000835 0.075925 -0.008031 0.000000 0.000000 0.000000
# 3 -0.006596 -0.008031 0.013538 0.000000 0.000000 0.000000
# 4 0.000000 0.000000 0.000000 0.034282 0.000000 0.000000
# 5 0.000000 0.000000 0.000000 0.000000 0.034669 0.000000
# 6 0.000000 0.000000 0.000000 0.000000 0.000000 -0.087577
#
#
# Mechanical properties :
#
#
# Convention : Reuss Voigt Hill
#
# Bulk Modulus (GPa) = 13.14952 37.03096 25.09024
# Shear Modulus (GPa) = 36.24707 19.18329 27.71518
#
# Velocity S-wave (km/s) = 4.13700 3.00961 3.61749
# Velocity P-wave (km/s) = 5.38781 5.43708 5.41250
#
# Compressibility (1/GPa) = 0.07604839
#
# Stress axis : x y z
#
# Youngs Moduli (GPa) = 70.56556 13.17093 73.86879
#
# Poissons Ratio (x) = -0.01100 0.48726
# Poissons Ratio (y) = -0.05893 0.59327
# Poissons Ratio (z) = 0.46547 0.10578
#
# Static dielectric constant tensor:
#      x y z
#    x 1.796490 0.000000 0.000000 
#    y 0.000000 1.794130 0.000000 
#    z 0.000000 0.000000 1.715940 
# 
# From -- ./inp_files/5565.got.cif
#   From: 2010.05.17/outbox.cif.g08.bks.cpg/sg57_3_cif.got.tgz:5565.got - 2010.06.03 13:58:18.
