data_PCOD9436403
_publ_section_title
;
Structure prediction by ZEFSAII (Michael W. Deem and Ramdas Pophale) SiO2 
 PCOD9436403
Probable space group: P B C M
;
_chemical_formula_sum "Si O2"
_cell_formula_units_Z 56
_cell_length_a 9.090147
_cell_length_b 12.877696
_cell_length_c 21.652012
_cell_angle_alpha 90.000000
_cell_angle_beta 90.000000
_cell_angle_gamma 90.000000
_cell_volume 2534.587765
_symmetry_space_group_name_H-M "P B C M"
_symmetry_group_IT_number 57
_symmetry_cell_setting 'orthorhombic'
loop_
_space_group_symop_operation_xyz
x,y,z
-x,-y,1/2+z
x,1/2-y,-z
-x,1/2+y,1/2-z
-x,-y,-z
x,y,1/2-z
-x,1/2+y,z
x,1/2-y,1/2+z
loop_
_atom_site_type_symbol
_atom_site_label
_atom_site_fract_x
_atom_site_fract_y
_atom_site_fract_z
Si Si1 0.493048 0.347867 0.956561
Si Si2 0.879102 0.479946 0.617674
Si Si3 0.182535 0.175689 0.819630
Si Si4 0.126766 0.766178 0.822011
Si Si5 0.582040 0.641744 0.181726
Si Si6 0.739969 0.001049 0.994707
Si Si7 0.792765 0.454387 0.356292
O O1 0.500030 0.336676 0.882633
O O2 0.610426 0.435830 0.972353
O O3 0.524673 0.250000 0.000000
O O4 0.330220 0.389989 0.975954
O O5 0.777846 0.573152 0.642991
O O6 0.831094 0.366418 0.638955
O O7 0.870663 0.494630 0.544164
O O8 0.040251 0.500953 0.647730
O O9 0.146091 0.141737 0.750000
O O10 0.305899 0.261931 0.816686
O O11 0.035330 0.230015 0.844992
O O12 0.116753 0.795725 0.750000
O O13 0.219214 0.660349 0.828117
O O14 0.507945 0.636804 0.250000
O O15 0.677494 0.536285 0.171782
O O16 0.770360 0.054437 0.929572
#
# Coordination Sequence:
#
# PCOD9436403 Si02
#       7
#     8   8   8   8   8   8   8
#     4  10  22  41  63  81 113 157 201 250 292 339
#     4  11  20  34  56  87 120 150 188 236 284 357
#     4   9  18  32  53  81 115 151 184 227 285 345
#     4  10  20  32  52  85 120 153 182 224 292 350
#     4  10  19  37  63  87 113 153 201 245 289 347
#     4  10  23  39  58  84 112 154 198 237 294 345
#     4  10  21  36  57  87 121 151 187 236 292 360
#
# _framework density 22.094324
#
# number of rings (size 3 to 8) (size 9 to 14) (size 15 to 20)
#    0.000    2.000    1.429    2.143    2.000    1.143 
#    0.000    1.429    0.000    5.143    0.000    0.000 
#    0.000    0.000    0.000    0.000    0.000    0.000 
#
# Total GULP energy -312562.544002 kJ/mol
# GULP energy per Si atom -5581.474000 kJ/mol
# Density = 2.204404 g / cm^3
# Si number density = 22.094324 Si / 1000 Ang^3
#
#
#
# Elastic Constant Matrix: (Units=GPa)
#
#
# Indices 1 2 3 4 5 6 
#
# 1 28.0731 15.9522 12.6866 0.0000 0.0000 0.0000
# 2 15.9522 100.1840 54.3791 0.0000 0.0000 0.0000
# 3 12.6866 54.3791 138.3575 0.0000 0.0000 0.0000
# 4 0.0000 0.0000 0.0000 29.5482 0.0000 0.0000
# 5 0.0000 0.0000 0.0000 0.0000 16.9645 0.0000
# 6 0.0000 0.0000 0.0000 0.0000 0.0000 10.1619
#
#
#
# Elastic Compliance Matrix: (Units=1/GPa)
#
#
# Indices 1 2 3 4 5 6 
#
# 1 0.039395 -0.005481 -0.001458 0.000000 0.000000 0.000000
# 2 -0.005481 0.013451 -0.004784 0.000000 0.000000 0.000000
# 3 -0.001458 -0.004784 0.009242 0.000000 0.000000 0.000000
# 4 0.000000 0.000000 0.000000 0.033843 0.000000 0.000000
# 5 0.000000 0.000000 0.000000 0.000000 0.058947 0.000000
# 6 0.000000 0.000000 0.000000 0.000000 0.000000 0.098407
#
#
# Mechanical properties :
#
#
# Convention : Reuss Voigt Hill
#
# Bulk Modulus (GPa) = 25.87941 48.07227 36.97584
# Shear Modulus (GPa) = 17.26447 23.57470 20.41959
#
# Velocity S-wave (km/s) = 2.79838 3.27004 3.04336
# Velocity P-wave (km/s) = 4.70955 6.00521 5.39641
#
# Compressibility (1/GPa) = 0.03864076
#
# Stress axis : x y z
#
# Youngs Moduli (GPa) = 25.38398 74.34255 108.20562
#
# Poissons Ratio (x) = 0.40751 0.15775
# Poissons Ratio (y) = 0.13914 0.51767
# Poissons Ratio (z) = 0.03701 0.35567
#
# Static dielectric constant tensor:
#      x y z
#    x 1.870280 0.000000 0.000000 
#    y 0.000000 1.788890 0.000000 
#    z 0.000000 0.000000 -0.146800 
# 
# From -- ./inp_files/25024.got.cif
#   From: 2010.05.17/outbox.cif.g08.bks.cpg/sg57_13_cif.got.tgz:25024.got - 2010.06.03 13:58:18.
