data_PCOD9436074
_publ_section_title
;
Structure prediction by ZEFSAII (Michael W. Deem and Ramdas Pophale) SiO2 
 PCOD9436074
Probable space group: P B C M
;
_chemical_formula_sum "Si O2"
_cell_formula_units_Z 64
_cell_length_a 16.015193
_cell_length_b 24.470405
_cell_length_c 7.866341
_cell_angle_alpha 90.000000
_cell_angle_beta 90.000000
_cell_angle_gamma 90.000000
_cell_volume 3082.805342
_symmetry_space_group_name_H-M "P B C M"
_symmetry_group_IT_number 57
_symmetry_cell_setting 'orthorhombic'
loop_
_space_group_symop_operation_xyz
x,y,z
-x,-y,1/2+z
x,1/2-y,-z
-x,1/2+y,1/2-z
-x,-y,-z
x,y,1/2-z
-x,1/2+y,z
x,1/2-y,1/2+z
loop_
_atom_site_type_symbol
_atom_site_label
_atom_site_fract_x
_atom_site_fract_y
_atom_site_fract_z
Si Si1 0.501232 0.813153 0.547491
Si Si2 0.597368 0.497528 0.045111
Si Si3 0.338960 0.618952 0.545865
Si Si4 0.844264 0.373758 0.049011
Si Si5 0.841070 0.889266 0.454202
Si Si6 0.007858 0.186836 0.955404
Si Si7 0.902513 0.493681 0.953792
Si Si8 0.343882 0.114630 0.454855
O O1 0.505787 0.750000 0.500000
O O2 0.502706 0.817495 0.750000
O O3 0.415150 0.840655 0.489129
O O4 0.581469 0.846807 0.480809
O O5 0.603936 0.497055 0.250000
O O6 0.637076 0.441380 0.979554
O O7 0.640496 0.552848 0.981773
O O8 0.500000 0.500000 0.000000
O O9 0.331533 0.614429 0.750000
O O10 0.248355 0.636651 0.478458
O O11 0.841460 0.361728 0.250000
O O12 0.920810 0.338357 0.977940
O O13 0.866281 0.437708 0.027890
O O14 0.847654 0.891334 0.250000
O O15 0.749343 0.868347 0.498666
O O16 0.914886 0.850023 0.517681
O O17 0.855939 0.951442 0.515870
O O18 0.007294 0.182252 0.750000
O O19 0.016923 0.250000 0.000000
O O20 0.895343 0.490514 0.750000
O O21 0.000000 0.500000 0.000000
O O22 0.349172 0.113708 0.250000
#
# Coordination Sequence:
#
# PCOD9436074 Si02
#       8
#     8   8   8   8   8   8   8   8
#     4  11  24  42  62  84 117 155 200 250 294 348
#     4  10  19  34  57  87 119 150 188 231 286 348
#     4  10  21  37  62  90 118 157 194 236 298 353
#     4  10  21  40  62  87 123 156 191 243 295 351
#     4  10  22  39  59  86 119 154 192 240 292 344
#     4  10  22  41  60  82 115 152 195 243 291 342
#     4  11  21  36  60  90 122 157 196 238 293 354
#     4  10  22  39  60  88 118 153 194 239 292 349
#
# _framework density 20.760311999999999
#
# number of rings (size 3 to 8) (size 9 to 14) (size 15 to 20)
#    0.000    1.750    2.500    1.500    0.000    6.000 
#    0.000    3.750    0.000    0.000    0.000    0.000 
#    0.000    0.000    0.000    0.000    0.000    0.000 
#
# Total GULP energy -357622.223585 kJ/mol
# GULP energy per Si atom -5587.847244 kJ/mol
# Density = 2.071306 g / cm^3
# Si number density = 20.760312 Si / 1000 Ang^3
#
#
#
# Elastic Constant Matrix: (Units=GPa)
#
#
# Indices 1 2 3 4 5 6 
#
# 1 168.1854 51.1956 -5.4201 0.0000 0.0000 0.0000
# 2 51.1956 110.7104 -10.8696 0.0000 0.0000 0.0000
# 3 -5.4201 -10.8696 16.1932 0.0000 0.0000 0.0000
# 4 0.0000 0.0000 0.0000 17.6076 0.0000 0.0000
# 5 0.0000 0.0000 0.0000 0.0000 18.9810 0.0000
# 6 0.0000 0.0000 0.0000 0.0000 0.0000 2.0588
#
#
#
# Elastic Compliance Matrix: (Units=1/GPa)
#
#
# Indices 1 2 3 4 5 6 
#
# 1 0.006920 -0.003182 0.000180 0.000000 0.000000 0.000000
# 2 -0.003182 0.011133 0.006408 0.000000 0.000000 0.000000
# 3 0.000180 0.006408 0.066116 0.000000 0.000000 0.000000
# 4 0.000000 0.000000 0.000000 0.056794 0.000000 0.000000
# 5 0.000000 0.000000 0.000000 0.000000 0.052684 0.000000
# 6 0.000000 0.000000 0.000000 0.000000 0.000000 0.485729
#
#
# Mechanical properties :
#
#
# Convention : Reuss Voigt Hill
#
# Bulk Modulus (GPa) = 10.99131 40.54454 25.76793
# Shear Modulus (GPa) = 7.11347 25.07503 16.09425
#
# Velocity S-wave (km/s) = 1.85308 3.47916 2.78734
# Velocity P-wave (km/s) = 3.14395 5.97592 4.77473
#
# Compressibility (1/GPa) = 0.09098094
#
# Stress axis : x y z
#
# Youngs Moduli (GPa) = 144.50092 89.81988 15.12495
#
# Poissons Ratio (x) = 0.28585 -0.00272
# Poissons Ratio (y) = 0.45987 -0.09692
# Poissons Ratio (z) = -0.02602 -0.57557
#
# Static dielectric constant tensor:
#      x y z
#    x 1.746750 0.000000 0.000000 
#    y 0.000000 1.765480 0.000000 
#    z 0.000000 0.000000 1.738980 
# 
# From -- ./inp_files/5685.got.cif
#   From: 2010.05.17/outbox.cif.g08.bks.cpg/sg57_3_cif.got.tgz:5685.got - 2010.06.03 13:58:18.
