data_PCOD9436206
_publ_section_title
;
Structure prediction by ZEFSAII (Michael W. Deem and Ramdas Pophale) SiO2 
 PCOD9436206
Probable space group: P B C M
;
_chemical_formula_sum "Si O2"
_cell_formula_units_Z 60
_cell_length_a 9.460262
_cell_length_b 27.796450
_cell_length_c 11.621456
_cell_angle_alpha 90.000000
_cell_angle_beta 90.000000
_cell_angle_gamma 90.000000
_cell_volume 3055.997822
_symmetry_space_group_name_H-M "P B C M"
_symmetry_group_IT_number 57
_symmetry_cell_setting 'orthorhombic'
loop_
_space_group_symop_operation_xyz
x,y,z
-x,-y,1/2+z
x,1/2-y,-z
-x,1/2+y,1/2-z
-x,-y,-z
x,y,1/2-z
-x,1/2+y,z
x,1/2-y,1/2+z
loop_
_atom_site_type_symbol
_atom_site_label
_atom_site_fract_x
_atom_site_fract_y
_atom_site_fract_z
Si Si1 0.524376 0.105729 0.038042
Si Si2 0.002201 0.381931 0.017282
Si Si3 0.247105 0.947552 0.114649
Si Si4 0.355523 0.750000 0.500000
Si Si5 0.577344 0.692100 0.621974
Si Si6 0.762094 0.560390 0.115836
Si Si7 0.774476 0.334794 0.873961
Si Si8 0.903609 0.718623 0.884421
O O1 0.399454 0.076813 0.097932
O O2 0.641891 0.129084 0.120606
O O3 0.617758 0.073105 0.952757
O O4 0.453789 0.150219 0.969129
O O5 0.915792 0.362057 0.907695
O O6 0.138865 0.409435 0.970057
O O7 0.891572 0.417215 0.079681
O O8 0.039561 0.335522 0.094203
O O9 0.271402 0.942297 0.250000
O O10 0.224878 0.003812 0.089419
O O11 0.461153 0.733408 0.600621
O O12 0.260234 0.705302 0.467327
O O13 0.562007 0.671974 0.750000
O O14 0.733122 0.713963 0.611001
O O15 0.801430 0.568131 0.250000
O O16 0.785003 0.311766 0.750000
O O17 0.939023 0.733799 0.750000
O O18 0.943333 0.750000 0.000000
#
# Coordination Sequence:
#
# PCOD9436206 Si02
#       8
#     8   8   8   4   8   8   8   8
#     4  10  20  38  60  88 121 155 206 258 319 368
#     4  11  23  42  61  88 127 168 205 258 315 381
#     4  10  22  40  63  90 122 163 209 263 320 384
#     4  10  20  36  56  84 114 154 210 252 316 362
#     4  10  19  35  58  84 117 154 200 253 311 367
#     4  11  22  38  63  93 124 163 211 260 321 382
#     4  10  22  38  58  84 120 162 207 254 314 379
#     4  11  24  42  63  93 125 163 213 261 315 377
#
# _framework density 19.633521999999999
#
# number of rings (size 3 to 8) (size 9 to 14) (size 15 to 20)
#    0.000    1.600    2.000    2.800    0.933    1.067 
#    0.000    1.333    0.000    6.400    0.000    0.000 
#    0.000    0.000    0.000    0.000    0.000    0.000 
#
# Total GULP energy -334873.424510 kJ/mol
# GULP energy per Si atom -5581.223742 kJ/mol
# Density = 1.958884 g / cm^3
# Si number density = 19.633522 Si / 1000 Ang^3
#
#
#
# Elastic Constant Matrix: (Units=GPa)
#
#
# Indices 1 2 3 4 5 6 
#
# 1 89.8777 32.8388 14.7650 0.0000 0.0000 0.0000
# 2 32.8388 87.3266 30.5169 0.0000 0.0000 0.0000
# 3 14.7650 30.5169 79.3784 0.0000 0.0000 0.0000
# 4 0.0000 0.0000 0.0000 17.5038 0.0000 0.0000
# 5 0.0000 0.0000 0.0000 0.0000 -8.1438 0.0000
# 6 0.0000 0.0000 0.0000 0.0000 0.0000 28.5588
#
#
#
# Elastic Compliance Matrix: (Units=1/GPa)
#
#
# Indices 1 2 3 4 5 6 
#
# 1 0.012925 -0.004644 -0.000619 0.000000 0.000000 0.000000
# 2 -0.004644 0.014897 -0.004863 0.000000 0.000000 0.000000
# 3 -0.000619 -0.004863 0.014583 0.000000 0.000000 0.000000
# 4 0.000000 0.000000 0.000000 0.057131 0.000000 0.000000
# 5 0.000000 0.000000 0.000000 0.000000 -0.122792 0.000000
# 6 0.000000 0.000000 0.000000 0.000000 0.000000 0.035015
#
#
# Mechanical properties :
#
#
# Convention : Reuss Voigt Hill
#
# Bulk Modulus (GPa) = 45.14205 45.86936 45.50571
# Shear Modulus (GPa) = 126.92019 19.48121 73.20070
#
# Velocity S-wave (km/s) = 8.04891 3.15340 6.11265
# Velocity P-wave (km/s) = 10.46051 6.05575 8.54676
#
# Compressibility (1/GPa) = 0.02215230
#
# Stress axis : x y z
#
# Youngs Moduli (GPa) = 77.37131 67.12675 68.57448
#
# Poissons Ratio (x) = 0.31174 0.04243
# Poissons Ratio (y) = 0.35932 0.33350
# Poissons Ratio (z) = 0.04787 0.32646
#
# Static dielectric constant tensor:
#      x y z
#    x 1.666530 0.000000 0.000000 
#    y 0.000000 1.684730 0.000000 
#    z 0.000000 0.000000 1.689230 
# 
# From -- ./inp_files/12177.got.cif
#   From: 2010.05.17/outbox.cif.g08.bks.cpg/sg57_7_cif.got.tgz:12177.got - 2010.06.03 13:58:18.
