data_PCOD9436044
_publ_section_title
;
Structure prediction by ZEFSAII (Michael W. Deem and Ramdas Pophale) SiO2 
 PCOD9436044
Probable space group: P B C M
;
_chemical_formula_sum "Si O2"
_cell_formula_units_Z 48
_cell_length_a 10.293865
_cell_length_b 14.887441
_cell_length_c 14.701751
_cell_angle_alpha 90.000000
_cell_angle_beta 90.000000
_cell_angle_gamma 90.000000
_cell_volume 2253.033165
_symmetry_space_group_name_H-M "P B C M"
_symmetry_group_IT_number 57
_symmetry_cell_setting 'orthorhombic'
loop_
_space_group_symop_operation_xyz
x,y,z
-x,-y,1/2+z
x,1/2-y,-z
-x,1/2+y,1/2-z
-x,-y,-z
x,y,1/2-z
-x,1/2+y,z
x,1/2-y,1/2+z
loop_
_atom_site_type_symbol
_atom_site_label
_atom_site_fract_x
_atom_site_fract_y
_atom_site_fract_z
Si Si1 0.027611 0.767473 0.353115
Si Si2 0.525998 0.799629 0.143245
Si Si3 0.094461 0.073639 0.962100
Si Si4 0.767647 0.687952 0.089580
Si Si5 0.664913 0.521024 0.641755
Si Si6 0.702218 0.320959 0.861044
O O1 0.053307 0.801311 0.250000
O O2 0.995013 0.845054 0.425419
O O3 0.893284 0.712029 0.351580
O O4 0.149378 0.705849 0.381286
O O5 0.506784 0.815236 0.250000
O O6 0.634984 0.720897 0.134246
O O7 0.578646 0.894937 0.105454
O O8 0.393504 0.757884 0.106499
O O9 0.186184 0.047565 0.878196
O O10 0.197794 0.093777 0.043678
O O11 0.000000 0.000000 0.000000
O O12 0.771423 0.750000 0.000000
O O13 0.643284 0.517740 0.750000
O O14 0.654425 0.418967 0.605875
O O15 0.694673 0.324495 0.750000
#
# Coordination Sequence:
#
# PCOD9436044 Si02
#       6
#     8   8   8   8   8   8
#     4  10  19  37  61  84 113 152 197 245 295 353
#     4  10  19  37  61  84 114 155 196 245 295 351
#     4  11  22  36  57  86 122 155 195 245 300 353
#     4  10  19  34  57  81 114 147 191 234 290 350
#     4  10  19  37  63  84 114 160 201 241 303 363
#     4   9  20  36  59  89 115 147 200 252 297 349
#
# _framework density 21.304614000000001
#
# number of rings (size 3 to 8) (size 9 to 14) (size 15 to 20)
#    0.000    2.000    3.333    2.000    0.000    0.000 
#    3.000    7.500    0.000    0.000    0.000    0.000 
#    0.000    0.000    0.000    0.000    0.000    0.000 
#
# Total GULP energy -267296.182275 kJ/mol
# GULP energy per Si atom -5568.670464 kJ/mol
# Density = 2.125612 g / cm^3
# Si number density = 21.304614 Si / 1000 Ang^3
#
#
#
# Elastic Constant Matrix: (Units=GPa)
#
#
# Indices 1 2 3 4 5 6 
#
# 1 75.3917 11.9016 -1.4374 0.0000 0.0000 0.0000
# 2 11.9016 68.5606 10.9007 0.0000 0.0000 0.0000
# 3 -1.4374 10.9007 45.6233 0.0000 0.0000 0.0000
# 4 0.0000 0.0000 0.0000 19.9062 0.0000 0.0000
# 5 0.0000 0.0000 0.0000 0.0000 -8.7429 0.0000
# 6 0.0000 0.0000 0.0000 0.0000 0.0000 17.1769
#
#
#
# Elastic Compliance Matrix: (Units=1/GPa)
#
#
# Indices 1 2 3 4 5 6 
#
# 1 0.013685 -0.002541 0.001038 0.000000 0.000000 0.000000
# 2 -0.002541 0.015633 -0.003815 0.000000 0.000000 0.000000
# 3 0.001038 -0.003815 0.022863 0.000000 0.000000 0.000000
# 4 0.000000 0.000000 0.000000 0.050235 0.000000 0.000000
# 5 0.000000 0.000000 0.000000 0.000000 -0.114379 0.000000
# 6 0.000000 0.000000 0.000000 0.000000 0.000000 0.058218
#
#
# Mechanical properties :
#
#
# Convention : Reuss Voigt Hill
#
# Bulk Modulus (GPa) = 24.06995 25.81173 24.94084
# Shear Modulus (GPa) = 70.68167 16.88209 43.78188
#
# Velocity S-wave (km/s) = 5.76617 2.81804 4.53818
# Velocity P-wave (km/s) = 7.46017 4.76763 6.26037
#
# Compressibility (1/GPa) = 0.04154558
#
# Stress axis : x y z
#
# Youngs Moduli (GPa) = 73.07306 63.96608 43.73899
#
# Poissons Ratio (x) = 0.16252 -0.04541
# Poissons Ratio (y) = 0.18565 0.16688
# Poissons Ratio (z) = -0.07586 0.24405
#
# Static dielectric constant tensor:
#      x y z
#    x 1.770680 0.000000 0.000000 
#    y 0.000000 1.836200 0.000000 
#    z 0.000000 0.000000 1.993210 
# 
# From -- ./inp_files/20971.got.cif
#   From: 2010.05.17/outbox.cif.g08.bks.cpg/sg57_11_cif.got.tgz:20971.got - 2010.06.03 13:58:18.
