data_PCOD9436927
_publ_section_title
;
Structure prediction by ZEFSAII (Michael W. Deem and Ramdas Pophale) SiO2 
 PCOD9436927
Probable space group: P B C M
;
_chemical_formula_sum "Si O2"
_cell_formula_units_Z 40
_cell_length_a 13.404428
_cell_length_b 18.815819
_cell_length_c 8.817484
_cell_angle_alpha 90.000000
_cell_angle_beta 90.000000
_cell_angle_gamma 90.000000
_cell_volume 2223.904293
_symmetry_space_group_name_H-M "P B C M"
_symmetry_group_IT_number 57
_symmetry_cell_setting 'orthorhombic'
loop_
_space_group_symop_operation_xyz
x,y,z
-x,-y,1/2+z
x,1/2-y,-z
-x,1/2+y,1/2-z
-x,-y,-z
x,y,1/2-z
-x,1/2+y,z
x,1/2-y,1/2+z
loop_
_atom_site_type_symbol
_atom_site_label
_atom_site_fract_x
_atom_site_fract_y
_atom_site_fract_z
Si Si1 0.605988 0.586001 0.929088
Si Si2 0.212212 0.670703 0.931651
Si Si3 0.393766 0.583765 0.429374
Si Si4 0.211542 0.170718 0.430693
Si Si5 0.009144 0.170456 0.931562
O O1 0.612136 0.601147 0.750000
O O2 0.616327 0.501118 0.951310
O O3 0.497162 0.606490 0.992046
O O4 0.693733 0.626014 0.015845
O O5 0.221183 0.675110 0.750000
O O6 0.100925 0.640522 0.965939
O O7 0.218707 0.750000 0.000000
O O8 0.299706 0.623466 0.999818
O O9 0.399576 0.597715 0.250000
O O10 0.220373 0.250000 0.500000
O O11 0.206245 0.175398 0.250000
O O12 0.108128 0.137769 0.494947
O O13 0.021095 0.173670 0.750000
O O14 0.005979 0.250000 0.000000
#
# Coordination Sequence:
#
# PCOD9436927 Si02
#       5
#     8   8   8   8   8
#     4  10  21  38  57  77 105 139 175 216 263 315
#     4  10  20  34  55  81 109 140 176 217 259 309
#     4  10  21  37  57  79 105 138 175 216 264 315
#     4  11  21  34  55  81 108 138 175 217 261 310
#     4   9  17  31  51  76 106 139 173 211 259 309
#
# _framework density 17.986384999999999
#
# number of rings (size 3 to 8) (size 9 to 14) (size 15 to 20)
#    0.000    2.000    0.000    5.400    0.000    5.600 
#    0.000    5.000    0.000    0.000    0.000    0.000 
#    0.000    0.000    0.000    0.000    0.000    0.000 
#
# Total GULP energy -223224.499093 kJ/mol
# GULP energy per Si atom -5580.612477 kJ/mol
# Density = 1.794545 g / cm^3
# Si number density = 17.986385 Si / 1000 Ang^3
#
#
#
# Elastic Constant Matrix: (Units=GPa)
#
#
# Indices 1 2 3 4 5 6 
#
# 1 201.4377 50.8645 95.8712 0.0000 0.0000 0.0000
# 2 50.8645 21.9246 42.8157 0.0000 0.0000 0.0000
# 3 95.8712 42.8157 129.0845 0.0000 0.0000 0.0000
# 4 0.0000 0.0000 0.0000 24.8577 0.0000 0.0000
# 5 0.0000 0.0000 0.0000 0.0000 -79.6055 0.0000
# 6 0.0000 0.0000 0.0000 0.0000 0.0000 60.4940
#
#
#
# Elastic Compliance Matrix: (Units=1/GPa)
#
#
# Indices 1 2 3 4 5 6 
#
# 1 0.012023 -0.029681 0.000915 0.000000 0.000000 0.000000
# 2 -0.029681 0.202748 -0.045205 0.000000 0.000000 0.000000
# 3 0.000915 -0.045205 0.022061 0.000000 0.000000 0.000000
# 4 0.000000 0.000000 0.000000 0.040229 0.000000 0.000000
# 5 0.000000 0.000000 0.000000 0.000000 -0.012562 0.000000
# 6 0.000000 0.000000 0.000000 0.000000 0.000000 0.016531
#
#
# Mechanical properties :
#
#
# Convention : Reuss Voigt Hill
#
# Bulk Modulus (GPa) = 11.24972 81.28328 46.26650
# Shear Modulus (GPa) = 10.90268 12.00895 11.45582
#
# Velocity S-wave (km/s) = 2.46471 2.58673 2.52646
# Velocity P-wave (km/s) = 3.79050 7.36283 5.85573
#
# Compressibility (1/GPa) = 0.08889107
#
# Stress axis : x y z
#
# Youngs Moduli (GPa) = 83.17060 4.93223 45.32807
#
# Poissons Ratio (x) = 0.14639 -0.04147
# Poissons Ratio (y) = 2.46856 2.04906
# Poissons Ratio (z) = -0.07609 0.22296
#
# Static dielectric constant tensor:
#      x y z
#    x 1.635720 0.000000 0.000000 
#    y 0.000000 1.589710 0.000000 
#    z 0.000000 0.000000 1.597440 
# 
# From -- ./inp_files/2623.got.cif
#   From: 2010.05.17/outbox.cif.g08.bks.cpg/sg57_2_cif.got.tgz:2623.got - 2010.06.03 13:58:18.
