data_PCOD9436613
_publ_section_title
;
Structure prediction by ZEFSAII (Michael W. Deem and Ramdas Pophale) SiO2 
 PCOD9436613
Probable space group: P B C M
;
_chemical_formula_sum "Si O2"
_cell_formula_units_Z 64
_cell_length_a 30.891236
_cell_length_b 13.967641
_cell_length_c 8.788366
_cell_angle_alpha 90.000000
_cell_angle_beta 90.000000
_cell_angle_gamma 90.000000
_cell_volume 3791.983900
_symmetry_space_group_name_H-M "P B C M"
_symmetry_group_IT_number 57
_symmetry_cell_setting 'orthorhombic'
loop_
_space_group_symop_operation_xyz
x,y,z
-x,-y,1/2+z
x,1/2-y,-z
-x,1/2+y,1/2-z
-x,-y,-z
x,y,1/2-z
-x,1/2+y,z
x,1/2-y,1/2+z
loop_
_atom_site_type_symbol
_atom_site_label
_atom_site_fract_x
_atom_site_fract_y
_atom_site_fract_z
Si Si1 0.890737 0.653489 0.575520
Si Si2 0.354379 0.147319 0.068009
Si Si3 0.431053 0.029826 0.568768
Si Si4 0.121857 0.855057 0.067592
Si Si5 0.954549 0.025596 0.424353
Si Si6 0.519113 0.144897 0.568464
Si Si7 0.816882 0.531380 0.431013
Si Si8 0.259017 0.353570 0.432024
O O1 0.907247 0.750000 0.500000
O O2 0.876750 0.669332 0.750000
O O3 0.926888 0.571967 0.575451
O O4 0.851251 0.612994 0.477014
O O5 0.351787 0.153292 0.250000
O O6 0.368600 0.250000 0.000000
O O7 0.388864 0.069074 0.015008
O O8 0.306914 0.128932 0.998545
O O9 0.424089 0.026998 0.750000
O O10 0.471335 0.101469 0.537599
O O11 0.446914 0.927594 0.507539
O O12 0.120944 0.850894 0.250000
O O13 0.159541 0.931614 0.023467
O O14 0.129184 0.750000 0.000000
O O15 0.076121 0.897942 0.009048
O O16 0.960979 0.056846 0.250000
O O17 0.000000 0.000000 0.500000
O O18 0.522559 0.250000 0.500000
O O19 0.525125 0.146138 0.750000
O O20 0.810068 0.529991 0.250000
O O21 0.773242 0.562791 0.514904
O O22 0.244816 0.250000 0.500000
O O23 0.260348 0.346667 0.250000
#
# Coordination Sequence:
#
# PCOD9436613 Si02
#       8
#     8   8   8   8   8   8   8   8
#     4  10  20  33  50  73  99 130 163 199 242 291
#     4  11  21  34  52  76 107 140 175 213 258 312
#     4  10  20  34  52  75 104 138 177 219 265 315
#     4  10  21  37  58  80 104 135 173 215 259 304
#     4  10  21  36  53  74 103 135 171 210 251 298
#     4  10  20  33  51  75 103 137 177 221 266 313
#     4  10  20  35  54  77 104 133 165 205 250 299
#     4  11  21  34  53  78 108 140 172 208 254 308
#
# _framework density 16.87771
#
# number of rings (size 3 to 8) (size 9 to 14) (size 15 to 20)
#    0.000    1.750    0.000    6.000    0.000    6.000 
#    0.000    1.250    0.000    0.750    0.000    3.500 
#    0.000    0.000    0.000    0.000    0.000    0.000 
#
# Total GULP energy -357350.446585 kJ/mol
# GULP energy per Si atom -5583.600728 kJ/mol
# Density = 1.683930 g / cm^3
# Si number density = 16.877710 Si / 1000 Ang^3
#
#
#
# Elastic Constant Matrix: (Units=GPa)
#
#
# Indices 1 2 3 4 5 6 
#
# 1 84.1094 52.4948 52.1088 0.0000 0.0000 0.0000
# 2 52.4948 110.4353 59.2535 0.0000 0.0000 0.0000
# 3 52.1088 59.2535 116.2425 0.0000 0.0000 0.0000
# 4 0.0000 0.0000 0.0000 30.6668 0.0000 0.0000
# 5 0.0000 0.0000 0.0000 0.0000 29.1076 0.0000
# 6 0.0000 0.0000 0.0000 0.0000 0.0000 14.8701
#
#
#
# Elastic Compliance Matrix: (Units=1/GPa)
#
#
# Indices 1 2 3 4 5 6 
#
# 1 0.019096 -0.006172 -0.005414 0.000000 0.000000 0.000000
# 2 -0.006172 0.014459 -0.004603 0.000000 0.000000 0.000000
# 3 -0.005414 -0.004603 0.013376 0.000000 0.000000 0.000000
# 4 0.000000 0.000000 0.000000 0.032609 0.000000 0.000000
# 5 0.000000 0.000000 0.000000 0.000000 0.034355 0.000000
# 6 0.000000 0.000000 0.000000 0.000000 0.000000 0.067249
#
#
# Mechanical properties :
#
#
# Convention : Reuss Voigt Hill
#
# Bulk Modulus (GPa) = 68.72070 70.94459 69.83265
# Shear Modulus (GPa) = 22.89657 24.72423 23.81040
#
# Velocity S-wave (km/s) = 3.68722 3.83156 3.76008
# Velocity P-wave (km/s) = 7.67676 7.85495 7.76637
#
# Compressibility (1/GPa) = 0.01455166
#
# Stress axis : x y z
#
# Youngs Moduli (GPa) = 52.36807 69.16129 74.75961
#
# Poissons Ratio (x) = 0.42688 0.40474
# Poissons Ratio (y) = 0.32323 0.34415
# Poissons Ratio (z) = 0.28352 0.31838
#
# Static dielectric constant tensor:
#      x y z
#    x 1.558720 0.000000 0.000000 
#    y 0.000000 1.557220 0.000000 
#    z 0.000000 0.000000 1.570710 
# 
# From -- ./inp_files/10305.got.cif
#   From: 2010.05.17/outbox.cif.g08.bks.cpg/sg57_6_cif.got.tgz:10305.got - 2010.06.03 13:58:18.
