data_PCOD9436894
_publ_section_title
;
Structure prediction by ZEFSAII (Michael W. Deem and Ramdas Pophale) SiO2 
 PCOD9436894
Probable space group: P B C M
;
_chemical_formula_sum "Si O2"
_cell_formula_units_Z 64
_cell_length_a 24.168603
_cell_length_b 15.123464
_cell_length_c 9.439638
_cell_angle_alpha 90.000000
_cell_angle_beta 90.000000
_cell_angle_gamma 90.000000
_cell_volume 3450.310380
_symmetry_space_group_name_H-M "P B C M"
_symmetry_group_IT_number 57
_symmetry_cell_setting 'orthorhombic'
loop_
_space_group_symop_operation_xyz
x,y,z
-x,-y,1/2+z
x,1/2-y,-z
-x,1/2+y,1/2-z
-x,-y,-z
x,y,1/2-z
-x,1/2+y,z
x,1/2-y,1/2+z
loop_
_atom_site_type_symbol
_atom_site_label
_atom_site_fract_x
_atom_site_fract_y
_atom_site_fract_z
Si Si1 0.875674 0.967812 0.419455
Si Si2 0.247978 0.467062 0.421105
Si Si3 0.442621 0.485816 0.079700
Si Si4 0.042329 0.158944 0.418908
Si Si5 0.742525 0.166445 0.411312
Si Si6 0.088447 0.661881 0.083720
Si Si7 0.390309 0.830434 0.908304
Si Si8 0.648912 0.656363 0.578207
O O1 0.886417 0.958244 0.250000
O O2 0.813844 0.933067 0.449904
O O3 0.920864 0.916742 0.510519
O O4 0.878872 0.072570 0.451264
O O5 0.253791 0.474975 0.250000
O O6 0.249892 0.568363 0.474089
O O7 0.298030 0.403802 0.465709
O O8 0.450820 0.484316 0.250000
O O9 0.406148 0.572056 0.042866
O O10 0.406523 0.399445 0.043690
O O11 0.500000 0.500000 0.000000
O O12 0.055743 0.250000 0.500000
O O13 0.051766 0.166023 0.250000
O O14 0.976844 0.142614 0.441466
O O15 0.763584 0.250000 0.500000
O O16 0.764666 0.169004 0.250000
O O17 0.675986 0.175893 0.403108
O O18 0.094915 0.679338 0.250000
O O19 0.103452 0.750000 0.000000
O O20 0.412209 0.820362 0.750000
O O21 0.412310 0.750000 0.000000
O O22 0.649919 0.750000 0.500000
O O23 0.651121 0.667089 0.750000
#
# Coordination Sequence:
#
# PCOD9436894 Si02
#       8
#     8   8   8   8   8   8   8   8
#     4  10  20  34  54  81 109 141 182 228 275 325
#     4   9  18  35  57  77 106 146 181 216 267 324
#     4  10  21  37  57  80 109 141 175 215 263 315
#     4  10  20  35  54  76 105 142 182 228 277 328
#     4   9  16  30  52  76 101 133 169 206 253 310
#     4   9  19  34  53  78 109 145 183 222 273 331
#     4   9  17  31  52  76 102 133 166 203 249 306
#     4  10  21  40  61  80 106 145 185 222 265 315
#
# _framework density 18.549057000000001
#
# number of rings (size 3 to 8) (size 9 to 14) (size 15 to 20)
#    0.000    2.500    1.250    0.750    0.000    3.500 
#    0.000    5.625    0.000    0.000    0.000    0.000 
#    0.000    0.000    0.000    0.000    0.000    0.000 
#
# Total GULP energy -356842.484201 kJ/mol
# GULP energy per Si atom -5575.663816 kJ/mol
# Density = 1.850684 g / cm^3
# Si number density = 18.549057 Si / 1000 Ang^3
#
#
#
# Elastic Constant Matrix: (Units=GPa)
#
#
# Indices 1 2 3 4 5 6 
#
# 1 102.6865 59.5923 41.3180 0.0000 0.0000 0.0000
# 2 59.5923 131.9230 49.8386 0.0000 0.0000 0.0000
# 3 41.3180 49.8386 38.4071 0.0000 0.0000 0.0000
# 4 0.0000 0.0000 0.0000 38.2596 0.0000 0.0000
# 5 0.0000 0.0000 0.0000 0.0000 -2.5710 0.0000
# 6 0.0000 0.0000 0.0000 0.0000 0.0000 -3.1887
#
#
#
# Elastic Compliance Matrix: (Units=1/GPa)
#
#
# Indices 1 2 3 4 5 6 
#
# 1 0.017329 -0.001540 -0.016644 0.000000 0.000000 0.000000
# 2 -0.001540 0.015007 -0.017817 0.000000 0.000000 0.000000
# 3 -0.016644 -0.017817 0.067062 0.000000 0.000000 0.000000
# 4 0.000000 0.000000 0.000000 0.026137 0.000000 0.000000
# 5 0.000000 0.000000 0.000000 0.000000 -0.388949 0.000000
# 6 0.000000 0.000000 0.000000 0.000000 0.000000 -0.313612
#
#
# Mechanical properties :
#
#
# Convention : Reuss Voigt Hill
#
# Bulk Modulus (GPa) = 36.50120 63.83495 50.16807
# Shear Modulus (GPa) = -10.08285 14.65117 2.28416
#
# Velocity S-wave (km/s) = -2.33400 2.81349 1.11090
# Velocity P-wave (km/s) = 3.52952 6.71142 5.36193
#
# Compressibility (1/GPa) = 0.02739636
#
# Stress axis : x y z
#
# Youngs Moduli (GPa) = 57.70584 66.63708 14.91155
#
# Poissons Ratio (x) = 0.10262 0.24819
# Poissons Ratio (y) = 0.08887 0.26567
# Poissons Ratio (z) = 0.96047 1.18724
#
# Static dielectric constant tensor:
#      x y z
#    x 1.658830 0.000000 0.000000 
#    y 0.000000 1.638790 0.000000 
#    z 0.000000 0.000000 1.628800 
# 
# From -- ./inp_files/9434.got.cif
#   From: 2010.05.17/outbox.cif.g08.bks.cpg/sg57_5_cif.got.tgz:9434.got - 2010.06.03 13:58:18.
