data_PCOD9436573
_publ_section_title
;
Structure prediction by ZEFSAII (Michael W. Deem and Ramdas Pophale) SiO2 
 PCOD9436573
Probable space group: P B C M
;
_chemical_formula_sum "Si O2"
_cell_formula_units_Z 64
_cell_length_a 23.758444
_cell_length_b 15.691256
_cell_length_c 8.615748
_cell_angle_alpha 90.000000
_cell_angle_beta 90.000000
_cell_angle_gamma 90.000000
_cell_volume 3211.949364
_symmetry_space_group_name_H-M "P B C M"
_symmetry_group_IT_number 57
_symmetry_cell_setting 'orthorhombic'
loop_
_space_group_symop_operation_xyz
x,y,z
-x,-y,1/2+z
x,1/2-y,-z
-x,1/2+y,1/2-z
-x,-y,-z
x,y,1/2-z
-x,1/2+y,z
x,1/2-y,1/2+z
loop_
_atom_site_type_symbol
_atom_site_label
_atom_site_fract_x
_atom_site_fract_y
_atom_site_fract_z
Si Si1 0.012319 0.905700 0.436062
Si Si2 0.101179 0.162021 0.063936
Si Si3 0.307382 0.474665 0.063774
Si Si4 0.863068 0.343151 0.437423
Si Si5 0.429243 0.435739 0.062872
Si Si6 0.340471 0.663270 0.068616
Si Si7 0.811226 0.518274 0.436530
Si Si8 0.545187 0.380249 0.430584
O O1 0.012168 0.909140 0.250000
O O2 0.961159 0.849113 0.496771
O O3 0.073137 0.869346 0.484383
O O4 0.000000 0.000000 0.500000
O O5 0.098735 0.163585 0.250000
O O6 0.138731 0.081293 0.014549
O O7 0.125713 0.250000 0.000000
O O8 0.302396 0.476983 0.250000
O O9 0.363574 0.420011 0.028808
O O10 0.318675 0.572269 0.006965
O O11 0.248536 0.447675 0.993168
O O12 0.848549 0.250000 0.500000
O O13 0.861405 0.340295 0.250000
O O14 0.823725 0.421634 0.490757
O O15 0.432889 0.455698 0.250000
O O16 0.479007 0.368239 0.032975
O O17 0.444250 0.519263 0.962845
O O18 0.330579 0.663937 0.250000
O O19 0.315989 0.750000 0.000000
O O20 0.407530 0.662371 0.035467
O O21 0.811537 0.516542 0.250000
O O22 0.555555 0.360189 0.250000
#
# Coordination Sequence:
#
# PCOD9436573 Si02
#       8
#     8   8   8   8   8   8   8   8
#     4  11  21  37  61  88 120 154 187 231 287 344
#     4  11  23  41  62  88 117 147 189 239 291 348
#     4   9  19  34  52  75 102 136 182 227 269 321
#     4  10  22  39  56  81 115 151 187 229 278 333
#     4   8  15  28  45  69  99 126 159 208 259 313
#     4  10  20  33  48  71 105 140 178 225 270 324
#     4  10  22  40  57  78 114 150 189 240 286 334
#     4   9  15  25  45  70  96 127 162 204 257 313
#
# _framework density 19.925594
#
# number of rings (size 3 to 8) (size 9 to 14) (size 15 to 20)
#    0.000    2.250    1.250    2.625    0.000    7.000 
#    0.000    2.500    0.000    0.750    0.000    1.750 
#    0.000    0.000    0.000    0.000    0.000    0.000 
#
# Total GULP energy -356897.204486 kJ/mol
# GULP energy per Si atom -5576.518820 kJ/mol
# Density = 1.988024 g / cm^3
# Si number density = 19.925594 Si / 1000 Ang^3
#
#
#
# Elastic Constant Matrix: (Units=GPa)
#
#
# Indices 1 2 3 4 5 6 
#
# 1 92.6981 -4.0587 5.4188 0.0000 0.0000 0.0000
# 2 -4.0587 52.0252 2.8914 0.0000 0.0000 0.0000
# 3 5.4188 2.8914 15.2276 0.0000 0.0000 0.0000
# 4 0.0000 0.0000 0.0000 25.5542 0.0000 0.0000
# 5 0.0000 0.0000 0.0000 0.0000 24.4098 0.0000
# 6 0.0000 0.0000 0.0000 0.0000 0.0000 2.4066
#
#
#
# Elastic Compliance Matrix: (Units=1/GPa)
#
#
# Indices 1 2 3 4 5 6 
#
# 1 0.011078 0.001095 -0.004150 0.000000 0.000000 0.000000
# 2 0.001095 0.019535 -0.004099 0.000000 0.000000 0.000000
# 3 -0.004150 -0.004099 0.067925 0.000000 0.000000 0.000000
# 4 0.000000 0.000000 0.000000 0.039133 0.000000 0.000000
# 5 0.000000 0.000000 0.000000 0.000000 0.040967 0.000000
# 6 0.000000 0.000000 0.000000 0.000000 0.000000 0.415517
#
#
# Mechanical properties :
#
#
# Convention : Reuss Voigt Hill
#
# Bulk Modulus (GPa) = 11.87224 18.71711 15.29468
# Shear Modulus (GPa) = 7.85497 20.85408 14.35453
#
# Velocity S-wave (km/s) = 1.98764 3.23863 2.68695
# Velocity P-wave (km/s) = 3.35244 4.83723 4.16159
#
# Compressibility (1/GPa) = 0.08423008
#
# Stress axis : x y z
#
# Youngs Moduli (GPa) = 90.26699 51.19108 14.72207
#
# Poissons Ratio (x) = -0.05605 0.06110
# Poissons Ratio (y) = -0.09883 0.06034
# Poissons Ratio (z) = 0.37462 0.20982
#
# Static dielectric constant tensor:
#      x y z
#    x 1.734500 0.000000 0.000000 
#    y 0.000000 1.729100 0.000000 
#    z 0.000000 0.000000 1.677730 
# 
# From -- ./inp_files/9295.got.cif
#   From: 2010.05.17/outbox.cif.g08.bks.cpg/sg57_5_cif.got.tgz:9295.got - 2010.06.03 13:58:18.
