data_PCOD9436830
_publ_section_title
;
Structure prediction by ZEFSAII (Michael W. Deem and Ramdas Pophale) SiO2 
 PCOD9436830
Probable space group: P B C M
;
_chemical_formula_sum "Si O2"
_cell_formula_units_Z 40
_cell_length_a 14.044780
_cell_length_b 18.704988
_cell_length_c 8.773350
_cell_angle_alpha 90.000000
_cell_angle_beta 90.000000
_cell_angle_gamma 90.000000
_cell_volume 2304.824331
_symmetry_space_group_name_H-M "P B C M"
_symmetry_group_IT_number 57
_symmetry_cell_setting 'orthorhombic'
loop_
_space_group_symop_operation_xyz
x,y,z
-x,-y,1/2+z
x,1/2-y,-z
-x,1/2+y,1/2-z
-x,-y,-z
x,y,1/2-z
-x,1/2+y,z
x,1/2-y,1/2+z
loop_
_atom_site_type_symbol
_atom_site_label
_atom_site_fract_x
_atom_site_fract_y
_atom_site_fract_z
Si Si1 0.885330 0.600410 0.934193
Si Si2 0.914758 0.171276 0.566403
Si Si3 0.791065 0.037748 0.567002
Si Si4 0.311548 0.325995 0.067667
Si Si5 0.599626 0.525360 0.933219
O O1 0.884990 0.591558 0.750000
O O2 0.796154 0.651211 0.975629
O O3 0.984197 0.636363 0.980692
O O4 0.862921 0.524075 0.009137
O O5 0.902880 0.250000 0.500000
O O6 0.916083 0.176116 0.750000
O O7 0.832978 0.114800 0.522991
O O8 0.785023 0.033989 0.750000
O O9 0.688679 0.020304 0.495270
O O10 0.314179 0.321204 0.250000
O O11 0.377596 0.392543 0.021484
O O12 0.337783 0.250000 0.000000
O O13 0.598918 0.521630 0.750000
O O14 0.500000 0.500000 0.000000
#
# Coordination Sequence:
#
# PCOD9436830 Si02
#       5
#     8   8   8   8   8
#     4   9  18  33  51  75 106 139 175 215 255 301
#     4  10  21  34  50  75 108 143 180 217 254 300
#     4  10  20  34  53  78 104 135 175 216 258 310
#     4   9  18  31  50  77 106 131 162 206 255 304
#     4  10  21  38  58  79 102 132 171 216 262 313
#
# _framework density 17.354901000000002
#
# number of rings (size 3 to 8) (size 9 to 14) (size 15 to 20)
#    0.000    2.400    0.000    3.600    0.000    6.400 
#    0.000    1.000    0.000    0.000    0.000    0.000 
#    0.000    0.000    0.000    0.000    0.000    0.000 
#
# Total GULP energy -223215.462827 kJ/mol
# GULP energy per Si atom -5580.386571 kJ/mol
# Density = 1.731540 g / cm^3
# Si number density = 17.354901 Si / 1000 Ang^3
#
#
#
# Elastic Constant Matrix: (Units=GPa)
#
#
# Indices 1 2 3 4 5 6 
#
# 1 126.4217 111.1514 42.7489 0.0000 0.0000 0.0000
# 2 111.1514 173.9474 49.8158 0.0000 0.0000 0.0000
# 3 42.7489 49.8158 35.5035 0.0000 0.0000 0.0000
# 4 0.0000 0.0000 0.0000 34.2993 0.0000 0.0000
# 5 0.0000 0.0000 0.0000 0.0000 26.5985 0.0000
# 6 0.0000 0.0000 0.0000 0.0000 0.0000 15.6208
#
#
#
# Elastic Compliance Matrix: (Units=1/GPa)
#
#
# Indices 1 2 3 4 5 6 
#
# 1 0.020086 -0.009878 -0.010325 0.000000 0.000000 0.000000
# 2 -0.009878 0.014469 -0.008407 0.000000 0.000000 0.000000
# 3 -0.010325 -0.008407 0.052395 0.000000 0.000000 0.000000
# 4 0.000000 0.000000 0.000000 0.029155 0.000000 0.000000
# 5 0.000000 0.000000 0.000000 0.000000 0.037596 0.000000
# 6 0.000000 0.000000 0.000000 0.000000 0.000000 0.064017
#
#
# Mechanical properties :
#
#
# Convention : Reuss Voigt Hill
#
# Bulk Modulus (GPa) = 33.63741 82.58942 58.11341
# Shear Modulus (GPa) = 17.55309 24.11417 20.83363
#
# Velocity S-wave (km/s) = 3.18373 3.73161 3.46850
# Velocity P-wave (km/s) = 5.73925 8.13992 7.04263
#
# Compressibility (1/GPa) = 0.02972880
#
# Stress axis : x y z
#
# Youngs Moduli (GPa) = 49.78473 69.11499 19.08564
#
# Poissons Ratio (x) = 0.68273 0.19707
# Poissons Ratio (y) = 0.49178 0.16046
# Poissons Ratio (z) = 0.51405 0.58107
#
# Static dielectric constant tensor:
#      x y z
#    x 1.574500 0.000000 0.000000 
#    y 0.000000 1.575830 0.000000 
#    z 0.000000 0.000000 1.580730 
# 
# From -- ./inp_files/2686.got.cif
#   From: 2010.05.17/outbox.cif.g08.bks.cpg/sg57_2_cif.got.tgz:2686.got - 2010.06.03 13:58:18.
