data_PCOD9436758
_publ_section_title
;
Structure prediction by ZEFSAII (Michael W. Deem and Ramdas Pophale) SiO2 
 PCOD9436758
Probable space group: P B C M
;
_chemical_formula_sum "Si O2"
_cell_formula_units_Z 32
_cell_length_a 9.333467
_cell_length_b 21.781711
_cell_length_c 8.835954
_cell_angle_alpha 90.000000
_cell_angle_beta 90.000000
_cell_angle_gamma 90.000000
_cell_volume 1796.339559
_symmetry_space_group_name_H-M "P B C M"
_symmetry_group_IT_number 57
_symmetry_cell_setting 'orthorhombic'
loop_
_space_group_symop_operation_xyz
x,y,z
-x,-y,1/2+z
x,1/2-y,-z
-x,1/2+y,1/2-z
-x,-y,-z
x,y,1/2-z
-x,1/2+y,z
x,1/2-y,1/2+z
loop_
_atom_site_type_symbol
_atom_site_label
_atom_site_fract_x
_atom_site_fract_y
_atom_site_fract_z
Si Si1 0.075413 0.685827 0.926566
Si Si2 0.575513 0.187922 0.924290
Si Si3 0.912227 0.443281 0.568251
Si Si4 0.406879 0.554587 0.566099
O O1 0.035917 0.682574 0.750000
O O2 0.250168 0.687323 0.933637
O O3 0.025715 0.750000 0.000000
O O4 0.031632 0.623456 0.011989
O O5 0.535485 0.191034 0.750000
O O6 0.530685 0.121150 0.982878
O O7 0.523154 0.250000 0.000000
O O8 0.911187 0.445170 0.750000
O O9 0.752094 0.449266 0.501772
O O10 0.000000 0.500000 0.500000
O O11 0.500000 0.500000 0.500000
O O12 0.400335 0.553332 0.750000
#
# Coordination Sequence:
#
# PCOD9436758 Si02
#       4
#     8   8   8   8
#     4   9  16  28  46  71  99 128 164 207 250 296
#     4   8  15  26  43  67  95 123 158 200 241 285
#     4  11  21  34  52  75 103 136 170 210 256 304
#     4  10  20  34  51  75 103 133 168 207 251 303
#
# _framework density 17.814003
#
# number of rings (size 3 to 8) (size 9 to 14) (size 15 to 20)
#    0.000    2.500    0.000    5.250    0.000    7.000 
#    0.000    0.000    0.000    1.500    0.000    7.000 
#    0.000    0.000    0.000    0.000    0.000    0.000 
#
# Total GULP energy -178304.382403 kJ/mol
# GULP energy per Si atom -5572.011950 kJ/mol
# Density = 1.777346 g / cm^3
# Si number density = 17.814003 Si / 1000 Ang^3
#
#
#
# Elastic Constant Matrix: (Units=GPa)
#
#
# Indices 1 2 3 4 5 6 
#
# 1 19.9349 49.3644 23.8321 0.0000 0.0000 0.0000
# 2 49.3644 236.5820 95.3044 0.0000 0.0000 0.0000
# 3 23.8321 95.3044 127.5216 0.0000 0.0000 0.0000
# 4 0.0000 0.0000 0.0000 38.7269 0.0000 0.0000
# 5 0.0000 0.0000 0.0000 0.0000 17.7472 0.0000
# 6 0.0000 0.0000 0.0000 0.0000 0.0000 26.8424
#
#
#
# Elastic Compliance Matrix: (Units=1/GPa)
#
#
# Indices 1 2 3 4 5 6 
#
# 1 0.105708 -0.020171 -0.004680 0.000000 0.000000 0.000000
# 2 -0.020171 0.009897 -0.003627 0.000000 0.000000 0.000000
# 3 -0.004680 -0.003627 0.011427 0.000000 0.000000 0.000000
# 4 0.000000 0.000000 0.000000 0.025822 0.000000 0.000000
# 5 0.000000 0.000000 0.000000 0.000000 0.056347 0.000000
# 6 0.000000 0.000000 0.000000 0.000000 0.000000 0.037254
#
#
# Mechanical properties :
#
#
# Convention : Reuss Voigt Hill
#
# Bulk Modulus (GPa) = 14.27037 80.11558 47.19297
# Shear Modulus (GPa) = 15.30130 31.03249 23.16689
#
# Velocity S-wave (km/s) = 2.93396 4.17829 3.61014
# Velocity P-wave (km/s) = 4.41652 8.26731 6.62775
#
# Compressibility (1/GPa) = 0.07007528
#
# Stress axis : x y z
#
# Youngs Moduli (GPa) = 9.46002 101.04389 87.51298
#
# Poissons Ratio (x) = 2.03819 0.40958
# Poissons Ratio (y) = 0.19082 0.31738
# Poissons Ratio (z) = 0.04428 0.36645
#
# Static dielectric constant tensor:
#      x y z
#    x 1.609930 0.000000 0.000000 
#    y 0.000000 1.645100 0.000000 
#    z 0.000000 0.000000 1.597520 
# 
# From -- ./inp_files/1222.got.cif
#   From: 2010.05.17/outbox.cif.g08.bks.cpg/sg57_1_cif.got.tgz:1222.got - 2010.06.03 13:58:18.
