data_PCOD9436549
_publ_section_title
;
Structure prediction by ZEFSAII (Michael W. Deem and Ramdas Pophale) SiO2 
 PCOD9436549
Probable space group: P B C M
;
_chemical_formula_sum "Si O2"
_cell_formula_units_Z 60
_cell_length_a 12.337719
_cell_length_b 16.015214
_cell_length_c 13.534226
_cell_angle_alpha 90.000000
_cell_angle_beta 90.000000
_cell_angle_gamma 90.000000
_cell_volume 2674.244093
_symmetry_space_group_name_H-M "P B C M"
_symmetry_group_IT_number 57
_symmetry_cell_setting 'orthorhombic'
loop_
_space_group_symop_operation_xyz
x,y,z
-x,-y,1/2+z
x,1/2-y,-z
-x,1/2+y,1/2-z
-x,-y,-z
x,y,1/2-z
-x,1/2+y,z
x,1/2-y,1/2+z
loop_
_atom_site_type_symbol
_atom_site_label
_atom_site_fract_x
_atom_site_fract_y
_atom_site_fract_z
Si Si1 0.011855 0.389367 0.632087
Si Si2 0.560776 0.600580 0.070086
Si Si3 0.015091 0.296368 0.135077
Si Si4 0.186162 0.839867 0.006967
Si Si5 0.412811 0.027080 0.859170
Si Si6 0.653458 0.750000 0.000000
Si Si7 0.775981 0.001241 0.868459
Si Si8 0.216994 0.122364 0.864450
O O1 0.993524 0.398902 0.750000
O O2 0.062088 0.295810 0.614051
O O3 0.107851 0.455791 0.607045
O O4 0.893472 0.380264 0.578935
O O5 0.460607 0.564190 0.129373
O O6 0.672168 0.557219 0.107588
O O7 0.542608 0.576808 0.954080
O O8 0.580260 0.697877 0.074608
O O9 0.995320 0.300303 0.250000
O O10 0.092598 0.373049 0.107713
O O11 0.904358 0.307025 0.082050
O O12 0.240890 0.916746 0.064272
O O13 0.250860 0.750000 0.000000
O O14 0.442496 0.059773 0.750000
O O15 0.283594 0.037384 0.868053
O O16 0.724369 0.686172 0.937005
O O17 0.777299 0.018211 0.750000
O O18 0.222165 0.151827 0.750000
#
# Coordination Sequence:
#
# PCOD9436549 Si02
#       8
#     8   8   8   8   8   4   8   8
#     4   9  19  33  50  80 118 149 192 249 305 361
#     4  10  21  36  61  88 116 157 193 248 298 357
#     4   9  17  30  51  80 114 152 191 242 303 354
#     4  10  21  35  57  80 112 162 204 254 293 359
#     4   9  19  37  57  83 116 150 189 233 293 356
#     4  10  20  32  56  86 118 146 190 242 298 354
#     4  11  22  37  58  87 118 154 201 248 301 361
#     4   9  18  30  50  81 116 149 189 240 294 353
#
# _framework density 22.436246000000001
#
# number of rings (size 3 to 8) (size 9 to 14) (size 15 to 20)
#    0.000    2.400    0.000    2.000    6.533    2.667 
#    0.000    0.667   13.200    0.000    0.000    0.000 
#    0.000    0.000    0.000    0.000    0.000    0.000 
#
# Total GULP energy -334133.038155 kJ/mol
# GULP energy per Si atom -5568.883969 kJ/mol
# Density = 2.238518 g / cm^3
# Si number density = 22.436246 Si / 1000 Ang^3
#
#
#
# Elastic Constant Matrix: (Units=GPa)
#
#
# Indices 1 2 3 4 5 6 
#
# 1 23.6460 25.2564 4.3581 0.0000 0.0000 0.0000
# 2 25.2564 75.0270 14.6560 0.0000 0.0000 0.0000
# 3 4.3581 14.6560 95.2471 0.0000 0.0000 0.0000
# 4 0.0000 0.0000 0.0000 25.7468 0.0000 0.0000
# 5 0.0000 0.0000 0.0000 0.0000 10.4223 0.0000
# 6 0.0000 0.0000 0.0000 0.0000 0.0000 20.7733
#
#
#
# Elastic Compliance Matrix: (Units=1/GPa)
#
#
# Indices 1 2 3 4 5 6 
#
# 1 0.066049 -0.022314 0.000411 0.000000 0.000000 0.000000
# 2 -0.022314 0.021280 -0.002253 0.000000 0.000000 0.000000
# 3 0.000411 -0.002253 0.010827 0.000000 0.000000 0.000000
# 4 0.000000 0.000000 0.000000 0.038840 0.000000 0.000000
# 5 0.000000 0.000000 0.000000 0.000000 0.095949 0.000000
# 6 0.000000 0.000000 0.000000 0.000000 0.000000 0.048139
#
#
# Mechanical properties :
#
#
# Convention : Reuss Voigt Hill
#
# Bulk Modulus (GPa) = 20.06288 31.38456 25.72372
# Shear Modulus (GPa) = 14.45043 21.36511 17.90777
#
# Velocity S-wave (km/s) = 2.54060 3.08922 2.82824
# Velocity P-wave (km/s) = 4.19139 5.17137 4.70695
#
# Compressibility (1/GPa) = 0.04984329
#
# Stress axis : x y z
#
# Youngs Moduli (GPa) = 15.14033 46.99140 92.36224
#
# Poissons Ratio (x) = 1.04859 -0.03801
# Poissons Ratio (y) = 0.33785 0.20814
# Poissons Ratio (z) = -0.00623 0.10589
#
# Static dielectric constant tensor:
#      x y z
#    x 1.873560 0.000000 0.000000 
#    y 0.000000 2.005690 0.000000 
#    z 0.000000 0.000000 1.880680 
# 
# From -- ./inp_files/18668.got.cif
#   From: 2010.05.17/outbox.cif.g08.bks.cpg/sg57_10_cif.got.tgz:18668.got - 2010.06.03 13:58:18.
