data_PCOD9436481
_publ_section_title
;
Structure prediction by ZEFSAII (Michael W. Deem and Ramdas Pophale) SiO2 
 PCOD9436481
Probable space group: P B C M
;
_chemical_formula_sum "Si O2"
_cell_formula_units_Z 44
_cell_length_a 17.612207
_cell_length_b 13.567114
_cell_length_c 9.905966
_cell_angle_alpha 90.000000
_cell_angle_beta 90.000000
_cell_angle_gamma 90.000000
_cell_volume 2366.999076
_symmetry_space_group_name_H-M "P B C M"
_symmetry_group_IT_number 57
_symmetry_cell_setting 'orthorhombic'
loop_
_space_group_symop_operation_xyz
x,y,z
-x,-y,1/2+z
x,1/2-y,-z
-x,1/2+y,1/2-z
-x,-y,-z
x,y,1/2-z
-x,1/2+y,z
x,1/2-y,1/2+z
loop_
_atom_site_type_symbol
_atom_site_label
_atom_site_fract_x
_atom_site_fract_y
_atom_site_fract_z
Si Si1 0.858135 0.250000 0.500000
Si Si2 0.902718 0.563306 0.401225
Si Si3 0.392695 0.537805 0.094551
Si Si4 0.006166 0.641419 0.609741
Si Si5 0.505320 0.655360 0.909958
Si Si6 0.212591 0.953798 0.592895
O O1 0.919129 0.291770 0.394368
O O2 0.810215 0.158296 0.446099
O O3 0.879775 0.591751 0.250000
O O4 0.957850 0.468289 0.389218
O O5 0.834161 0.526271 0.495410
O O6 0.952587 0.643634 0.479808
O O7 0.408208 0.571497 0.250000
O O8 0.431091 0.430295 0.081277
O O9 0.302549 0.533478 0.077051
O O10 0.431741 0.608314 0.984272
O O11 0.963544 0.657144 0.750000
O O12 0.493314 0.676791 0.750000
O O13 0.526438 0.750000 0.000000
O O14 0.192104 0.970061 0.750000
#
# Coordination Sequence:
#
# PCOD9436481 Si02
#       6
#     4   8   8   8   8   8
#     4  10  20  30  50  82 110 138 178 228 280 338
#     4   9  18  31  49  71  96 131 176 218 263 316
#     4   9  20  37  57  85 117 151 191 233 284 340
#     4   9  17  30  47  68  97 134 173 213 261 320
#     4  10  20  36  59  85 115 152 194 234 278 337
#     4  10  20  35  54  78 111 145 179 226 281 334
#
# _framework density 18.588937999999999
#
# number of rings (size 3 to 8) (size 9 to 14) (size 15 to 20)
#    0.000    2.545    0.000    1.636    1.273    7.273 
#    0.000    0.000    2.000    0.000    0.000    0.000 
#    0.000    0.000    0.000    0.000    0.000    0.000 
#
# Total GULP energy -245135.644826 kJ/mol
# GULP energy per Si atom -5571.264655 kJ/mol
# Density = 1.854663 g / cm^3
# Si number density = 18.588938 Si / 1000 Ang^3
#
#
#
# Elastic Constant Matrix: (Units=GPa)
#
#
# Indices 1 2 3 4 5 6 
#
# 1 93.4819 31.4692 75.3245 0.0000 0.0000 0.0000
# 2 31.4692 59.3073 40.5026 0.0000 0.0000 0.0000
# 3 75.3245 40.5026 174.7159 0.0000 0.0000 0.0000
# 4 0.0000 0.0000 0.0000 -19.3718 0.0000 0.0000
# 5 0.0000 0.0000 0.0000 0.0000 20.5144 0.0000
# 6 0.0000 0.0000 0.0000 0.0000 0.0000 12.2023
#
#
#
# Elastic Compliance Matrix: (Units=1/GPa)
#
#
# Indices 1 2 3 4 5 6 
#
# 1 0.017520 -0.004916 -0.006414 0.000000 0.000000 0.000000
# 2 -0.004916 0.021412 -0.002844 0.000000 0.000000 0.000000
# 3 -0.006414 -0.002844 0.009148 0.000000 0.000000 0.000000
# 4 0.000000 0.000000 0.000000 -0.051621 0.000000 0.000000
# 5 0.000000 0.000000 0.000000 0.000000 0.048746 0.000000
# 6 0.000000 0.000000 0.000000 0.000000 0.000000 0.081952
#
#
# Mechanical properties :
#
#
# Convention : Reuss Voigt Hill
#
# Bulk Modulus (GPa) = 50.67895 69.12196 59.90046
# Shear Modulus (GPa) = 30.84832 14.68290 22.76561
#
# Velocity S-wave (km/s) = 4.07811 2.81352 3.50335
# Velocity P-wave (km/s) = 7.03540 6.91518 6.97555
#
# Compressibility (1/GPa) = 0.01973206
#
# Stress axis : x y z
#
# Youngs Moduli (GPa) = 57.07698 46.70187 109.31301
#
# Poissons Ratio (x) = 0.22960 0.70110
# Poissons Ratio (y) = 0.28061 0.31091
# Poissons Ratio (z) = 0.36607 0.13283
#
# Static dielectric constant tensor:
#      x y z
#    x 1.594180 0.000000 0.000000 
#    y 0.000000 1.684510 0.000000 
#    z 0.000000 0.000000 1.723350 
# 
# From -- ./inp_files/6416.got.cif
#   From: 2010.05.17/outbox.cif.g08.bks.cpg/sg57_4_cif.got.tgz:6416.got - 2010.06.03 13:58:18.
