data_PCOD9436854
_publ_section_title
;
Structure prediction by ZEFSAII (Michael W. Deem and Ramdas Pophale) SiO2 
 PCOD9436854
Probable space group: P B C M
;
_chemical_formula_sum "Si O2"
_cell_formula_units_Z 60
_cell_length_a 11.300830
_cell_length_b 19.196410
_cell_length_c 14.497707
_cell_angle_alpha 90.000000
_cell_angle_beta 90.000000
_cell_angle_gamma 90.000000
_cell_volume 3145.065375
_symmetry_space_group_name_H-M "P B C M"
_symmetry_group_IT_number 57
_symmetry_cell_setting 'orthorhombic'
loop_
_space_group_symop_operation_xyz
x,y,z
-x,-y,1/2+z
x,1/2-y,-z
-x,1/2+y,1/2-z
-x,-y,-z
x,y,1/2-z
-x,1/2+y,z
x,1/2-y,1/2+z
loop_
_atom_site_type_symbol
_atom_site_label
_atom_site_fract_x
_atom_site_fract_y
_atom_site_fract_z
Si Si1 0.176810 0.991171 0.140256
Si Si2 0.320950 0.118046 0.146452
Si Si3 0.696673 0.601282 0.646574
Si Si4 0.899590 0.002446 0.359650
Si Si5 0.437951 0.238549 0.862828
Si Si6 0.539034 0.024105 0.399048
Si Si7 0.758023 0.102399 0.025278
Si Si8 0.654717 0.250000 0.000000
O O1 0.205174 0.983943 0.250000
O O2 0.218125 0.068428 0.108147
O O3 0.036221 0.983318 0.129783
O O4 0.240464 0.935864 0.074095
O O5 0.282924 0.135272 0.250000
O O6 0.368861 0.190853 0.108508
O O7 0.432268 0.065208 0.146349
O O8 0.733109 0.620452 0.750000
O O9 0.809348 0.558775 0.607921
O O10 0.639283 0.671309 0.607336
O O11 0.591881 0.544154 0.648112
O O12 0.876737 0.014008 0.250000
O O13 0.868338 0.070954 0.418445
O O14 0.451892 0.237900 0.750000
O O15 0.564328 0.238422 0.914061
O O16 0.646778 0.076539 0.414500
O O17 0.500000 0.000000 0.500000
O O18 0.737953 0.183471 0.013407
#
# Coordination Sequence:
#
# PCOD9436854 Si02
#       8
#     8   8   8   8   8   8   8   4
#     4  10  21  38  60  85 112 148 193 241 284 332
#     4  10  20  34  53  80 113 146 185 229 283 342
#     4   9  19  34  54  77 105 143 185 228 278 333
#     4   9  20  39  62  85 109 145 196 244 284 330
#     4  10  22  36  52  80 117 151 182 227 287 351
#     4  11  18  31  51  80 107 140 182 230 281 330
#     4  11  22  36  58  80 115 149 189 232 283 341
#     4  12  24  38  54  82 120 156 180 228 286 350
#
# _framework density 19.077504999999999
#
# number of rings (size 3 to 8) (size 9 to 14) (size 15 to 20)
#    0.000    1.867    2.667    1.600    0.000    1.600 
#    0.000    1.333    0.000    3.200    0.000    0.000 
#    0.000    0.000    0.000    0.000    0.000    0.000 
#
# Total GULP energy -334387.965772 kJ/mol
# GULP energy per Si atom -5573.132763 kJ/mol
# Density = 1.903408 g / cm^3
# Si number density = 19.077505 Si / 1000 Ang^3
#
#
#
# Elastic Constant Matrix: (Units=GPa)
#
#
# Indices 1 2 3 4 5 6 
#
# 1 64.5657 36.5521 16.4130 0.0000 0.0000 0.0000
# 2 36.5521 149.6026 23.4597 0.0000 0.0000 0.0000
# 3 16.4130 23.4597 90.7803 0.0000 0.0000 0.0000
# 4 0.0000 0.0000 0.0000 25.6051 0.0000 0.0000
# 5 0.0000 0.0000 0.0000 0.0000 12.6406 0.0000
# 6 0.0000 0.0000 0.0000 0.0000 0.0000 15.4683
#
#
#
# Elastic Compliance Matrix: (Units=1/GPa)
#
#
# Indices 1 2 3 4 5 6 
#
# 1 0.018408 -0.004144 -0.002257 0.000000 0.000000 0.000000
# 2 -0.004144 0.007899 -0.001292 0.000000 0.000000 0.000000
# 3 -0.002257 -0.001292 0.011758 0.000000 0.000000 0.000000
# 4 0.000000 0.000000 0.000000 0.039055 0.000000 0.000000
# 5 0.000000 0.000000 0.000000 0.000000 0.079110 0.000000
# 6 0.000000 0.000000 0.000000 0.000000 0.000000 0.064648
#
#
# Mechanical properties :
#
#
# Convention : Reuss Voigt Hill
#
# Bulk Modulus (GPa) = 44.09446 50.86645 47.48046
# Shear Modulus (GPa) = 20.50665 25.97774 23.24219
#
# Velocity S-wave (km/s) = 3.28214 3.69412 3.49421
# Velocity P-wave (km/s) = 6.12591 6.70196 6.42040
#
# Compressibility (1/GPa) = 0.02267859
#
# Stress axis : x y z
#
# Youngs Moduli (GPa) = 54.32521 126.59197 85.05090
#
# Poissons Ratio (x) = 0.52454 0.19199
# Poissons Ratio (y) = 0.22510 0.10991
# Poissons Ratio (z) = 0.12263 0.16359
#
# Static dielectric constant tensor:
#      x y z
#    x 1.675460 0.000000 0.000000 
#    y 0.000000 1.662780 0.000000 
#    z 0.000000 0.000000 1.730370 
# 
# From -- ./inp_files/17926.got.cif
#   From: 2010.05.17/outbox.cif.g08.bks.cpg/sg57_9_cif.got.tgz:17926.got - 2010.06.03 13:58:18.
