data_PCOD9436763
_publ_section_title
;
Structure prediction by ZEFSAII (Michael W. Deem and Ramdas Pophale) SiO2 
 PCOD9436763
Probable space group: P B C M
;
_chemical_formula_sum "Si O2"
_cell_formula_units_Z 56
_cell_length_a 20.585446
_cell_length_b 16.040216
_cell_length_c 8.665904
_cell_angle_alpha 90.000000
_cell_angle_beta 90.000000
_cell_angle_gamma 90.000000
_cell_volume 2861.438174
_symmetry_space_group_name_H-M "P B C M"
_symmetry_group_IT_number 57
_symmetry_cell_setting 'orthorhombic'
loop_
_space_group_symop_operation_xyz
x,y,z
-x,-y,1/2+z
x,1/2-y,-z
-x,1/2+y,1/2-z
-x,-y,-z
x,y,1/2-z
-x,1/2+y,z
x,1/2-y,1/2+z
loop_
_atom_site_type_symbol
_atom_site_label
_atom_site_fract_x
_atom_site_fract_y
_atom_site_fract_z
Si Si1 0.163604 0.157238 0.565452
Si Si2 0.569851 0.509594 0.923279
Si Si3 0.752013 0.376452 0.071458
Si Si4 0.927637 0.991080 0.566604
Si Si5 0.289112 0.052917 0.562785
Si Si6 0.376408 0.823607 0.574654
Si Si7 0.120084 0.663847 0.071193
O O1 0.151796 0.250000 0.500000
O O2 0.156177 0.158971 0.750000
O O3 0.114210 0.086127 0.501662
O O4 0.237899 0.126883 0.531594
O O5 0.559655 0.541672 0.750000
O O6 0.634545 0.558255 0.984988
O O7 0.592697 0.414010 0.920270
O O8 0.500000 0.500000 0.000000
O O9 0.772708 0.369323 0.250000
O O10 0.740931 0.472474 0.022291
O O11 0.683525 0.333750 0.041239
O O12 0.802647 0.336422 0.953132
O O13 0.929256 0.981466 0.750000
O O14 0.897888 0.080314 0.520067
O O15 0.000000 0.000000 0.500000
O O16 0.289163 0.038050 0.750000
O O17 0.418660 0.750000 0.500000
O O18 0.357268 0.805424 0.750000
O O19 0.102219 0.656873 0.250000
O O20 0.093665 0.750000 0.000000
#
# Coordination Sequence:
#
# PCOD9436763 Si02
#       7
#     8   8   8   8   8   8   8
#     4  11  23  42  69  98 130 171 219 276 330 386
#     4   9  19  35  55  81 114 156 200 250 308 372
#     4  11  20  32  55  86 118 153 192 237 294 358
#     4  12  26  46  69  96 128 167 213 262 322 388
#     4   9  19  37  60  85 120 162 206 257 316 370
#     4  10  20  34  51  76 110 146 188 237 293 354
#     4  12  24  40  61  90 126 163 201 248 304 366
#
# _framework density 19.570578999999999
#
# number of rings (size 3 to 8) (size 9 to 14) (size 15 to 20)
#    0.000    1.429    1.429    6.000    0.000    4.000 
#    0.000    3.571    0.000    3.429    0.000    0.000 
#    0.000    0.000    0.000    0.000    0.000    0.000 
#
# Total GULP energy -312159.738672 kJ/mol
# GULP energy per Si atom -5574.281048 kJ/mol
# Density = 1.952604 g / cm^3
# Si number density = 19.570579 Si / 1000 Ang^3
#
#
#
# Elastic Constant Matrix: (Units=GPa)
#
#
# Indices 1 2 3 4 5 6 
#
# 1 115.5342 45.2258 34.7042 0.0000 0.0000 0.0000
# 2 45.2258 125.2248 44.4176 0.0000 0.0000 0.0000
# 3 34.7042 44.4176 99.2016 0.0000 0.0000 0.0000
# 4 0.0000 0.0000 0.0000 32.9853 0.0000 0.0000
# 5 0.0000 0.0000 0.0000 0.0000 27.0216 0.0000
# 6 0.0000 0.0000 0.0000 0.0000 0.0000 1.9422
#
#
#
# Elastic Compliance Matrix: (Units=1/GPa)
#
#
# Indices 1 2 3 4 5 6 
#
# 1 0.010523 -0.002966 -0.002354 0.000000 0.000000 0.000000
# 2 -0.002966 0.010329 -0.003587 0.000000 0.000000 0.000000
# 3 -0.002354 -0.003587 0.012510 0.000000 0.000000 0.000000
# 4 0.000000 0.000000 0.000000 0.030317 0.000000 0.000000
# 5 0.000000 0.000000 0.000000 0.000000 0.037007 0.000000
# 6 0.000000 0.000000 0.000000 0.000000 0.000000 0.514888
#
#
# Mechanical properties :
#
#
# Convention : Reuss Voigt Hill
#
# Bulk Modulus (GPa) = 64.31158 65.40619 64.85889
# Shear Modulus (GPa) = 7.82998 26.76403 17.29700
#
# Velocity S-wave (km/s) = 2.00239 3.70207 2.97615
# Velocity P-wave (km/s) = 6.18699 7.19493 6.70991
#
# Compressibility (1/GPa) = 0.01554930
#
# Stress axis : x y z
#
# Youngs Moduli (GPa) = 95.02681 96.81293 79.93562
#
# Poissons Ratio (x) = 0.28713 0.18813
# Poissons Ratio (y) = 0.28183 0.28676
# Poissons Ratio (z) = 0.22365 0.34730
#
# Static dielectric constant tensor:
#      x y z
#    x 1.787800 0.000000 0.000000 
#    y 0.000000 1.817140 0.000000 
#    z 0.000000 0.000000 1.687660 
# 
# From -- ./inp_files/7999.got.cif
#   From: 2010.05.17/outbox.cif.g08.bks.cpg/sg57_4_cif.got.tgz:7999.got - 2010.06.03 13:58:18.
