data_PCOD9436352
_publ_section_title
;
Structure prediction by ZEFSAII (Michael W. Deem and Ramdas Pophale) SiO2 
 PCOD9436352
Probable space group: P B C M
;
_chemical_formula_sum "Si O2"
_cell_formula_units_Z 64
_cell_length_a 14.517639
_cell_length_b 9.812098
_cell_length_c 24.307764
_cell_angle_alpha 90.000000
_cell_angle_beta 90.000000
_cell_angle_gamma 90.000000
_cell_volume 3462.604437
_symmetry_space_group_name_H-M "P B C M"
_symmetry_group_IT_number 57
_symmetry_cell_setting 'orthorhombic'
loop_
_space_group_symop_operation_xyz
x,y,z
-x,-y,1/2+z
x,1/2-y,-z
-x,1/2+y,1/2-z
-x,-y,-z
x,y,1/2-z
-x,1/2+y,z
x,1/2-y,1/2+z
loop_
_atom_site_type_symbol
_atom_site_label
_atom_site_fract_x
_atom_site_fract_y
_atom_site_fract_z
Si Si1 0.591085 0.911517 0.390542
Si Si2 0.591634 0.912306 0.890771
Si Si3 0.698278 0.910741 0.000198
Si Si4 0.892537 0.459117 0.499957
Si Si5 0.763352 0.907184 0.315629
Si Si6 0.763874 0.594314 0.315629
Si Si7 0.910378 0.404694 0.124723
Si Si8 0.909638 0.403512 0.875545
O O1 0.570102 0.749562 0.396375
O O2 0.647429 0.960269 0.444756
O O3 0.661250 0.926247 0.339835
O O4 0.499595 0.999352 0.384429
O O5 0.662223 0.926384 0.840256
O O6 0.647651 0.960758 0.945143
O O7 0.807508 0.935981 0.000313
O O8 0.685896 0.750000 0.000000
O O9 0.883038 0.394300 0.439704
O O10 0.883175 0.392437 0.559902
O O11 0.000000 0.500000 0.500000
O O12 0.765371 0.918040 0.250000
O O13 0.791242 0.750844 0.331108
O O14 0.830080 0.017154 0.343155
O O15 0.765105 0.584038 0.250000
O O16 0.831489 0.484804 0.342640
O O17 0.926392 0.250396 0.145011
O O18 0.000648 0.500034 0.128603
#
# Coordination Sequence:
#
# PCOD9436352 Si02
#       8
#     8   8   8   8   8   8   8   8
#     4  10  21  38  60  88 118 155 196 244 300 357
#     4  10  21  38  60  88 118 155 196 244 300 357
#     4  10  19  36  62  87 120 161 196 236 297 361
#     4  10  21  36  59  93 123 154 194 237 289 352
#     4  10  22  41  63  86 116 157 204 250 297 349
#     4  10  22  41  63  86 116 157 204 250 297 349
#     4  11  23  39  61  90 123 158 196 241 294 355
#     4  11  23  39  61  90 123 158 196 241 294 355
#
# _framework density 18.483197000000001
#
# number of rings (size 3 to 8) (size 9 to 14) (size 15 to 20)
#    0.000    1.750    2.500    1.500    0.000    6.500 
#    0.000    0.000    0.000    0.000    0.000    0.000 
#    0.000    0.000    0.000    0.000    0.000    0.000 
#
# Total GULP energy -356671.393795 kJ/mol
# GULP energy per Si atom -5572.990528 kJ/mol
# Density = 1.844113 g / cm^3
# Si number density = 18.483197 Si / 1000 Ang^3
#
#
#
# Elastic Constant Matrix: (Units=GPa)
#
#
# Indices 1 2 3 4 5 6 
#
# 1 137.3382 94.5413 62.7376 0.0000 0.0000 0.0000
# 2 94.5413 136.0244 69.0945 0.0000 0.0000 0.0000
# 3 62.7376 69.0945 99.1270 0.0000 0.0000 0.0000
# 4 0.0000 0.0000 0.0000 -15.5473 0.0000 0.0000
# 5 0.0000 0.0000 0.0000 0.0000 8.0314 0.0000
# 6 0.0000 0.0000 0.0000 0.0000 0.0000 30.9847
#
#
#
# Elastic Compliance Matrix: (Units=1/GPa)
#
#
# Indices 1 2 3 4 5 6 
#
# 1 0.014653 -0.008474 -0.003367 0.000000 0.000000 0.000000
# 2 -0.008474 0.016282 -0.005986 0.000000 0.000000 0.000000
# 3 -0.003367 -0.005986 0.016392 0.000000 0.000000 0.000000
# 4 0.000000 0.000000 0.000000 -0.064320 0.000000 0.000000
# 5 0.000000 0.000000 0.000000 0.000000 0.124512 0.000000
# 6 0.000000 0.000000 0.000000 0.000000 0.000000 0.032274
#
#
# Mechanical properties :
#
#
# Convention : Reuss Voigt Hill
#
# Bulk Modulus (GPa) = 85.67286 91.69294 88.68290
# Shear Modulus (GPa) = 27.88068 14.43484 21.15776
#
# Velocity S-wave (km/s) = 3.88807 2.79762 3.38702
# Velocity P-wave (km/s) = 8.16140 7.75578 7.96117
#
# Compressibility (1/GPa) = 0.01167231
#
# Stress axis : x y z
#
# Youngs Moduli (GPa) = 68.24737 61.41928 61.00718
#
# Poissons Ratio (x) = 0.52044 0.20543
# Poissons Ratio (y) = 0.57830 0.36518
# Poissons Ratio (z) = 0.22981 0.36764
#
# Static dielectric constant tensor:
#      x y z
#    x 1.614760 0.000000 0.000000 
#    y 0.000000 1.648480 0.000000 
#    z 0.000000 0.000000 1.648470 
# 
# From -- ./inp_files/27514.got.cif
#   From: 2010.05.17/outbox.cif.g08.bks.cpg/sg57_14_cif.got.tgz:27514.got - 2010.06.03 13:58:18.
