data_PCOD9436873
_publ_section_title
;
Structure prediction by ZEFSAII (Michael W. Deem and Ramdas Pophale) SiO2 
 PCOD9436873
Probable space group: P B C M
;
_chemical_formula_sum "Si O2"
_cell_formula_units_Z 56
_cell_length_a 32.548501
_cell_length_b 5.168070
_cell_length_c 14.359318
_cell_angle_alpha 90.000000
_cell_angle_beta 90.000000
_cell_angle_gamma 90.000000
_cell_volume 2415.422976
_symmetry_space_group_name_H-M "P B C M"
_symmetry_group_IT_number 57
_symmetry_cell_setting 'orthorhombic'
loop_
_space_group_symop_operation_xyz
x,y,z
-x,-y,1/2+z
x,1/2-y,-z
-x,1/2+y,1/2-z
-x,-y,-z
x,y,1/2-z
-x,1/2+y,z
x,1/2-y,1/2+z
loop_
_atom_site_type_symbol
_atom_site_label
_atom_site_fract_x
_atom_site_fract_y
_atom_site_fract_z
Si Si1 0.257293 0.495635 0.562371
Si Si2 0.832086 0.629740 0.137843
Si Si3 0.391280 0.362953 0.145473
Si Si4 0.341269 0.857833 0.396516
Si Si5 0.025259 0.597927 0.136033
Si Si6 0.880988 0.372601 0.635878
Si Si7 0.523252 0.081826 0.135942
O O1 0.270943 0.250000 0.500000
O O2 0.214332 0.418675 0.607587
O O3 0.295125 0.560866 0.631228
O O4 0.249743 0.750000 0.500000
O O5 0.832754 0.630856 0.250000
O O6 0.862410 0.401094 0.107109
O O7 0.850264 0.901852 0.105458
O O8 0.401960 0.273070 0.250000
O O9 0.361612 0.611688 0.152118
O O10 0.433128 0.473585 0.101835
O O11 0.369557 0.112484 0.102759
O O12 0.336704 0.750000 0.500000
O O13 0.026310 0.595883 0.250000
O O14 0.072364 0.582805 0.104813
O O15 0.997149 0.359459 0.107126
O O16 0.881744 0.375442 0.750000
O O17 0.524982 0.087705 0.250000
O O18 0.488965 0.871131 0.108099
#
# Coordination Sequence:
#
# PCOD9436873 Si02
#       7
#     8   8   8   8   8   8   8
#     4  11  23  41  60  80 108 145 188 225 268 336
#     4  10  20  34  54  79 108 140 173 222 280 321
#     4  11  22  37  62  92 116 147 197 244 276 327
#     4  11  23  41  60  82 117 157 187 229 296 349
#     4   9  15  23  38  62  97 140 175 204 250 317
#     4   9  17  29  45  71 107 140 172 215 271 323
#     4   9  17  31  53  82 115 148 184 230 280 325
#
# _framework density 23.184342999999998
#
# number of rings (size 3 to 8) (size 9 to 14) (size 15 to 20)
#    0.000    2.000    0.000    5.143    0.000    6.857 
#    0.000    1.429    0.000    8.571    0.000    0.000 
#    0.000   40.000    0.000    0.000    0.000    0.000 
#
# Total GULP energy -313262.972849 kJ/mol
# GULP energy per Si atom -5593.981658 kJ/mol
# Density = 2.313157 g / cm^3
# Si number density = 23.184343 Si / 1000 Ang^3
#
#
#
# Elastic Constant Matrix: (Units=GPa)
#
#
# Indices 1 2 3 4 5 6 
#
# 1 130.8807 31.2272 9.8760 0.0000 0.0000 0.0000
# 2 31.2272 143.6397 11.3243 0.0000 0.0000 0.0000
# 3 9.8760 11.3243 41.5355 0.0000 0.0000 0.0000
# 4 0.0000 0.0000 0.0000 23.4766 0.0000 0.0000
# 5 0.0000 0.0000 0.0000 0.0000 17.3276 0.0000
# 6 0.0000 0.0000 0.0000 0.0000 0.0000 41.5247
#
#
#
# Elastic Compliance Matrix: (Units=1/GPa)
#
#
# Indices 1 2 3 4 5 6 
#
# 1 0.008147 -0.001654 -0.001486 0.000000 0.000000 0.000000
# 2 -0.001654 0.007451 -0.001638 0.000000 0.000000 0.000000
# 3 -0.001486 -0.001638 0.024876 0.000000 0.000000 0.000000
# 4 0.000000 0.000000 0.000000 0.042596 0.000000 0.000000
# 5 0.000000 0.000000 0.000000 0.000000 0.057712 0.000000
# 6 0.000000 0.000000 0.000000 0.000000 0.000000 0.024082
#
#
# Mechanical properties :
#
#
# Convention : Reuss Voigt Hill
#
# Bulk Modulus (GPa) = 32.34468 46.76788 39.55628
# Shear Modulus (GPa) = 27.06724 34.04102 30.55413
#
# Velocity S-wave (km/s) = 3.42055 3.83597 3.63420
# Velocity P-wave (km/s) = 5.43889 6.31154 5.89139
#
# Compressibility (1/GPa) = 0.03091698
#
# Stress axis : x y z
#
# Youngs Moduli (GPa) = 122.73951 134.21749 40.19979
#
# Poissons Ratio (x) = 0.22200 0.05975
# Poissons Ratio (y) = 0.20302 0.06585
# Poissons Ratio (z) = 0.18242 0.21986
#
# Static dielectric constant tensor:
#      x y z
#    x 1.849010 0.000000 0.000000 
#    y 0.000000 1.803040 0.000000 
#    z 0.000000 0.000000 1.964220 
# 
# From -- ./inp_files/19630.got.cif
#   From: 2010.05.17/outbox.cif.g08.bks.cpg/sg57_10_cif.got.tgz:19630.got - 2010.06.03 13:58:18.
