data_PCOD9436464
_publ_section_title
;
Structure prediction by ZEFSAII (Michael W. Deem and Ramdas Pophale) SiO2 
 PCOD9436464
Probable space group: P B C M
;
_chemical_formula_sum "Si O2"
_cell_formula_units_Z 32
_cell_length_a 18.490267
_cell_length_b 5.571050
_cell_length_c 14.174694
_cell_angle_alpha 90.000000
_cell_angle_beta 90.000000
_cell_angle_gamma 90.000000
_cell_volume 1460.138092
_symmetry_space_group_name_H-M "P B C M"
_symmetry_group_IT_number 57
_symmetry_cell_setting 'orthorhombic'
loop_
_space_group_symop_operation_xyz
x,y,z
-x,-y,1/2+z
x,1/2-y,-z
-x,1/2+y,1/2-z
-x,-y,-z
x,y,1/2-z
-x,1/2+y,z
x,1/2-y,1/2+z
loop_
_atom_site_type_symbol
_atom_site_label
_atom_site_fract_x
_atom_site_fract_y
_atom_site_fract_z
Si Si1 0.037220 0.743695 0.885266
Si Si2 0.802682 0.134890 0.895907
Si Si3 0.341439 0.895199 0.644203
Si Si4 0.455895 0.750000 0.500000
Si Si5 0.267207 0.250000 0.500000
O O1 0.119851 0.696613 0.855152
O O2 0.992046 0.506106 0.856674
O O3 0.036064 0.750000 0.000000
O O4 0.730996 0.235184 0.848544
O O5 0.786607 0.860688 0.921326
O O6 0.802234 0.250000 0.000000
O O7 0.358869 0.983537 0.750000
O O8 0.405984 0.752207 0.594076
O O9 0.319164 0.086790 0.563823
O O10 0.500000 0.500000 0.500000
#
# Coordination Sequence:
#
# PCOD9436464 Si02
#       5
#     8   8   8   4   4
#     4   9  18  28  49  87 129 174 227 284 347 412
#     4   9  19  34  61  89 130 179 231 292 346 408
#     4  11  24  44  71 103 138 187 241 288 351 425
#     4  12  27  50  74 105 146 176 218 284 349 420
#     4  10  19  40  64 101 138 182 236 304 341 408
#
# _framework density 21.915735999999999
#
# number of rings (size 3 to 8) (size 9 to 14) (size 15 to 20)
#    0.000    2.000    3.750    0.750   12.250    2.000 
#    0.000    0.000    0.000    1.500    0.000    0.000 
#    0.000    0.000    0.000    0.000    0.000    0.000 
#
# Total GULP energy -178316.897056 kJ/mol
# GULP energy per Si atom -5572.403033 kJ/mol
# Density = 2.186585 g / cm^3
# Si number density = 21.915736 Si / 1000 Ang^3
#
#
#
# Elastic Constant Matrix: (Units=GPa)
#
#
# Indices 1 2 3 4 5 6 
#
# 1 159.4803 76.2916 49.8787 0.0000 0.0000 0.0000
# 2 76.2916 123.0966 31.0804 0.0000 0.0000 0.0000
# 3 49.8787 31.0804 141.1107 0.0000 0.0000 0.0000
# 4 0.0000 0.0000 0.0000 -4.1816 0.0000 0.0000
# 5 0.0000 0.0000 0.0000 0.0000 -70.9141 0.0000
# 6 0.0000 0.0000 0.0000 0.0000 0.0000 19.8400
#
#
#
# Elastic Compliance Matrix: (Units=1/GPa)
#
#
# Indices 1 2 3 4 5 6 
#
# 1 0.009509 -0.005342 -0.002185 0.000000 0.000000 0.000000
# 2 -0.005342 0.011603 -0.000667 0.000000 0.000000 0.000000
# 3 -0.002185 -0.000667 0.008006 0.000000 0.000000 0.000000
# 4 0.000000 0.000000 0.000000 -0.239141 0.000000 0.000000
# 5 0.000000 0.000000 0.000000 0.000000 -0.014102 0.000000
# 6 0.000000 0.000000 0.000000 0.000000 0.000000 0.050403
#
#
# Mechanical properties :
#
#
# Convention : Reuss Voigt Hill
#
# Bulk Modulus (GPa) = 78.55412 82.02099 80.28756
# Shear Modulus (GPa) = -32.66032 6.71133 -12.97450
#
# Velocity S-wave (km/s) = -3.86459 1.75185 -2.43578
# Velocity P-wave (km/s) = 4.00102 6.44972 5.36689
#
# Compressibility (1/GPa) = 0.01273008
#
# Stress axis : x y z
#
# Youngs Moduli (GPa) = 105.16321 86.18518 124.90889
#
# Poissons Ratio (x) = 0.46039 0.27288
# Poissons Ratio (y) = 0.56176 0.08337
# Poissons Ratio (z) = 0.22974 0.05752
#
# Static dielectric constant tensor:
#      x y z
#    x 1.812140 0.000000 0.000000 
#    y 0.000000 3.858550 0.000000 
#    z 0.000000 0.000000 1.868560 
# 
# From -- ./inp_files/18826.got.cif
#   From: 2010.05.17/outbox.cif.g08.bks.cpg/sg57_10_cif.got.tgz:18826.got - 2010.06.03 13:58:18.
