data_PCOD9436235
_publ_section_title
;
Structure prediction by ZEFSAII (Michael W. Deem and Ramdas Pophale) SiO2 
 PCOD9436235
Probable space group: P B C M
;
_chemical_formula_sum "Si O2"
_cell_formula_units_Z 40
_cell_length_a 14.512402
_cell_length_b 15.082360
_cell_length_c 9.120053
_cell_angle_alpha 90.000000
_cell_angle_beta 90.000000
_cell_angle_gamma 90.000000
_cell_volume 1996.208796
_symmetry_space_group_name_H-M "P B C M"
_symmetry_group_IT_number 57
_symmetry_cell_setting 'orthorhombic'
loop_
_space_group_symop_operation_xyz
x,y,z
-x,-y,1/2+z
x,1/2-y,-z
-x,1/2+y,1/2-z
-x,-y,-z
x,y,1/2-z
-x,1/2+y,z
x,1/2-y,1/2+z
loop_
_atom_site_type_symbol
_atom_site_label
_atom_site_fract_x
_atom_site_fract_y
_atom_site_fract_z
Si Si1 0.139483 0.830234 0.087325
Si Si2 0.744809 0.847458 0.072297
Si Si3 0.598646 0.978407 0.928019
Si Si4 0.900144 0.993645 0.424962
Si Si5 0.352525 0.828026 0.407894
O O1 0.099209 0.846061 0.250000
O O2 0.245675 0.803936 0.109945
O O3 0.091958 0.750000 0.000000
O O4 0.143359 0.916867 0.988603
O O5 0.736325 0.841560 0.250000
O O6 0.835136 0.909140 0.039223
O O7 0.752620 0.750000 0.000000
O O8 0.656992 0.899901 0.003166
O O9 0.594305 0.965412 0.750000
O O10 0.648178 0.071909 0.962028
O O11 0.500000 0.000000 0.000000
O O12 0.908607 0.997318 0.250000
O O13 0.000000 0.000000 0.500000
O O14 0.397429 0.750000 0.500000
O O15 0.399372 0.830171 0.250000
#
# Coordination Sequence:
#
# PCOD9436235 Si02
#       5
#     8   8   8   8   8
#     4  10  19  35  59  88 120 155 197 248 309 373
#     4  11  25  45  69  96 129 175 225 275 335 399
#     4  11  23  41  64  94 130 171 217 269 324 387
#     4  11  24  41  64  94 128 169 217 269 326 391
#     4   9  19  34  57  86 117 153 194 244 305 365
#
# _framework density 20.037984999999999
#
# number of rings (size 3 to 8) (size 9 to 14) (size 15 to 20)
#    0.000    1.600    2.000    2.400    0.000    6.400 
#    0.000    4.000    0.000    0.000    0.000    0.000 
#    0.000    0.000    0.000    0.000    0.000    0.000 
#
# Total GULP energy -222686.775878 kJ/mol
# GULP energy per Si atom -5567.169397 kJ/mol
# Density = 1.999238 g / cm^3
# Si number density = 20.037985 Si / 1000 Ang^3
#
#
#
# Elastic Constant Matrix: (Units=GPa)
#
#
# Indices 1 2 3 4 5 6 
#
# 1 95.9715 44.2332 62.6605 0.0000 0.0000 0.0000
# 2 44.2332 182.0321 95.4088 0.0000 0.0000 0.0000
# 3 62.6605 95.4088 120.4703 0.0000 0.0000 0.0000
# 4 0.0000 0.0000 0.0000 36.9467 0.0000 0.0000
# 5 0.0000 0.0000 0.0000 0.0000 16.7477 0.0000
# 6 0.0000 0.0000 0.0000 0.0000 0.0000 -5.7905
#
#
#
# Elastic Compliance Matrix: (Units=1/GPa)
#
#
# Indices 1 2 3 4 5 6 
#
# 1 0.015846 0.000802 -0.008878 0.000000 0.000000 0.000000
# 2 0.000802 0.009433 -0.007888 0.000000 0.000000 0.000000
# 3 -0.008878 -0.007888 0.019165 0.000000 0.000000 0.000000
# 4 0.000000 0.000000 0.000000 0.027066 0.000000 0.000000
# 5 0.000000 0.000000 0.000000 0.000000 0.059710 0.000000
# 6 0.000000 0.000000 0.000000 0.000000 0.000000 -0.172697
#
#
# Mechanical properties :
#
#
# Convention : Reuss Voigt Hill
#
# Bulk Modulus (GPa) = 79.88373 89.23100 84.55737
# Shear Modulus (GPa) = -929.69389 22.65886 -453.51751
#
# Velocity S-wave (km/s) = -21.56323 3.36638 -15.06055
# Velocity P-wave (km/s) = 24.08342 7.72901 16.12876
#
# Compressibility (1/GPa) = 0.01251819
#
# Stress axis : x y z
#
# Youngs Moduli (GPa) = 63.10662 106.01247 52.17744
#
# Poissons Ratio (x) = -0.08507 0.46321
# Poissons Ratio (y) = -0.05064 0.41157
# Poissons Ratio (z) = 0.56024 0.83622
#
# Static dielectric constant tensor:
#      x y z
#    x 1.632770 0.000000 0.000000 
#    y 0.000000 3.279660 0.000000 
#    z 0.000000 0.000000 1.852830 
# 
# From -- ./inp_files/4257.got.cif
#   From: 2010.05.17/outbox.cif.g08.bks.cpg/sg57_3_cif.got.tgz:4257.got - 2010.06.03 13:58:18.
