data_PCOD9436931
_publ_section_title
;
Structure prediction by ZEFSAII (Michael W. Deem and Ramdas Pophale) SiO2 
 PCOD9436931
Probable space group: P B C M
;
_chemical_formula_sum "Si O2"
_cell_formula_units_Z 60
_cell_length_a 20.496347
_cell_length_b 14.234197
_cell_length_c 9.395167
_cell_angle_alpha 90.000000
_cell_angle_beta 90.000000
_cell_angle_gamma 90.000000
_cell_volume 2741.030962
_symmetry_space_group_name_H-M "P B C M"
_symmetry_group_IT_number 57
_symmetry_cell_setting 'orthorhombic'
loop_
_space_group_symop_operation_xyz
x,y,z
-x,-y,1/2+z
x,1/2-y,-z
-x,1/2+y,1/2-z
-x,-y,-z
x,y,1/2-z
-x,1/2+y,z
x,1/2-y,1/2+z
loop_
_atom_site_type_symbol
_atom_site_label
_atom_site_fract_x
_atom_site_fract_y
_atom_site_fract_z
Si Si1 0.949931 0.120036 0.412020
Si Si2 0.075384 0.102747 0.912811
Si Si3 0.366017 0.840386 0.906335
Si Si4 0.486339 0.140969 0.019346
Si Si5 0.206408 0.154567 0.419101
Si Si6 0.468151 0.989960 0.250000
Si Si7 0.179120 0.833068 0.412552
Si Si8 0.293903 0.517993 0.591945
O O1 0.950476 0.156591 0.250000
O O2 0.887602 0.148674 0.504262
O O3 0.015603 0.144163 0.496644
O O4 0.942229 0.007315 0.402148
O O5 0.080811 0.139069 0.750000
O O6 0.142053 0.115327 0.000536
O O7 0.338117 0.827693 0.750000
O O8 0.351197 0.750000 0.000000
O O9 0.443677 0.846865 0.902921
O O10 0.339032 0.934476 0.976586
O O11 0.504829 0.085445 0.874447
O O12 0.461677 0.250000 0.000000
O O13 0.449030 0.068665 0.123227
O O14 0.221190 0.250000 0.500000
O O15 0.192932 0.164959 0.250000
O O16 0.268179 0.085765 0.432095
O O17 0.212226 0.750000 0.500000
O O18 0.166657 0.806479 0.250000
O O19 0.226827 0.921557 0.410815
O O20 0.324337 0.530759 0.750000
#
# Coordination Sequence:
#
# PCOD9436931 Si02
#       8
#     8   8   8   8   8   4   8   8
#     4  10  20  34  55  81 112 145 183 231 296 364
#     4  10  20  35  57  83 109 143 184 237 296 362
#     4  11  23  38  63  97 131 167 212 260 312 365
#     4  10  21  37  62  99 137 183 225 275 318 382
#     4  11  23  41  63  87 111 146 198 251 304 367
#     4  10  20  36  62  96 138 178 226 268 330 372
#     4  11  22  37  55  81 115 149 187 231 292 364
#     4  10  23  41  62  87 117 157 199 251 308 359
#
# _framework density 21.889575000000001
#
# number of rings (size 3 to 8) (size 9 to 14) (size 15 to 20)
#    0.000    1.600    2.000    2.800    3.733    4.800 
#    0.000    2.667    0.000    4.800    0.000    0.000 
#    0.000    0.000    0.000    0.000    0.000    0.000 
#
# Total GULP energy -334228.675823 kJ/mol
# GULP energy per Si atom -5570.477930 kJ/mol
# Density = 2.183975 g / cm^3
# Si number density = 21.889575 Si / 1000 Ang^3
#
#
#
# Elastic Constant Matrix: (Units=GPa)
#
#
# Indices 1 2 3 4 5 6 
#
# 1 23.0548 -8.8933 17.7321 0.0000 0.0000 0.0000
# 2 -8.8933 113.8437 49.0782 0.0000 0.0000 0.0000
# 3 17.7321 49.0782 201.6472 0.0000 0.0000 0.0000
# 4 0.0000 0.0000 0.0000 25.9486 0.0000 0.0000
# 5 0.0000 0.0000 0.0000 0.0000 33.7376 0.0000
# 6 0.0000 0.0000 0.0000 0.0000 0.0000 -412.3947
#
#
#
# Elastic Compliance Matrix: (Units=1/GPa)
#
#
# Indices 1 2 3 4 5 6 
#
# 1 0.050548 0.006552 -0.006040 0.000000 0.000000 0.000000
# 2 0.006552 0.010663 -0.003171 0.000000 0.000000 0.000000
# 3 -0.006040 -0.003171 0.006262 0.000000 0.000000 0.000000
# 4 0.000000 0.000000 0.000000 0.038538 0.000000 0.000000
# 5 0.000000 0.000000 0.000000 0.000000 0.029641 0.000000
# 6 0.000000 0.000000 0.000000 0.000000 0.000000 -0.002425
#
#
# Mechanical properties :
#
#
# Convention : Reuss Voigt Hill
#
# Bulk Modulus (GPa) = 16.08864 50.48663 33.28763
# Shear Modulus (GPa) = 31.39469 -51.83313 -10.21922
#
# Velocity S-wave (km/s) = 3.79123 -4.87142 -2.16302
# Velocity P-wave (km/s) = 5.15077 2.92006 3.00031
#
# Compressibility (1/GPa) = 0.06215567
#
# Stress axis : x y z
#
# Youngs Moduli (GPa) = 19.78320 93.78176 159.68942
#
# Poissons Ratio (x) = -0.61450 0.96449
# Poissons Ratio (y) = -0.12963 0.50645
# Poissons Ratio (z) = 0.11949 0.29742
#
# Static dielectric constant tensor:
#      x y z
#    x 1.848640 0.000000 0.000000 
#    y 0.000000 1.832200 0.000000 
#    z 0.000000 0.000000 1.766310 
# 
# From -- ./inp_files/9203.got.cif
#   From: 2010.05.17/outbox.cif.g08.bks.cpg/sg57_5_cif.got.tgz:9203.got - 2010.06.03 13:58:18.
