data_PCOD9436002
_publ_section_title
;
Structure prediction by ZEFSAII (Michael W. Deem and Ramdas Pophale) SiO2 
 PCOD9436002
Probable space group: P B C M
;
_chemical_formula_sum "Si O2"
_cell_formula_units_Z 48
_cell_length_a 16.841859
_cell_length_b 18.291972
_cell_length_c 8.930201
_cell_angle_alpha 90.000000
_cell_angle_beta 90.000000
_cell_angle_gamma 90.000000
_cell_volume 2751.134285
_symmetry_space_group_name_H-M "P B C M"
_symmetry_group_IT_number 57
_symmetry_cell_setting 'orthorhombic'
loop_
_space_group_symop_operation_xyz
x,y,z
-x,-y,1/2+z
x,1/2-y,-z
-x,1/2+y,1/2-z
-x,-y,-z
x,y,1/2-z
-x,1/2+y,z
x,1/2-y,1/2+z
loop_
_atom_site_type_symbol
_atom_site_label
_atom_site_fract_x
_atom_site_fract_y
_atom_site_fract_z
Si Si1 0.821184 0.607868 0.073062
Si Si2 0.416967 0.022372 0.928478
Si Si3 0.333854 0.174224 0.929482
Si Si4 0.734101 0.046776 0.927039
Si Si5 0.012705 0.419797 0.069956
Si Si6 0.854823 0.329599 0.430315
O O1 0.826237 0.623867 0.250000
O O2 0.791229 0.523907 0.056250
O O3 0.753053 0.656153 0.996311
O O4 0.906195 0.613415 0.995068
O O5 0.422428 0.018626 0.750000
O O6 0.389298 0.104915 0.969150
O O7 0.500000 0.000000 0.000000
O O8 0.346242 0.970367 0.985790
O O9 0.329375 0.179379 0.750000
O O10 0.362371 0.250000 0.000000
O O11 0.716381 0.053202 0.750000
O O12 0.782616 0.117624 0.977618
O O13 0.017053 0.425979 0.250000
O O14 0.937319 0.369663 0.030464
O O15 0.000000 0.500000 0.000000
O O16 0.849981 0.250000 0.500000
O O17 0.852221 0.324753 0.250000
#
# Coordination Sequence:
#
# PCOD9436002 Si02
#       6
#     8   8   8   8   8   8
#     4  10  19  34  56  81 109 145 185 229 282 332
#     4  10  21  37  60  89 114 142 184 225 272 333
#     4  10  21  37  57  85 116 148 185 228 279 336
#     4   9  18  36  57  78 108 142 179 224 274 330
#     4  11  21  35  54  79 111 148 195 240 282 334
#     4  10  22  38  54  78 110 146 188 233 281 328
#
# _framework density 17.447348999999999
#
# number of rings (size 3 to 8) (size 9 to 14) (size 15 to 20)
#    0.000    2.000    1.667    2.000    0.000    5.333 
#    0.000    2.500    0.000    0.000    0.000    0.000 
#    0.000    0.000    0.000    0.000    0.000    0.000 
#
# Total GULP energy -268028.666463 kJ/mol
# GULP energy per Si atom -5583.930551 kJ/mol
# Density = 1.740764 g / cm^3
# Si number density = 17.447349 Si / 1000 Ang^3
#
#
#
# Elastic Constant Matrix: (Units=GPa)
#
#
# Indices 1 2 3 4 5 6 
#
# 1 159.3781 78.0321 63.8849 0.0000 0.0000 0.0000
# 2 78.0321 126.8933 53.8757 0.0000 0.0000 0.0000
# 3 63.8849 53.8757 62.8110 0.0000 0.0000 0.0000
# 4 0.0000 0.0000 0.0000 32.0295 0.0000 0.0000
# 5 0.0000 0.0000 0.0000 0.0000 34.1347 0.0000
# 6 0.0000 0.0000 0.0000 0.0000 0.0000 16.3415
#
#
#
# Elastic Compliance Matrix: (Units=1/GPa)
#
#
# Indices 1 2 3 4 5 6 
#
# 1 0.011401 -0.003283 -0.008780 0.000000 0.000000 0.000000
# 2 -0.003283 0.013340 -0.008103 0.000000 0.000000 0.000000
# 3 -0.008780 -0.008103 0.031801 0.000000 0.000000 0.000000
# 4 0.000000 0.000000 0.000000 0.031221 0.000000 0.000000
# 5 0.000000 0.000000 0.000000 0.000000 0.029296 0.000000
# 6 0.000000 0.000000 0.000000 0.000000 0.000000 0.061194
#
#
# Mechanical properties :
#
#
# Convention : Reuss Voigt Hill
#
# Bulk Modulus (GPa) = 61.69018 82.29643 71.99330
# Shear Modulus (GPa) = 22.32261 26.72044 24.52153
#
# Velocity S-wave (km/s) = 3.58079 3.91767 3.75301
# Velocity P-wave (km/s) = 7.24781 8.23013 7.75454
#
# Compressibility (1/GPa) = 0.01621003
#
# Stress axis : x y z
#
# Youngs Moduli (GPa) = 87.70952 74.96284 31.44579
#
# Poissons Ratio (x) = 0.24613 0.27609
# Poissons Ratio (y) = 0.28799 0.25480
# Poissons Ratio (z) = 0.77008 0.60740
#
# Static dielectric constant tensor:
#      x y z
#    x 1.569820 0.000000 0.000000 
#    y 0.000000 1.586360 0.000000 
#    z 0.000000 0.000000 1.584050 
# 
# From -- ./inp_files/4546.got.cif
#   From: 2010.05.17/outbox.cif.g08.bks.cpg/sg57_3_cif.got.tgz:4546.got - 2010.06.03 13:58:18.
