data_PCOD9436238
_publ_section_title
;
Structure prediction by ZEFSAII (Michael W. Deem and Ramdas Pophale) SiO2 
 PCOD9436238
Probable space group: P B C M
;
_chemical_formula_sum "Si O2"
_cell_formula_units_Z 64
_cell_length_a 24.194223
_cell_length_b 15.729646
_cell_length_c 8.780335
_cell_angle_alpha 90.000000
_cell_angle_beta 90.000000
_cell_angle_gamma 90.000000
_cell_volume 3341.501913
_symmetry_space_group_name_H-M "P B C M"
_symmetry_group_IT_number 57
_symmetry_cell_setting 'orthorhombic'
loop_
_space_group_symop_operation_xyz
x,y,z
-x,-y,1/2+z
x,1/2-y,-z
-x,1/2+y,1/2-z
-x,-y,-z
x,y,1/2-z
-x,1/2+y,z
x,1/2-y,1/2+z
loop_
_atom_site_type_symbol
_atom_site_label
_atom_site_fract_x
_atom_site_fract_y
_atom_site_fract_z
Si Si1 0.634718 0.490384 0.933441
Si Si2 0.942749 0.899294 0.570233
Si Si3 0.829666 0.339714 0.930218
Si Si4 0.441206 0.657888 0.933110
Si Si5 0.177795 0.160680 0.433424
Si Si6 0.430056 0.340860 0.067298
Si Si7 0.058510 0.604375 0.572725
Si Si8 0.243028 0.508793 0.566780
O O1 0.635565 0.486657 0.750000
O O2 0.607633 0.580390 0.980964
O O3 0.596788 0.415004 0.997450
O O4 0.696115 0.483321 0.998606
O O5 0.950660 0.881859 0.750000
O O6 0.885480 0.857904 0.517679
O O7 0.996961 0.871526 0.479345
O O8 0.937103 0.001746 0.555140
O O9 0.822210 0.340230 0.750000
O O10 0.811625 0.250000 0.000000
O O11 0.893858 0.353971 0.972725
O O12 0.795545 0.415968 0.005706
O O13 0.436822 0.658686 0.750000
O O14 0.505735 0.643087 0.974979
O O15 0.425845 0.750000 0.000000
O O16 0.196811 0.250000 0.500000
O O17 0.177650 0.164277 0.250000
O O18 0.215563 0.081102 0.478735
O O19 0.427939 0.335130 0.250000
O O20 0.413209 0.250000 0.000000
O O21 0.067648 0.624889 0.750000
O O22 0.244732 0.512461 0.750000
#
# Coordination Sequence:
#
# PCOD9436238 Si02
#       8
#     8   8   8   8   8   8   8   8
#     4  11  23  39  60  90 122 158 202 249 294 353
#     4   9  18  35  57  85 120 157 194 239 295 354
#     4  12  25  42  65  90 117 154 197 246 302 363
#     4  10  20  37  61  91 124 163 200 244 297 350
#     4  10  22  40  62  86 117 154 196 245 297 353
#     4   9  20  37  60  90 127 162 201 245 294 350
#     4  10  19  35  59  88 121 155 193 241 295 356
#     4  11  24  45  64  85 118 157 201 253 300 349
#
# _framework density 19.153064000000001
#
# number of rings (size 3 to 8) (size 9 to 14) (size 15 to 20)
#    0.000    1.750    1.250    3.000    0.000    5.000 
#    0.000    6.250    0.000    0.000    0.000    0.000 
#    0.000    0.000    0.000    0.000    0.000    0.000 
#
# Total GULP energy -357771.281144 kJ/mol
# GULP energy per Si atom -5590.176268 kJ/mol
# Density = 1.910947 g / cm^3
# Si number density = 19.153064 Si / 1000 Ang^3
#
#
#
# Elastic Constant Matrix: (Units=GPa)
#
#
# Indices 1 2 3 4 5 6 
#
# 1 59.7841 29.6834 21.6444 0.0000 0.0000 0.0000
# 2 29.6834 91.1786 32.1536 0.0000 0.0000 0.0000
# 3 21.6444 32.1536 60.3305 0.0000 0.0000 0.0000
# 4 0.0000 0.0000 0.0000 32.7548 0.0000 0.0000
# 5 0.0000 0.0000 0.0000 0.0000 13.1013 0.0000
# 6 0.0000 0.0000 0.0000 0.0000 0.0000 -15.9820
#
#
#
# Elastic Compliance Matrix: (Units=1/GPa)
#
#
# Indices 1 2 3 4 5 6 
#
# 1 0.021021 -0.005152 -0.004796 0.000000 0.000000 0.000000
# 2 -0.005152 0.014769 -0.006023 0.000000 0.000000 0.000000
# 3 -0.004796 -0.006023 0.021506 0.000000 0.000000 0.000000
# 4 0.000000 0.000000 0.000000 0.030530 0.000000 0.000000
# 5 0.000000 0.000000 0.000000 0.000000 0.076328 0.000000
# 6 0.000000 0.000000 0.000000 0.000000 0.000000 -0.062570
#
#
# Mechanical properties :
#
#
# Convention : Reuss Voigt Hill
#
# Bulk Modulus (GPa) = 39.44097 42.02845 40.73471
# Shear Modulus (GPa) = 35.21715 14.49560 24.85638
#
# Velocity S-wave (km/s) = 4.29268 2.75404 3.60637
# Velocity P-wave (km/s) = 6.72359 5.66604 6.21735
#
# Compressibility (1/GPa) = 0.02535435
#
# Stress axis : x y z
#
# Youngs Moduli (GPa) = 47.57077 67.71086 46.49937
#
# Poissons Ratio (x) = 0.34887 0.22300
# Poissons Ratio (y) = 0.24510 0.28005
# Poissons Ratio (z) = 0.22813 0.40779
#
# Static dielectric constant tensor:
#      x y z
#    x 1.642050 0.000000 0.000000 
#    y 0.000000 1.657260 0.000000 
#    z 0.000000 0.000000 1.643730 
# 
# From -- ./inp_files/9393.got.cif
#   From: 2010.05.17/outbox.cif.g08.bks.cpg/sg57_5_cif.got.tgz:9393.got - 2010.06.03 13:58:18.
