data_PCOD9436178
_publ_section_title
;
Structure prediction by ZEFSAII (Michael W. Deem and Ramdas Pophale) SiO2 
 PCOD9436178
Probable space group: P B C M
;
_chemical_formula_sum "Si O2"
_cell_formula_units_Z 64
_cell_length_a 22.079671
_cell_length_b 18.000348
_cell_length_c 8.589158
_cell_angle_alpha 90.000000
_cell_angle_beta 90.000000
_cell_angle_gamma 90.000000
_cell_volume 3413.690087
_symmetry_space_group_name_H-M "P B C M"
_symmetry_group_IT_number 57
_symmetry_cell_setting 'orthorhombic'
loop_
_space_group_symop_operation_xyz
x,y,z
-x,-y,1/2+z
x,1/2-y,-z
-x,1/2+y,1/2-z
-x,-y,-z
x,y,1/2-z
-x,1/2+y,z
x,1/2-y,1/2+z
loop_
_atom_site_type_symbol
_atom_site_label
_atom_site_fract_x
_atom_site_fract_y
_atom_site_fract_z
Si Si1 0.753814 0.098688 0.438026
Si Si2 0.497682 0.169184 0.565491
Si Si3 0.875930 0.171971 0.436570
Si Si4 0.383114 0.897211 0.564258
Si Si5 0.933850 0.482905 0.936638
Si Si6 0.283016 0.333023 0.562598
Si Si7 0.813969 0.949627 0.563458
Si Si8 0.603579 0.937253 0.936563
O O1 0.755691 0.090790 0.250000
O O2 0.806421 0.155859 0.484829
O O3 0.686026 0.120709 0.481766
O O4 0.773293 0.019688 0.509400
O O5 0.480865 0.250000 0.500000
O O6 0.488536 0.166996 0.750000
O O7 0.566988 0.151277 0.522891
O O8 0.456563 0.106792 0.484386
O O9 0.897855 0.250000 0.500000
O O10 0.877628 0.174094 0.250000
O O11 0.913540 0.099889 0.487762
O O12 0.389929 0.887439 0.750000
O O13 0.393099 0.983455 0.519890
O O14 0.934115 0.484753 0.750000
O O15 0.880766 0.537498 0.995438
O O16 0.000000 0.500000 0.000000
O O17 0.288114 0.250000 0.500000
O O18 0.283406 0.329875 0.750000
O O19 0.221671 0.375592 0.513123
O O20 0.339733 0.385038 0.516878
O O21 0.817522 0.950243 0.750000
O O22 0.605407 0.948523 0.750000
#
# Coordination Sequence:
#
# PCOD9436178 Si02
#       8
#     8   8   8   8   8   8   8   8
#     4   9  19  35  56  83 114 148 188 232 280 336
#     4  12  26  43  59  80 111 150 193 243 299 356
#     4   9  19  35  55  84 118 149 187 232 278 331
#     4  11  22  38  61  87 114 151 193 239 293 350
#     4  10  21  38  60  87 116 153 196 238 281 335
#     4  10  22  36  56  85 116 148 188 236 290 344
#     4  10  19  35  57  84 115 148 187 232 280 336
#     4  11  22  40  61  85 114 148 194 243 291 352
#
# _framework density 18.74804
#
# number of rings (size 3 to 8) (size 9 to 14) (size 15 to 20)
#    0.000    1.750    1.250    4.125    0.000    6.500 
#    0.000    1.875    0.000    0.000    0.000    0.000 
#    0.000    0.000    0.000    0.000    0.000    0.000 
#
# Total GULP energy -357535.004050 kJ/mol
# GULP energy per Si atom -5586.484438 kJ/mol
# Density = 1.870537 g / cm^3
# Si number density = 18.748040 Si / 1000 Ang^3
#
#
#
# Elastic Constant Matrix: (Units=GPa)
#
#
# Indices 1 2 3 4 5 6 
#
# 1 97.9757 -0.1419 10.6448 0.0000 0.0000 0.0000
# 2 -0.1419 45.7783 -1.3572 0.0000 0.0000 0.0000
# 3 10.6448 -1.3572 25.1503 0.0000 0.0000 0.0000
# 4 0.0000 0.0000 0.0000 31.0724 0.0000 0.0000
# 5 0.0000 0.0000 0.0000 0.0000 27.4333 0.0000
# 6 0.0000 0.0000 0.0000 0.0000 0.0000 14.0553
#
#
#
# Elastic Compliance Matrix: (Units=1/GPa)
#
#
# Indices 1 2 3 4 5 6 
#
# 1 0.010699 -0.000101 -0.004534 0.000000 0.000000 0.000000
# 2 -0.000101 0.021880 0.001224 0.000000 0.000000 0.000000
# 3 -0.004534 0.001224 0.041746 0.000000 0.000000 0.000000
# 4 0.000000 0.000000 0.000000 0.032183 0.000000 0.000000
# 5 0.000000 0.000000 0.000000 0.000000 0.036452 0.000000
# 6 0.000000 0.000000 0.000000 0.000000 0.000000 0.071147
#
#
# Mechanical properties :
#
#
# Convention : Reuss Voigt Hill
#
# Bulk Modulus (GPa) = 14.81430 20.79952 17.80691
# Shear Modulus (GPa) = 20.53968 25.16278 22.85123
#
# Velocity S-wave (km/s) = 3.31352 3.66752 3.49500
# Velocity P-wave (km/s) = 4.74954 5.39004 5.07990
#
# Compressibility (1/GPa) = 0.06750233
#
# Stress axis : x y z
#
# Youngs Moduli (GPa) = 93.46622 45.70303 23.95448
#
# Poissons Ratio (x) = 0.00463 0.10860
# Poissons Ratio (y) = 0.00946 -0.02931
# Poissons Ratio (z) = 0.42376 -0.05592
#
# Static dielectric constant tensor:
#      x y z
#    x 1.655200 0.000000 0.000000 
#    y 0.000000 1.625020 0.000000 
#    z 0.000000 0.000000 1.625820 
# 
# From -- ./inp_files/8451.got.cif
#   From: 2010.05.17/outbox.cif.g08.bks.cpg/sg57_5_cif.got.tgz:8451.got - 2010.06.03 13:58:18.
