data_PCOD9436609
_publ_section_title
;
Structure prediction by ZEFSAII (Michael W. Deem and Ramdas Pophale) SiO2 
 PCOD9436609
Probable space group: P B C M
;
_chemical_formula_sum "Si O2"
_cell_formula_units_Z 40
_cell_length_a 27.185358
_cell_length_b 9.226457
_cell_length_c 8.707140
_cell_angle_alpha 90.000000
_cell_angle_beta 90.000000
_cell_angle_gamma 90.000000
_cell_volume 2183.964356
_symmetry_space_group_name_H-M "P B C M"
_symmetry_group_IT_number 57
_symmetry_cell_setting 'orthorhombic'
loop_
_space_group_symop_operation_xyz
x,y,z
-x,-y,1/2+z
x,1/2-y,-z
-x,1/2+y,1/2-z
-x,-y,-z
x,y,1/2-z
-x,1/2+y,z
x,1/2-y,1/2+z
loop_
_atom_site_type_symbol
_atom_site_label
_atom_site_fract_x
_atom_site_fract_y
_atom_site_fract_z
Si Si1 0.453787 0.588300 0.066043
Si Si2 0.747307 0.586688 0.066907
Si Si3 0.954462 0.912181 0.434026
Si Si4 0.153563 0.413925 0.066410
Si Si5 0.637914 0.913664 0.934807
O O1 0.455882 0.590665 0.250000
O O2 0.455364 0.750000 0.000000
O O3 0.500000 0.500000 0.000000
O O4 0.404257 0.509814 0.009509
O O5 0.752158 0.594290 0.250000
O O6 0.693015 0.527203 0.030294
O O7 0.746100 0.750000 0.000000
O O8 0.796668 0.515736 0.999158
O O9 0.956501 0.750000 0.500000
O O10 0.957471 0.906661 0.250000
O O11 0.900243 0.976011 0.474268
O O12 0.000000 0.000000 0.500000
O O13 0.157458 0.406726 0.250000
O O14 0.152530 0.250000 0.000000
O O15 0.632315 0.909078 0.750000
O O16 0.634308 0.750000 0.000000
#
# Coordination Sequence:
#
# PCOD9436609 Si02
#       5
#     8   8   8   8   8
#     4  12  25  42  62  84 111 144 180 220 264 311
#     4   9  16  26  45  72 103 135 169 210 255 302
#     4  10  20  33  50  73 101 135 173 217 265 316
#     4   9  16  26  43  68  98 130 168 211 257 306
#     4  10  20  35  55  83 114 144 178 216 260 311
#
# _framework density 18.315315999999999
#
# number of rings (size 3 to 8) (size 9 to 14) (size 15 to 20)
#    0.000    2.000    0.000    6.000    0.000    4.800 
#    0.000    0.000    0.000    1.200    0.000    8.400 
#    0.000    0.000    0.000    0.000    0.000    0.000 
#
# Total GULP energy -223072.884301 kJ/mol
# GULP energy per Si atom -5576.822108 kJ/mol
# Density = 1.827363 g / cm^3
# Si number density = 18.315316 Si / 1000 Ang^3
#
#
#
# Elastic Constant Matrix: (Units=GPa)
#
#
# Indices 1 2 3 4 5 6 
#
# 1 236.2728 68.3660 92.3466 0.0000 0.0000 0.0000
# 2 68.3660 59.7079 33.6703 0.0000 0.0000 0.0000
# 3 92.3466 33.6703 118.5843 0.0000 0.0000 0.0000
# 4 0.0000 0.0000 0.0000 23.8273 0.0000 0.0000
# 5 0.0000 0.0000 0.0000 0.0000 36.1583 0.0000
# 6 0.0000 0.0000 0.0000 0.0000 0.0000 27.0957
#
#
#
# Elastic Compliance Matrix: (Units=1/GPa)
#
#
# Indices 1 2 3 4 5 6 
#
# 1 0.007756 -0.006518 -0.004189 0.000000 0.000000 0.000000
# 2 -0.006518 0.025419 -0.002141 0.000000 0.000000 0.000000
# 3 -0.004189 -0.002141 0.012303 0.000000 0.000000 0.000000
# 4 0.000000 0.000000 0.000000 0.041969 0.000000 0.000000
# 5 0.000000 0.000000 0.000000 0.000000 0.027656 0.000000
# 6 0.000000 0.000000 0.000000 0.000000 0.000000 0.036906
#
#
# Mechanical properties :
#
#
# Convention : Reuss Voigt Hill
#
# Bulk Modulus (GPa) = 50.55431 89.25897 69.90664
# Shear Modulus (GPa) = 27.12981 32.09508 29.61245
#
# Velocity S-wave (km/s) = 3.85289 4.19067 4.02532
# Velocity P-wave (km/s) = 6.88877 8.50035 7.73664
#
# Compressibility (1/GPa) = 0.01978071
#
# Stress axis : x y z
#
# Youngs Moduli (GPa) = 128.93833 39.34059 81.28118
#
# Poissons Ratio (x) = 0.25642 0.34048
# Poissons Ratio (y) = 0.84043 0.17406
# Poissons Ratio (z) = 0.54012 0.08425
#
# Static dielectric constant tensor:
#      x y z
#    x 1.699230 0.000000 0.000000 
#    y 0.000000 1.597140 0.000000 
#    z 0.000000 0.000000 1.609650 
# 
# From -- ./inp_files/9631.got.cif
#   From: 2010.05.17/outbox.cif.g08.bks.cpg/sg57_5_cif.got.tgz:9631.got - 2010.06.03 13:58:18.
