data_PCOD9436282
_publ_section_title
;
Structure prediction by ZEFSAII (Michael W. Deem and Ramdas Pophale) SiO2 
 PCOD9436282
Probable space group: P B C M
;
_chemical_formula_sum "Si O2"
_cell_formula_units_Z 44
_cell_length_a 6.928548
_cell_length_b 10.838323
_cell_length_c 24.508568
_cell_angle_alpha 90.000000
_cell_angle_beta 90.000000
_cell_angle_gamma 90.000000
_cell_volume 1840.442512
_symmetry_space_group_name_H-M "P B C M"
_symmetry_group_IT_number 57
_symmetry_cell_setting 'orthorhombic'
loop_
_space_group_symop_operation_xyz
x,y,z
-x,-y,1/2+z
x,1/2-y,-z
-x,1/2+y,1/2-z
-x,-y,-z
x,y,1/2-z
-x,1/2+y,z
x,1/2-y,1/2+z
loop_
_atom_site_type_symbol
_atom_site_label
_atom_site_fract_x
_atom_site_fract_y
_atom_site_fract_z
Si Si1 0.748995 0.495324 0.870118
Si Si2 0.502052 0.819259 0.750000
Si Si3 0.698470 0.734079 0.131957
Si Si4 0.789065 0.498582 0.750000
Si Si5 0.306653 0.738744 0.435571
Si Si6 0.154505 0.865297 0.250000
Si Si7 0.280055 0.970265 0.134648
O O1 0.809964 0.638008 0.875672
O O2 0.828592 0.452029 0.811408
O O3 0.780872 0.390430 0.914562
O O4 0.513839 0.512253 0.866794
O O5 0.608636 0.778594 0.805967
O O6 0.441502 0.964779 0.750000
O O7 0.290521 0.754732 0.750000
O O8 0.524251 0.736183 0.088548
O O9 0.803386 0.605000 0.122041
O O10 0.919642 0.624860 0.750000
O O11 0.301216 0.750000 0.500000
O O12 0.227262 0.862051 0.406930
O O13 0.215724 0.931799 0.194563
#
# Coordination Sequence:
#
# PCOD9436282 Si02
#       7
#     8   4   8   4   8   4   8
#     4  10  19  36  55  85 114 155 186 224 286 342
#     4  12  18  38  52  84 114 156 176 220 296 348
#     4  10  20  31  62  79 117 147 191 227 280 345
#     4  12  22  33  57  86 119 145 186 235 281 347
#     4  10  20  34  57  84 115 148 193 238 277 326
#     4  12  22  33  57  86 119 145 186 235 281 347
#     4  10  19  36  55  85 114 155 186 224 286 342
#
# _framework density 23.907295000000001
#
# number of rings (size 3 to 8) (size 9 to 14) (size 15 to 20)
#    0.000    1.455    7.273    1.636    0.000    8.000 
#    0.000    0.000    0.000    1.091    0.000   10.182 
#    0.000    0.000    0.000    0.000    0.000    0.000 
#
# Total GULP energy -245183.546955 kJ/mol
# GULP energy per Si atom -5572.353340 kJ/mol
# Density = 2.385288 g / cm^3
# Si number density = 23.907295 Si / 1000 Ang^3
#
#
#
# Elastic Constant Matrix: (Units=GPa)
#
#
# Indices 1 2 3 4 5 6 
#
# 1 110.8610 21.5885 45.7979 0.0000 0.0000 0.0000
# 2 21.5885 230.5211 106.5259 0.0000 0.0000 0.0000
# 3 45.7979 106.5259 205.6031 0.0000 0.0000 0.0000
# 4 0.0000 0.0000 0.0000 -0.0598 0.0000 0.0000
# 5 0.0000 0.0000 0.0000 0.0000 3.3503 0.0000
# 6 0.0000 0.0000 0.0000 0.0000 0.0000 -22.0675
#
#
#
# Elastic Compliance Matrix: (Units=1/GPa)
#
#
# Indices 1 2 3 4 5 6 
#
# 1 0.009937 0.000121 -0.002276 0.000000 0.000000 0.000000
# 2 0.000121 0.005705 -0.002983 0.000000 0.000000 0.000000
# 3 -0.002276 -0.002983 0.006916 0.000000 0.000000 0.000000
# 4 0.000000 0.000000 0.000000-16.735598 0.000000 0.000000
# 5 0.000000 0.000000 0.000000 0.000000 0.298479 0.000000
# 6 0.000000 0.000000 0.000000 0.000000 0.000000 -0.045316
#
#
# Mechanical properties :
#
#
# Convention : Reuss Voigt Hill
#
# Bulk Modulus (GPa) = 81.41630 99.42332 90.41981
# Shear Modulus (GPa) = -0.30403 21.11614 10.40605
#
# Velocity S-wave (km/s) = -0.35700 2.97518 2.08857
# Velocity P-wave (km/s) = 5.82744 7.31297 6.61206
#
# Compressibility (1/GPa) = 0.01228255
#
# Stress axis : x y z
#
# Youngs Moduli (GPa) = 100.63348 175.28301 144.58670
#
# Poissons Ratio (x) = -0.02126 0.32912
# Poissons Ratio (y) = -0.01221 0.43129
# Poissons Ratio (z) = 0.22907 0.52285
#
# Static dielectric constant tensor:
#      x y z
#    x 1.963730 0.000000 0.000000 
#    y 0.000000 2.112520 0.000000 
#    z 0.000000 0.000000 1.805560 
# 
# From -- ./inp_files/26653.got.cif
#   From: 2010.05.17/outbox.cif.g08.bks.cpg/sg57_14_cif.got.tgz:26653.got - 2010.06.03 13:58:18.
