data_PCOD9436901
_publ_section_title
;
Structure prediction by ZEFSAII (Michael W. Deem and Ramdas Pophale) SiO2 
 PCOD9436901
Probable space group: P B C M
;
_chemical_formula_sum "Si O2"
_cell_formula_units_Z 64
_cell_length_a 20.525291
_cell_length_b 20.463444
_cell_length_c 8.736621
_cell_angle_alpha 90.000000
_cell_angle_beta 90.000000
_cell_angle_gamma 90.000000
_cell_volume 3669.539328
_symmetry_space_group_name_H-M "P B C M"
_symmetry_group_IT_number 57
_symmetry_cell_setting 'orthorhombic'
loop_
_space_group_symop_operation_xyz
x,y,z
-x,-y,1/2+z
x,1/2-y,-z
-x,1/2+y,1/2-z
-x,-y,-z
x,y,1/2-z
-x,1/2+y,z
x,1/2-y,1/2+z
loop_
_atom_site_type_symbol
_atom_site_label
_atom_site_fract_x
_atom_site_fract_y
_atom_site_fract_z
Si Si1 0.173501 0.954141 0.066997
Si Si2 0.333828 0.418345 0.434282
Si Si3 0.803279 0.606053 0.432944
Si Si4 0.688735 0.432615 0.933113
Si Si5 0.067063 0.178721 0.434217
Si Si6 0.403380 0.821188 0.433471
Si Si7 0.553816 0.821016 0.434717
Si Si8 0.973233 0.431809 0.065728
O O1 0.182022 0.947081 0.250000
O O2 0.173401 0.031928 0.032989
O O3 0.103176 0.926010 0.024308
O O4 0.236242 0.924803 0.983972
O O5 0.333976 0.419067 0.250000
O O6 0.266659 0.385832 0.489761
O O7 0.332536 0.494179 0.485384
O O8 0.395985 0.376727 0.486687
O O9 0.795332 0.610953 0.250000
O O10 0.860425 0.654803 0.481031
O O11 0.684241 0.430111 0.750000
O O12 0.643404 0.377357 0.004474
O O13 0.054040 0.250000 0.500000
O O14 0.064356 0.178607 0.250000
O O15 0.015894 0.126558 0.498540
O O16 0.386095 0.750000 0.500000
O O17 0.400055 0.818882 0.250000
O O18 0.478798 0.834567 0.478769
O O19 0.571748 0.750000 0.500000
O O20 0.556197 0.817955 0.250000
O O21 0.977757 0.433279 0.250000
O O22 0.000000 0.500000 0.000000
#
# Coordination Sequence:
#
# PCOD9436901 Si02
#       8
#     8   8   8   8   8   8   8   8
#     4   9  18  35  56  80 108 139 179 223 266 319
#     4   9  19  34  52  78 111 143 179 223 269 319
#     4   9  18  34  53  75 106 142 181 221 265 321
#     4  10  20  34  54  82 111 140 177 224 271 322
#     4  11  23  39  55  80 114 149 188 233 279 331
#     4  10  20  36  57  78 104 141 180 224 274 328
#     4   9  19  35  53  75 105 141 183 224 268 322
#     4  11  21  36  60  86 111 145 185 229 275 328
#
# _framework density 17.440881999999998
#
# number of rings (size 3 to 8) (size 9 to 14) (size 15 to 20)
#    0.000    2.250    1.250    1.500    0.000    4.500 
#    0.000    3.125    0.000    3.000    0.000    0.000 
#    0.000    0.000    0.000    0.000    0.000    0.000 
#
# Total GULP energy -357136.004073 kJ/mol
# GULP energy per Si atom -5580.250064 kJ/mol
# Density = 1.740119 g / cm^3
# Si number density = 17.440882 Si / 1000 Ang^3
#
#
#
# Elastic Constant Matrix: (Units=GPa)
#
#
# Indices 1 2 3 4 5 6 
#
# 1 140.4461 102.5043 45.5200 0.0000 0.0000 0.0000
# 2 102.5043 130.4878 41.6178 0.0000 0.0000 0.0000
# 3 45.5200 41.6178 37.8598 0.0000 0.0000 0.0000
# 4 0.0000 0.0000 0.0000 27.4247 0.0000 0.0000
# 5 0.0000 0.0000 0.0000 0.0000 28.5289 0.0000
# 6 0.0000 0.0000 0.0000 0.0000 0.0000 30.3495
#
#
#
# Elastic Compliance Matrix: (Units=1/GPa)
#
#
# Indices 1 2 3 4 5 6 
#
# 1 0.018786 -0.011631 -0.009801 0.000000 0.000000 0.000000
# 2 -0.011631 0.019002 -0.006904 0.000000 0.000000 0.000000
# 3 -0.009801 -0.006904 0.045787 0.000000 0.000000 0.000000
# 4 0.000000 0.000000 0.000000 0.036463 0.000000 0.000000
# 5 0.000000 0.000000 0.000000 0.000000 0.035052 0.000000
# 6 0.000000 0.000000 0.000000 0.000000 0.000000 0.032950
#
#
# Mechanical properties :
#
#
# Convention : Reuss Voigt Hill
#
# Bulk Modulus (GPa) = 37.17148 76.45307 56.81228
# Shear Modulus (GPa) = 19.70989 25.20407 22.45698
#
# Velocity S-wave (km/s) = 3.36534 3.80559 3.59222
# Velocity P-wave (km/s) = 6.03819 7.95240 7.06047
#
# Compressibility (1/GPa) = 0.02690234
#
# Stress axis : x y z
#
# Youngs Moduli (GPa) = 53.23181 52.62506 21.84043
#
# Poissons Ratio (x) = 0.61209 0.21406
# Poissons Ratio (y) = 0.61915 0.15079
# Poissons Ratio (z) = 0.52173 0.36333
#
# Static dielectric constant tensor:
#      x y z
#    x 1.585930 0.000000 0.000000 
#    y 0.000000 1.571180 0.000000 
#    z 0.000000 0.000000 1.587610 
# 
# From -- ./inp_files/7137.got.cif
#   From: 2010.05.17/outbox.cif.g08.bks.cpg/sg57_4_cif.got.tgz:7137.got - 2010.06.03 13:58:18.
