data_PCOD9436370
_publ_section_title
;
Structure prediction by ZEFSAII (Michael W. Deem and Ramdas Pophale) SiO2 
 PCOD9436370
Probable space group: P B C M
;
_chemical_formula_sum "Si O2"
_cell_formula_units_Z 32
_cell_length_a 5.706257
_cell_length_b 18.243228
_cell_length_c 14.062115
_cell_angle_alpha 90.000000
_cell_angle_beta 90.000000
_cell_angle_gamma 90.000000
_cell_volume 1463.873870
_symmetry_space_group_name_H-M "P B C M"
_symmetry_group_IT_number 57
_symmetry_cell_setting 'orthorhombic'
loop_
_space_group_symop_operation_xyz
x,y,z
-x,-y,1/2+z
x,1/2-y,-z
-x,1/2+y,1/2-z
-x,-y,-z
x,y,1/2-z
-x,1/2+y,z
x,1/2-y,1/2+z
loop_
_atom_site_type_symbol
_atom_site_label
_atom_site_fract_x
_atom_site_fract_y
_atom_site_fract_z
Si Si1 0.801508 0.446335 0.538347
Si Si2 0.489884 0.069907 0.640860
Si Si3 0.332557 0.230063 0.612273
Si Si4 0.160913 0.786114 0.894893
O O1 0.681378 0.418993 0.440983
O O2 0.639560 0.496522 0.605655
O O3 0.000000 0.500000 0.500000
O O4 0.865315 0.373368 0.594503
O O5 0.570542 0.063438 0.750000
O O6 0.335848 0.143257 0.631314
O O7 0.330835 0.250000 0.500000
O O8 0.083481 0.259048 0.648943
O O9 0.583358 0.263501 0.646053
O O10 0.165253 0.750000 0.000000
#
# Coordination Sequence:
#
# PCOD9436370 Si02
#       4
#     8   8   8   8
#     4  11  23  42  70  97 138 186 230 290 351 422
#     4  11  25  43  67 101 139 186 237 288 350 422
#     4  10  19  39  65  97 126 170 222 279 342 411
#     4  10  19  36  68  93 124 171 223 273 347 406
#
# _framework density 21.859807
#
# number of rings (size 3 to 8) (size 9 to 14) (size 15 to 20)
#    0.000    1.500    5.000    3.000    3.500    1.000 
#    0.000    2.500    0.000    0.000    0.000    0.000 
#    0.000    0.000    0.000    0.000    0.000    0.000 
#
# Total GULP energy -178484.747186 kJ/mol
# GULP energy per Si atom -5577.648350 kJ/mol
# Density = 2.181005 g / cm^3
# Si number density = 21.859807 Si / 1000 Ang^3
#
#
#
# Elastic Constant Matrix: (Units=GPa)
#
#
# Indices 1 2 3 4 5 6 
#
# 1 157.1394 32.1447 28.4882 0.0000 0.0000 0.0000
# 2 32.1447 122.2153 33.2107 0.0000 0.0000 0.0000
# 3 28.4882 33.2107 129.6180 0.0000 0.0000 0.0000
# 4 0.0000 0.0000 0.0000 0.5730 0.0000 0.0000
# 5 0.0000 0.0000 0.0000 0.0000 -24.9434 0.0000
# 6 0.0000 0.0000 0.0000 0.0000 0.0000 40.0279
#
#
#
# Elastic Compliance Matrix: (Units=1/GPa)
#
#
# Indices 1 2 3 4 5 6 
#
# 1 0.006875 -0.001502 -0.001126 0.000000 0.000000 0.000000
# 2 -0.001502 0.009123 -0.002007 0.000000 0.000000 0.000000
# 3 -0.001126 -0.002007 0.008477 0.000000 0.000000 0.000000
# 4 0.000000 0.000000 0.000000 1.745187 0.000000 0.000000
# 5 0.000000 0.000000 0.000000 0.000000 -0.040091 0.000000
# 6 0.000000 0.000000 0.000000 0.000000 0.000000 0.024983
#
#
# Mechanical properties :
#
#
# Convention : Reuss Voigt Hill
#
# Bulk Modulus (GPa) = 65.77453 66.29555 66.03504
# Shear Modulus (GPa) = 2.82663 24.14012 13.48337
#
# Velocity S-wave (km/s) = 1.13837 3.32673 2.48626
# Velocity P-wave (km/s) = 5.64645 6.71935 6.20613
#
# Compressibility (1/GPa) = 0.01520345
#
# Stress axis : x y z
#
# Youngs Moduli (GPa) = 145.44919 109.61474 117.96910
#
# Poissons Ratio (x) = 0.16467 0.13285
# Poissons Ratio (y) = 0.21851 0.23680
# Poissons Ratio (z) = 0.16380 0.22003
#
# Static dielectric constant tensor:
#      x y z
#    x 1.861070 0.000000 0.000000 
#    y 0.000000 2.050310 0.000000 
#    z 0.000000 0.000000 1.870610 
# 
# From -- ./inp_files/14692.got.cif
#   From: 2010.05.17/outbox.cif.g08.bks.cpg/sg57_8_cif.got.tgz:14692.got - 2010.06.03 13:58:18.
