data_PCOD9436172
_publ_section_title
;
Structure prediction by ZEFSAII (Michael W. Deem and Ramdas Pophale) SiO2 
 PCOD9436172
Probable space group: P B C M
;
_chemical_formula_sum "Si O2"
_cell_formula_units_Z 24
_cell_length_a 7.234424
_cell_length_b 13.156356
_cell_length_c 11.139266
_cell_angle_alpha 90.000000
_cell_angle_beta 90.000000
_cell_angle_gamma 90.000000
_cell_volume 1060.220385
_symmetry_space_group_name_H-M "P B C M"
_symmetry_group_IT_number 57
_symmetry_cell_setting 'orthorhombic'
loop_
_space_group_symop_operation_xyz
x,y,z
-x,-y,1/2+z
x,1/2-y,-z
-x,1/2+y,1/2-z
-x,-y,-z
x,y,1/2-z
-x,1/2+y,z
x,1/2-y,1/2+z
loop_
_atom_site_type_symbol
_atom_site_label
_atom_site_fract_x
_atom_site_fract_y
_atom_site_fract_z
Si Si1 0.129968 0.250000 0.000000
Si Si2 0.233608 0.026701 0.250000
Si Si3 0.714589 0.973933 0.497656
Si Si4 0.321939 0.931884 0.750000
Si Si5 0.039421 0.719808 0.250000
O O1 0.249278 0.146483 0.007923
O O2 0.011545 0.266033 0.121239
O O3 0.204488 0.976449 0.119556
O O4 0.454839 0.056579 0.250000
O O5 0.098631 0.122454 0.250000
O O6 0.500000 0.000000 0.500000
O O7 0.767631 0.017320 0.368325
O O8 0.251275 0.816565 0.750000
#
# Coordination Sequence:
#
# PCOD9436172 Si02
#       5
#     4   4   8   4   4
#     4  10  20  36  58  86 118 158 202 248 300 356
#     4   8  18  34  54  82 110 146 194 236 284 352
#     4   9  18  35  59  84 118 158 198 249 302 358
#     4  10  19  35  57  82 114 154 195 240 298 352
#     4  10  21  37  57  80 116 154 195 246 296 354
#
# _framework density 22.636804999999999
#
# number of rings (size 3 to 8) (size 9 to 14) (size 15 to 20)
#    0.000    2.667    0.000    1.000    0.000    5.333 
#    0.000   16.667    0.000   16.000    0.000    0.000 
#    0.000    0.000    0.000    0.000    0.000    0.000 
#
# Total GULP energy -133622.958307 kJ/mol
# GULP energy per Si atom -5567.623263 kJ/mol
# Density = 2.258528 g / cm^3
# Si number density = 22.636805 Si / 1000 Ang^3
#
#
#
# Elastic Constant Matrix: (Units=GPa)
#
#
# Indices 1 2 3 4 5 6 
#
# 1 95.0031 38.8279 19.5029 0.0000 0.0000 0.0000
# 2 38.8279 83.2406 28.0520 0.0000 0.0000 0.0000
# 3 19.5029 28.0520 247.5757 0.0000 0.0000 0.0000
# 4 0.0000 0.0000 0.0000 27.4250 0.0000 0.0000
# 5 0.0000 0.0000 0.0000 0.0000 -73.7385 0.0000
# 6 0.0000 0.0000 0.0000 0.0000 0.0000 37.7536
#
#
#
# Elastic Compliance Matrix: (Units=1/GPa)
#
#
# Indices 1 2 3 4 5 6 
#
# 1 0.013035 -0.005962 -0.000351 0.000000 0.000000 0.000000
# 2 -0.005962 0.015217 -0.001255 0.000000 0.000000 0.000000
# 3 -0.000351 -0.001255 0.004209 0.000000 0.000000 0.000000
# 4 0.000000 0.000000 0.000000 0.036463 0.000000 0.000000
# 5 0.000000 0.000000 0.000000 0.000000 -0.013561 0.000000
# 6 0.000000 0.000000 0.000000 0.000000 0.000000 0.026488
#
#
# Mechanical properties :
#
#
# Convention : Reuss Voigt Hill
#
# Bulk Modulus (GPa) = 57.71821 66.50945 62.11383
# Shear Modulus (GPa) = 48.65701 20.91714 34.78707
#
# Velocity S-wave (km/s) = 4.64126 3.04309 3.92439
# Velocity P-wave (km/s) = 7.36713 6.46468 6.93061
#
# Compressibility (1/GPa) = 0.01732555
#
# Stress axis : x y z
#
# Youngs Moduli (GPa) = 76.71863 65.71594 237.58656
#
# Poissons Ratio (x) = 0.39178 0.08347
# Poissons Ratio (y) = 0.45737 0.29807
# Poissons Ratio (z) = 0.02695 0.08244
#
# Static dielectric constant tensor:
#      x y z
#    x 1.826090 0.000000 0.000000 
#    y 0.000000 1.908040 0.000000 
#    z 0.000000 0.000000 2.047770 
# 
# From -- ./inp_files/11189.got.cif
#   From: 2010.05.17/outbox.cif.g08.bks.cpg/sg57_6_cif.got.tgz:11189.got - 2010.06.03 13:58:18.
