data_PCOD9436126
_publ_section_title
;
Structure prediction by ZEFSAII (Michael W. Deem and Ramdas Pophale) SiO2 
 PCOD9436126
Probable space group: P B C M
;
_chemical_formula_sum "Si O2"
_cell_formula_units_Z 24
_cell_length_a 10.435840
_cell_length_b 16.261523
_cell_length_c 5.575660
_cell_angle_alpha 90.000000
_cell_angle_beta 90.000000
_cell_angle_gamma 90.000000
_cell_volume 946.204290
_symmetry_space_group_name_H-M "P B C M"
_symmetry_group_IT_number 57
_symmetry_cell_setting 'orthorhombic'
loop_
_space_group_symop_operation_xyz
x,y,z
-x,-y,1/2+z
x,1/2-y,-z
-x,1/2+y,1/2-z
-x,-y,-z
x,y,1/2-z
-x,1/2+y,z
x,1/2-y,1/2+z
loop_
_atom_site_type_symbol
_atom_site_label
_atom_site_fract_x
_atom_site_fract_y
_atom_site_fract_z
Si Si1 0.469916 0.453708 0.750000
Si Si2 0.092903 0.396629 0.250000
Si Si3 0.811382 0.340075 0.250000
Si Si4 0.827628 0.911973 0.750000
Si Si5 0.297961 0.257894 0.250000
Si Si6 0.292000 0.652782 0.250000
O O1 0.500000 0.500000 0.500000
O O2 0.320044 0.436289 0.750000
O O3 0.560364 0.373211 0.750000
O O4 0.103077 0.439097 0.507955
O O5 0.224777 0.343843 0.250000
O O6 0.964963 0.341426 0.250000
O O7 0.765523 0.380285 0.499150
O O8 0.748398 0.248931 0.250000
O O9 0.814284 0.811655 0.750000
O O10 0.370455 0.250000 0.500000
#
# Coordination Sequence:
#
# PCOD9436126 Si02
#       6
#     4   4   4   4   4   4
#     4  12  26  48  70  84 129 187 237 279 302 363
#     4  10  19  34  63 101 131 163 180 264 346 400
#     4  10  21  38  67 100 142 156 204 261 354 427
#     4  10  21  36  59  96 120 162 226 257 317 376
#     4   8  16  27  47  86 120 150 179 231 317 376
#     4  10  23  39  64  99 126 182 214 258 334 410
#
# _framework density 25.364502999999999
#
# number of rings (size 3 to 8) (size 9 to 14) (size 15 to 20)
#    0.000    2.000    0.000    3.000   14.000    0.000 
#   18.000    0.000    0.000   20.000    0.000    0.000 
#    0.000    0.000    0.000    0.000    0.000    0.000 
#
# Total GULP energy -134100.241447 kJ/mol
# GULP energy per Si atom -5587.510060 kJ/mol
# Density = 2.530677 g / cm^3
# Si number density = 25.364503 Si / 1000 Ang^3
#
#
#
# Elastic Constant Matrix: (Units=GPa)
#
#
# Indices 1 2 3 4 5 6 
#
# 1 126.2801 65.9360 74.7339 0.0000 0.0000 0.0000
# 2 65.9360 78.3360 31.0798 0.0000 0.0000 0.0000
# 3 74.7339 31.0798 335.9896 0.0000 0.0000 0.0000
# 4 0.0000 0.0000 0.0000 -11.0430 0.0000 0.0000
# 5 0.0000 0.0000 0.0000 0.0000 50.2576 0.0000
# 6 0.0000 0.0000 0.0000 0.0000 0.0000 150.0842
#
#
#
# Elastic Compliance Matrix: (Units=1/GPa)
#
#
# Indices 1 2 3 4 5 6 
#
# 1 0.015750 -0.012319 -0.002364 0.000000 0.000000 0.000000
# 2 -0.012319 0.022888 0.000623 0.000000 0.000000 0.000000
# 3 -0.002364 0.000623 0.003444 0.000000 0.000000 0.000000
# 4 0.000000 0.000000 0.000000 -0.090555 0.000000 0.000000
# 5 0.000000 0.000000 0.000000 0.000000 0.019897 0.000000
# 6 0.000000 0.000000 0.000000 0.000000 0.000000 0.006663
#
#
# Mechanical properties :
#
#
# Convention : Reuss Voigt Hill
#
# Bulk Modulus (GPa) = 71.62194 98.23388 84.92791
# Shear Modulus (GPa) = 460.33370 62.45015 261.39193
#
# Velocity S-wave (km/s) = 13.48634 4.96735 10.16258
# Velocity P-wave (km/s) = 16.45621 8.46831 13.08662
#
# Compressibility (1/GPa) = 0.01396220
#
# Stress axis : x y z
#
# Youngs Moduli (GPa) = 63.49147 43.69197 290.32480
#
# Poissons Ratio (x) = 0.53825 0.68625
# Poissons Ratio (y) = 0.78216 -0.18087
# Poissons Ratio (z) = 0.15008 -0.02722
#
# Static dielectric constant tensor:
#      x y z
#    x 1.868900 0.000000 0.000000 
#    y 0.000000 2.108320 0.000000 
#    z 0.000000 0.000000 2.237230 
# 
# From -- ./inp_files/141.got.cif
#   From: 2010.05.17/outbox.cif.g08.bks.cpg/sg57_1_cif.got.tgz:141.got - 2010.06.03 13:58:18.
