data_PCOD9436451
_publ_section_title
;
Structure prediction by ZEFSAII (Michael W. Deem and Ramdas Pophale) SiO2 
 PCOD9436451
Probable space group: P B C M
;
_chemical_formula_sum "Si O2"
_cell_formula_units_Z 56
_cell_length_a 5.418639
_cell_length_b 29.547058
_cell_length_c 14.495672
_cell_angle_alpha 90.000000
_cell_angle_beta 90.000000
_cell_angle_gamma 90.000000
_cell_volume 2320.827258
_symmetry_space_group_name_H-M "P B C M"
_symmetry_group_IT_number 57
_symmetry_cell_setting 'orthorhombic'
loop_
_space_group_symop_operation_xyz
x,y,z
-x,-y,1/2+z
x,1/2-y,-z
-x,1/2+y,1/2-z
-x,-y,-z
x,y,1/2-z
-x,1/2+y,z
x,1/2-y,1/2+z
loop_
_atom_site_type_symbol
_atom_site_label
_atom_site_fract_x
_atom_site_fract_y
_atom_site_fract_z
Si Si1 0.326614 0.500038 0.639499
Si Si2 0.031885 0.619963 0.995654
Si Si3 0.827373 0.950932 0.138416
Si Si4 0.654792 0.417545 0.646379
Si Si5 0.283741 0.708913 0.576349
Si Si6 0.301028 0.341000 0.653058
Si Si7 0.220858 0.240330 0.609640
O O1 0.324026 0.505523 0.750000
O O2 0.053588 0.515268 0.611653
O O3 0.418138 0.448813 0.623936
O O4 0.559960 0.530446 0.606675
O O5 0.161144 0.582878 0.061544
O O6 0.839735 0.644092 0.062794
O O7 0.900678 0.595563 0.910773
O O8 0.214485 0.660043 0.964190
O O9 0.822336 0.947000 0.250000
O O10 0.741814 0.431702 0.750000
O O11 0.562257 0.365881 0.652179
O O12 0.307542 0.750000 0.500000
O O13 0.551173 0.706807 0.622558
O O14 0.048700 0.723397 0.637589
O O15 0.179360 0.356392 0.750000
O O16 0.304070 0.287476 0.652159
O O17 0.192171 0.250000 0.500000
#
# Coordination Sequence:
#
# PCOD9436451 Si02
#       7
#     8   8   8   8   8   8   8
#     4   9  21  44  66  91 132 175 218 276 332 395
#     4  12  24  39  68  96 134 172 219 282 326 401
#     4  10  24  44  67  93 128 175 223 277 335 387
#     4  10  23  40  64  96 134 175 219 269 336 403
#     4  10  20  37  64  85 119 163 205 255 317 377
#     4  11  24  41  63  97 135 176 219 270 333 395
#     4  10  19  39  61  84 118 161 208 252 311 377
#
# _framework density 24.12933
#
# number of rings (size 3 to 8) (size 9 to 14) (size 15 to 20)
#    0.000    1.714    2.857    2.143    4.000    1.143 
#    0.000    1.429    0.000    0.000    0.000    0.000 
#    0.000    0.000    0.000    0.000    0.000    0.000 
#
# Total GULP energy -312911.014337 kJ/mol
# GULP energy per Si atom -5587.696685 kJ/mol
# Density = 2.407441 g / cm^3
# Si number density = 24.129330 Si / 1000 Ang^3
#
#
#
# Elastic Constant Matrix: (Units=GPa)
#
#
# Indices 1 2 3 4 5 6 
#
# 1 90.9546 -9.1502 13.7502 0.0000 0.0000 0.0000
# 2 -9.1502 70.4881 28.0259 0.0000 0.0000 0.0000
# 3 13.7502 28.0259 86.1116 0.0000 0.0000 0.0000
# 4 0.0000 0.0000 0.0000 16.8987 0.0000 0.0000
# 5 0.0000 0.0000 0.0000 0.0000 9.3818 0.0000
# 6 0.0000 0.0000 0.0000 0.0000 0.0000 37.7569
#
#
#
# Elastic Compliance Matrix: (Units=1/GPa)
#
#
# Indices 1 2 3 4 5 6 
#
# 1 0.011664 0.002590 -0.002705 0.000000 0.000000 0.000000
# 2 0.002590 0.016870 -0.005904 0.000000 0.000000 0.000000
# 3 -0.002705 -0.005904 0.013966 0.000000 0.000000 0.000000
# 4 0.000000 0.000000 0.000000 0.059176 0.000000 0.000000
# 5 0.000000 0.000000 0.000000 0.000000 0.106589 0.000000
# 6 0.000000 0.000000 0.000000 0.000000 0.000000 0.026485
#
#
# Mechanical properties :
#
#
# Convention : Reuss Voigt Hill
#
# Bulk Modulus (GPa) = 32.82853 34.75625 33.79239
# Shear Modulus (GPa) = 19.45946 27.13604 23.29775
#
# Velocity S-wave (km/s) = 2.84291 3.35716 3.11068
# Velocity P-wave (km/s) = 4.94075 5.42796 5.19007
#
# Compressibility (1/GPa) = 0.03046131
#
# Stress axis : x y z
#
# Youngs Moduli (GPa) = 85.73375 59.27517 71.60042
#
# Poissons Ratio (x) = -0.15351 0.19371
# Poissons Ratio (y) = -0.22203 0.42274
# Poissons Ratio (z) = 0.23194 0.34997
#
# Static dielectric constant tensor:
#      x y z
#    x 1.965120 0.000000 0.000000 
#    y 0.000000 1.934010 0.000000 
#    z 0.000000 0.000000 2.144200 
# 
# From -- ./inp_files/15240.got.cif
#   From: 2010.05.17/outbox.cif.g08.bks.cpg/sg57_8_cif.got.tgz:15240.got - 2010.06.03 13:58:18.
