data_PCOD9436213
_publ_section_title
;
Structure prediction by ZEFSAII (Michael W. Deem and Ramdas Pophale) SiO2 
 PCOD9436213
Probable space group: P B C M
;
_chemical_formula_sum "Si O2"
_cell_formula_units_Z 56
_cell_length_a 15.777820
_cell_length_b 8.731719
_cell_length_c 20.503857
_cell_angle_alpha 90.000000
_cell_angle_beta 90.000000
_cell_angle_gamma 90.000000
_cell_volume 2824.764928
_symmetry_space_group_name_H-M "P B C M"
_symmetry_group_IT_number 57
_symmetry_cell_setting 'orthorhombic'
loop_
_space_group_symop_operation_xyz
x,y,z
-x,-y,1/2+z
x,1/2-y,-z
-x,1/2+y,1/2-z
-x,-y,-z
x,y,1/2-z
-x,1/2+y,z
x,1/2-y,1/2+z
loop_
_atom_site_type_symbol
_atom_site_label
_atom_site_fract_x
_atom_site_fract_y
_atom_site_fract_z
Si Si1 0.800319 0.147717 0.436104
Si Si2 0.119803 0.081390 0.112122
Si Si3 0.738399 0.692959 0.563421
Si Si4 0.605142 0.846043 0.324327
Si Si5 0.980579 0.275117 0.426879
Si Si6 0.740920 0.368759 0.326740
Si Si7 0.441150 0.502785 0.675544
O O1 0.780856 0.250000 0.500000
O O2 0.900379 0.162126 0.424458
O O3 0.757901 0.224375 0.372992
O O4 0.775712 0.974781 0.447743
O O5 0.189480 0.178219 0.072166
O O6 0.049950 0.215160 0.124862
O O7 0.062467 0.942581 0.081982
O O8 0.181621 0.989573 0.161923
O O9 0.686966 0.750000 0.500000
O O10 0.684486 0.673239 0.628754
O O11 0.628574 0.893559 0.250000
O O12 0.530836 0.950381 0.354460
O O13 0.564828 0.678123 0.321404
O O14 0.016956 0.250000 0.500000
O O15 0.737443 0.332912 0.250000
O O16 0.649822 0.437398 0.348511
O O17 0.447504 0.563159 0.750000
#
# Coordination Sequence:
#
# PCOD9436213 Si02
#       7
#     8   8   8   8   8   8   8
#     4  10  23  40  61  91 126 168 218 261 305 371
#     4  11  21  36  61  89 123 158 206 250 307 358
#     4  12  23  38  60  93 130 166 205 263 325 374
#     4  10  22  39  64  90 118 159 212 261 310 378
#     4  10  19  35  58  88 119 161 207 250 293 357
#     4  10  21  40  64  88 123 163 202 260 320 373
#     4   9  19  38  61  88 117 155 205 256 304 366
#
# _framework density 19.824656999999998
#
# number of rings (size 3 to 8) (size 9 to 14) (size 15 to 20)
#    0.000    1.714    1.429    4.286    2.000    0.571 
#    0.000    4.286    0.000    3.429    0.000    0.000 
#    0.000    0.000    0.000    0.000    0.000    0.000 
#
# Total GULP energy -311823.536998 kJ/mol
# GULP energy per Si atom -5568.277446 kJ/mol
# Density = 1.977954 g / cm^3
# Si number density = 19.824657 Si / 1000 Ang^3
#
#
#
# Elastic Constant Matrix: (Units=GPa)
#
#
# Indices 1 2 3 4 5 6 
#
# 1 73.2092 42.9085 23.3564 0.0000 0.0000 0.0000
# 2 42.9085 90.0705 37.7004 0.0000 0.0000 0.0000
# 3 23.3564 37.7004 65.2827 0.0000 0.0000 0.0000
# 4 0.0000 0.0000 0.0000 21.5581 0.0000 0.0000
# 5 0.0000 0.0000 0.0000 0.0000 -43.2234 0.0000
# 6 0.0000 0.0000 0.0000 0.0000 0.0000 34.8786
#
#
#
# Elastic Compliance Matrix: (Units=1/GPa)
#
#
# Indices 1 2 3 4 5 6 
#
# 1 0.019164 -0.008255 -0.002089 0.000000 0.000000 0.000000
# 2 -0.008255 0.018198 -0.007556 0.000000 0.000000 0.000000
# 3 -0.002089 -0.007556 0.020429 0.000000 0.000000 0.000000
# 4 0.000000 0.000000 0.000000 0.046386 0.000000 0.000000
# 5 0.000000 0.000000 0.000000 0.000000 -0.023136 0.000000
# 6 0.000000 0.000000 0.000000 0.000000 0.000000 0.028671
#
#
# Mechanical properties :
#
#
# Convention : Reuss Voigt Hill
#
# Bulk Modulus (GPa) = 45.47333 48.49922 46.98627
# Shear Modulus (GPa) = 32.71341 10.94914 21.83128
#
# Velocity S-wave (km/s) = 4.06660 2.35265 3.32206
# Velocity P-wave (km/s) = 6.71097 5.64776 6.20219
#
# Compressibility (1/GPa) = 0.02199091
#
# Stress axis : x y z
#
# Youngs Moduli (GPa) = 52.17988 54.95225 48.95071
#
# Poissons Ratio (x) = 0.45365 0.10227
# Poissons Ratio (y) = 0.43076 0.36985
# Poissons Ratio (z) = 0.10901 0.41519
#
# Static dielectric constant tensor:
#      x y z
#    x 1.745560 0.000000 0.000000 
#    y 0.000000 1.724580 0.000000 
#    z 0.000000 0.000000 1.748140 
# 
# From -- ./inp_files/25416.got.cif
#   From: 2010.05.17/outbox.cif.g08.bks.cpg/sg57_13_cif.got.tgz:25416.got - 2010.06.03 13:58:18.
