data_PCOD9436472
_publ_section_title
;
Structure prediction by ZEFSAII (Michael W. Deem and Ramdas Pophale) SiO2 
 PCOD9436472
Probable space group: P B C M
;
_chemical_formula_sum "Si O2"
_cell_formula_units_Z 48
_cell_length_a 8.136342
_cell_length_b 8.478057
_cell_length_c 29.539131
_cell_angle_alpha 90.000000
_cell_angle_beta 90.000000
_cell_angle_gamma 90.000000
_cell_volume 2037.620223
_symmetry_space_group_name_H-M "P B C M"
_symmetry_group_IT_number 57
_symmetry_cell_setting 'orthorhombic'
loop_
_space_group_symop_operation_xyz
x,y,z
-x,-y,1/2+z
x,1/2-y,-z
-x,1/2+y,1/2-z
-x,-y,-z
x,y,1/2-z
-x,1/2+y,z
x,1/2-y,1/2+z
loop_
_atom_site_type_symbol
_atom_site_label
_atom_site_fract_x
_atom_site_fract_y
_atom_site_fract_z
Si Si1 0.759675 0.498776 0.156979
Si Si2 0.890642 0.640973 0.840565
Si Si3 0.759314 0.407973 0.250000
Si Si4 0.227366 0.750000 0.000000
Si Si5 0.802610 0.006439 0.435163
Si Si6 0.590345 0.994269 0.560703
Si Si7 0.125734 0.959203 0.750000
Si Si8 0.770859 0.750000 0.500000
O O1 0.829322 0.678677 0.157366
O O2 0.667842 0.457329 0.203863
O O3 0.659540 0.479504 0.110978
O O4 0.911596 0.375582 0.159094
O O5 0.845249 0.542370 0.885052
O O6 0.825736 0.552998 0.795533
O O7 0.815951 0.223243 0.250000
O O8 0.925451 0.518896 0.250000
O O9 0.136846 0.666889 0.042149
O O10 0.340640 0.874962 0.026559
O O11 0.604810 0.011081 0.437213
O O12 0.864828 0.879452 0.471343
O O13 0.663023 0.836190 0.538509
#
# Coordination Sequence:
#
# PCOD9436472 Si02
#       8
#     8   8   4   4   8   8   4   4
#     4  11  23  40  62  89 121 154 195 242 296 352
#     4  11  23  40  62  89 121 154 195 242 296 352
#     4  10  20  38  63  86 115 154 196 234 292 362
#     4  10  23  34  65  84 119 154 211 240 289 348
#     4  11  21  38  63  88 117 158 202 245 288 345
#     4  11  21  38  63  88 117 158 202 245 288 345
#     4  10  20  38  63  86 115 154 196 234 292 362
#     4  10  19  42  57  88 113 164 201 242 285 352
#
# _framework density 23.556891
#
# number of rings (size 3 to 8) (size 9 to 14) (size 15 to 20)
#    0.000    1.333    1.667    8.500    4.667    0.000 
#    0.000    5.833    0.000    0.000    0.000    0.000 
#    0.000    0.000    0.000    0.000    0.000    0.000 
#
# Total GULP energy -268396.290050 kJ/mol
# GULP energy per Si atom -5591.589376 kJ/mol
# Density = 2.350327 g / cm^3
# Si number density = 23.556891 Si / 1000 Ang^3
#
#
#
# Elastic Constant Matrix: (Units=GPa)
#
#
# Indices 1 2 3 4 5 6 
#
# 1 39.8469 23.8978 31.2024 0.0000 0.0000 0.0000
# 2 23.8978 74.0326 19.0070 0.0000 0.0000 0.0000
# 3 31.2024 19.0070 218.6082 0.0000 0.0000 0.0000
# 4 0.0000 0.0000 0.0000 42.6873 0.0000 0.0000
# 5 0.0000 0.0000 0.0000 0.0000 20.2192 0.0000
# 6 0.0000 0.0000 0.0000 0.0000 0.0000 17.5359
#
#
#
# Elastic Compliance Matrix: (Units=1/GPa)
#
#
# Indices 1 2 3 4 5 6 
#
# 1 0.034255 -0.010026 -0.004018 0.000000 0.000000 0.000000
# 2 -0.010026 0.016751 -0.000025 0.000000 0.000000 0.000000
# 3 -0.004018 -0.000025 0.005150 0.000000 0.000000 0.000000
# 4 0.000000 0.000000 0.000000 0.023426 0.000000 0.000000
# 5 0.000000 0.000000 0.000000 0.000000 0.049458 0.000000
# 6 0.000000 0.000000 0.000000 0.000000 0.000000 0.057026
#
#
# Mechanical properties :
#
#
# Convention : Reuss Voigt Hill
#
# Bulk Modulus (GPa) = 35.69182 53.41133 44.55158
# Shear Modulus (GPa) = 22.36707 33.31385 27.84046
#
# Velocity S-wave (km/s) = 3.08472 3.76465 3.44152
# Velocity P-wave (km/s) = 5.27936 6.45130 5.89453
#
# Compressibility (1/GPa) = 0.02801762
#
# Stress axis : x y z
#
# Youngs Moduli (GPa) = 29.19268 59.69963 194.17349
#
# Poissons Ratio (x) = 0.59856 0.78011
# Poissons Ratio (y) = 0.29269 0.00492
# Poissons Ratio (z) = 0.11728 0.00151
#
# Static dielectric constant tensor:
#      x y z
#    x 1.904430 0.000000 0.000000 
#    y 0.000000 1.933910 0.000000 
#    z 0.000000 0.000000 1.945990 
# 
# From -- ./inp_files/29539.got.cif
#   From: 2010.05.17/outbox.cif.g08.bks.cpg/sg57_15_cif.got.tgz:29539.got - 2010.06.03 13:58:18.
