data_PCOD9436655
_publ_section_title
;
Structure prediction by ZEFSAII (Michael W. Deem and Ramdas Pophale) SiO2 
 PCOD9436655
Probable space group: P B C M
;
_chemical_formula_sum "Si O2"
_cell_formula_units_Z 64
_cell_length_a 23.645355
_cell_length_b 17.292963
_cell_length_c 8.740269
_cell_angle_alpha 90.000000
_cell_angle_beta 90.000000
_cell_angle_gamma 90.000000
_cell_volume 3573.880691
_symmetry_space_group_name_H-M "P B C M"
_symmetry_group_IT_number 57
_symmetry_cell_setting 'orthorhombic'
loop_
_space_group_symop_operation_xyz
x,y,z
-x,-y,1/2+z
x,1/2-y,-z
-x,1/2+y,1/2-z
-x,-y,-z
x,y,1/2-z
-x,1/2+y,z
x,1/2-y,1/2+z
loop_
_atom_site_type_symbol
_atom_site_label
_atom_site_fract_x
_atom_site_fract_y
_atom_site_fract_z
Si Si1 0.067989 0.084977 0.566320
Si Si2 0.039233 0.833544 0.932483
Si Si3 0.430715 0.332812 0.933328
Si Si4 0.638276 0.988903 0.933868
Si Si5 0.181311 0.331217 0.067821
Si Si6 0.470720 0.923242 0.066778
Si Si7 0.130729 0.564983 0.932662
Si Si8 0.761800 0.508883 0.566567
O O1 0.062490 0.077623 0.750000
O O2 0.115788 0.149685 0.532135
O O3 0.094438 0.007124 0.498157
O O4 0.009136 0.108291 0.491878
O O5 0.039933 0.832522 0.750000
O O6 0.025020 0.750000 0.000000
O O7 0.099343 0.861001 0.998376
O O8 0.431483 0.329484 0.750000
O O9 0.390825 0.406195 0.977697
O O10 0.412533 0.250000 0.000000
O O11 0.493680 0.353749 0.994043
O O12 0.645700 0.986526 0.750000
O O13 0.594813 0.059115 0.968362
O O14 0.697659 0.000551 0.015291
O O15 0.186148 0.327228 0.250000
O O16 0.217334 0.405353 0.016170
O O17 0.199301 0.250000 0.000000
O O18 0.476947 0.920735 0.250000
O O19 0.500000 0.000000 0.000000
O O20 0.128646 0.565795 0.750000
O O21 0.194262 0.550640 0.991040
O O22 0.767568 0.504434 0.750000
#
# Coordination Sequence:
#
# PCOD9436655 Si02
#       8
#     8   8   8   8   8   8   8   8
#     4  10  20  36  55  79 108 138 175 217 264 320
#     4  12  24  38  56  81 109 137 172 216 268 324
#     4  10  20  33  51  78 112 145 177 213 260 310
#     4   9  19  34  52  76 103 136 177 218 258 308
#     4   9  19  32  47  69 100 135 171 210 254 305
#     4   9  17  31  51  75 104 136 173 213 255 301
#     4  11  22  38  58  79 105 140 178 220 268 317
#     4  10  21  36  53  75 102 137 179 221 262 309
#
# _framework density 17.907706000000001
#
# number of rings (size 3 to 8) (size 9 to 14) (size 15 to 20)
#    0.000    2.000    0.000    6.000    0.000    7.500 
#    0.000    2.500    0.000    0.750    0.000    1.750 
#    0.000    0.000    0.000    0.000    0.000    0.000 
#
# Total GULP energy -357147.381200 kJ/mol
# GULP energy per Si atom -5580.427831 kJ/mol
# Density = 1.786695 g / cm^3
# Si number density = 17.907706 Si / 1000 Ang^3
#
#
#
# Elastic Constant Matrix: (Units=GPa)
#
#
# Indices 1 2 3 4 5 6 
#
# 1 112.8483 14.1071 47.7568 0.0000 0.0000 0.0000
# 2 14.1071 22.2275 14.2024 0.0000 0.0000 0.0000
# 3 47.7568 14.2024 85.7018 0.0000 0.0000 0.0000
# 4 0.0000 0.0000 0.0000 28.2084 0.0000 0.0000
# 5 0.0000 0.0000 0.0000 0.0000 29.0005 0.0000
# 6 0.0000 0.0000 0.0000 0.0000 0.0000 9.7415
#
#
#
# Elastic Compliance Matrix: (Units=1/GPa)
#
#
# Indices 1 2 3 4 5 6 
#
# 1 0.011862 -0.003696 -0.005997 0.000000 0.000000 0.000000
# 2 -0.003696 0.051469 -0.006470 0.000000 0.000000 0.000000
# 3 -0.005997 -0.006470 0.016082 0.000000 0.000000 0.000000
# 4 0.000000 0.000000 0.000000 0.035450 0.000000 0.000000
# 5 0.000000 0.000000 0.000000 0.000000 0.034482 0.000000
# 6 0.000000 0.000000 0.000000 0.000000 0.000000 0.102653
#
#
# Mechanical properties :
#
#
# Convention : Reuss Voigt Hill
#
# Bulk Modulus (GPa) = 21.23741 41.43446 31.33594
# Shear Modulus (GPa) = 16.66552 23.03749 19.85150
#
# Velocity S-wave (km/s) = 3.05394 3.59061 3.33309
# Velocity P-wave (km/s) = 4.93158 6.35437 5.68764
#
# Compressibility (1/GPa) = 0.04708673
#
# Stress axis : x y z
#
# Youngs Moduli (GPa) = 84.30632 19.42918 62.17965
#
# Poissons Ratio (x) = 0.07181 0.37291
# Poissons Ratio (y) = 0.31161 0.40228
# Poissons Ratio (z) = 0.50560 0.12570
#
# Static dielectric constant tensor:
#      x y z
#    x 1.628350 0.000000 0.000000 
#    y 0.000000 1.563870 0.000000 
#    z 0.000000 0.000000 1.592870 
# 
# From -- ./inp_files/9554.got.cif
#   From: 2010.05.17/outbox.cif.g08.bks.cpg/sg57_5_cif.got.tgz:9554.got - 2010.06.03 13:58:18.
