data_PCOD9436957
_publ_section_title
;
Structure prediction by ZEFSAII (Michael W. Deem and Ramdas Pophale) SiO2 
 PCOD9436957
Probable space group: P B C M
;
_chemical_formula_sum "Si O2"
_cell_formula_units_Z 56
_cell_length_a 22.748885
_cell_length_b 14.739304
_cell_length_c 8.645996
_cell_angle_alpha 90.000000
_cell_angle_beta 90.000000
_cell_angle_gamma 90.000000
_cell_volume 2899.026077
_symmetry_space_group_name_H-M "P B C M"
_symmetry_group_IT_number 57
_symmetry_cell_setting 'orthorhombic'
loop_
_space_group_symop_operation_xyz
x,y,z
-x,-y,1/2+z
x,1/2-y,-z
-x,1/2+y,1/2-z
-x,-y,-z
x,y,1/2-z
-x,1/2+y,z
x,1/2-y,1/2+z
loop_
_atom_site_type_symbol
_atom_site_label
_atom_site_fract_x
_atom_site_fract_y
_atom_site_fract_z
Si Si1 0.858085 0.954470 0.563426
Si Si2 0.395986 0.846838 0.434841
Si Si3 0.368841 0.033366 0.564347
Si Si4 0.015570 0.098932 0.435719
Si Si5 0.103952 0.657223 0.565499
Si Si6 0.745682 0.851413 0.434786
Si Si7 0.528098 0.652853 0.435320
O O1 0.854476 0.955473 0.750000
O O2 0.915592 0.893297 0.523228
O O3 0.800360 0.910288 0.494153
O O4 0.868979 0.059770 0.514015
O O5 0.375252 0.750000 0.500000
O O6 0.396403 0.845208 0.250000
O O7 0.462828 0.858991 0.496519
O O8 0.360611 0.932530 0.498760
O O9 0.374147 0.030237 0.750000
O O10 0.314658 0.097994 0.520784
O O11 0.427901 0.075854 0.492985
O O12 0.010286 0.103339 0.250000
O O13 0.964193 0.156337 0.512506
O O14 0.000000 0.000000 0.500000
O O15 0.131404 0.750000 0.500000
O O16 0.106417 0.659181 0.750000
O O17 0.747675 0.750000 0.500000
O O18 0.747718 0.846880 0.250000
O O19 0.549828 0.750000 0.500000
O O20 0.525159 0.654953 0.250000
#
# Coordination Sequence:
#
# PCOD9436957 Si02
#       7
#     8   8   8   8   8   8   8
#     4   9  20  38  58  81 113 149 190 234 281 333
#     4  11  22  38  60  87 118 153 188 231 282 336
#     4  11  23  40  59  84 115 150 192 236 282 337
#     4   9  17  31  52  79 110 146 183 227 277 330
#     4  10  20  34  55  85 117 152 188 231 281 336
#     4  11  25  42  63  85 110 145 187 234 283 333
#     4  11  21  35  57  87 120 155 191 233 283 337
#
# _framework density 19.316832999999999
#
# number of rings (size 3 to 8) (size 9 to 14) (size 15 to 20)
#    0.000    1.714    0.000    6.857    0.000    7.429 
#    0.000    0.714    0.000    1.714    0.000    0.000 
#    0.000    0.000    0.000    0.000    0.000    0.000 
#
# Total GULP energy -312682.502587 kJ/mol
# GULP energy per Si atom -5583.616118 kJ/mol
# Density = 1.927287 g / cm^3
# Si number density = 19.316833 Si / 1000 Ang^3
#
#
#
# Elastic Constant Matrix: (Units=GPa)
#
#
# Indices 1 2 3 4 5 6 
#
# 1 50.0460 44.6862 23.0649 0.0000 0.0000 0.0000
# 2 44.6862 160.7945 38.7691 0.0000 0.0000 0.0000
# 3 23.0649 38.7691 82.2345 0.0000 0.0000 0.0000
# 4 0.0000 0.0000 0.0000 34.6107 0.0000 0.0000
# 5 0.0000 0.0000 0.0000 0.0000 23.1122 0.0000
# 6 0.0000 0.0000 0.0000 0.0000 0.0000 25.2911
#
#
#
# Elastic Compliance Matrix: (Units=1/GPa)
#
#
# Indices 1 2 3 4 5 6 
#
# 1 0.028126 -0.006673 -0.004743 0.000000 0.000000 0.000000
# 2 -0.006673 0.008600 -0.002183 0.000000 0.000000 0.000000
# 3 -0.004743 -0.002183 0.014520 0.000000 0.000000 0.000000
# 4 0.000000 0.000000 0.000000 0.028893 0.000000 0.000000
# 5 0.000000 0.000000 0.000000 0.000000 0.043267 0.000000
# 6 0.000000 0.000000 0.000000 0.000000 0.000000 0.039540
#
#
# Mechanical properties :
#
#
# Convention : Reuss Voigt Hill
#
# Bulk Modulus (GPa) = 41.58276 56.23504 48.90890
# Shear Modulus (GPa) = 25.23244 29.03977 27.13610
#
# Velocity S-wave (km/s) = 3.61812 3.88150 3.75212
# Velocity P-wave (km/s) = 6.24722 7.01877 6.64421
#
# Compressibility (1/GPa) = 0.02404843
#
# Stress axis : x y z
#
# Youngs Moduli (GPa) = 35.55474 116.28115 68.87229
#
# Poissons Ratio (x) = 0.77593 0.32664
# Poissons Ratio (y) = 0.23725 0.15033
# Poissons Ratio (z) = 0.16863 0.25382
#
# Static dielectric constant tensor:
#      x y z
#    x 1.668030 0.000000 0.000000 
#    y 0.000000 1.712710 0.000000 
#    z 0.000000 0.000000 1.642640 
# 
# From -- ./inp_files/8172.got.cif
#   From: 2010.05.17/outbox.cif.g08.bks.cpg/sg57_5_cif.got.tgz:8172.got - 2010.06.03 13:58:18.
