data_PCOD9436504
_publ_section_title
;
Structure prediction by ZEFSAII (Michael W. Deem and Ramdas Pophale) SiO2 
 PCOD9436504
Probable space group: P B C M
;
_chemical_formula_sum "Si O2"
_cell_formula_units_Z 64
_cell_length_a 19.679188
_cell_length_b 23.817138
_cell_length_c 8.804366
_cell_angle_alpha 90.000000
_cell_angle_beta 90.000000
_cell_angle_gamma 90.000000
_cell_volume 4126.623392
_symmetry_space_group_name_H-M "P B C M"
_symmetry_group_IT_number 57
_symmetry_cell_setting 'orthorhombic'
loop_
_space_group_symop_operation_xyz
x,y,z
-x,-y,1/2+z
x,1/2-y,-z
-x,1/2+y,1/2-z
-x,-y,-z
x,y,1/2-z
-x,1/2+y,z
x,1/2-y,1/2+z
loop_
_atom_site_type_symbol
_atom_site_label
_atom_site_fract_x
_atom_site_fract_y
_atom_site_fract_z
Si Si1 0.893696 0.811901 0.068287
Si Si2 0.395901 0.520248 0.933078
Si Si3 0.027358 0.087483 0.431496
Si Si4 0.753582 0.875312 0.432866
Si Si5 0.104689 0.980916 0.568769
Si Si6 0.245020 0.999782 0.431817
Si Si7 0.474373 0.085901 0.566748
Si Si8 0.385558 0.311636 0.432792
O O1 0.898102 0.809326 0.250000
O O2 0.820801 0.839885 0.028529
O O3 0.898657 0.750000 0.000000
O O4 0.950374 0.854070 0.003920
O O5 0.397787 0.515394 0.750000
O O6 0.317549 0.526550 0.977840
O O7 0.448906 0.569087 0.977565
O O8 0.426003 0.462948 0.002119
O O9 0.035079 0.089730 0.250000
O O10 0.950875 0.066899 0.466862
O O11 0.075964 0.038494 0.496608
O O12 0.752931 0.884121 0.250000
O O13 0.754515 0.935607 0.512560
O O14 0.686024 0.840863 0.474976
O O15 0.107158 0.988115 0.750000
O O16 0.179424 0.970886 0.504736
O O17 0.239322 0.998428 0.250000
O O18 0.470161 0.083783 0.750000
O O19 0.445330 0.145890 0.517938
O O20 0.391213 0.250000 0.500000
O O21 0.386685 0.307744 0.250000
#
# Coordination Sequence:
#
# PCOD9436504 Si02
#       8
#     8   8   8   8   8   8   8   8
#     4  11  22  34  50  70  98 134 169 203 237 282
#     4   9  18  30  46  70  95 121 156 197 240 285
#     4  10  20  34  51  72  96 125 162 203 244 286
#     4  10  20  33  46  66  96 131 167 196 231 277
#     4  10  20  33  50  71  98 128 159 197 243 295
#     4  11  20  29  47  73  99 128 160 198 239 287
#     4   9  17  31  48  66  92 125 158 195 240 285
#     4  10  20  32  47  66  92 129 165 199 234 277
#
# _framework density 15.509048
#
# number of rings (size 3 to 8) (size 9 to 14) (size 15 to 20)
#    0.000    2.000    2.500    1.875    0.000    3.500 
#    0.000    0.000    0.000    0.000    0.000    0.875 
#    0.000    4.000    0.000    0.000    0.000    0.000 
#
# Total GULP energy -357074.863899 kJ/mol
# GULP energy per Si atom -5579.294748 kJ/mol
# Density = 1.547375 g / cm^3
# Si number density = 15.509048 Si / 1000 Ang^3
#
#
#
# Elastic Constant Matrix: (Units=GPa)
#
#
# Indices 1 2 3 4 5 6 
#
# 1 146.8966 63.4851 41.4744 0.0000 0.0000 0.0000
# 2 63.4851 86.3992 30.9968 0.0000 0.0000 0.0000
# 3 41.4744 30.9968 28.5495 0.0000 0.0000 0.0000
# 4 0.0000 0.0000 0.0000 23.9598 0.0000 0.0000
# 5 0.0000 0.0000 0.0000 0.0000 19.3230 0.0000
# 6 0.0000 0.0000 0.0000 0.0000 0.0000 19.9414
#
#
#
# Elastic Compliance Matrix: (Units=1/GPa)
#
#
# Indices 1 2 3 4 5 6 
#
# 1 0.012471 -0.004363 -0.013379 0.000000 0.000000 0.000000
# 2 -0.004363 0.020486 -0.015903 0.000000 0.000000 0.000000
# 3 -0.013379 -0.015903 0.071728 0.000000 0.000000 0.000000
# 4 0.000000 0.000000 0.000000 0.041737 0.000000 0.000000
# 5 0.000000 0.000000 0.000000 0.000000 0.051752 0.000000
# 6 0.000000 0.000000 0.000000 0.000000 0.000000 0.050147
#
#
# Mechanical properties :
#
#
# Convention : Reuss Voigt Hill
#
# Bulk Modulus (GPa) = 26.74187 59.30643 43.02415
# Shear Modulus (GPa) = 15.24040 21.03744 18.13892
#
# Velocity S-wave (km/s) = 3.13817 3.68701 3.42361
# Velocity P-wave (km/s) = 5.51462 7.51321 6.59012
#
# Compressibility (1/GPa) = 0.03739455
#
# Stress axis : x y z
#
# Youngs Moduli (GPa) = 80.18855 48.81432 13.94146
#
# Poissons Ratio (x) = 0.21300 0.18652
# Poissons Ratio (y) = 0.34990 0.22171
# Poissons Ratio (z) = 1.07282 0.77629
#
# Static dielectric constant tensor:
#      x y z
#    x 1.539530 0.000000 0.000000 
#    y 0.000000 1.482890 0.000000 
#    z 0.000000 0.000000 1.543720 
# 
# From -- ./inp_files/7461.got.cif
#   From: 2010.05.17/outbox.cif.g08.bks.cpg/sg57_4_cif.got.tgz:7461.got - 2010.06.03 13:58:18.
