data_PCOD9436771
_publ_section_title
;
Structure prediction by ZEFSAII (Michael W. Deem and Ramdas Pophale) SiO2 
 PCOD9436771
Probable space group: P B C M
;
_chemical_formula_sum "Si O2"
_cell_formula_units_Z 64
_cell_length_a 20.747258
_cell_length_b 20.411074
_cell_length_c 8.628788
_cell_angle_alpha 90.000000
_cell_angle_beta 90.000000
_cell_angle_gamma 90.000000
_cell_volume 3654.065802
_symmetry_space_group_name_H-M "P B C M"
_symmetry_group_IT_number 57
_symmetry_cell_setting 'orthorhombic'
loop_
_space_group_symop_operation_xyz
x,y,z
-x,-y,1/2+z
x,1/2-y,-z
-x,1/2+y,1/2-z
-x,-y,-z
x,y,1/2-z
-x,1/2+y,z
x,1/2-y,1/2+z
loop_
_atom_site_type_symbol
_atom_site_label
_atom_site_fract_x
_atom_site_fract_y
_atom_site_fract_z
Si Si1 0.424685 0.177904 0.435706
Si Si2 0.180883 0.075634 0.437078
Si Si3 0.679294 0.425509 0.937075
Si Si4 0.180230 0.924799 0.063175
Si Si5 0.321592 0.423573 0.064406
Si Si6 0.070919 0.677597 0.936574
Si Si7 0.070618 0.177678 0.436463
Si Si8 0.572552 0.321927 0.562892
O O1 0.408806 0.250000 0.500000
O O2 0.422230 0.179509 0.250000
O O3 0.375150 0.124500 0.497642
O O4 0.498712 0.163107 0.483728
O O5 0.185440 0.077233 0.250000
O O6 0.250146 0.094452 0.505943
O O7 0.124389 0.125037 0.483841
O O8 0.167203 0.000259 0.483852
O O9 0.680915 0.424331 0.750000
O O10 0.666977 0.500820 0.985054
O O11 0.623480 0.376320 0.990038
O O12 0.749680 0.406302 0.998612
O O13 0.182976 0.923320 0.250000
O O14 0.124362 0.875093 0.013854
O O15 0.322987 0.420946 0.250000
O O16 0.068760 0.679909 0.750000
O O17 0.086448 0.750000 0.000000
O O18 0.000017 0.660214 0.999303
O O19 0.086412 0.250000 0.500000
O O20 0.067753 0.180190 0.250000
O O21 0.588947 0.250000 0.500000
O O22 0.574067 0.319918 0.750000
#
# Coordination Sequence:
#
# PCOD9436771 Si02
#       8
#     8   8   8   8   8   8   8   8
#     4  10  20  35  54  75 102 135 169 209 254 300
#     4   9  19  36  54  73 100 133 169 208 250 296
#     4   9  19  35  53  75 104 135 168 209 253 299
#     4   9  19  35  53  74 100 132 170 208 247 295
#     4  10  20  34  53  77 104 134 169 208 251 301
#     4  10  20  34  52  74 102 133 166 206 249 297
#     4  10  20  34  53  75 100 130 164 204 248 296
#     4   9  19  35  53  75 103 134 170 210 253 300
#
# _framework density 17.514735999999999
#
# number of rings (size 3 to 8) (size 9 to 14) (size 15 to 20)
#    0.000    2.500    0.000    2.250    0.000    5.500 
#    0.000    3.750    0.000    0.000    0.000    0.000 
#    0.000    0.000    0.000    0.000    0.000    0.000 
#
# Total GULP energy -357069.655082 kJ/mol
# GULP energy per Si atom -5579.213361 kJ/mol
# Density = 1.747487 g / cm^3
# Si number density = 17.514736 Si / 1000 Ang^3
#
#
#
# Elastic Constant Matrix: (Units=GPa)
#
#
# Indices 1 2 3 4 5 6 
#
# 1 166.2843 135.2528 38.3705 0.0000 0.0000 0.0000
# 2 135.2528 128.4220 34.1295 0.0000 0.0000 0.0000
# 3 38.3705 34.1295 28.3724 0.0000 0.0000 0.0000
# 4 0.0000 0.0000 0.0000 25.6309 0.0000 0.0000
# 5 0.0000 0.0000 0.0000 0.0000 42.6011 0.0000
# 6 0.0000 0.0000 0.0000 0.0000 0.0000 45.1366
#
#
#
# Elastic Compliance Matrix: (Units=1/GPa)
#
#
# Indices 1 2 3 4 5 6 
#
# 1 0.042494 -0.043335 -0.005340 0.000000 0.000000 0.000000
# 2 -0.043335 0.055639 -0.008323 0.000000 0.000000 0.000000
# 3 -0.005340 -0.008323 0.052479 0.000000 0.000000 0.000000
# 4 0.000000 0.000000 0.000000 0.039015 0.000000 0.000000
# 5 0.000000 0.000000 0.000000 0.000000 0.023474 0.000000
# 6 0.000000 0.000000 0.000000 0.000000 0.000000 0.022155
#
#
# Mechanical properties :
#
#
# Convention : Reuss Voigt Hill
#
# Bulk Modulus (GPa) = 27.31049 82.06493 54.68771
# Shear Modulus (GPa) = 13.83287 30.36212 22.09749
#
# Velocity S-wave (km/s) = 2.81336 4.16807 3.55583
# Velocity P-wave (km/s) = 5.11664 8.37378 6.93903
#
# Compressibility (1/GPa) = 0.03661596
#
# Stress axis : x y z
#
# Youngs Moduli (GPa) = 23.53254 17.97297 19.05526
#
# Poissons Ratio (x) = 0.77887 0.10176
# Poissons Ratio (y) = 1.01979 0.15859
# Poissons Ratio (z) = 0.12567 0.14958
#
# Static dielectric constant tensor:
#      x y z
#    x 1.572650 0.000000 0.000000 
#    y 0.000000 1.582100 0.000000 
#    z 0.000000 0.000000 1.595300 
# 
# From -- ./inp_files/7224.got.cif
#   From: 2010.05.17/outbox.cif.g08.bks.cpg/sg57_4_cif.got.tgz:7224.got - 2010.06.03 13:58:18.
