data_PCOD9436085
_publ_section_title
;
Structure prediction by ZEFSAII (Michael W. Deem and Ramdas Pophale) SiO2 
 PCOD9436085
Probable space group: P B C M
;
_chemical_formula_sum "Si O2"
_cell_formula_units_Z 64
_cell_length_a 12.268153
_cell_length_b 31.454208
_cell_length_c 9.093745
_cell_angle_alpha 90.000000
_cell_angle_beta 90.000000
_cell_angle_gamma 90.000000
_cell_volume 3509.140119
_symmetry_space_group_name_H-M "P B C M"
_symmetry_group_IT_number 57
_symmetry_cell_setting 'orthorhombic'
loop_
_space_group_symop_operation_xyz
x,y,z
-x,-y,1/2+z
x,1/2-y,-z
-x,1/2+y,1/2-z
-x,-y,-z
x,y,1/2-z
-x,1/2+y,z
x,1/2-y,1/2+z
loop_
_atom_site_type_symbol
_atom_site_label
_atom_site_fract_x
_atom_site_fract_y
_atom_site_fract_z
Si Si1 0.990278 0.796507 0.073427
Si Si2 0.533956 0.795423 0.923452
Si Si3 0.488854 0.064858 0.916737
Si Si4 0.908290 0.470927 0.072756
Si Si5 0.138300 0.624335 0.927419
Si Si6 0.255369 0.203361 0.925585
Si Si7 0.630051 0.131940 0.078731
Si Si8 0.327609 0.009130 0.418266
O O1 0.000372 0.790833 0.250000
O O2 0.072602 0.833568 0.024598
O O3 0.866575 0.812987 0.045491
O O4 0.005537 0.750000 0.000000
O O5 0.556081 0.790700 0.750000
O O6 0.424553 0.822201 0.941388
O O7 0.520182 0.750000 0.000000
O O8 0.639019 0.817489 0.000005
O O9 0.477834 0.080754 0.750000
O O10 0.581458 0.028040 0.916258
O O11 0.537596 0.099702 0.024469
O O12 0.377155 0.044743 0.975843
O O13 0.918940 0.472396 0.250000
O O14 0.912426 0.421218 0.027417
O O15 0.788089 0.489420 0.036603
O O16 0.000000 0.500000 0.000000
O O17 0.140221 0.624504 0.750000
O O18 0.260932 0.626107 0.986365
O O19 0.270366 0.205967 0.750000
O O20 0.253360 0.250000 0.000000
O O21 0.653913 0.125009 0.250000
O O22 0.318056 0.024929 0.250000
#
# Coordination Sequence:
#
# PCOD9436085 Si02
#       8
#     8   8   8   8   8   8   8   8
#     4   9  19  35  58  85 115 148 187 235 281 330
#     4  10  21  36  54  79 111 147 184 228 277 329
#     4  10  19  34  58  84 108 141 181 223 275 331
#     4  10  21  39  60  82 114 151 190 234 284 337
#     4  10  21  40  60  80 112 152 192 234 280 337
#     4   9  16  30  53  78 104 139 180 223 274 330
#     4  11  23  37  55  81 114 147 185 234 283 334
#     4   9  18  35  57  82 111 141 179 226 273 324
#
# _framework density 18.238085000000002
#
# number of rings (size 3 to 8) (size 9 to 14) (size 15 to 20)
#    0.000    2.250    1.250    2.250    0.000    5.000 
#    2.250    2.500    0.000    0.000    0.000    0.000 
#    0.000    0.000    0.000    0.000    0.000    0.000 
#
# Total GULP energy -356779.506974 kJ/mol
# GULP energy per Si atom -5574.679796 kJ/mol
# Density = 1.819657 g / cm^3
# Si number density = 18.238085 Si / 1000 Ang^3
#
#
#
# Elastic Constant Matrix: (Units=GPa)
#
#
# Indices 1 2 3 4 5 6 
#
# 1 81.3070 52.6354 30.1999 0.0000 0.0000 0.0000
# 2 52.6354 81.4929 31.6988 0.0000 0.0000 0.0000
# 3 30.1999 31.6988 38.7207 0.0000 0.0000 0.0000
# 4 0.0000 0.0000 0.0000 21.4770 0.0000 0.0000
# 5 0.0000 0.0000 0.0000 0.0000 29.6304 0.0000
# 6 0.0000 0.0000 0.0000 0.0000 0.0000 24.7863
#
#
#
# Elastic Compliance Matrix: (Units=1/GPa)
#
#
# Indices 1 2 3 4 5 6 
#
# 1 0.022870 -0.011493 -0.008428 0.000000 0.000000 0.000000
# 2 -0.011493 0.023780 -0.010504 0.000000 0.000000 0.000000
# 3 -0.008428 -0.010504 0.040998 0.000000 0.000000 0.000000
# 4 0.000000 0.000000 0.000000 0.046561 0.000000 0.000000
# 5 0.000000 0.000000 0.000000 0.000000 0.033749 0.000000
# 6 0.000000 0.000000 0.000000 0.000000 0.000000 0.040345
#
#
# Mechanical properties :
#
#
# Convention : Reuss Voigt Hill
#
# Bulk Modulus (GPa) = 37.31595 47.84321 42.57958
# Shear Modulus (GPa) = 17.98007 20.97784 19.47896
#
# Velocity S-wave (km/s) = 3.14324 3.39517 3.27163
# Velocity P-wave (km/s) = 5.80328 6.45439 6.13748
#
# Compressibility (1/GPa) = 0.02679819
#
# Stress axis : x y z
#
# Youngs Moduli (GPa) = 43.72600 42.05246 24.39121
#
# Poissons Ratio (x) = 0.48330 0.20558
# Poissons Ratio (y) = 0.50254 0.25620
# Poissons Ratio (z) = 0.36854 0.44170
#
# Static dielectric constant tensor:
#      x y z
#    x 1.633970 0.000000 0.000000 
#    y 0.000000 1.636630 0.000000 
#    z 0.000000 0.000000 1.624130 
# 
# From -- ./inp_files/3887.got.cif
#   From: 2010.05.17/outbox.cif.g08.bks.cpg/sg57_2_cif.got.tgz:3887.got - 2010.06.03 13:58:18.
