data_PCOD9436292
_publ_section_title
;
Structure prediction by ZEFSAII (Michael W. Deem and Ramdas Pophale) SiO2 
 PCOD9436292
Probable space group: P B C M
;
_chemical_formula_sum "Si O2"
_cell_formula_units_Z 56
_cell_length_a 10.201906
_cell_length_b 21.848621
_cell_length_c 13.958220
_cell_angle_alpha 90.000000
_cell_angle_beta 90.000000
_cell_angle_gamma 90.000000
_cell_volume 3111.253427
_symmetry_space_group_name_H-M "P B C M"
_symmetry_group_IT_number 57
_symmetry_cell_setting 'orthorhombic'
loop_
_space_group_symop_operation_xyz
x,y,z
-x,-y,1/2+z
x,1/2-y,-z
-x,1/2+y,1/2-z
-x,-y,-z
x,y,1/2-z
-x,1/2+y,z
x,1/2-y,1/2+z
loop_
_atom_site_type_symbol
_atom_site_label
_atom_site_fract_x
_atom_site_fract_y
_atom_site_fract_z
Si Si1 0.173434 0.026466 0.635865
Si Si2 0.253756 0.210897 0.363357
Si Si3 0.080573 0.907306 0.363079
Si Si4 0.517021 0.180930 0.024875
Si Si5 0.762700 0.099410 0.459598
Si Si6 0.670962 0.649238 0.636732
Si Si7 0.999373 0.319238 0.515920
O O1 0.185260 0.021125 0.750000
O O2 0.248782 0.088793 0.608161
O O3 0.018693 0.036714 0.615592
O O4 0.230980 0.966563 0.587787
O O5 0.239259 0.199393 0.250000
O O6 0.393208 0.186930 0.403240
O O7 0.259132 0.284673 0.378773
O O8 0.134421 0.183331 0.425140
O O9 0.098123 0.901441 0.250000
O O10 0.211416 0.910283 0.426207
O O11 0.004121 0.849870 0.410369
O O12 0.633856 0.138390 0.060253
O O13 0.562556 0.250000 0.000000
O O14 0.457976 0.153052 0.927505
O O15 0.890430 0.139604 0.430437
O O16 0.644415 0.645646 0.750000
O O17 0.954508 0.250000 0.500000
#
# Coordination Sequence:
#
# PCOD9436292 Si02
#       7
#     8   8   8   8   8   8   8
#     4  10  19  36  57  81 111 149 196 239 282 336
#     4  10  20  36  59  84 113 151 195 235 279 339
#     4   9  20  37  57  79 112 154 192 230 278 337
#     4  10  20  38  58  83 119 151 183 232 290 342
#     4  10  23  34  58  85 119 150 186 231 298 340
#     4   9  19  35  61  84 106 151 201 237 274 336
#     4  10  20  35  57  87 115 147 190 241 281 338
#
# _framework density 17.999177
#
# number of rings (size 3 to 8) (size 9 to 14) (size 15 to 20)
#    0.857    1.429    0.000    3.857    0.000    4.000 
#    0.000    0.000    0.000    0.000    0.000    0.000 
#    0.000    0.000    0.000    0.000    0.000    0.000 
#
# Total GULP energy -311821.675501 kJ/mol
# GULP energy per Si atom -5568.244205 kJ/mol
# Density = 1.795821 g / cm^3
# Si number density = 17.999177 Si / 1000 Ang^3
#
#
#
# Elastic Constant Matrix: (Units=GPa)
#
#
# Indices 1 2 3 4 5 6 
#
# 1 79.9280 47.1794 25.0066 0.0000 0.0000 0.0000
# 2 47.1794 94.1286 29.9727 0.0000 0.0000 0.0000
# 3 25.0066 29.9727 55.5226 0.0000 0.0000 0.0000
# 4 0.0000 0.0000 0.0000 23.4530 0.0000 0.0000
# 5 0.0000 0.0000 0.0000 0.0000 12.9308 0.0000
# 6 0.0000 0.0000 0.0000 0.0000 0.0000 8.7042
#
#
#
# Elastic Compliance Matrix: (Units=1/GPa)
#
#
# Indices 1 2 3 4 5 6 
#
# 1 0.018480 -0.007985 -0.004013 0.000000 0.000000 0.000000
# 2 -0.007985 0.016279 -0.005192 0.000000 0.000000 0.000000
# 3 -0.004013 -0.005192 0.022621 0.000000 0.000000 0.000000
# 4 0.000000 0.000000 0.000000 0.042638 0.000000 0.000000
# 5 0.000000 0.000000 0.000000 0.000000 0.077335 0.000000
# 6 0.000000 0.000000 0.000000 0.000000 0.000000 0.114886
#
#
# Mechanical properties :
#
#
# Convention : Reuss Voigt Hill
#
# Bulk Modulus (GPa) = 43.47594 48.21076 45.84335
# Shear Modulus (GPa) = 14.95731 17.51230 16.23481
#
# Velocity S-wave (km/s) = 2.88583 3.12260 3.00655
# Velocity P-wave (km/s) = 5.94230 6.31221 6.13004
#
# Compressibility (1/GPa) = 0.02300123
#
# Stress axis : x y z
#
# Youngs Moduli (GPa) = 54.11283 61.42847 44.20764
#
# Poissons Ratio (x) = 0.49050 0.17739
# Poissons Ratio (y) = 0.43208 0.22951
# Poissons Ratio (z) = 0.21713 0.31892
#
# Static dielectric constant tensor:
#      x y z
#    x 1.636340 0.000000 0.000000 
#    y 0.000000 1.608360 0.000000 
#    z 0.000000 0.000000 1.624200 
# 
# From -- ./inp_files/16766.got.cif
#   From: 2010.05.17/outbox.cif.g08.bks.cpg/sg57_9_cif.got.tgz:16766.got - 2010.06.03 13:58:18.
