data_PCOD9436100
_publ_section_title
;
Structure prediction by ZEFSAII (Michael W. Deem and Ramdas Pophale) SiO2 
 PCOD9436100
Probable space group: P B C M
;
_chemical_formula_sum "Si O2"
_cell_formula_units_Z 48
_cell_length_a 10.445091
_cell_length_b 28.930806
_cell_length_c 8.715217
_cell_angle_alpha 90.000000
_cell_angle_beta 90.000000
_cell_angle_gamma 90.000000
_cell_volume 2633.606990
_symmetry_space_group_name_H-M "P B C M"
_symmetry_group_IT_number 57
_symmetry_cell_setting 'orthorhombic'
loop_
_space_group_symop_operation_xyz
x,y,z
-x,-y,1/2+z
x,1/2-y,-z
-x,1/2+y,1/2-z
-x,-y,-z
x,y,1/2-z
-x,1/2+y,z
x,1/2-y,1/2+z
loop_
_atom_site_type_symbol
_atom_site_label
_atom_site_fract_x
_atom_site_fract_y
_atom_site_fract_z
Si Si1 0.263662 0.607270 0.434232
Si Si2 0.765191 0.896261 0.434641
Si Si3 0.352946 0.799478 0.066605
Si Si4 0.989870 0.051690 0.065600
Si Si5 0.479892 0.449032 0.934473
Si Si6 0.349084 0.200619 0.934553
O O1 0.259375 0.611968 0.250000
O O2 0.270087 0.657875 0.507083
O O3 0.395013 0.581052 0.474406
O O4 0.142535 0.576473 0.481755
O O5 0.772204 0.898282 0.250000
O O6 0.892556 0.917637 0.505924
O O7 0.644862 0.926178 0.491704
O O8 0.735356 0.843308 0.481508
O O9 0.350064 0.797947 0.250000
O O10 0.502146 0.806900 0.017574
O O11 0.312748 0.750000 0.000000
O O12 0.992749 0.049183 0.250000
O O13 0.000000 0.000000 0.000000
O O14 0.467385 0.450301 0.750000
O O15 0.500000 0.500000 0.000000
O O16 0.347926 0.202925 0.750000
O O17 0.307367 0.250000 0.000000
#
# Coordination Sequence:
#
# PCOD9436100 Si02
#       6
#     8   8   8   8   8   8
#     4  10  22  39  58  84 117 152 196 244 291 348
#     4  11  22  39  59  86 120 155 198 244 291 352
#     4  10  19  34  58  88 119 153 191 238 294 349
#     4  11  24  42  62  86 117 159 201 244 298 353
#     4  11  22  36  58  86 115 150 193 248 302 350
#     4   9  19  34  56  86 118 151 189 238 292 346
#
# _framework density 18.225953000000001
#
# number of rings (size 3 to 8) (size 9 to 14) (size 15 to 20)
#    0.000    1.667    1.667    3.000    0.000    5.333 
#    0.000    0.833    0.000    2.000    0.000    0.000 
#    0.000    0.000    0.000    0.000    0.000    0.000 
#
# Total GULP energy -268185.912719 kJ/mol
# GULP energy per Si atom -5587.206515 kJ/mol
# Density = 1.818447 g / cm^3
# Si number density = 18.225953 Si / 1000 Ang^3
#
#
#
# Elastic Constant Matrix: (Units=GPa)
#
#
# Indices 1 2 3 4 5 6 
#
# 1 62.3399 16.7653 17.5550 0.0000 0.0000 0.0000
# 2 16.7653 129.4657 25.4829 0.0000 0.0000 0.0000
# 3 17.5550 25.4829 29.9135 0.0000 0.0000 0.0000
# 4 0.0000 0.0000 0.0000 37.7455 0.0000 0.0000
# 5 0.0000 0.0000 0.0000 0.0000 23.5778 0.0000
# 6 0.0000 0.0000 0.0000 0.0000 0.0000 32.1938
#
#
#
# Elastic Compliance Matrix: (Units=1/GPa)
#
#
# Indices 1 2 3 4 5 6 
#
# 1 0.019228 -0.000323 -0.011009 0.000000 0.000000 0.000000
# 2 -0.000323 0.009286 -0.007721 0.000000 0.000000 0.000000
# 3 -0.011009 -0.007721 0.046468 0.000000 0.000000 0.000000
# 4 0.000000 0.000000 0.000000 0.026493 0.000000 0.000000
# 5 0.000000 0.000000 0.000000 0.000000 0.042413 0.000000
# 6 0.000000 0.000000 0.000000 0.000000 0.000000 0.031062
#
#
# Mechanical properties :
#
#
# Convention : Reuss Voigt Hill
#
# Bulk Modulus (GPa) = 27.11798 37.92502 32.52150
# Shear Modulus (GPa) = 22.18804 29.49780 25.84292
#
# Velocity S-wave (km/s) = 3.49289 4.02736 3.76961
# Velocity P-wave (km/s) = 5.58374 6.51764 6.06868
#
# Compressibility (1/GPa) = 0.03687591
#
# Stress axis : x y z
#
# Youngs Moduli (GPa) = 52.00715 107.69416 21.52036
#
# Poissons Ratio (x) = 0.03479 0.23692
# Poissons Ratio (y) = 0.01680 0.16615
# Poissons Ratio (z) = 0.57255 0.83147
#
# Static dielectric constant tensor:
#      x y z
#    x 1.610330 0.000000 0.000000 
#    y 0.000000 1.609040 0.000000 
#    z 0.000000 0.000000 1.613420 
# 
# From -- ./inp_files/2086.got.cif
#   From: 2010.05.17/outbox.cif.g08.bks.cpg/sg57_2_cif.got.tgz:2086.got - 2010.06.03 13:58:18.
