data_PCOD9436813
_publ_section_title
;
Structure prediction by ZEFSAII (Michael W. Deem and Ramdas Pophale) SiO2 
 PCOD9436813
Probable space group: P B C M
;
_chemical_formula_sum "Si O2"
_cell_formula_units_Z 64
_cell_length_a 21.659064
_cell_length_b 17.582893
_cell_length_c 9.635011
_cell_angle_alpha 90.000000
_cell_angle_beta 90.000000
_cell_angle_gamma 90.000000
_cell_volume 3669.291650
_symmetry_space_group_name_H-M "P B C M"
_symmetry_group_IT_number 57
_symmetry_cell_setting 'orthorhombic'
loop_
_space_group_symop_operation_xyz
x,y,z
-x,-y,1/2+z
x,1/2-y,-z
-x,1/2+y,1/2-z
-x,-y,-z
x,y,1/2-z
-x,1/2+y,z
x,1/2-y,1/2+z
loop_
_atom_site_type_symbol
_atom_site_label
_atom_site_fract_x
_atom_site_fract_y
_atom_site_fract_z
Si Si1 0.164326 0.321952 0.090367
Si Si2 0.315588 0.571091 0.588714
Si Si3 0.436913 0.012925 0.081055
Si Si4 0.751432 0.591298 0.405177
Si Si5 0.911382 0.059386 0.914594
Si Si6 0.623201 0.675602 0.089326
Si Si7 0.049223 0.086122 0.910890
Si Si8 0.202392 0.671029 0.580230
O O1 0.180005 0.310585 0.250000
O O2 0.092245 0.340738 0.075872
O O3 0.181581 0.250000 0.000000
O O4 0.200871 0.392387 0.025521
O O5 0.325971 0.590629 0.750000
O O6 0.383101 0.546568 0.534046
O O7 0.276978 0.492487 0.586144
O O8 0.268661 0.635068 0.534731
O O9 0.442885 0.007040 0.250000
O O10 0.413609 0.098822 0.051262
O O11 0.500000 0.000000 0.000000
O O12 0.778557 0.600303 0.250000
O O13 0.694711 0.649942 0.419917
O O14 0.905522 0.044053 0.750000
O O15 0.852497 0.110725 0.953196
O O16 0.977293 0.100865 0.939855
O O17 0.922519 0.980483 0.994570
O O18 0.609935 0.692375 0.250000
O O19 0.610713 0.750000 0.000000
O O20 0.053428 0.060674 0.750000
O O21 0.192335 0.750000 0.500000
O O22 0.202336 0.680087 0.750000
#
# Coordination Sequence:
#
# PCOD9436813 Si02
#       8
#     8   8   8   8   8   8   8   8
#     4  11  22  32  43  65  99 132 160 194 237 285
#     4   8  16  33  55  75  98 129 162 198 244 296
#     4   9  18  34  54  76 102 133 168 203 241 290
#     4   9  17  32  53  73  94 125 164 202 241 289
#     4   9  18  34  55  74  93 123 164 207 254 306
#     4   9  18  31  49  74 102 129 161 202 245 290
#     4   9  19  34  50  71  97 124 161 209 253 297
#     4  10  20  34  53  76 101 132 170 211 256 303
#
# _framework density 17.442059
#
# number of rings (size 3 to 8) (size 9 to 14) (size 15 to 20)
#    0.000    2.750    0.000    3.000    0.000    5.000 
#    0.000    3.750    0.000    3.000    0.000    0.000 
#    0.000    0.000    0.000    0.000    0.000    0.000 
#
# Total GULP energy -356387.012392 kJ/mol
# GULP energy per Si atom -5568.547069 kJ/mol
# Density = 1.740236 g / cm^3
# Si number density = 17.442059 Si / 1000 Ang^3
#
#
#
# Elastic Constant Matrix: (Units=GPa)
#
#
# Indices 1 2 3 4 5 6 
#
# 1 101.4849 36.6771 36.4736 0.0000 0.0000 0.0000
# 2 36.6771 50.0789 24.0674 0.0000 0.0000 0.0000
# 3 36.4736 24.0674 43.6485 0.0000 0.0000 0.0000
# 4 0.0000 0.0000 0.0000 26.2025 0.0000 0.0000
# 5 0.0000 0.0000 0.0000 0.0000 24.3433 0.0000
# 6 0.0000 0.0000 0.0000 0.0000 0.0000 15.0882
#
#
#
# Elastic Compliance Matrix: (Units=1/GPa)
#
#
# Indices 1 2 3 4 5 6 
#
# 1 0.015735 -0.007082 -0.009244 0.000000 0.000000 0.000000
# 2 -0.007082 0.030355 -0.010820 0.000000 0.000000 0.000000
# 3 -0.009244 -0.010820 0.036601 0.000000 0.000000 0.000000
# 4 0.000000 0.000000 0.000000 0.038164 0.000000 0.000000
# 5 0.000000 0.000000 0.000000 0.000000 0.041079 0.000000
# 6 0.000000 0.000000 0.000000 0.000000 0.000000 0.066277
#
#
# Mechanical properties :
#
#
# Convention : Reuss Voigt Hill
#
# Bulk Modulus (GPa) = 35.21133 43.29430 39.25282
# Shear Modulus (GPa) = 17.12511 19.65975 18.39243
#
# Velocity S-wave (km/s) = 3.13681 3.36094 3.25081
# Velocity P-wave (km/s) = 5.77502 6.31957 6.05342
#
# Compressibility (1/GPa) = 0.02839995
#
# Stress axis : x y z
#
# Youngs Moduli (GPa) = 63.55118 32.94352 27.32186
#
# Poissons Ratio (x) = 0.23330 0.25256
# Poissons Ratio (y) = 0.45006 0.29562
# Poissons Ratio (z) = 0.58746 0.35644
#
# Static dielectric constant tensor:
#      x y z
#    x 1.630090 0.000000 0.000000 
#    y 0.000000 1.594540 0.000000 
#    z 0.000000 0.000000 1.629890 
# 
# From -- ./inp_files/9334.got.cif
#   From: 2010.05.17/outbox.cif.g08.bks.cpg/sg57_5_cif.got.tgz:9334.got - 2010.06.03 13:58:18.
