data_PCOD9436101
_publ_section_title
;
Structure prediction by ZEFSAII (Michael W. Deem and Ramdas Pophale) SiO2 
 PCOD9436101
Probable space group: P B C M
;
_chemical_formula_sum "Si O2"
_cell_formula_units_Z 48
_cell_length_a 10.505888
_cell_length_b 28.845387
_cell_length_c 8.614276
_cell_angle_alpha 90.000000
_cell_angle_beta 90.000000
_cell_angle_gamma 90.000000
_cell_volume 2610.525375
_symmetry_space_group_name_H-M "P B C M"
_symmetry_group_IT_number 57
_symmetry_cell_setting 'orthorhombic'
loop_
_space_group_symop_operation_xyz
x,y,z
-x,-y,1/2+z
x,1/2-y,-z
-x,1/2+y,1/2-z
-x,-y,-z
x,y,1/2-z
-x,1/2+y,z
x,1/2-y,1/2+z
loop_
_atom_site_type_symbol
_atom_site_label
_atom_site_fract_x
_atom_site_fract_y
_atom_site_fract_z
Si Si1 0.728001 0.639759 0.938761
Si Si2 0.229581 0.849695 0.934223
Si Si3 0.517193 0.197862 0.936632
Si Si4 0.975995 0.801736 0.436736
Si Si5 0.157344 0.455198 0.437104
Si Si6 0.859098 0.055713 0.934595
O O1 0.726003 0.639115 0.750000
O O2 0.600777 0.665764 0.990329
O O3 0.852023 0.669107 0.984888
O O4 0.751359 0.586705 0.987662
O O5 0.234711 0.844928 0.750000
O O6 0.352131 0.825225 0.007569
O O7 0.216465 0.903426 0.981898
O O8 0.103047 0.825113 0.998646
O O9 0.515747 0.199747 0.750000
O O10 0.504992 0.250000 0.000000
O O11 0.965486 0.750000 0.500000
O O12 0.981938 0.801554 0.250000
O O13 0.164182 0.460282 0.250000
O O14 0.183516 0.504507 0.514761
O O15 0.010383 0.441533 0.473520
O O16 0.847301 0.061586 0.750000
#
# Coordination Sequence:
#
# PCOD9436101 Si02
#       6
#     8   8   8   8   8   8
#     4   9  19  37  61  86 116 152 191 237 290 344
#     4  12  24  39  58  84 115 154 198 241 288 343
#     4  11  23  41  62  84 115 156 196 238 292 348
#     4  11  21  37  58  86 116 147 189 242 293 345
#     4   9  17  34  58  87 120 152 187 233 290 349
#     4  10  19  34  58  88 120 152 189 238 292 345
#
# _framework density 18.387104999999998
#
# number of rings (size 3 to 8) (size 9 to 14) (size 15 to 20)
#    0.000    1.667    1.667    4.000    0.000    0.667 
#    0.000    5.000    0.000    0.000    0.000    0.000 
#    0.000    0.000    0.000    0.000    0.000    0.000 
#
# Total GULP energy -268177.610666 kJ/mol
# GULP energy per Si atom -5587.033556 kJ/mol
# Density = 1.834525 g / cm^3
# Si number density = 18.387105 Si / 1000 Ang^3
#
#
#
# Elastic Constant Matrix: (Units=GPa)
#
#
# Indices 1 2 3 4 5 6 
#
# 1 -139.7106 -197.9433 -52.8133 0.0000 0.0000 0.0000
# 2 -197.9433 -120.7553 -49.9770 0.0000 0.0000 0.0000
# 3 -52.8133 -49.9770 35.3613 0.0000 0.0000 0.0000
# 4 0.0000 0.0000 0.0000 -8.1699 0.0000 0.0000
# 5 0.0000 0.0000 0.0000 0.0000 3.6911 0.0000
# 6 0.0000 0.0000 0.0000 0.0000 0.0000 31.3171
#
#
#
# Elastic Compliance Matrix: (Units=1/GPa)
#
#
# Indices 1 2 3 4 5 6 
#
# 1 0.005895 -0.008396 -0.003062 0.000000 0.000000 0.000000
# 2 -0.008396 0.006733 -0.003024 0.000000 0.000000 0.000000
# 3 -0.003062 -0.003024 0.019433 0.000000 0.000000 0.000000
# 4 0.000000 0.000000 0.000000 -0.122400 0.000000 0.000000
# 5 0.000000 0.000000 0.000000 0.000000 0.270919 0.000000
# 6 0.000000 0.000000 0.000000 0.000000 0.000000 0.031931
#
#
# Mechanical properties :
#
#
# Convention : Reuss Voigt Hill
#
# Bulk Modulus (GPa) = 322.81882 -91.84131 115.48875
# Shear Modulus (GPa) = 20.61805 10.40960 15.51382
#
# Velocity S-wave (km/s) = 3.35226 2.38194 2.90786
# Velocity P-wave (km/s) = 13.81784 6.51861 8.61511
#
# Compressibility (1/GPa) = 0.00309771
#
# Stress axis : x y z
#
# Youngs Moduli (GPa) = 169.64104 148.53175 51.45900
#
# Poissons Ratio (x) = 1.24702 0.15755
# Poissons Ratio (y) = 1.42425 0.15561
# Poissons Ratio (z) = 0.51939 0.44915
#
# Static dielectric constant tensor:
#      x y z
#    x 1.610740 0.000000 0.000000 
#    y 0.000000 1.622080 0.000000 
#    z 0.000000 0.000000 1.617990 
# 
# From -- ./inp_files/2099.got.cif
#   From: 2010.05.17/outbox.cif.g08.bks.cpg/sg57_2_cif.got.tgz:2099.got - 2010.06.03 13:58:18.
