data_PCOD9436938
_publ_section_title
;
Structure prediction by ZEFSAII (Michael W. Deem and Ramdas Pophale) SiO2 
 PCOD9436938
Probable space group: P B C M
;
_chemical_formula_sum "Si O2"
_cell_formula_units_Z 56
_cell_length_a 22.402185
_cell_length_b 14.640172
_cell_length_c 9.009708
_cell_angle_alpha 90.000000
_cell_angle_beta 90.000000
_cell_angle_gamma 90.000000
_cell_volume 2954.930525
_symmetry_space_group_name_H-M "P B C M"
_symmetry_group_IT_number 57
_symmetry_cell_setting 'orthorhombic'
loop_
_space_group_symop_operation_xyz
x,y,z
-x,-y,1/2+z
x,1/2-y,-z
-x,1/2+y,1/2-z
-x,-y,-z
x,y,1/2-z
-x,1/2+y,z
x,1/2-y,1/2+z
loop_
_atom_site_type_symbol
_atom_site_label
_atom_site_fract_x
_atom_site_fract_y
_atom_site_fract_z
Si Si1 0.111925 0.655195 0.426663
Si Si2 0.522880 0.906860 0.574025
Si Si3 0.751028 0.650625 0.073816
Si Si4 0.640467 0.951008 0.428871
Si Si5 0.972200 0.845359 0.928419
Si Si6 0.607023 0.158183 0.424889
Si Si7 0.866662 0.973369 0.925526
O O1 0.131673 0.750000 0.500000
O O2 0.116190 0.661581 0.250000
O O3 0.144943 0.566501 0.487713
O O4 0.041666 0.641823 0.467754
O O5 0.533091 0.917466 0.750000
O O6 0.585322 0.890785 0.492312
O O7 0.465024 0.843712 0.554976
O O8 0.500000 0.000000 0.500000
O O9 0.739152 0.658454 0.250000
O O10 0.814102 0.599529 0.054638
O O11 0.752274 0.750000 0.000000
O O12 0.700420 0.589733 0.996130
O O13 0.639663 0.947745 0.250000
O O14 0.630759 0.057992 0.474468
O O15 0.968126 0.838306 0.750000
O O16 0.928410 0.926172 0.976434
O O17 0.952412 0.750000 0.000000
O O18 0.631118 0.250000 0.500000
O O19 0.618785 0.163344 0.250000
O O20 0.871664 0.994051 0.750000
#
# Coordination Sequence:
#
# PCOD9436938 Si02
#       7
#     8   8   8   8   8   8   8
#     4  10  20  34  55  82 112 146 182 222 273 328
#     4   9  17  31  51  78 110 144 182 224 273 325
#     4  11  24  41  61  83 107 141 182 227 276 327
#     4  10  21  38  57  80 111 147 188 233 277 326
#     4   9  18  32  52  81 114 146 180 223 273 328
#     4   9  19  33  53  82 113 144 178 219 269 323
#     4  10  21  37  56  80 111 144 183 228 275 327
#
# _framework density 18.951376
#
# number of rings (size 3 to 8) (size 9 to 14) (size 15 to 20)
#    0.000    2.286    0.000    3.429    0.000    6.286 
#    0.000    2.143    0.000    1.714    0.000    0.000 
#    0.000    0.000    0.000    0.000    0.000    0.000 
#
# Total GULP energy -312364.734625 kJ/mol
# GULP energy per Si atom -5577.941690 kJ/mol
# Density = 1.890824 g / cm^3
# Si number density = 18.951376 Si / 1000 Ang^3
#
#
#
# Elastic Constant Matrix: (Units=GPa)
#
#
# Indices 1 2 3 4 5 6 
#
# 1 27.3489 22.8521 27.9765 0.0000 0.0000 0.0000
# 2 22.8521 133.4162 62.9856 0.0000 0.0000 0.0000
# 3 27.9765 62.9856 60.6794 0.0000 0.0000 0.0000
# 4 0.0000 0.0000 0.0000 33.7723 0.0000 0.0000
# 5 0.0000 0.0000 0.0000 0.0000 22.8448 0.0000
# 6 0.0000 0.0000 0.0000 0.0000 0.0000 18.7854
#
#
#
# Elastic Compliance Matrix: (Units=1/GPa)
#
#
# Indices 1 2 3 4 5 6 
#
# 1 0.072008 0.006549 -0.039997 0.000000 0.000000 0.000000
# 2 0.006549 0.015294 -0.018894 0.000000 0.000000 0.000000
# 3 -0.039997 -0.018894 0.054533 0.000000 0.000000 0.000000
# 4 0.000000 0.000000 0.000000 0.029610 0.000000 0.000000
# 5 0.000000 0.000000 0.000000 0.000000 0.043774 0.000000
# 6 0.000000 0.000000 0.000000 0.000000 0.000000 0.053233
#
#
# Mechanical properties :
#
#
# Convention : Reuss Voigt Hill
#
# Bulk Modulus (GPa) = 26.91835 49.89698 38.40767
# Shear Modulus (GPa) = 12.96950 22.25582 17.61266
#
# Velocity S-wave (km/s) = 2.61886 3.43062 3.05185
# Velocity P-wave (km/s) = 4.83521 6.48678 5.72091
#
# Compressibility (1/GPa) = 0.03714938
#
# Stress axis : x y z
#
# Youngs Moduli (GPa) = 13.88738 65.38707 18.33740
#
# Poissons Ratio (x) = -0.42821 0.73345
# Poissons Ratio (y) = -0.09095 0.34647
# Poissons Ratio (z) = 0.55546 1.23544
#
# Static dielectric constant tensor:
#      x y z
#    x 1.679060 0.000000 0.000000 
#    y 0.000000 1.659500 0.000000 
#    z 0.000000 0.000000 1.629590 
# 
# From -- ./inp_files/8127.got.cif
#   From: 2010.05.17/outbox.cif.g08.bks.cpg/sg57_5_cif.got.tgz:8127.got - 2010.06.03 13:58:18.
