data_PCOD9436093
_publ_section_title
;
Structure prediction by ZEFSAII (Michael W. Deem and Ramdas Pophale) SiO2 
 PCOD9436093
Probable space group: P B C M
;
_chemical_formula_sum "Si O2"
_cell_formula_units_Z 48
_cell_length_a 5.585850
_cell_length_b 13.364929
_cell_length_c 25.071839
_cell_angle_alpha 90.000000
_cell_angle_beta 90.000000
_cell_angle_gamma 90.000000
_cell_volume 1871.725320
_symmetry_space_group_name_H-M "P B C M"
_symmetry_group_IT_number 57
_symmetry_cell_setting 'orthorhombic'
loop_
_space_group_symop_operation_xyz
x,y,z
-x,-y,1/2+z
x,1/2-y,-z
-x,1/2+y,1/2-z
-x,-y,-z
x,y,1/2-z
-x,1/2+y,z
x,1/2-y,1/2+z
loop_
_atom_site_type_symbol
_atom_site_label
_atom_site_fract_x
_atom_site_fract_y
_atom_site_fract_z
Si Si1 0.853796 0.761336 0.690223
Si Si2 0.849688 0.516545 0.336520
Si Si3 0.664763 0.977720 0.357932
Si Si4 0.445034 0.143370 0.545340
Si Si5 0.646586 0.280350 0.630186
Si Si6 0.196367 0.458135 0.960757
O O1 0.872396 0.720506 0.750000
O O2 0.844827 0.881890 0.695091
O O3 0.590089 0.746259 0.663646
O O4 0.099101 0.746281 0.655508
O O5 0.598507 0.459149 0.333705
O O6 0.870475 0.552429 0.399106
O O7 0.098982 0.463710 0.322925
O O8 0.646807 0.097591 0.371713
O O9 0.716495 0.904947 0.407805
O O10 0.598516 0.232072 0.571885
O O11 0.300163 0.140912 0.489804
O O12 0.622019 0.050008 0.539560
O O13 0.000000 0.500000 0.000000
#
# Coordination Sequence:
#
# PCOD9436093 Si02
#       6
#     8   8   8   8   8   8
#     4  10  21  40  64  87 118 159 205 267 319 358
#     4   9  18  34  57  83 117 154 201 242 299 363
#     4   9  18  35  55  82 117 153 195 245 291 355
#     4  10  21  35  59  85 125 167 196 247 310 358
#     4  10  22  37  64  90 117 158 206 250 310 376
#     4  10  19  34  58  86 124 167 203 245 302 369
#
# _framework density 25.644787000000001
#
# number of rings (size 3 to 8) (size 9 to 14) (size 15 to 20)
#    0.000    2.333    1.667    0.500    2.333    0.000 
#    0.000   13.333    0.000   38.000    0.000    0.000 
#    0.000    0.000    0.000    0.000    0.000    0.000 
#
# Total GULP energy -267670.066932 kJ/mol
# GULP energy per Si atom -5576.459728 kJ/mol
# Density = 2.558642 g / cm^3
# Si number density = 25.644787 Si / 1000 Ang^3
#
#
#
# Elastic Constant Matrix: (Units=GPa)
#
#
# Indices 1 2 3 4 5 6 
#
# 1 183.2488 19.4570 37.1620 0.0000 0.0000 0.0000
# 2 19.4570 80.0786 36.2336 0.0000 0.0000 0.0000
# 3 37.1620 36.2336 116.0398 0.0000 0.0000 0.0000
# 4 0.0000 0.0000 0.0000 36.9953 0.0000 0.0000
# 5 0.0000 0.0000 0.0000 0.0000 6.2842 0.0000
# 6 0.0000 0.0000 0.0000 0.0000 0.0000 36.5011
#
#
#
# Elastic Compliance Matrix: (Units=1/GPa)
#
#
# Indices 1 2 3 4 5 6 
#
# 1 0.005867 -0.000670 -0.001670 0.000000 0.000000 0.000000
# 2 -0.000670 0.014619 -0.004350 0.000000 0.000000 0.000000
# 3 -0.001670 -0.004350 0.010511 0.000000 0.000000 0.000000
# 4 0.000000 0.000000 0.000000 0.027030 0.000000 0.000000
# 5 0.000000 0.000000 0.000000 0.000000 0.159129 0.000000
# 6 0.000000 0.000000 0.000000 0.000000 0.000000 0.027396
#
#
# Mechanical properties :
#
#
# Convention : Reuss Voigt Hill
#
# Bulk Modulus (GPa) = 56.76403 62.78581 59.77492
# Shear Modulus (GPa) = 18.95346 35.05708 27.00527
#
# Velocity S-wave (km/s) = 2.72155 3.70134 3.24860
# Velocity P-wave (km/s) = 5.66202 6.54237 6.11805
#
# Compressibility (1/GPa) = 0.01761679
#
# Stress axis : x y z
#
# Youngs Moduli (GPa) = 170.45068 68.40466 95.14025
#
# Poissons Ratio (x) = 0.04583 0.15885
# Poissons Ratio (y) = 0.11420 0.41388
# Poissons Ratio (z) = 0.28459 0.29757
#
# Static dielectric constant tensor:
#      x y z
#    x 1.809960 0.000000 0.000000 
#    y 0.000000 2.073020 0.000000 
#    z 0.000000 0.000000 1.598200 
# 
# From -- ./inp_files/27963.got.cif
#   From: 2010.05.17/outbox.cif.g08.bks.cpg/sg57_14_cif.got.tgz:27963.got - 2010.06.03 13:58:18.
