data_PCOD9436975
_publ_section_title
;
Structure prediction by ZEFSAII (Michael W. Deem and Ramdas Pophale) SiO2 
 PCOD9436975
Probable space group: P B C M
;
_chemical_formula_sum "Si O2"
_cell_formula_units_Z 48
_cell_length_a 15.453248
_cell_length_b 9.799560
_cell_length_c 13.839481
_cell_angle_alpha 90.000000
_cell_angle_beta 90.000000
_cell_angle_gamma 90.000000
_cell_volume 2095.782234
_symmetry_space_group_name_H-M "P B C M"
_symmetry_group_IT_number 57
_symmetry_cell_setting 'orthorhombic'
loop_
_space_group_symop_operation_xyz
x,y,z
-x,-y,1/2+z
x,1/2-y,-z
-x,1/2+y,1/2-z
-x,-y,-z
x,y,1/2-z
-x,1/2+y,z
x,1/2-y,1/2+z
loop_
_atom_site_type_symbol
_atom_site_label
_atom_site_fract_x
_atom_site_fract_y
_atom_site_fract_z
Si Si1 0.067656 0.633136 0.919013
Si Si2 0.741653 0.325943 0.139050
Si Si3 0.712607 0.023831 0.133948
Si Si4 0.116719 0.387667 0.444809
Si Si5 0.600603 0.977428 0.632261
Si Si6 0.555912 0.829259 0.131838
O O1 0.154613 0.664350 0.861229
O O2 0.969867 0.630211 0.879179
O O3 0.063551 0.750000 0.000000
O O4 0.087525 0.491311 0.971404
O O5 0.712610 0.319111 0.250000
O O6 0.715019 0.179381 0.095972
O O7 0.694183 0.462502 0.101483
O O8 0.705485 0.031432 0.250000
O O9 0.802804 0.952038 0.109305
O O10 0.633289 0.930054 0.101476
O O11 0.140885 0.250000 0.500000
O O12 0.599067 0.965551 0.750000
O O13 0.572399 0.826354 0.599031
O O14 0.532784 0.095588 0.604016
O O15 0.555294 0.825650 0.250000
#
# Coordination Sequence:
#
# PCOD9436975 Si02
#       6
#     8   8   8   8   8   8
#     4  10  20  39  58  77 106 145 186 220 268 329
#     4  10  20  34  56  83 110 142 182 229 274 315
#     4  10  20  35  55  82 112 142 180 228 275 317
#     4  10  22  37  58  80 106 147 186 222 269 331
#     4   9  17  30  50  78 109 143 179 218 267 322
#     4   9  17  30  50  77 110 143 178 220 267 322
#
# _framework density 22.903144000000001
#
# number of rings (size 3 to 8) (size 9 to 14) (size 15 to 20)
#    0.000    2.333    1.667    1.000    2.333    4.667 
#    0.000    0.000    0.000    2.000    0.000    0.000 
#    0.000    0.000    0.000    0.000    0.000    0.000 
#
# Total GULP energy -268081.559249 kJ/mol
# GULP energy per Si atom -5585.032484 kJ/mol
# Density = 2.285102 g / cm^3
# Si number density = 22.903144 Si / 1000 Ang^3
#
#
#
# Elastic Constant Matrix: (Units=GPa)
#
#
# Indices 1 2 3 4 5 6 
#
# 1 124.6229 31.9154 0.7485 0.0000 0.0000 0.0000
# 2 31.9154 159.5019 17.5323 0.0000 0.0000 0.0000
# 3 0.7485 17.5323 44.4913 0.0000 0.0000 0.0000
# 4 0.0000 0.0000 0.0000 29.2448 0.0000 0.0000
# 5 0.0000 0.0000 0.0000 0.0000 34.7996 0.0000
# 6 0.0000 0.0000 0.0000 0.0000 0.0000 36.7244
#
#
#
# Elastic Compliance Matrix: (Units=1/GPa)
#
#
# Indices 1 2 3 4 5 6 
#
# 1 0.008470 -0.001755 0.000549 0.000000 0.000000 0.000000
# 2 -0.001755 0.006917 -0.002696 0.000000 0.000000 0.000000
# 3 0.000549 -0.002696 0.023530 0.000000 0.000000 0.000000
# 4 0.000000 0.000000 0.000000 0.034194 0.000000 0.000000
# 5 0.000000 0.000000 0.000000 0.000000 0.028736 0.000000
# 6 0.000000 0.000000 0.000000 0.000000 0.000000 0.027230
#
#
# Mechanical properties :
#
#
# Convention : Reuss Voigt Hill
#
# Bulk Modulus (GPa) = 32.14150 47.66764 39.90457
# Shear Modulus (GPa) = 33.95530 38.71508 36.33519
#
# Velocity S-wave (km/s) = 3.85458 4.11589 3.98737
# Velocity P-wave (km/s) = 5.82018 6.59130 6.21771
#
# Compressibility (1/GPa) = 0.03111242
#
# Stress axis : x y z
#
# Youngs Moduli (GPa) = 118.05793 144.56930 42.49979
#
# Poissons Ratio (x) = 0.25375 -0.02334
# Poissons Ratio (y) = 0.20722 0.11459
# Poissons Ratio (z) = -0.06483 0.38979
#
# Static dielectric constant tensor:
#      x y z
#    x 1.879400 0.000000 0.000000 
#    y 0.000000 1.815970 0.000000 
#    z 0.000000 0.000000 1.902950 
# 
# From -- ./inp_files/22438.got.cif
#   From: 2010.05.17/outbox.cif.g08.bks.cpg/sg57_12_cif.got.tgz:22438.got - 2010.06.03 13:58:18.
