data_PCOD9436818
_publ_section_title
;
Structure prediction by ZEFSAII (Michael W. Deem and Ramdas Pophale) SiO2 
 PCOD9436818
Probable space group: P B C M
;
_chemical_formula_sum "Si O2"
_cell_formula_units_Z 64
_cell_length_a 20.827371
_cell_length_b 19.945384
_cell_length_c 8.710488
_cell_angle_alpha 90.000000
_cell_angle_beta 90.000000
_cell_angle_gamma 90.000000
_cell_volume 3618.423056
_symmetry_space_group_name_H-M "P B C M"
_symmetry_group_IT_number 57
_symmetry_cell_setting 'orthorhombic'
loop_
_space_group_symop_operation_xyz
x,y,z
-x,-y,1/2+z
x,1/2-y,-z
-x,1/2+y,1/2-z
-x,-y,-z
x,y,1/2-z
-x,1/2+y,z
x,1/2-y,1/2+z
loop_
_atom_site_type_symbol
_atom_site_label
_atom_site_fract_x
_atom_site_fract_y
_atom_site_fract_z
Si Si1 0.430468 0.176136 0.433102
Si Si2 0.184888 0.077870 0.434551
Si Si3 0.676295 0.421230 0.933048
Si Si4 0.184888 0.922130 0.065449
Si Si5 0.323705 0.421230 0.066952
Si Si6 0.069010 0.675706 0.934599
Si Si7 0.069010 0.175706 0.434599
Si Si8 0.569532 0.323864 0.433102
O O1 0.416124 0.250000 0.500000
O O2 0.434260 0.179980 0.250000
O O3 0.376269 0.124416 0.485282
O O4 0.500000 0.156163 0.500000
O O5 0.192906 0.082212 0.250000
O O6 0.251915 0.097059 0.513042
O O7 0.126071 0.125505 0.478695
O O8 0.171386 1.000000 0.472786
O O9 0.670907 0.413596 0.750000
O O10 0.667044 0.500000 0.971283
O O11 0.748085 0.402941 0.986958
O O12 0.623731 0.375584 0.014718
O O13 0.192906 0.917788 0.250000
O O14 0.126071 0.874495 0.021305
O O15 0.329093 0.413596 0.250000
O O16 0.065333 0.678893 0.750000
O O17 0.081326 0.750000 0.000000
O O18 1.000000 0.653717 0.000000
O O19 0.081326 0.250000 0.500000
O O20 0.065333 0.178893 0.250000
O O21 0.583876 0.250000 0.500000
O O22 0.565740 0.320020 0.250000
#
# Coordination Sequence:
#
# PCOD9436818 Si02
#       8
#     8   8   8   8   8   8   8   8
#     4  11  22  38  59  82 111 144 180 223 269 319
#     4   9  19  36  55  76 104 139 178 219 265 315
#     4  10  21  37  57  82 111 143 181 223 267 318
#     4   9  19  36  55  76 104 139 178 219 265 315
#     4  10  21  37  57  82 111 143 181 223 267 318
#     4  10  20  34  53  76 104 137 173 216 263 315
#     4  10  20  34  53  76 104 137 173 216 263 315
#     4  11  22  38  59  82 111 144 180 223 269 319
#
# _framework density 17.687263999999999
#
# number of rings (size 3 to 8) (size 9 to 14) (size 15 to 20)
#    0.000    2.000    0.000    5.250    0.000    5.500 
#    0.000    2.500    0.000    0.000    0.000    0.000 
#    0.000    0.000    0.000    0.000    0.000    0.000 
#
# Total GULP energy -357426.305812 kJ/mol
# GULP energy per Si atom -5584.786028 kJ/mol
# Density = 1.764701 g / cm^3
# Si number density = 17.687264 Si / 1000 Ang^3
#
#
#
# Elastic Constant Matrix: (Units=GPa)
#
#
# Indices 1 2 3 4 5 6 
#
# 1 178.9481 113.7708 84.0433 0.0000 0.0000 0.0000
# 2 113.7708 85.9630 60.2583 0.0000 0.0000 0.0000
# 3 84.0433 60.2583 97.2135 0.0000 0.0000 0.0000
# 4 0.0000 0.0000 0.0000 26.8736 0.0000 0.0000
# 5 0.0000 0.0000 0.0000 0.0000 35.8291 0.0000
# 6 0.0000 0.0000 0.0000 0.0000 0.0000 43.9862
#
#
#
# Elastic Compliance Matrix: (Units=1/GPa)
#
#
# Indices 1 2 3 4 5 6 
#
# 1 0.035665 -0.045249 -0.002785 0.000000 0.000000 0.000000
# 2 -0.045249 0.077982 -0.009218 0.000000 0.000000 0.000000
# 3 -0.002785 -0.009218 0.018408 0.000000 0.000000 0.000000
# 4 0.000000 0.000000 0.000000 0.037211 0.000000 0.000000
# 5 0.000000 0.000000 0.000000 0.000000 0.027910 0.000000
# 6 0.000000 0.000000 0.000000 0.000000 0.000000 0.022734
#
#
# Mechanical properties :
#
#
# Convention : Reuss Voigt Hill
#
# Bulk Modulus (GPa) = 56.98139 97.58549 77.28344
# Shear Modulus (GPa) = 14.69446 28.27459 21.48453
#
# Velocity S-wave (km/s) = 2.88548 4.00257 3.48902
# Velocity P-wave (km/s) = 6.58690 8.75518 7.74728
#
# Compressibility (1/GPa) = 0.01754959
#
# Stress axis : x y z
#
# Youngs Moduli (GPa) = 28.03904 12.82355 54.32435
#
# Poissons Ratio (x) = 0.58026 0.15128
# Poissons Ratio (y) = 1.26875 0.50076
# Poissons Ratio (z) = 0.07808 0.11821
#
# Static dielectric constant tensor:
#      x y z
#    x 1.575620 0.000000 0.000000 
#    y 0.000000 1.584780 0.000000 
#    z 0.000000 0.000000 1.595530 
# 
# From -- ./inp_files/7223.got.cif
#   From: 2010.05.17/outbox.cif.g08.bks.cpg/sg57_4_cif.got.tgz:7223.got - 2010.06.03 13:58:18.
