data_PCOD9436606
_publ_section_title
;
Structure prediction by ZEFSAII (Michael W. Deem and Ramdas Pophale) SiO2 
 PCOD9436606
Probable space group: P B C M
;
_chemical_formula_sum "Si O2"
_cell_formula_units_Z 48
_cell_length_a 21.990020
_cell_length_b 14.617851
_cell_length_c 8.451359
_cell_angle_alpha 90.000000
_cell_angle_beta 90.000000
_cell_angle_gamma 90.000000
_cell_volume 2716.662609
_symmetry_space_group_name_H-M "P B C M"
_symmetry_group_IT_number 57
_symmetry_cell_setting 'orthorhombic'
loop_
_space_group_symop_operation_xyz
x,y,z
-x,-y,1/2+z
x,1/2-y,-z
-x,1/2+y,1/2-z
-x,-y,-z
x,y,1/2-z
-x,1/2+y,z
x,1/2-y,1/2+z
loop_
_atom_site_type_symbol
_atom_site_label
_atom_site_fract_x
_atom_site_fract_y
_atom_site_fract_z
Si Si1 0.764950 0.499863 0.442983
Si Si2 0.431533 0.499913 0.940834
Si Si3 0.096136 0.004845 0.441372
Si Si4 0.333331 0.147120 0.440777
Si Si5 0.666711 0.147110 0.559187
Si Si6 0.999602 0.646959 0.560615
O O1 0.765817 0.499583 0.250000
O O2 0.834374 0.500721 0.497420
O O3 0.725723 0.588480 0.491614
O O4 0.725918 0.411139 0.491969
O O5 0.432178 0.499916 0.750000
O O6 0.392421 0.411286 0.992084
O O7 0.392269 0.588411 0.992005
O O8 0.500000 0.500000 0.000000
O O9 0.096305 0.006537 0.250000
O O10 0.056515 0.916532 0.491773
O O11 0.060155 0.093910 0.500327
O O12 0.333265 0.250000 0.500000
O O13 0.333350 0.147857 0.250000
O O14 0.666523 0.250000 0.500000
O O15 0.666725 0.147815 0.750000
O O16 0.003465 0.750000 0.500000
O O17 0.998853 0.647896 0.750000
#
# Coordination Sequence:
#
# PCOD9436606 Si02
#       6
#     8   8   8   8   8   8
#     4   8  16  33  53  71  96 128 159 195 241 287
#     4   9  19  34  50  69  96 128 159 194 237 283
#     4   9  18  34  54  73  96 129 166 203 243 287
#     4   9  18  33  51  71  96 125 157 195 238 282
#     4   9  18  33  51  72  98 127 159 196 239 285
#     4  10  20  33  50  73 101 131 163 201 244 290
#
# _framework density 17.668738000000001
#
# number of rings (size 3 to 8) (size 9 to 14) (size 15 to 20)
#    0.000    3.000    0.000    2.500    0.000    4.000 
#    0.000    9.167    0.000    0.000    0.000    0.000 
#    0.000    0.000    0.000    0.000    0.000    0.000 
#
# Total GULP energy -267559.468771 kJ/mol
# GULP energy per Si atom -5574.155599 kJ/mol
# Density = 1.762852 g / cm^3
# Si number density = 17.668738 Si / 1000 Ang^3
#
#
#
# Elastic Constant Matrix: (Units=GPa)
#
#
# Indices 1 2 3 4 5 6 
#
# 1 197.7284 105.6195 24.0921 0.0000 0.0000 0.0000
# 2 105.6195 192.8511 22.9167 0.0000 0.0000 0.0000
# 3 24.0921 22.9167 7.4409 0.0000 0.0000 0.0000
# 4 0.0000 0.0000 0.0000 30.8242 0.0000 0.0000
# 5 0.0000 0.0000 0.0000 0.0000 21.4597 0.0000
# 6 0.0000 0.0000 0.0000 0.0000 0.0000 7.3379
#
#
#
# Elastic Compliance Matrix: (Units=1/GPa)
#
#
# Indices 1 2 3 4 5 6 
#
# 1 0.008957 -0.002302 -0.021911 0.000000 0.000000 0.000000
# 2 -0.002302 0.008770 -0.019558 0.000000 0.000000 0.000000
# 3 -0.021911 -0.019558 0.265571 0.000000 0.000000 0.000000
# 4 0.000000 0.000000 0.000000 0.032442 0.000000 0.000000
# 5 0.000000 0.000000 0.000000 0.000000 0.046599 0.000000
# 6 0.000000 0.000000 0.000000 0.000000 0.000000 0.136278
#
#
# Mechanical properties :
#
#
# Convention : Reuss Voigt Hill
#
# Bulk Modulus (GPa) = 5.10840 78.14189 41.62514
# Shear Modulus (GPa) = 7.67566 28.28385 17.97976
#
# Velocity S-wave (km/s) = 2.08654 4.00532 3.19345
# Velocity P-wave (km/s) = 2.94997 8.10631 6.09978
#
# Compressibility (1/GPa) = 0.19575608
#
# Stress axis : x y z
#
# Youngs Moduli (GPa) = 111.64912 114.02598 3.76548
#
# Poissons Ratio (x) = 0.26244 0.08251
# Poissons Ratio (y) = 0.25697 0.07364
# Poissons Ratio (z) = 2.44637 2.23009
#
# Static dielectric constant tensor:
#      x y z
#    x 1.598850 0.000000 0.000000 
#    y 0.000000 1.576850 0.000000 
#    z 0.000000 0.000000 1.610850 
# 
# From -- ./inp_files/7867.got.cif
#   From: 2010.05.17/outbox.cif.g08.bks.cpg/sg57_4_cif.got.tgz:7867.got - 2010.06.03 13:58:18.
