data_PCOD9436412
_publ_section_title
;
Structure prediction by ZEFSAII (Michael W. Deem and Ramdas Pophale) SiO2 
 PCOD9436412
Probable space group: P B C M
;
_chemical_formula_sum "Si O2"
_cell_formula_units_Z 64
_cell_length_a 19.826423
_cell_length_b 10.554440
_cell_length_c 15.030170
_cell_angle_alpha 90.000000
_cell_angle_beta 90.000000
_cell_angle_gamma 90.000000
_cell_volume 3145.165157
_symmetry_space_group_name_H-M "P B C M"
_symmetry_group_IT_number 57
_symmetry_cell_setting 'orthorhombic'
loop_
_space_group_symop_operation_xyz
x,y,z
-x,-y,1/2+z
x,1/2-y,-z
-x,1/2+y,1/2-z
-x,-y,-z
x,y,1/2-z
-x,1/2+y,z
x,1/2-y,1/2+z
loop_
_atom_site_type_symbol
_atom_site_label
_atom_site_fract_x
_atom_site_fract_y
_atom_site_fract_z
Si Si1 0.785849 0.597283 0.640926
Si Si2 0.228486 0.879993 0.358973
Si Si3 0.490408 0.125759 0.941763
Si Si4 0.843237 0.867121 0.642892
Si Si5 0.361440 0.013740 0.856532
Si Si6 0.627040 0.222268 0.857471
Si Si7 0.132117 0.849460 0.857078
Si Si8 0.012861 0.125148 0.058088
O O1 0.785856 0.597941 0.750000
O O2 0.816540 0.730765 0.611355
O O3 0.709251 0.571880 0.611396
O O4 0.831824 0.478904 0.612832
O O5 0.228686 0.879112 0.250000
O O6 0.303934 0.844680 0.387474
O O7 0.175674 0.771501 0.387493
O O8 0.203208 0.017034 0.388825
O O9 0.425825 0.096749 0.881277
O O10 0.559648 0.154567 0.890204
O O11 0.476614 0.250000 0.000000
O O12 0.500000 0.000000 0.000000
O O13 0.839823 0.865496 0.750000
O O14 0.920069 0.892417 0.615823
O O15 0.356496 0.006135 0.750000
O O16 0.371098 0.868774 0.888433
O O17 0.626887 0.222493 0.750000
O O18 0.134088 0.848405 0.750000
O O19 0.055263 0.848393 0.887401
O O20 0.024839 0.250000 0.000000
O O21 0.000000 0.000000 0.000000
#
# Coordination Sequence:
#
# PCOD9436412 Si02
#       8
#     8   8   8   8   8   8   8   8
#     4   9  18  35  64  92 114 147 197 253 301 349
#     4   9  18  35  64  93 113 142 199 257 293 341
#     4  12  25  42  59  89 130 167 200 242 300 362
#     4  10  21  39  60  87 120 153 194 248 301 352
#     4  10  20  40  67  93 120 158 205 253 303 360
#     4  10  20  40  67  93 120 157 204 256 302 355
#     4  10  19  37  64  87 108 152 203 240 291 358
#     4  12  25  40  55  83 123 160 195 241 296 350
#
# _framework density 20.348693000000001
#
# number of rings (size 3 to 8) (size 9 to 14) (size 15 to 20)
#    0.000    1.750    2.500    2.250    0.000    1.000 
#    0.000   13.750    0.000    0.000    0.000    0.000 
#    0.000    0.000    0.000    0.000    0.000    0.000 
#
# Total GULP energy -357825.627793 kJ/mol
# GULP energy per Si atom -5591.025434 kJ/mol
# Density = 2.030238 g / cm^3
# Si number density = 20.348693 Si / 1000 Ang^3
#
#
#
# Elastic Constant Matrix: (Units=GPa)
#
#
# Indices 1 2 3 4 5 6 
#
# 1 161.6138 44.6816 5.6422 0.0000 0.0000 0.0000
# 2 44.6816 135.8998 8.2386 0.0000 0.0000 0.0000
# 3 5.6422 8.2386 22.8776 0.0000 0.0000 0.0000
# 4 0.0000 0.0000 0.0000 15.8378 0.0000 0.0000
# 5 0.0000 0.0000 0.0000 0.0000 -18.0770 0.0000
# 6 0.0000 0.0000 0.0000 0.0000 0.0000 41.9908
#
#
#
# Elastic Compliance Matrix: (Units=1/GPa)
#
#
# Indices 1 2 3 4 5 6 
#
# 1 0.006824 -0.002189 -0.000895 0.000000 0.000000 0.000000
# 2 -0.002189 0.008225 -0.002422 0.000000 0.000000 0.000000
# 3 -0.000895 -0.002422 0.044804 0.000000 0.000000 0.000000
# 4 0.000000 0.000000 0.000000 0.063140 0.000000 0.000000
# 5 0.000000 0.000000 0.000000 0.000000 -0.055319 0.000000
# 6 0.000000 0.000000 0.000000 0.000000 0.000000 0.023815
#
#
# Mechanical properties :
#
#
# Convention : Reuss Voigt Hill
#
# Bulk Modulus (GPa) = 20.47462 48.61290 34.54376
# Shear Modulus (GPa) = 42.09419 25.40556 33.74988
#
# Velocity S-wave (km/s) = 4.55317 3.53726 4.07698
# Velocity P-wave (km/s) = 6.14211 6.37375 6.25900
#
# Compressibility (1/GPa) = 0.04884095
#
# Stress axis : x y z
#
# Youngs Moduli (GPa) = 146.53866 121.57999 22.31956
#
# Poissons Ratio (x) = 0.26619 0.01997
# Poissons Ratio (y) = 0.32084 0.05406
# Poissons Ratio (z) = 0.13109 0.29447
#
# Static dielectric constant tensor:
#      x y z
#    x 1.683720 0.000000 0.000000 
#    y 0.000000 1.688990 0.000000 
#    z 0.000000 0.000000 1.740450 
# 
# From -- ./inp_files/23059.got.cif
#   From: 2010.05.17/outbox.cif.g08.bks.cpg/sg57_12_cif.got.tgz:23059.got - 2010.06.03 13:58:18.
