data_PCOD9436940
_publ_section_title
;
Structure prediction by ZEFSAII (Michael W. Deem and Ramdas Pophale) SiO2 
 PCOD9436940
Probable space group: P B C M
;
_chemical_formula_sum "Si O2"
_cell_formula_units_Z 48
_cell_length_a 29.914047
_cell_length_b 8.869785
_cell_length_c 9.218077
_cell_angle_alpha 90.000000
_cell_angle_beta 90.000000
_cell_angle_gamma 90.000000
_cell_volume 2445.843113
_symmetry_space_group_name_H-M "P B C M"
_symmetry_group_IT_number 57
_symmetry_cell_setting 'orthorhombic'
loop_
_space_group_symop_operation_xyz
x,y,z
-x,-y,1/2+z
x,1/2-y,-z
-x,1/2+y,1/2-z
-x,-y,-z
x,y,1/2-z
-x,1/2+y,z
x,1/2-y,1/2+z
loop_
_atom_site_type_symbol
_atom_site_label
_atom_site_fract_x
_atom_site_fract_y
_atom_site_fract_z
Si Si1 0.139184 0.085139 0.423914
Si Si2 0.960282 0.911869 0.576937
Si Si3 0.697489 0.407688 0.416221
Si Si4 0.531607 0.924591 0.750000
Si Si5 0.403366 0.569662 0.524837
Si Si6 0.774116 0.914022 0.074689
Si Si7 0.562525 0.922843 0.250000
O O1 0.135981 0.250000 0.500000
O O2 0.147760 0.099163 0.250000
O O3 0.089512 0.017580 0.442255
O O4 0.180899 0.010179 0.507220
O O5 0.959420 0.750000 0.500000
O O6 0.967563 0.897406 0.750000
O O7 0.000000 0.000000 0.500000
O O8 0.696791 0.250000 0.500000
O O9 0.713762 0.396231 0.250000
O O10 0.645702 0.457373 0.410925
O O11 0.729915 0.508664 0.512747
O O12 0.543697 0.747251 0.750000
O O13 0.555442 0.008583 0.882499
O O14 0.479450 0.961610 0.750000
O O15 0.408244 0.750000 0.500000
O O16 0.407087 0.467358 0.384067
O O17 0.775520 0.908401 0.250000
O O18 0.773614 0.750000 0.000000
#
# Coordination Sequence:
#
# PCOD9436940 Si02
#       7
#     8   8   8   4   8   8   4
#     4   9  17  32  54  81 115 155 201 249 306 364
#     4  10  20  34  55  82 115 156 201 253 307 368
#     4  11  24  43  66  90 123 160 202 248 307 373
#     4  12  24  46  62 100 126 166 210 256 311 364
#     4  11  24  43  67  91 125 167 208 253 310 373
#     4  11  22  37  61  91 123 158 201 251 303 357
#     4  12  26  40  70  92 132 164 208 260 307 370
#
# _framework density 19.625133999999999
#
# number of rings (size 3 to 8) (size 9 to 14) (size 15 to 20)
#    0.000    1.333    0.833    6.500    4.667    3.333 
#    0.000    0.833    0.000    4.000    0.000    0.000 
#    0.000    0.000    0.000    0.000    0.000    0.000 
#
# Total GULP energy -267674.136183 kJ/mol
# GULP energy per Si atom -5576.544504 kJ/mol
# Density = 1.958047 g / cm^3
# Si number density = 19.625134 Si / 1000 Ang^3
#
#
#
# Elastic Constant Matrix: (Units=GPa)
#
#
# Indices 1 2 3 4 5 6 
#
# 1 112.0873 37.8075 48.8388 0.0000 0.0000 0.0000
# 2 37.8075 64.6303 21.4218 0.0000 0.0000 0.0000
# 3 48.8388 21.4218 163.8727 0.0000 0.0000 0.0000
# 4 0.0000 0.0000 0.0000 22.5108 0.0000 0.0000
# 5 0.0000 0.0000 0.0000 0.0000 44.4985 0.0000
# 6 0.0000 0.0000 0.0000 0.0000 0.0000 14.3281
#
#
#
# Elastic Compliance Matrix: (Units=1/GPa)
#
#
# Indices 1 2 3 4 5 6 
#
# 1 0.012261 -0.006231 -0.002839 0.000000 0.000000 0.000000
# 2 -0.006231 0.019340 -0.000671 0.000000 0.000000 0.000000
# 3 -0.002839 -0.000671 0.007036 0.000000 0.000000 0.000000
# 4 0.000000 0.000000 0.000000 0.044423 0.000000 0.000000
# 5 0.000000 0.000000 0.000000 0.000000 0.022473 0.000000
# 6 0.000000 0.000000 0.000000 0.000000 0.000000 0.069793
#
#
# Mechanical properties :
#
#
# Convention : Reuss Voigt Hill
#
# Bulk Modulus (GPa) = 52.20941 61.85849 57.03395
# Shear Modulus (GPa) = 24.85168 31.76897 28.31032
#
# Velocity S-wave (km/s) = 3.56240 4.02778 3.80222
# Velocity P-wave (km/s) = 6.60167 7.29515 6.95705
#
# Compressibility (1/GPa) = 0.01915364
#
# Stress axis : x y z
#
# Youngs Moduli (GPa) = 81.56211 51.70596 142.12064
#
# Poissons Ratio (x) = 0.32218 0.40355
# Poissons Ratio (y) = 0.50822 0.09538
# Poissons Ratio (z) = 0.23159 0.03470
#
# Static dielectric constant tensor:
#      x y z
#    x 1.731250 0.000000 0.000000 
#    y 0.000000 1.825610 0.000000 
#    z 0.000000 0.000000 1.574750 
# 
# From -- ./inp_files/10119.got.cif
#   From: 2010.05.17/outbox.cif.g08.bks.cpg/sg57_6_cif.got.tgz:10119.got - 2010.06.03 13:58:18.
