data_PCOD9436631
_publ_section_title
;
Structure prediction by ZEFSAII (Michael W. Deem and Ramdas Pophale) SiO2 
 PCOD9436631
Probable space group: P B C M
;
_chemical_formula_sum "Si O2"
_cell_formula_units_Z 60
_cell_length_a 20.193885
_cell_length_b 4.988674
_cell_length_c 31.136782
_cell_angle_alpha 90.000000
_cell_angle_beta 90.000000
_cell_angle_gamma 90.000000
_cell_volume 3136.741496
_symmetry_space_group_name_H-M "P B C M"
_symmetry_group_IT_number 57
_symmetry_cell_setting 'orthorhombic'
loop_
_space_group_symop_operation_xyz
x,y,z
-x,-y,1/2+z
x,1/2-y,-z
-x,1/2+y,1/2-z
-x,-y,-z
x,y,1/2-z
-x,1/2+y,z
x,1/2-y,1/2+z
loop_
_atom_site_type_symbol
_atom_site_label
_atom_site_fract_x
_atom_site_fract_y
_atom_site_fract_z
Si Si1 0.323595 0.128906 0.546266
Si Si2 0.625518 0.420853 0.666978
Si Si3 0.458414 0.026463 0.588586
Si Si4 0.247973 0.280783 0.199956
Si Si5 0.547555 0.217777 0.750000
Si Si6 0.044171 0.948852 0.199740
Si Si7 0.282713 0.864439 0.096110
Si Si8 0.819484 0.220990 0.662485
O O1 0.309812 0.250000 0.500000
O O2 0.401727 0.106111 0.555340
O O3 0.295602 0.334311 0.581798
O O4 0.295115 0.836844 0.556741
O O5 0.570439 0.557627 0.636735
O O6 0.679640 0.633546 0.683635
O O7 0.591755 0.274869 0.707482
O O8 0.665604 0.230851 0.633297
O O9 0.520429 0.220249 0.583116
O O10 0.244500 0.335308 0.250000
O O11 0.196051 0.476357 0.176307
O O12 0.226754 0.977417 0.190952
O O13 0.485806 0.426044 0.750000
O O14 0.064504 0.921930 0.250000
O O15 0.105909 0.864395 0.171062
O O16 0.983011 0.746463 0.193005
O O17 0.209909 0.825038 0.115353
#
# Coordination Sequence:
#
# PCOD9436631 Si02
#       8
#     8   8   8   8   4   8   8   8
#     4  11  23  41  63  87 110 135 172 228 299 359
#     4  10  22  40  53  77 106 145 190 235 287 322
#     4  11  22  36  55  75 104 140 174 218 277 347
#     4  11  21  34  53  77 104 143 194 250 277 316
#     4  12  26  38  54  74 104 146 194 240 274 332
#     4  10  20  33  50  77 118 161 197 235 263 298
#     4  10  22  39  62  84 112 143 176 236 284 339
#     4  11  21  35  56  81 112 150 194 228 280 326
#
# _framework density 19.128129000000001
#
# number of rings (size 3 to 8) (size 9 to 14) (size 15 to 20)
#    0.000    1.333    0.667    7.200    0.000    6.933 
#    0.000    0.000    0.000    0.000    0.000    0.000 
#    0.000   10.667    0.000    0.000    0.000    0.000 
#
# Total GULP energy -335566.869548 kJ/mol
# GULP energy per Si atom -5592.781159 kJ/mol
# Density = 1.908459 g / cm^3
# Si number density = 19.128129 Si / 1000 Ang^3
#
#
#
# Elastic Constant Matrix: (Units=GPa)
#
#
# Indices 1 2 3 4 5 6 
#
# 1 56.8865 -8.6342 10.9988 0.0000 0.0000 0.0000
# 2 -8.6342 45.8305 -9.4024 0.0000 0.0000 0.0000
# 3 10.9988 -9.4024 49.9493 0.0000 0.0000 0.0000
# 4 0.0000 0.0000 0.0000 23.1966 0.0000 0.0000
# 5 0.0000 0.0000 0.0000 0.0000 11.0687 0.0000
# 6 0.0000 0.0000 0.0000 0.0000 0.0000 14.9905
#
#
#
# Elastic Compliance Matrix: (Units=1/GPa)
#
#
# Indices 1 2 3 4 5 6 
#
# 1 0.018696 0.002785 -0.003593 0.000000 0.000000 0.000000
# 2 0.002785 0.023111 0.003737 0.000000 0.000000 0.000000
# 3 -0.003593 0.003737 0.021515 0.000000 0.000000 0.000000
# 4 0.000000 0.000000 0.000000 0.043110 0.000000 0.000000
# 5 0.000000 0.000000 0.000000 0.000000 0.090345 0.000000
# 6 0.000000 0.000000 0.000000 0.000000 0.000000 0.066709
#
#
# Mechanical properties :
#
#
# Convention : Reuss Voigt Hill
#
# Bulk Modulus (GPa) = 14.45475 15.39895 14.92685
# Shear Modulus (GPa) = 17.81347 20.49811 19.15579
#
# Velocity S-wave (km/s) = 3.05498 3.27711 3.16800
# Velocity P-wave (km/s) = 4.47405 4.73151 4.60458
#
# Compressibility (1/GPa) = 0.06918143
#
# Stress axis : x y z
#
# Youngs Moduli (GPa) = 53.48679 43.26959 46.47951
#
# Poissons Ratio (x) = -0.12052 0.16698
# Poissons Ratio (y) = -0.14897 -0.17370
# Poissons Ratio (z) = 0.19216 -0.16170
#
# Static dielectric constant tensor:
#      x y z
#    x 1.667350 0.000000 0.000000 
#    y 0.000000 1.668930 0.000000 
#    z 0.000000 0.000000 1.672540 
# 
# From -- ./inp_files/29938.got.cif
#   From: 2010.05.17/outbox.cif.g08.bks.cpg/sg57_15_cif.got.tgz:29938.got - 2010.06.03 13:58:18.
