data_PCOD9436334
_publ_section_title
;
Structure prediction by ZEFSAII (Michael W. Deem and Ramdas Pophale) SiO2 
 PCOD9436334
Probable space group: P B C M
;
_chemical_formula_sum "Si O2"
_cell_formula_units_Z 64
_cell_length_a 10.232092
_cell_length_b 18.769660
_cell_length_c 18.022874
_cell_angle_alpha 90.000000
_cell_angle_beta 90.000000
_cell_angle_gamma 90.000000
_cell_volume 3461.345000
_symmetry_space_group_name_H-M "P B C M"
_symmetry_group_IT_number 57
_symmetry_cell_setting 'orthorhombic'
loop_
_space_group_symop_operation_xyz
x,y,z
-x,-y,1/2+z
x,1/2-y,-z
-x,1/2+y,1/2-z
-x,-y,-z
x,y,1/2-z
-x,1/2+y,z
x,1/2-y,1/2+z
loop_
_atom_site_type_symbol
_atom_site_label
_atom_site_fract_x
_atom_site_fract_y
_atom_site_fract_z
Si Si1 0.196084 0.664862 0.334461
Si Si2 0.892127 0.483213 0.896317
Si Si3 0.239897 0.798042 0.427132
Si Si4 0.553350 0.988689 0.583678
Si Si5 0.662119 0.579707 0.836974
Si Si6 0.450148 0.288371 0.079796
Si Si7 0.160959 0.957402 0.433233
Si Si8 0.509292 0.850422 0.834435
O O1 0.154336 0.662314 0.250000
O O2 0.125958 0.599523 0.375052
O O3 0.185715 0.745030 0.364572
O O4 0.351626 0.649426 0.339422
O O5 0.793351 0.534657 0.852406
O O6 0.039665 0.510591 0.888561
O O7 0.853393 0.486268 0.982937
O O8 0.227003 0.750000 0.500000
O O9 0.396469 0.812668 0.420372
O O10 0.163747 0.871742 0.432928
O O11 0.454594 0.026165 0.640606
O O12 0.697186 0.019145 0.593343
O O13 0.500000 0.000000 0.500000
O O14 0.556864 0.906165 0.604864
O O15 0.654155 0.599788 0.750000
O O16 0.639882 0.646474 0.892914
O O17 0.442930 0.227147 0.141890
O O18 0.424299 0.250000 0.000000
O O19 0.546099 0.868384 0.750000
#
# Coordination Sequence:
#
# PCOD9436334 Si02
#       8
#     8   8   8   8   8   8   8   8
#     4  10  19  36  60  86 119 162 205 243 300 375
#     4  11  23  40  62  90 126 169 207 250 311 380
#     4  10  19  36  60  91 120 154 201 263 307 358
#     4  12  21  37  63  92 122 155 207 265 307 367
#     4  12  23  39  62  93 130 165 204 259 326 382
#     4  10  21  35  61  93 123 157 206 264 314 368
#     4  11  23  40  62  94 124 157 213 264 304 363
#     4  10  20  35  56  87 122 159 200 251 313 366
#
# _framework density 18.489923000000001
#
# number of rings (size 3 to 8) (size 9 to 14) (size 15 to 20)
#    0.000    1.250    5.000    1.875    1.750    0.500 
#    0.000    5.625    0.000    0.000    0.000    0.000 
#    0.000    0.000    0.000    0.000    0.000    0.000 
#
# Total GULP energy -357166.736813 kJ/mol
# GULP energy per Si atom -5580.730263 kJ/mol
# Density = 1.844784 g / cm^3
# Si number density = 18.489923 Si / 1000 Ang^3
#
#
#
# Elastic Constant Matrix: (Units=GPa)
#
#
# Indices 1 2 3 4 5 6 
#
# 1 86.5688 29.7789 22.4326 0.0000 0.0000 0.0000
# 2 29.7789 83.7934 7.1315 0.0000 0.0000 0.0000
# 3 22.4326 7.1315 62.5956 0.0000 0.0000 0.0000
# 4 0.0000 0.0000 0.0000 28.1828 0.0000 0.0000
# 5 0.0000 0.0000 0.0000 0.0000 -3.9264 0.0000
# 6 0.0000 0.0000 0.0000 0.0000 0.0000 0.0488
#
#
#
# Elastic Compliance Matrix: (Units=1/GPa)
#
#
# Indices 1 2 3 4 5 6 
#
# 1 0.014368 -0.004714 -0.004612 0.000000 0.000000 0.000000
# 2 -0.004714 0.013597 0.000140 0.000000 0.000000 0.000000
# 3 -0.004612 0.000140 0.017612 0.000000 0.000000 0.000000
# 4 0.000000 0.000000 0.000000 0.035483 0.000000 0.000000
# 5 0.000000 0.000000 0.000000 0.000000 -0.254689 0.000000
# 6 0.000000 0.000000 0.000000 0.000000 0.000000 20.484934
#
#
# Mechanical properties :
#
#
# Convention : Reuss Voigt Hill
#
# Bulk Modulus (GPa) = 36.75585 39.07155 37.91370
# Shear Modulus (GPa) = 0.24584 16.43537 8.34060
#
# Velocity S-wave (km/s) = 0.36503 2.98465 2.12619
# Velocity P-wave (km/s) = 4.48327 5.74932 5.15530
#
# Compressibility (1/GPa) = 0.02720655
#
# Stress axis : x y z
#
# Youngs Moduli (GPa) = 69.59851 73.54370 56.77795
#
# Poissons Ratio (x) = 0.34666 0.26187
# Poissons Ratio (y) = 0.32807 -0.00796
# Poissons Ratio (z) = 0.32100 -0.01030
#
# Static dielectric constant tensor:
#      x y z
#    x 1.621930 0.000000 0.000000 
#    y 0.000000 1.822200 0.000000 
#    z 0.000000 0.000000 1.670170 
# 
# From -- ./inp_files/21434.got.cif
#   From: 2010.05.17/outbox.cif.g08.bks.cpg/sg57_11_cif.got.tgz:21434.got - 2010.06.03 13:58:18.
