data_PCOD9436266
_publ_section_title
;
Structure prediction by ZEFSAII (Michael W. Deem and Ramdas Pophale) SiO2 
 PCOD9436266
Probable space group: P B C M
;
_chemical_formula_sum "Si O2"
_cell_formula_units_Z 60
_cell_length_a 18.416941
_cell_length_b 8.891307
_cell_length_c 17.636323
_cell_angle_alpha 90.000000
_cell_angle_beta 90.000000
_cell_angle_gamma 90.000000
_cell_volume 2887.959821
_symmetry_space_group_name_H-M "P B C M"
_symmetry_group_IT_number 57
_symmetry_cell_setting 'orthorhombic'
loop_
_space_group_symop_operation_xyz
x,y,z
-x,-y,1/2+z
x,1/2-y,-z
-x,1/2+y,1/2-z
-x,-y,-z
x,y,1/2-z
-x,1/2+y,z
x,1/2-y,1/2+z
loop_
_atom_site_type_symbol
_atom_site_label
_atom_site_fract_x
_atom_site_fract_y
_atom_site_fract_z
Si Si1 0.184894 0.250000 0.500000
Si Si2 0.316423 0.104318 0.909313
Si Si3 0.423092 0.927604 0.478549
Si Si4 0.942704 0.562042 0.839838
Si Si5 0.360315 0.089520 0.341364
Si Si6 0.783962 0.075692 0.663694
Si Si7 0.793778 0.401718 0.660537
Si Si8 0.082044 0.097567 0.386321
O O1 0.242053 0.170930 0.555729
O O2 0.130175 0.133023 0.460332
O O3 0.362857 0.239484 0.872525
O O4 0.281859 0.987552 0.850504
O O5 0.362661 0.016573 0.972092
O O6 0.420903 0.750000 0.500000
O O7 0.500000 0.000000 0.500000
O O8 0.408643 0.974336 0.390716
O O9 0.956687 0.531183 0.750000
O O10 0.866814 0.486868 0.864251
O O11 0.935564 0.740252 0.850873
O O12 0.007982 0.494816 0.889307
O O13 0.371581 0.086345 0.250000
O O14 0.278510 0.035954 0.362570
O O15 0.761716 0.105141 0.750000
O O16 0.787554 0.236766 0.623831
O O17 0.861579 0.998290 0.662786
O O18 0.806471 0.387395 0.750000
#
# Coordination Sequence:
#
# PCOD9436266 Si02
#       8
#     4   8   8   8   8   8   8   8
#     4  12  24  40  66  90 130 172 224 270 338 418
#     4  12  21  44  71 100 137 180 230 276 348 425
#     4  12  26  47  74 105 145 190 229 281 350 427
#     4  11  22  37  58  82 116 160 215 278 347 403
#     4  11  22  41  70 105 139 181 231 289 342 407
#     4  10  19  35  61  91 125 161 215 278 336 394
#     4  10  21  37  61  97 127 168 226 285 339 408
#     4  12  23  39  57  87 122 169 221 278 345 410
#
# _framework density 20.775911000000001
#
# number of rings (size 3 to 8) (size 9 to 14) (size 15 to 20)
#    0.000    0.800    4.000    4.000    0.000    3.733 
#    0.000    4.000    0.000    0.000    0.000    0.000 
#    0.000    0.000    0.000    0.000    0.000    0.000 
#
# Total GULP energy -334747.483016 kJ/mol
# GULP energy per Si atom -5579.124717 kJ/mol
# Density = 2.072862 g / cm^3
# Si number density = 20.775911 Si / 1000 Ang^3
#
#
#
# Elastic Constant Matrix: (Units=GPa)
#
#
# Indices 1 2 3 4 5 6 
#
# 1 80.2862 31.1558 35.2783 0.0000 0.0000 0.0000
# 2 31.1558 146.1767 40.2919 0.0000 0.0000 0.0000
# 3 35.2783 40.2919 80.4305 0.0000 0.0000 0.0000
# 4 0.0000 0.0000 0.0000 26.8055 0.0000 0.0000
# 5 0.0000 0.0000 0.0000 0.0000 -201.3795 0.0000
# 6 0.0000 0.0000 0.0000 0.0000 0.0000 26.3930
#
#
#
# Elastic Compliance Matrix: (Units=1/GPa)
#
#
# Indices 1 2 3 4 5 6 
#
# 1 0.015780 -0.001689 -0.006076 0.000000 0.000000 0.000000
# 2 -0.001689 0.008118 -0.003326 0.000000 0.000000 0.000000
# 3 -0.006076 -0.003326 0.016764 0.000000 0.000000 0.000000
# 4 0.000000 0.000000 0.000000 0.037306 0.000000 0.000000
# 5 0.000000 0.000000 0.000000 0.000000 -0.004966 0.000000
# 6 0.000000 0.000000 0.000000 0.000000 0.000000 0.037889
#
#
# Mechanical properties :
#
#
# Convention : Reuss Voigt Hill
#
# Bulk Modulus (GPa) = 54.10738 57.81615 55.96177
# Shear Modulus (GPa) = 35.91126 -16.29170 9.80978
#
# Velocity S-wave (km/s) = 4.16204 -2.80333 2.17531
# Velocity P-wave (km/s) = 7.01403 4.17261 5.77093
#
# Compressibility (1/GPa) = 0.01848177
#
# Stress axis : x y z
#
# Youngs Moduli (GPa) = 63.36961 123.18751 59.65131
#
# Poissons Ratio (x) = 0.20803 0.36242
# Poissons Ratio (y) = 0.10701 0.19839
# Poissons Ratio (z) = 0.38501 0.40971
#
# Static dielectric constant tensor:
#      x y z
#    x 1.720280 0.000000 0.000000 
#    y 0.000000 1.830730 0.000000 
#    z 0.000000 0.000000 1.813640 
# 
# From -- ./inp_files/22877.got.cif
#   From: 2010.05.17/outbox.cif.g08.bks.cpg/sg57_12_cif.got.tgz:22877.got - 2010.06.03 13:58:18.
