data_PCOD9436670
_publ_section_title
;
Structure prediction by ZEFSAII (Michael W. Deem and Ramdas Pophale) SiO2 
 PCOD9436670
Probable space group: P B C M
;
_chemical_formula_sum "Si O2"
_cell_formula_units_Z 64
_cell_length_a 23.582438
_cell_length_b 16.336106
_cell_length_c 8.720411
_cell_angle_alpha 90.000000
_cell_angle_beta 90.000000
_cell_angle_gamma 90.000000
_cell_volume 3359.496540
_symmetry_space_group_name_H-M "P B C M"
_symmetry_group_IT_number 57
_symmetry_cell_setting 'orthorhombic'
loop_
_space_group_symop_operation_xyz
x,y,z
-x,-y,1/2+z
x,1/2-y,-z
-x,1/2+y,1/2-z
-x,-y,-z
x,y,1/2-z
-x,1/2+y,z
x,1/2-y,1/2+z
loop_
_atom_site_type_symbol
_atom_site_label
_atom_site_fract_x
_atom_site_fract_y
_atom_site_fract_z
Si Si1 0.942185 0.337769 0.433790
Si Si2 0.574430 0.570781 0.429870
Si Si3 0.369534 0.586838 0.430552
Si Si4 0.688340 0.662531 0.429085
Si Si5 0.527049 0.163808 0.930899
Si Si6 0.924663 0.662796 0.565729
Si Si7 0.128752 0.510585 0.435799
Si Si8 0.741598 0.498631 0.934691
O O1 0.922434 0.250000 0.500000
O O2 0.938203 0.336011 0.250000
O O3 0.908304 0.415494 0.497640
O O4 0.008830 0.345878 0.476298
O O5 0.573067 0.545830 0.250000
O O6 0.599070 0.498945 0.534629
O O7 0.621161 0.642673 0.444761
O O8 0.513354 0.598458 0.486651
O O9 0.371556 0.606236 0.250000
O O10 0.407468 0.649393 0.525542
O O11 0.305058 0.569260 0.481037
O O12 0.701928 0.750000 0.500000
O O13 0.701655 0.663281 0.250000
O O14 0.721283 0.586605 0.504255
O O15 0.481092 0.839545 0.250000
O O16 0.509185 0.250000 0.000000
O O17 0.903997 0.750000 0.500000
O O18 0.920761 0.667346 0.750000
O O19 0.892954 0.579841 0.515993
O O20 0.125135 0.513664 0.250000
O O21 0.194409 0.519820 0.481894
O O22 0.739700 0.502160 0.750000
#
# Coordination Sequence:
#
# PCOD9436670 Si02
#       8
#     8   8   8   8   8   8   8   8
#     4  10  20  35  56  83 112 147 186 228 276 327
#     4  10  20  35  55  80 106 135 170 209 256 314
#     4  10  20  37  57  76 101 136 173 211 256 309
#     4  10  20  33  52  76 106 141 177 217 263 314
#     4  12  24  37  54  78 105 132 165 211 263 316
#     4   9  19  34  54  82 118 152 184 222 269 324
#     4  10  20  36  57  83 113 146 184 231 278 323
#     4   9  20  37  56  76 103 139 180 221 264 313
#
# _framework density 19.050474000000001
#
# number of rings (size 3 to 8) (size 9 to 14) (size 15 to 20)
#    0.000    2.000    0.000    3.750    0.000    5.000 
#    0.000    1.875    0.000    0.000    0.000    0.000 
#    0.000    0.000    0.000    0.000    0.000    0.000 
#
# Total GULP energy -357267.625678 kJ/mol
# GULP energy per Si atom -5582.306651 kJ/mol
# Density = 1.900711 g / cm^3
# Si number density = 19.050474 Si / 1000 Ang^3
#
#
#
# Elastic Constant Matrix: (Units=GPa)
#
#
# Indices 1 2 3 4 5 6 
#
# 1 92.2551 30.9368 17.3096 0.0000 0.0000 0.0000
# 2 30.9368 69.9518 5.7634 0.0000 0.0000 0.0000
# 3 17.3096 5.7634 28.0783 0.0000 0.0000 0.0000
# 4 0.0000 0.0000 0.0000 32.5909 0.0000 0.0000
# 5 0.0000 0.0000 0.0000 0.0000 19.3741 0.0000
# 6 0.0000 0.0000 0.0000 0.0000 0.0000 12.7637
#
#
#
# Elastic Compliance Matrix: (Units=1/GPa)
#
#
# Indices 1 2 3 4 5 6 
#
# 1 0.014148 -0.005634 -0.007566 0.000000 0.000000 0.000000
# 2 -0.005634 0.016785 0.000028 0.000000 0.000000 0.000000
# 3 -0.007566 0.000028 0.040273 0.000000 0.000000 0.000000
# 4 0.000000 0.000000 0.000000 0.030683 0.000000 0.000000
# 5 0.000000 0.000000 0.000000 0.000000 0.051615 0.000000
# 6 0.000000 0.000000 0.000000 0.000000 0.000000 0.078347
#
#
# Mechanical properties :
#
#
# Convention : Reuss Voigt Hill
#
# Bulk Modulus (GPa) = 22.29015 33.14497 27.71756
# Shear Modulus (GPa) = 18.30497 22.03076 20.16787
#
# Velocity S-wave (km/s) = 3.10315 3.40434 3.25723
# Velocity P-wave (km/s) = 4.95634 5.73489 5.35977
#
# Compressibility (1/GPa) = 0.04486286
#
# Stress axis : x y z
#
# Youngs Moduli (GPa) = 70.67989 59.57739 24.83048
#
# Poissons Ratio (x) = 0.33565 0.18786
# Poissons Ratio (y) = 0.39820 -0.00069
# Poissons Ratio (z) = 0.53474 -0.00166
#
# Static dielectric constant tensor:
#      x y z
#    x 1.678680 0.000000 0.000000 
#    y 0.000000 1.630610 0.000000 
#    z 0.000000 0.000000 1.616720 
# 
# From -- ./inp_files/9411.got.cif
#   From: 2010.05.17/outbox.cif.g08.bks.cpg/sg57_5_cif.got.tgz:9411.got - 2010.06.03 13:58:18.
