data_PCOD9436145
_publ_section_title
;
Structure prediction by ZEFSAII (Michael W. Deem and Ramdas Pophale) SiO2 
 PCOD9436145
Probable space group: P B C M
;
_chemical_formula_sum "Si O2"
_cell_formula_units_Z 48
_cell_length_a 12.707787
_cell_length_b 9.706132
_cell_length_c 18.649551
_cell_angle_alpha 90.000000
_cell_angle_beta 90.000000
_cell_angle_gamma 90.000000
_cell_volume 2300.300111
_symmetry_space_group_name_H-M "P B C M"
_symmetry_group_IT_number 57
_symmetry_cell_setting 'orthorhombic'
loop_
_space_group_symop_operation_xyz
x,y,z
-x,-y,1/2+z
x,1/2-y,-z
-x,1/2+y,1/2-z
-x,-y,-z
x,y,1/2-z
-x,1/2+y,z
x,1/2-y,1/2+z
loop_
_atom_site_type_symbol
_atom_site_label
_atom_site_fract_x
_atom_site_fract_y
_atom_site_fract_z
Si Si1 0.627424 0.783485 0.327856
Si Si2 0.815503 0.249672 0.413071
Si Si3 0.939706 0.757188 0.414313
Si Si4 0.254721 0.445683 0.591580
Si Si5 0.176834 0.015218 0.831074
Si Si6 0.413907 0.399389 0.471443
O O1 0.577333 0.771889 0.250000
O O2 0.658696 0.635581 0.361289
O O3 0.573392 0.878843 0.386925
O O4 0.736439 0.866503 0.321787
O O5 0.806826 0.250000 0.500000
O O6 0.765335 0.395345 0.390859
O O7 0.772843 0.115571 0.372009
O O8 0.939282 0.237939 0.392819
O O9 0.939157 0.750000 0.500000
O O10 0.854076 0.638669 0.396232
O O11 0.905990 0.905189 0.382034
O O12 0.300432 0.431826 0.509368
O O13 0.139150 0.979471 0.750000
O O14 0.440170 0.250000 0.500000
O O15 0.500000 0.500000 0.500000
#
# Coordination Sequence:
#
# PCOD9436145 Si02
#       6
#     8   8   8   8   8   8
#     4   9  19  38  60  80 111 154 192 232 295 365
#     4  11  21  32  54  85 115 153 203 251 293 349
#     4  10  19  35  56  78 109 156 205 243 292 358
#     4  10  20  36  58  82 116 156 195 245 299 360
#     4  10  21  35  52  79 114 149 187 241 301 348
#     4  10  21  38  61  87 114 148 193 245 302 359
#
# _framework density 20.866842999999999
#
# number of rings (size 3 to 8) (size 9 to 14) (size 15 to 20)
#    0.000    2.000    0.000    5.500    0.000    6.000 
#    0.000    6.667    0.000    0.000    0.000    0.000 
#    0.000    0.000    0.000    0.000    0.000    0.000 
#
# Total GULP energy -267299.697234 kJ/mol
# GULP energy per Si atom -5568.743692 kJ/mol
# Density = 2.081935 g / cm^3
# Si number density = 20.866843 Si / 1000 Ang^3
#
#
#
# Elastic Constant Matrix: (Units=GPa)
#
#
# Indices 1 2 3 4 5 6 
#
# 1 31.8201 22.6166 12.3545 0.0000 0.0000 0.0000
# 2 22.6166 143.6102 38.4271 0.0000 0.0000 0.0000
# 3 12.3545 38.4271 132.2664 0.0000 0.0000 0.0000
# 4 0.0000 0.0000 0.0000 10.2992 0.0000 0.0000
# 5 0.0000 0.0000 0.0000 0.0000 7.2554 0.0000
# 6 0.0000 0.0000 0.0000 0.0000 0.0000 30.2484
#
#
#
# Elastic Compliance Matrix: (Units=1/GPa)
#
#
# Indices 1 2 3 4 5 6 
#
# 1 0.035800 -0.005143 -0.001850 0.000000 0.000000 0.000000
# 2 -0.005143 0.008289 -0.001928 0.000000 0.000000 0.000000
# 3 -0.001850 -0.001928 0.008293 0.000000 0.000000 0.000000
# 4 0.000000 0.000000 0.000000 0.097095 0.000000 0.000000
# 5 0.000000 0.000000 0.000000 0.000000 0.137828 0.000000
# 6 0.000000 0.000000 0.000000 0.000000 0.000000 0.033060
#
#
# Mechanical properties :
#
#
# Convention : Reuss Voigt Hill
#
# Bulk Modulus (GPa) = 28.95066 50.49923 39.72495
# Shear Modulus (GPa) = 14.29710 25.18050 19.73880
#
# Velocity S-wave (km/s) = 2.62039 3.47756 3.07895
# Velocity P-wave (km/s) = 4.80202 6.35435 5.63193
#
# Compressibility (1/GPa) = 0.03454152
#
# Stress axis : x y z
#
# Youngs Moduli (GPa) = 27.93260 120.64021 120.57836
#
# Poissons Ratio (x) = 0.62047 0.22304
# Poissons Ratio (y) = 0.14366 0.23245
# Poissons Ratio (z) = 0.05167 0.23257
#
# Static dielectric constant tensor:
#      x y z
#    x 1.833100 0.000000 0.000000 
#    y 0.000000 1.724800 0.000000 
#    z 0.000000 0.000000 1.880550 
# 
# From -- ./inp_files/22437.got.cif
#   From: 2010.05.17/outbox.cif.g08.bks.cpg/sg57_12_cif.got.tgz:22437.got - 2010.06.03 13:58:18.
