data_PCOD9436131
_publ_section_title
;
Structure prediction by ZEFSAII (Michael W. Deem and Ramdas Pophale) SiO2 
 PCOD9436131
Probable space group: P B C M
;
_chemical_formula_sum "Si O2"
_cell_formula_units_Z 64
_cell_length_a 6.012123
_cell_length_b 27.954975
_cell_length_c 22.472173
_cell_angle_alpha 90.000000
_cell_angle_beta 90.000000
_cell_angle_gamma 90.000000
_cell_volume 3776.869985
_symmetry_space_group_name_H-M "P B C M"
_symmetry_group_IT_number 57
_symmetry_cell_setting 'orthorhombic'
loop_
_space_group_symop_operation_xyz
x,y,z
-x,-y,1/2+z
x,1/2-y,-z
-x,1/2+y,1/2-z
-x,-y,-z
x,y,1/2-z
-x,1/2+y,z
x,1/2-y,1/2+z
loop_
_atom_site_type_symbol
_atom_site_label
_atom_site_fract_x
_atom_site_fract_y
_atom_site_fract_z
Si Si1 0.937451 0.807789 0.583727
Si Si2 0.013227 0.165786 0.680074
Si Si3 0.316360 0.241118 0.318628
Si Si4 0.250248 0.500818 0.467499
Si Si5 0.297050 0.768942 0.100189
Si Si6 0.200321 0.606202 0.465376
Si Si7 0.419644 0.171706 0.991577
Si Si8 0.111718 0.098711 0.921478
O O1 0.849337 0.795665 0.649233
O O2 0.739784 0.801170 0.536875
O O3 0.123160 0.767962 0.572834
O O4 0.032871 0.860482 0.571710
O O5 0.960135 0.159757 0.750000
O O6 0.823046 0.191632 0.641309
O O7 0.212404 0.205173 0.676684
O O8 0.060342 0.116628 0.644971
O O9 0.348894 0.230274 0.250000
O O10 0.540980 0.240745 0.355805
O O11 0.500000 0.500000 0.500000
O O12 0.241629 0.553689 0.439533
O O13 0.229690 0.452760 0.428328
O O14 0.000000 0.500000 0.500000
O O15 0.430331 0.794764 0.048525
O O16 0.426060 0.635580 0.471670
O O17 0.098139 0.600027 0.532506
O O18 0.270285 0.139608 0.948199
#
# Coordination Sequence:
#
# PCOD9436131 Si02
#       8
#     8   8   8   8   8   8   8   8
#     4  10  24  35  50  82 111 148 189 241 289 343
#     4  10  20  35  54  80 112 148 192 238 285 351
#     4  10  21  37  54  73 105 150 197 236 282 348
#     4  10  20  35  59  85 115 153 191 237 296 363
#     4  11  21  36  53  78 113 155 195 233 295 351
#     4  10  20  35  54  81 114 148 185 237 295 355
#     4  11  20  34  53  77 117 147 187 231 296 355
#     4  10  19  35  54  81 113 146 187 237 295 352
#
# _framework density 16.945250000000001
#
# number of rings (size 3 to 8) (size 9 to 14) (size 15 to 20)
#    0.000    1.750    3.750    1.125    0.000    3.500 
#    0.000    0.000    0.000    0.750    0.000    0.000 
#    0.000    0.000    0.000    0.000    0.000    0.000 
#
# Total GULP energy -356672.978825 kJ/mol
# GULP energy per Si atom -5573.015294 kJ/mol
# Density = 1.690668 g / cm^3
# Si number density = 16.945250 Si / 1000 Ang^3
#
#
#
# Elastic Constant Matrix: (Units=GPa)
#
#
# Indices 1 2 3 4 5 6 
#
# 1 72.8601 26.0321 23.7187 0.0000 0.0000 0.0000
# 2 26.0321 102.7176 57.4416 0.0000 0.0000 0.0000
# 3 23.7187 57.4416 82.2646 0.0000 0.0000 0.0000
# 4 0.0000 0.0000 0.0000 16.5375 0.0000 0.0000
# 5 0.0000 0.0000 0.0000 0.0000 15.5046 0.0000
# 6 0.0000 0.0000 0.0000 0.0000 0.0000 23.2577
#
#
#
# Elastic Compliance Matrix: (Units=1/GPa)
#
#
# Indices 1 2 3 4 5 6 
#
# 1 0.015483 -0.002342 -0.002829 0.000000 0.000000 0.000000
# 2 -0.002342 0.016326 -0.010725 0.000000 0.000000 0.000000
# 3 -0.002829 -0.010725 0.020460 0.000000 0.000000 0.000000
# 4 0.000000 0.000000 0.000000 0.060469 0.000000 0.000000
# 5 0.000000 0.000000 0.000000 0.000000 0.064497 0.000000
# 6 0.000000 0.000000 0.000000 0.000000 0.000000 0.042997
#
#
# Mechanical properties :
#
#
# Convention : Reuss Voigt Hill
#
# Bulk Modulus (GPa) = 48.83230 52.46970 50.65100
# Shear Modulus (GPa) = 19.31633 21.10327 20.20980
#
# Velocity S-wave (km/s) = 3.37994 3.53282 3.45723
# Velocity P-wave (km/s) = 6.64171 6.90453 6.77439
#
# Compressibility (1/GPa) = 0.02047825
#
# Stress axis : x y z
#
# Youngs Moduli (GPa) = 64.58891 61.25033 48.87566
#
# Poissons Ratio (x) = 0.14344 0.13825
# Poissons Ratio (y) = 0.15126 0.52418
# Poissons Ratio (z) = 0.18270 0.65690
#
# Static dielectric constant tensor:
#      x y z
#    x 1.648840 0.000000 0.000000 
#    y 0.000000 1.584080 0.000000 
#    z 0.000000 0.000000 1.558870 
# 
# From -- ./inp_files/26393.got.cif
#   From: 2010.05.17/outbox.cif.g08.bks.cpg/sg57_14_cif.got.tgz:26393.got - 2010.06.03 13:58:18.
