data_PCOD9436837
_publ_section_title
;
Structure prediction by ZEFSAII (Michael W. Deem and Ramdas Pophale) SiO2 
 PCOD9436837
Probable space group: P B C M
;
_chemical_formula_sum "Si O2"
_cell_formula_units_Z 40
_cell_length_a 26.844573
_cell_length_b 9.180657
_cell_length_c 8.691188
_cell_angle_alpha 90.000000
_cell_angle_beta 90.000000
_cell_angle_gamma 90.000000
_cell_volume 2141.950384
_symmetry_space_group_name_H-M "P B C M"
_symmetry_group_IT_number 57
_symmetry_cell_setting 'orthorhombic'
loop_
_space_group_symop_operation_xyz
x,y,z
-x,-y,1/2+z
x,1/2-y,-z
-x,1/2+y,1/2-z
-x,-y,-z
x,y,1/2-z
-x,1/2+y,z
x,1/2-y,1/2+z
loop_
_atom_site_type_symbol
_atom_site_label
_atom_site_fract_x
_atom_site_fract_y
_atom_site_fract_z
Si Si1 0.047363 0.586732 0.065453
Si Si2 0.758093 0.413522 0.066329
Si Si3 0.655702 0.414600 0.565768
Si Si4 0.858414 0.912939 0.935116
Si Si5 0.453524 0.586883 0.065648
O O1 0.045622 0.589576 0.250000
O O2 0.046849 0.750000 0.000000
O O3 0.096929 0.505409 0.008196
O O4 0.000000 0.500000 0.000000
O O5 0.754363 0.402232 0.250000
O O6 0.805949 0.509943 0.026739
O O7 0.764201 0.250000 0.000000
O O8 0.706373 0.479308 0.002265
O O9 0.654900 0.250000 0.500000
O O10 0.659609 0.409561 0.750000
O O11 0.601286 0.477538 0.524680
O O12 0.863885 0.911012 0.750000
O O13 0.859717 0.750000 0.000000
O O14 0.456411 0.592067 0.250000
O O15 0.455372 0.750000 0.000000
O O16 0.500000 0.500000 0.000000
#
# Coordination Sequence:
#
# PCOD9436837 Si02
#       5
#     8   8   8   8   8
#     4  12  25  43  66  92 122 156 194 237 283 333
#     4  10  20  34  56  83 110 142 183 229 278 330
#     4   9  17  30  51  77 105 138 179 224 274 329
#     4  11  24  41  60  86 118 154 193 234 282 335
#     4  10  20  34  53  78 107 142 182 228 278 333
#
# _framework density 18.674568000000001
#
# number of rings (size 3 to 8) (size 9 to 14) (size 15 to 20)
#    0.000    1.600    0.000    6.600    0.000    7.200 
#    0.000    1.000    0.000    2.400    0.000    0.000 
#    0.000    0.000    0.000    0.000    0.000    0.000 
#
# Total GULP energy -223404.270124 kJ/mol
# GULP energy per Si atom -5585.106753 kJ/mol
# Density = 1.863206 g / cm^3
# Si number density = 18.674568 Si / 1000 Ang^3
#
#
#
# Elastic Constant Matrix: (Units=GPa)
#
#
# Indices 1 2 3 4 5 6 
#
# 1 233.4782 93.3471 93.2723 0.0000 0.0000 0.0000
# 2 93.3471 109.9886 51.6367 0.0000 0.0000 0.0000
# 3 93.2723 51.6367 109.5144 0.0000 0.0000 0.0000
# 4 0.0000 0.0000 0.0000 30.5192 0.0000 0.0000
# 5 0.0000 0.0000 0.0000 0.0000 34.2553 0.0000
# 6 0.0000 0.0000 0.0000 0.0000 0.0000 30.1150
#
#
#
# Elastic Compliance Matrix: (Units=1/GPa)
#
#
# Indices 1 2 3 4 5 6 
#
# 1 0.007963 -0.004590 -0.004618 0.000000 0.000000 0.000000
# 2 -0.004590 0.014323 -0.002844 0.000000 0.000000 0.000000
# 3 -0.004618 -0.002844 0.014405 0.000000 0.000000 0.000000
# 4 0.000000 0.000000 0.000000 0.032766 0.000000 0.000000
# 5 0.000000 0.000000 0.000000 0.000000 0.029193 0.000000
# 6 0.000000 0.000000 0.000000 0.000000 0.000000 0.033206
#
#
# Mechanical properties :
#
#
# Convention : Reuss Voigt Hill
#
# Bulk Modulus (GPa) = 79.44579 103.27703 91.36141
# Shear Modulus (GPa) = 31.21983 33.29289 32.25636
#
# Velocity S-wave (km/s) = 4.09318 4.22689 4.16057
# Velocity P-wave (km/s) = 8.06061 8.90201 8.49174
#
# Compressibility (1/GPa) = 0.01258720
#
# Stress axis : x y z
#
# Youngs Moduli (GPa) = 125.58020 69.81920 69.42105
#
# Poissons Ratio (x) = 0.32049 0.32056
# Poissons Ratio (y) = 0.57646 0.19741
# Poissons Ratio (z) = 0.57989 0.19854
#
# Static dielectric constant tensor:
#      x y z
#    x 1.677070 0.000000 0.000000 
#    y 0.000000 1.611710 0.000000 
#    z 0.000000 0.000000 1.624450 
# 
# From -- ./inp_files/8865.got.cif
#   From: 2010.05.17/outbox.cif.g08.bks.cpg/sg57_5_cif.got.tgz:8865.got - 2010.06.03 13:58:18.
