data_PCOD9436734
_publ_section_title
;
Structure prediction by ZEFSAII (Michael W. Deem and Ramdas Pophale) SiO2 
 PCOD9436734
Probable space group: P B C M
;
_chemical_formula_sum "Si O2"
_cell_formula_units_Z 48
_cell_length_a 12.314737
_cell_length_b 14.438083
_cell_length_c 13.978765
_cell_angle_alpha 90.000000
_cell_angle_beta 90.000000
_cell_angle_gamma 90.000000
_cell_volume 2485.441121
_symmetry_space_group_name_H-M "P B C M"
_symmetry_group_IT_number 57
_symmetry_cell_setting 'orthorhombic'
loop_
_space_group_symop_operation_xyz
x,y,z
-x,-y,1/2+z
x,1/2-y,-z
-x,1/2+y,1/2-z
-x,-y,-z
x,y,1/2-z
-x,1/2+y,z
x,1/2-y,1/2+z
loop_
_atom_site_type_symbol
_atom_site_label
_atom_site_fract_x
_atom_site_fract_y
_atom_site_fract_z
Si Si1 0.468251 0.155112 0.023491
Si Si2 0.487588 0.478317 0.139306
Si Si3 0.981747 0.740328 0.363322
Si Si4 0.745615 0.677519 0.358108
Si Si5 0.936146 0.403203 0.485158
Si Si6 0.747494 0.040603 0.857163
O O1 0.360292 0.186244 0.078548
O O2 0.526252 0.079168 0.090989
O O3 0.530612 0.250000 0.000000
O O4 0.435590 0.098784 0.928301
O O5 0.455653 0.477327 0.250000
O O6 0.617126 0.455905 0.133472
O O7 0.994986 0.728918 0.250000
O O8 0.854787 0.727826 0.387738
O O9 0.048489 0.662232 0.422020
O O10 0.013205 0.841433 0.400156
O O11 0.717336 0.705526 0.250000
O O12 0.774313 0.568515 0.356532
O O13 0.814118 0.418966 0.445994
O O14 0.000000 0.500000 0.500000
O O15 0.775360 0.077642 0.750000
#
# Coordination Sequence:
#
# PCOD9436734 Si02
#       6
#     8   8   8   8   8   8
#     4  10  20  33  59  86 111 144 187 232 278 336
#     4   9  20  38  57  82 114 149 189 231 278 337
#     4  10  22  36  52  82 116 147 186 230 274 331
#     4   9  18  34  57  83 115 149 184 226 282 343
#     4  11  21  33  58  83 109 146 192 236 276 324
#     4   9  17  34  58  79 107 152 193 225 278 337
#
# _framework density 19.312467000000002
#
# number of rings (size 3 to 8) (size 9 to 14) (size 15 to 20)
#    0.000    2.333    1.667    2.000    2.333    2.000 
#    3.000    0.000    0.000   10.000    0.000    0.000 
#    0.000    0.000    0.000    0.000    0.000    0.000 
#
# Total GULP energy -267539.725695 kJ/mol
# GULP energy per Si atom -5573.744285 kJ/mol
# Density = 1.926851 g / cm^3
# Si number density = 19.312467 Si / 1000 Ang^3
#
#
#
# Elastic Constant Matrix: (Units=GPa)
#
#
# Indices 1 2 3 4 5 6 
#
# 1 29.0267 5.2789 7.5514 0.0000 0.0000 0.0000
# 2 5.2789 84.6203 30.9366 0.0000 0.0000 0.0000
# 3 7.5514 30.9366 129.0023 0.0000 0.0000 0.0000
# 4 0.0000 0.0000 0.0000 22.8430 0.0000 0.0000
# 5 0.0000 0.0000 0.0000 0.0000 30.9078 0.0000
# 6 0.0000 0.0000 0.0000 0.0000 0.0000 11.6421
#
#
#
# Elastic Compliance Matrix: (Units=1/GPa)
#
#
# Indices 1 2 3 4 5 6 
#
# 1 0.035176 -0.001580 -0.001680 0.000000 0.000000 0.000000
# 2 -0.001580 0.013024 -0.003031 0.000000 0.000000 0.000000
# 3 -0.001680 -0.003031 0.008577 0.000000 0.000000 0.000000
# 4 0.000000 0.000000 0.000000 0.043777 0.000000 0.000000
# 5 0.000000 0.000000 0.000000 0.000000 0.032354 0.000000
# 6 0.000000 0.000000 0.000000 0.000000 0.000000 0.085895
#
#
# Mechanical properties :
#
#
# Convention : Reuss Voigt Hill
#
# Bulk Modulus (GPa) = 22.62732 36.68703 29.65717
# Shear Modulus (GPa) = 20.31554 26.33740 23.32647
#
# Velocity S-wave (km/s) = 3.24688 3.69691 3.47918
# Velocity P-wave (km/s) = 5.07919 6.10415 5.61510
#
# Compressibility (1/GPa) = 0.04419436
#
# Stress axis : x y z
#
# Youngs Moduli (GPa) = 28.42887 76.78049 116.59085
#
# Poissons Ratio (x) = 0.12132 0.19589
# Poissons Ratio (y) = 0.04492 0.35337
# Poissons Ratio (z) = 0.04776 0.23271
#
# Static dielectric constant tensor:
#      x y z
#    x 1.677880 0.000000 0.000000 
#    y 0.000000 1.702530 0.000000 
#    z 0.000000 0.000000 1.725890 
# 
# From -- ./inp_files/17588.got.cif
#   From: 2010.05.17/outbox.cif.g08.bks.cpg/sg57_9_cif.got.tgz:17588.got - 2010.06.03 13:58:18.
