data_PCOD9436686
_publ_section_title
;
Structure prediction by ZEFSAII (Michael W. Deem and Ramdas Pophale) SiO2 
 PCOD9436686
Probable space group: P B C M
;
_chemical_formula_sum "Si O2"
_cell_formula_units_Z 64
_cell_length_a 15.634029
_cell_length_b 23.492462
_cell_length_c 8.861194
_cell_angle_alpha 90.000000
_cell_angle_beta 90.000000
_cell_angle_gamma 90.000000
_cell_volume 3254.555568
_symmetry_space_group_name_H-M "P B C M"
_symmetry_group_IT_number 57
_symmetry_cell_setting 'orthorhombic'
loop_
_space_group_symop_operation_xyz
x,y,z
-x,-y,1/2+z
x,1/2-y,-z
-x,1/2+y,1/2-z
-x,-y,-z
x,y,1/2-z
-x,1/2+y,z
x,1/2-y,1/2+z
loop_
_atom_site_type_symbol
_atom_site_label
_atom_site_fract_x
_atom_site_fract_y
_atom_site_fract_z
Si Si1 0.372045 0.104770 0.068116
Si Si2 0.275559 0.001941 0.569204
Si Si3 0.035485 0.188634 0.426727
Si Si4 0.692203 0.123160 0.568362
Si Si5 0.219907 0.187353 0.068472
Si Si6 0.093975 0.998529 0.420819
Si Si7 0.469314 0.687148 0.068317
Si Si8 0.880734 0.363856 0.083453
O O1 0.369613 0.095838 0.250000
O O2 0.295689 0.146883 0.021307
O O3 0.458072 0.139723 0.032727
O O4 0.347974 0.046002 0.987292
O O5 0.271173 0.000104 0.750000
O O6 0.301345 0.939607 0.505400
O O7 0.180602 0.019675 0.505361
O O8 0.027732 0.250000 0.500000
O O9 0.039840 0.195647 0.250000
O O10 0.953654 0.153530 0.470551
O O11 0.126761 0.163598 0.477055
O O12 0.683000 0.117418 0.750000
O O13 0.617763 0.161350 0.499050
O O14 0.784715 0.151855 0.540004
O O15 0.223780 0.191876 0.250000
O O16 0.228465 0.250000 0.000000
O O17 0.088535 0.023175 0.250000
O O18 0.115100 0.931743 0.406739
O O19 0.000000 0.000000 0.500000
O O20 0.464823 0.692353 0.250000
O O21 0.487374 0.750000 0.000000
O O22 0.900279 0.339956 0.250000
#
# Coordination Sequence:
#
# PCOD9436686 Si02
#       8
#     8   8   8   8   8   8   8   8
#     4  10  22  40  61  88 124 161 200 250 306 368
#     4  11  23  39  61  92 124 162 209 252 308 371
#     4  10  20  33  52  79 110 150 194 239 290 350
#     4  10  22  43  66  87 120 161 201 255 314 368
#     4   9  19  35  54  79 112 153 195 241 298 357
#     4  10  21  37  57  84 120 160 203 250 298 351
#     4  11  24  42  67  96 124 158 203 255 312 375
#     4   9  20  37  56  80 111 148 190 241 294 346
#
# _framework density 19.664742
#
# number of rings (size 3 to 8) (size 9 to 14) (size 15 to 20)
#    0.000    2.000    0.000    3.750    1.750    6.000 
#    0.000    0.000    0.000    0.000    0.000    0.000 
#    0.000    0.000    0.000    0.000    0.000    0.000 
#
# Total GULP energy -357036.822723 kJ/mol
# GULP energy per Si atom -5578.700355 kJ/mol
# Density = 1.961998 g / cm^3
# Si number density = 19.664742 Si / 1000 Ang^3
#
#
#
# Elastic Constant Matrix: (Units=GPa)
#
#
# Indices 1 2 3 4 5 6 
#
# 1 78.0875 5.3976 25.3211 0.0000 0.0000 0.0000
# 2 5.3976 26.6503 5.2042 0.0000 0.0000 0.0000
# 3 25.3211 5.2042 53.1609 0.0000 0.0000 0.0000
# 4 0.0000 0.0000 0.0000 30.7719 0.0000 0.0000
# 5 0.0000 0.0000 0.0000 0.0000 28.9896 0.0000
# 6 0.0000 0.0000 0.0000 0.0000 0.0000 47.1703
#
#
#
# Elastic Compliance Matrix: (Units=1/GPa)
#
#
# Indices 1 2 3 4 5 6 
#
# 1 0.015220 -0.001699 -0.007083 0.000000 0.000000 0.000000
# 2 -0.001699 0.038444 -0.002954 0.000000 0.000000 0.000000
# 3 -0.007083 -0.002954 0.022474 0.000000 0.000000 0.000000
# 4 0.000000 0.000000 0.000000 0.032497 0.000000 0.000000
# 5 0.000000 0.000000 0.000000 0.000000 0.034495 0.000000
# 6 0.000000 0.000000 0.000000 0.000000 0.000000 0.021200
#
#
# Mechanical properties :
#
#
# Convention : Reuss Voigt Hill
#
# Bulk Modulus (GPa) = 18.98801 25.52716 22.25759
# Shear Modulus (GPa) = 24.34762 29.51810 26.93286
#
# Velocity S-wave (km/s) = 3.52253 3.87856 3.70483
# Velocity P-wave (km/s) = 5.12066 5.75039 5.44464
#
# Compressibility (1/GPa) = 0.05266481
#
# Stress axis : x y z
#
# Youngs Moduli (GPa) = 65.70095 26.01185 44.49617
#
# Poissons Ratio (x) = 0.04421 0.31518
# Poissons Ratio (y) = 0.11166 0.13144
# Poissons Ratio (z) = 0.46538 0.07684
#
# Static dielectric constant tensor:
#      x y z
#    x 1.711140 0.000000 0.000000 
#    y 0.000000 1.661980 0.000000 
#    z 0.000000 0.000000 1.675350 
# 
# From -- ./inp_files/5543.got.cif
#   From: 2010.05.17/outbox.cif.g08.bks.cpg/sg57_3_cif.got.tgz:5543.got - 2010.06.03 13:58:18.
