data_PCOD9436363
_publ_section_title
;
Structure prediction by ZEFSAII (Michael W. Deem and Ramdas Pophale) SiO2 
 PCOD9436363
Probable space group: P B C M
;
_chemical_formula_sum "Si O2"
_cell_formula_units_Z 56
_cell_length_a 15.039043
_cell_length_b 7.663359
_cell_length_c 21.293714
_cell_angle_alpha 90.000000
_cell_angle_beta 90.000000
_cell_angle_gamma 90.000000
_cell_volume 2454.091713
_symmetry_space_group_name_H-M "P B C M"
_symmetry_group_IT_number 57
_symmetry_cell_setting 'orthorhombic'
loop_
_space_group_symop_operation_xyz
x,y,z
-x,-y,1/2+z
x,1/2-y,-z
-x,1/2+y,1/2-z
-x,-y,-z
x,y,1/2-z
-x,1/2+y,z
x,1/2-y,1/2+z
loop_
_atom_site_type_symbol
_atom_site_label
_atom_site_fract_x
_atom_site_fract_y
_atom_site_fract_z
Si Si1 0.355607 0.322157 0.680165
Si Si2 0.790281 0.081469 0.119274
Si Si3 0.185219 0.003824 0.127035
Si Si4 0.925153 0.051983 0.750000
Si Si5 0.897591 0.458347 0.503535
Si Si6 0.605571 0.129098 0.439089
Si Si7 0.868917 0.039896 0.250000
Si Si8 0.495532 0.592138 0.866434
O O1 0.319904 0.322113 0.750000
O O2 0.274827 0.384855 0.636848
O O3 0.413129 0.149952 0.666310
O O4 0.434243 0.463811 0.672526
O O5 0.795379 0.293684 0.126443
O O6 0.862559 0.999151 0.072541
O O7 0.699404 0.051860 0.081531
O O8 0.810223 0.005651 0.187963
O O9 0.117259 0.029594 0.185895
O O10 0.147400 0.041285 0.057789
O O11 0.893852 0.253666 0.750000
O O12 0.032782 0.046425 0.750000
O O13 0.882660 0.250000 0.500000
O O14 0.000000 0.500000 0.500000
O O15 0.615316 0.250000 0.500000
O O16 0.570109 0.251196 0.382969
O O17 0.529749 0.981913 0.433723
#
# Coordination Sequence:
#
# PCOD9436363 Si02
#       8
#     8   8   8   4   8   8   4   8
#     4  11  21  41  61  94 133 172 216 263 323 385
#     4  10  21  38  64  88 123 164 211 264 319 399
#     4  10  19  36  64  87 124 171 212 255 327 392
#     4  10  20  38  60  89 121 164 208 259 323 384
#     4  10  21  39  61  86 118 162 209 264 325 389
#     4  11  21  42  64  92 127 164 215 265 324 383
#     4  10  22  40  60  93 119 164 210 259 333 396
#     4  10  24  38  63  95 123 172 214 267 317 382
#
# _framework density 22.819033000000001
#
# number of rings (size 3 to 8) (size 9 to 14) (size 15 to 20)
#    0.000    1.714    2.143    3.000    0.000    0.000 
#   11.571    0.000    0.000    0.000    0.000    0.000 
#    0.000    0.000    0.000    0.000    0.000    0.000 
#
# Total GULP energy -312524.597516 kJ/mol
# GULP energy per Si atom -5580.796384 kJ/mol
# Density = 2.276710 g / cm^3
# Si number density = 22.819033 Si / 1000 Ang^3
#
#
#
# Elastic Constant Matrix: (Units=GPa)
#
#
# Indices 1 2 3 4 5 6 
#
# 1 91.0395 23.4635 54.8380 0.0000 0.0000 0.0000
# 2 23.4635 25.8986 11.6144 0.0000 0.0000 0.0000
# 3 54.8380 11.6144 159.3037 0.0000 0.0000 0.0000
# 4 0.0000 0.0000 0.0000 12.4883 0.0000 0.0000
# 5 0.0000 0.0000 0.0000 0.0000 33.6252 0.0000
# 6 0.0000 0.0000 0.0000 0.0000 0.0000 35.9107
#
#
#
# Elastic Compliance Matrix: (Units=1/GPa)
#
#
# Indices 1 2 3 4 5 6 
#
# 1 0.017532 -0.013623 -0.005042 0.000000 0.000000 0.000000
# 2 -0.013623 0.050502 0.001007 0.000000 0.000000 0.000000
# 3 -0.005042 0.001007 0.007940 0.000000 0.000000 0.000000
# 4 0.000000 0.000000 0.000000 0.080075 0.000000 0.000000
# 5 0.000000 0.000000 0.000000 0.000000 0.029740 0.000000
# 6 0.000000 0.000000 0.000000 0.000000 0.000000 0.027847
#
#
# Mechanical properties :
#
#
# Convention : Reuss Voigt Hill
#
# Bulk Modulus (GPa) = 24.59453 50.67484 37.63469
# Shear Modulus (GPa) = 19.04736 28.82656 23.93696
#
# Velocity S-wave (km/s) = 2.89228 3.55810 3.24233
# Velocity P-wave (km/s) = 4.68563 6.25585 5.52679
#
# Compressibility (1/GPa) = 0.04065944
#
# Stress axis : x y z
#
# Youngs Moduli (GPa) = 57.03746 19.80107 125.95219
#
# Poissons Ratio (x) = 0.26975 0.63506
# Poissons Ratio (y) = 0.77701 -0.12689
# Poissons Ratio (z) = 0.28759 -0.01995
#
# Static dielectric constant tensor:
#      x y z
#    x 1.802180 0.000000 0.000000 
#    y 0.000000 2.037600 0.000000 
#    z 0.000000 0.000000 1.870400 
# 
# From -- ./inp_files/25473.got.cif
#   From: 2010.05.17/outbox.cif.g08.bks.cpg/sg57_13_cif.got.tgz:25473.got - 2010.06.03 13:58:18.
