data_PCOD9436112
_publ_section_title
;
Structure prediction by ZEFSAII (Michael W. Deem and Ramdas Pophale) SiO2 
 PCOD9436112
Probable space group: P B C M
;
_chemical_formula_sum "Si O2"
_cell_formula_units_Z 32
_cell_length_a 17.483208
_cell_length_b 5.239848
_cell_length_c 15.657146
_cell_angle_alpha 90.000000
_cell_angle_beta 90.000000
_cell_angle_gamma 90.000000
_cell_volume 1434.341007
_symmetry_space_group_name_H-M "P B C M"
_symmetry_group_IT_number 57
_symmetry_cell_setting 'orthorhombic'
loop_
_space_group_symop_operation_xyz
x,y,z
-x,-y,1/2+z
x,1/2-y,-z
-x,1/2+y,1/2-z
-x,-y,-z
x,y,1/2-z
-x,1/2+y,z
x,1/2-y,1/2+z
loop_
_atom_site_type_symbol
_atom_site_label
_atom_site_fract_x
_atom_site_fract_y
_atom_site_fract_z
Si Si1 0.211777 0.136105 0.407322
Si Si2 0.967468 0.519493 0.097887
Si Si3 0.542986 0.945593 0.354477
Si Si4 0.291186 0.623390 0.152222
O O1 0.228092 0.250000 0.500000
O O2 0.121531 0.081986 0.401402
O O3 0.238512 0.370825 0.348630
O O4 0.254661 0.868668 0.393045
O O5 0.985497 0.248932 0.138575
O O6 0.000000 0.500000 0.000000
O O7 0.544425 0.940350 0.250000
O O8 0.482939 0.163981 0.381287
O O9 0.626825 0.033051 0.383156
O O10 0.303332 0.707034 0.250000
#
# Coordination Sequence:
#
# PCOD9436112 Si02
#       4
#     8   8   8   8
#     4  12  23  38  65  93 121 160 210 256 299 367
#     4  10  19  34  59  89 109 147 205 265 275 329
#     4   9  17  33  59  85 111 156 212 247 280 354
#     4  11  24  40  61  93 131 159 194 259 322 362
#
# _framework density 22.309895999999998
#
# number of rings (size 3 to 8) (size 9 to 14) (size 15 to 20)
#    0.000    1.500    2.500    4.500    3.500    4.000 
#    0.000    0.000    0.000   30.000    0.000    0.000 
#    0.000    0.000    0.000    0.000    0.000    0.000 
#
# Total GULP energy -178795.663612 kJ/mol
# GULP energy per Si atom -5587.364488 kJ/mol
# Density = 2.225912 g / cm^3
# Si number density = 22.309896 Si / 1000 Ang^3
#
#
#
# Elastic Constant Matrix: (Units=GPa)
#
#
# Indices 1 2 3 4 5 6 
#
# 1 93.7480 15.2889 1.4115 0.0000 0.0000 0.0000
# 2 15.2889 143.1472 -5.0858 0.0000 0.0000 0.0000
# 3 1.4115 -5.0858 25.0507 0.0000 0.0000 0.0000
# 4 0.0000 0.0000 0.0000 18.1739 0.0000 0.0000
# 5 0.0000 0.0000 0.0000 0.0000 24.8268 0.0000
# 6 0.0000 0.0000 0.0000 0.0000 0.0000 44.4788
#
#
#
# Elastic Compliance Matrix: (Units=1/GPa)
#
#
# Indices 1 2 3 4 5 6 
#
# 1 0.010874 -0.001192 -0.000855 0.000000 0.000000 0.000000
# 2 -0.001192 0.007167 0.001522 0.000000 0.000000 0.000000
# 3 -0.000855 0.001522 0.040276 0.000000 0.000000 0.000000
# 4 0.000000 0.000000 0.000000 0.055024 0.000000 0.000000
# 5 0.000000 0.000000 0.000000 0.000000 0.040279 0.000000
# 6 0.000000 0.000000 0.000000 0.000000 0.000000 0.022483
#
#
# Mechanical properties :
#
#
# Convention : Reuss Voigt Hill
#
# Bulk Modulus (GPa) = 17.46142 31.68612 24.57377
# Shear Modulus (GPa) = 25.47883 34.18464 29.83174
#
# Velocity S-wave (km/s) = 3.38308 3.91866 3.66068
# Velocity P-wave (km/s) = 4.80667 5.89136 5.37644
#
# Compressibility (1/GPa) = 0.05726911
#
# Stress axis : x y z
#
# Youngs Moduli (GPa) = 91.96139 139.52472 24.82854
#
# Poissons Ratio (x) = 0.16628 0.02122
# Poissons Ratio (y) = 0.10960 -0.03780
# Poissons Ratio (z) = 0.07860 -0.21239
#
# Static dielectric constant tensor:
#      x y z
#    x 1.818720 0.000000 0.000000 
#    y 0.000000 1.824650 0.000000 
#    z 0.000000 0.000000 1.908030 
# 
# From -- ./inp_files/22223.got.cif
#   From: 2010.05.17/outbox.cif.g08.bks.cpg/sg57_12_cif.got.tgz:22223.got - 2010.06.03 13:58:18.
