data_PCOD9436856
_publ_section_title
;
Structure prediction by ZEFSAII (Michael W. Deem and Ramdas Pophale) SiO2 
 PCOD9436856
Probable space group: P B C M
;
_chemical_formula_sum "Si O2"
_cell_formula_units_Z 56
_cell_length_a 20.359552
_cell_length_b 15.967273
_cell_length_c 8.884409
_cell_angle_alpha 90.000000
_cell_angle_beta 90.000000
_cell_angle_gamma 90.000000
_cell_volume 2888.201648
_symmetry_space_group_name_H-M "P B C M"
_symmetry_group_IT_number 57
_symmetry_cell_setting 'orthorhombic'
loop_
_space_group_symop_operation_xyz
x,y,z
-x,-y,1/2+z
x,1/2-y,-z
-x,1/2+y,1/2-z
-x,-y,-z
x,y,1/2-z
-x,1/2+y,z
x,1/2-y,1/2+z
loop_
_atom_site_type_symbol
_atom_site_label
_atom_site_fract_x
_atom_site_fract_y
_atom_site_fract_z
Si Si1 0.626363 0.664766 0.924444
Si Si2 0.928203 0.498843 0.926010
Si Si3 0.897721 0.830929 0.921015
Si Si4 0.798769 0.061486 0.572843
Si Si5 0.331109 0.658191 0.932432
Si Si6 0.572443 0.495834 0.430769
Si Si7 0.249780 0.369770 0.916421
O O1 0.608825 0.661531 0.750000
O O2 0.600435 0.750000 0.000000
O O3 0.605106 0.580814 0.009378
O O4 0.704623 0.663006 0.951499
O O5 0.933575 0.483739 0.750000
O O6 0.905801 0.592119 0.967326
O O7 0.869670 0.440812 0.992548
O O8 0.000000 0.500000 0.000000
O O9 0.922342 0.846552 0.750000
O O10 0.819385 0.823707 0.907779
O O11 0.927303 0.750000 0.000000
O O12 0.810791 0.075700 0.750000
O O13 0.741686 0.124946 0.520890
O O14 0.767069 0.968217 0.561730
O O15 0.331426 0.662877 0.750000
O O16 0.384600 0.586400 0.974962
O O17 0.344400 0.750000 0.000000
O O18 0.500000 0.500000 0.500000
O O19 0.569482 0.496207 0.250000
O O20 0.282294 0.360926 0.750000
#
# Coordination Sequence:
#
# PCOD9436856 Si02
#       7
#     8   8   8   8   8   8   8
#     4  12  24  37  58  88 121 159 200 247 302 366
#     4  11  22  37  58  85 117 158 204 253 307 373
#     4  10  20  34  53  80 114 150 189 235 290 353
#     4   9  18  37  61  86 119 160 200 253 313 367
#     4  10  22  41  67  95 128 166 211 266 324 380
#     4  11  24  45  66  90 125 166 209 261 321 382
#     4   9  17  33  56  82 117 153 188 235 292 353
#
# _framework density 19.389227999999999
#
# number of rings (size 3 to 8) (size 9 to 14) (size 15 to 20)
#    0.000    1.714    1.429    4.714    0.000    6.286 
#    0.000    2.143    0.000    1.714    0.000    0.000 
#    0.000    0.000    0.000    0.000    0.000    0.000 
#
# Total GULP energy -312263.270269 kJ/mol
# GULP energy per Si atom -5576.129826 kJ/mol
# Density = 1.934510 g / cm^3
# Si number density = 19.389228 Si / 1000 Ang^3
#
#
#
# Elastic Constant Matrix: (Units=GPa)
#
#
# Indices 1 2 3 4 5 6 
#
# 1 118.1683 46.9359 49.3218 0.0000 0.0000 0.0000
# 2 46.9359 116.2314 44.0493 0.0000 0.0000 0.0000
# 3 49.3218 44.0493 93.9324 0.0000 0.0000 0.0000
# 4 0.0000 0.0000 0.0000 29.5026 0.0000 0.0000
# 5 0.0000 0.0000 0.0000 0.0000 33.3571 0.0000
# 6 0.0000 0.0000 0.0000 0.0000 0.0000 2.6270
#
#
#
# Elastic Compliance Matrix: (Units=1/GPa)
#
#
# Indices 1 2 3 4 5 6 
#
# 1 0.011582 -0.002885 -0.004729 0.000000 0.000000 0.000000
# 2 -0.002885 0.011182 -0.003729 0.000000 0.000000 0.000000
# 3 -0.004729 -0.003729 0.014877 0.000000 0.000000 0.000000
# 4 0.000000 0.000000 0.000000 0.033895 0.000000 0.000000
# 5 0.000000 0.000000 0.000000 0.000000 0.029979 0.000000
# 6 0.000000 0.000000 0.000000 0.000000 0.000000 0.380659
#
#
# Mechanical properties :
#
#
# Convention : Reuss Voigt Hill
#
# Bulk Modulus (GPa) = 66.86063 67.66069 67.26066
# Shear Modulus (GPa) = 9.80691 25.63235 17.71963
#
# Velocity S-wave (km/s) = 2.25142 3.63986 3.02634
# Velocity P-wave (km/s) = 6.42781 7.25511 6.85395
#
# Compressibility (1/GPa) = 0.01495649
#
# Stress axis : x y z
#
# Youngs Moduli (GPa) = 86.34061 89.43231 67.21597
#
# Poissons Ratio (x) = 0.25801 0.31784
# Poissons Ratio (y) = 0.24909 0.25063
# Poissons Ratio (z) = 0.40827 0.33347
#
# Static dielectric constant tensor:
#      x y z
#    x 1.783170 0.000000 0.000000 
#    y 0.000000 1.494280 0.000000 
#    z 0.000000 0.000000 1.688830 
# 
# From -- ./inp_files/8022.got.cif
#   From: 2010.05.17/outbox.cif.g08.bks.cpg/sg57_5_cif.got.tgz:8022.got - 2010.06.03 13:58:18.
