data_PCOD9436972
_publ_section_title
;
Structure prediction by ZEFSAII (Michael W. Deem and Ramdas Pophale) SiO2 
 PCOD9436972
Probable space group: P B C M
;
_chemical_formula_sum "Si O2"
_cell_formula_units_Z 48
_cell_length_a 14.715938
_cell_length_b 8.073323
_cell_length_c 17.418780
_cell_angle_alpha 90.000000
_cell_angle_beta 90.000000
_cell_angle_gamma 90.000000
_cell_volume 2069.464647
_symmetry_space_group_name_H-M "P B C M"
_symmetry_group_IT_number 57
_symmetry_cell_setting 'orthorhombic'
loop_
_space_group_symop_operation_xyz
x,y,z
-x,-y,1/2+z
x,1/2-y,-z
-x,1/2+y,1/2-z
-x,-y,-z
x,y,1/2-z
-x,1/2+y,z
x,1/2-y,1/2+z
loop_
_atom_site_type_symbol
_atom_site_label
_atom_site_fract_x
_atom_site_fract_y
_atom_site_fract_z
Si Si1 0.462366 0.169240 0.916504
Si Si2 0.297420 0.164142 0.337609
Si Si3 0.360732 0.686183 0.415210
Si Si4 0.124388 0.491267 0.841663
Si Si5 0.958885 0.188101 0.087093
Si Si6 0.194211 0.516138 0.338255
O O1 0.391511 0.288681 0.874945
O O2 0.564439 0.183672 0.883369
O O3 0.417165 0.988395 0.920139
O O4 0.471101 0.250000 0.000000
O O5 0.315138 0.119486 0.250000
O O6 0.238349 0.334246 0.340665
O O7 0.227546 0.030647 0.371421
O O8 0.332611 0.750000 0.500000
O O9 0.274234 0.641797 0.363661
O O10 0.123675 0.461097 0.750000
O O11 0.083569 0.668866 0.860388
O O12 0.057156 0.365064 0.883910
O O13 0.889348 0.037155 0.103399
O O14 0.958772 0.250000 0.000000
O O15 0.165251 0.545629 0.250000
#
# Coordination Sequence:
#
# PCOD9436972 Si02
#       6
#     8   8   8   8   8   8
#     4  10  20  34  56  81 112 150 187 234 289 342
#     4   9  21  39  59  83 113 148 191 237 285 342
#     4  10  20  35  55  81 112 148 190 237 288 343
#     4  11  23  41  63  87 117 156 196 239 291 351
#     4  12  25  40  61  90 120 152 193 243 292 346
#     4  10  21  39  59  82 114 154 193 238 293 348
#
# _framework density 23.194403999999999
#
# number of rings (size 3 to 8) (size 9 to 14) (size 15 to 20)
#    0.000    1.667    0.000    5.500    0.000    8.000 
#    0.000    0.000    0.000    0.000    0.000    0.000 
#    0.000    0.000    0.000    0.000    0.000    0.000 
#
# Total GULP energy -268475.606441 kJ/mol
# GULP energy per Si atom -5593.241801 kJ/mol
# Density = 2.314161 g / cm^3
# Si number density = 23.194404 Si / 1000 Ang^3
#
#
#
# Elastic Constant Matrix: (Units=GPa)
#
#
# Indices 1 2 3 4 5 6 
#
# 1 73.0135 -16.9226 12.2856 0.0000 0.0000 0.0000
# 2 -16.9226 69.5769 -13.0657 0.0000 0.0000 0.0000
# 3 12.2856 -13.0657 49.0114 0.0000 0.0000 0.0000
# 4 0.0000 0.0000 0.0000 24.2502 0.0000 0.0000
# 5 0.0000 0.0000 0.0000 0.0000 35.3985 0.0000
# 6 0.0000 0.0000 0.0000 0.0000 0.0000 35.8320
#
#
#
# Elastic Compliance Matrix: (Units=1/GPa)
#
#
# Indices 1 2 3 4 5 6 
#
# 1 0.014900 0.003077 -0.002915 0.000000 0.000000 0.000000
# 2 0.003077 0.015765 0.003432 0.000000 0.000000 0.000000
# 3 -0.002915 0.003432 0.022049 0.000000 0.000000 0.000000
# 4 0.000000 0.000000 0.000000 0.041237 0.000000 0.000000
# 5 0.000000 0.000000 0.000000 0.000000 0.028250 0.000000
# 6 0.000000 0.000000 0.000000 0.000000 0.000000 0.027908
#
#
# Mechanical properties :
#
#
# Convention : Reuss Voigt Hill
#
# Bulk Modulus (GPa) = 16.69429 17.35513 17.02471
# Shear Modulus (GPa) = 30.69589 33.04977 31.87283
#
# Velocity S-wave (km/s) = 3.64183 3.77888 3.71099
# Velocity P-wave (km/s) = 4.98969 5.15157 5.07128
#
# Compressibility (1/GPa) = 0.05990072
#
# Stress axis : x y z
#
# Youngs Moduli (GPa) = 67.11587 63.43046 45.35387
#
# Poissons Ratio (x) = -0.19515 0.13219
# Poissons Ratio (y) = -0.20649 -0.15564
# Poissons Ratio (z) = 0.19562 -0.21767
#
# Static dielectric constant tensor:
#      x y z
#    x 1.900480 0.000000 0.000000 
#    y 0.000000 1.957790 0.000000 
#    z 0.000000 0.000000 1.811370 
# 
# From -- ./inp_files/22487.got.cif
#   From: 2010.05.17/outbox.cif.g08.bks.cpg/sg57_12_cif.got.tgz:22487.got - 2010.06.03 13:58:18.
