data_PCOD9436369
_publ_section_title
;
Structure prediction by ZEFSAII (Michael W. Deem and Ramdas Pophale) SiO2 
 PCOD9436369
Probable space group: P B C M
;
_chemical_formula_sum "Si O2"
_cell_formula_units_Z 56
_cell_length_a 5.401925
_cell_length_b 29.261724
_cell_length_c 14.920720
_cell_angle_alpha 90.000000
_cell_angle_beta 90.000000
_cell_angle_gamma 90.000000
_cell_volume 2358.512815
_symmetry_space_group_name_H-M "P B C M"
_symmetry_group_IT_number 57
_symmetry_cell_setting 'orthorhombic'
loop_
_space_group_symop_operation_xyz
x,y,z
-x,-y,1/2+z
x,1/2-y,-z
-x,1/2+y,1/2-z
-x,-y,-z
x,y,1/2-z
-x,1/2+y,z
x,1/2-y,1/2+z
loop_
_atom_site_type_symbol
_atom_site_label
_atom_site_fract_x
_atom_site_fract_y
_atom_site_fract_z
Si Si1 0.689523 0.052770 0.847122
Si Si2 0.455432 0.359975 0.647296
Si Si3 0.706266 0.227833 0.900374
Si Si4 0.794784 0.764648 0.605887
Si Si5 0.863659 0.568922 0.440247
Si Si6 0.787204 0.130893 0.976057
Si Si7 0.206962 0.005715 0.898302
O O1 0.680482 0.075480 0.750000
O O2 0.650759 0.089816 0.924677
O O3 0.464206 0.016878 0.851548
O O4 0.963095 0.030867 0.857886
O O5 0.538251 0.356200 0.750000
O O6 0.277554 0.317002 0.623665
O O7 0.310907 0.407733 0.631482
O O8 0.666461 0.357884 0.571681
O O9 0.438407 0.235840 0.858293
O O10 0.775722 0.175488 0.915919
O O11 0.937315 0.252899 0.855790
O O12 0.679669 0.250000 0.000000
O O13 0.817130 0.750000 0.500000
O O14 0.764497 0.527663 0.502006
O O15 0.942087 0.610355 0.505659
O O16 0.116863 0.546549 0.401967
#
# Coordination Sequence:
#
# PCOD9436369 Si02
#       7
#     8   8   8   8   8   8   8
#     4  11  24  43  68  98 132 178 228 283 340 398
#     4  12  25  41  64  99 139 181 226 280 343 405
#     4  10  19  36  68  87 118 167 208 259 328 387
#     4  10  20  39  62  88 120 166 213 261 319 392
#     4  10  23  41  66  96 132 179 226 276 345 406
#     4  11  23  42  68  99 136 176 221 286 337 411
#     4  10  23  42  70  95 133 175 228 279 341 407
#
# _framework density 23.743777999999999
#
# number of rings (size 3 to 8) (size 9 to 14) (size 15 to 20)
#    0.000    1.429    4.286    2.143    2.000    3.429 
#    0.000    1.429    0.000    0.000    0.000    0.000 
#    0.000    0.000    0.000    0.000    0.000    0.000 
#
# Total GULP energy -312914.969786 kJ/mol
# GULP energy per Si atom -5587.767318 kJ/mol
# Density = 2.368974 g / cm^3
# Si number density = 23.743778 Si / 1000 Ang^3
#
#
#
# Elastic Constant Matrix: (Units=GPa)
#
#
# Indices 1 2 3 4 5 6 
#
# 1 107.9710 6.5329 15.3344 0.0000 0.0000 0.0000
# 2 6.5329 87.7183 1.9379 0.0000 0.0000 0.0000
# 3 15.3344 1.9379 111.2121 0.0000 0.0000 0.0000
# 4 0.0000 0.0000 0.0000 -0.7882 0.0000 0.0000
# 5 0.0000 0.0000 0.0000 0.0000 -0.9065 0.0000
# 6 0.0000 0.0000 0.0000 0.0000 0.0000 42.2829
#
#
#
# Elastic Compliance Matrix: (Units=1/GPa)
#
#
# Indices 1 2 3 4 5 6 
#
# 1 0.009487 -0.000678 -0.001296 0.000000 0.000000 0.000000
# 2 -0.000678 0.011453 -0.000106 0.000000 0.000000 0.000000
# 3 -0.001296 -0.000106 0.009172 0.000000 0.000000 0.000000
# 4 0.000000 0.000000 0.000000 -1.268692 0.000000 0.000000
# 5 0.000000 0.000000 0.000000 0.000000 -1.103101 0.000000
# 6 0.000000 0.000000 0.000000 0.000000 0.000000 0.023650
#
#
# Mechanical properties :
#
#
# Convention : Reuss Voigt Hill
#
# Bulk Modulus (GPa) = 38.53316 39.39020 38.96168
# Shear Modulus (GPa) = -2.16899 26.99071 12.41086
#
# Velocity S-wave (km/s) = -0.95681 3.37523 2.28874
# Velocity P-wave (km/s) = 3.87857 5.64050 4.84038
#
# Compressibility (1/GPa) = 0.02595168
#
# Stress axis : x y z
#
# Youngs Moduli (GPa) = 105.40883 87.31366 109.02255
#
# Poissons Ratio (x) = 0.05919 0.14132
# Poissons Ratio (y) = 0.07146 0.01157
# Poissons Ratio (z) = 0.13664 0.00926
#
# Static dielectric constant tensor:
#      x y z
#    x 1.961680 0.000000 0.000000 
#    y 0.000000 1.931820 0.000000 
#    z 0.000000 0.000000 2.124690 
# 
# From -- ./inp_files/15242.got.cif
#   From: 2010.05.17/outbox.cif.g08.bks.cpg/sg57_8_cif.got.tgz:15242.got - 2010.06.03 13:58:18.
