data_PCOD9436945
_publ_section_title
;
Structure prediction by ZEFSAII (Michael W. Deem and Ramdas Pophale) SiO2 
 PCOD9436945
Probable space group: P B C M
;
_chemical_formula_sum "Si O2"
_cell_formula_units_Z 48
_cell_length_a 32.167121
_cell_length_b 9.206281
_cell_length_c 8.636859
_cell_angle_alpha 90.000000
_cell_angle_beta 90.000000
_cell_angle_gamma 90.000000
_cell_volume 2557.715580
_symmetry_space_group_name_H-M "P B C M"
_symmetry_group_IT_number 57
_symmetry_cell_setting 'orthorhombic'
loop_
_space_group_symop_operation_xyz
x,y,z
-x,-y,1/2+z
x,1/2-y,-z
-x,1/2+y,1/2-z
-x,-y,-z
x,y,1/2-z
-x,1/2+y,z
x,1/2-y,1/2+z
loop_
_atom_site_type_symbol
_atom_site_label
_atom_site_fract_x
_atom_site_fract_y
_atom_site_fract_z
Si Si1 0.712170 0.414663 0.564435
Si Si2 0.379020 0.586522 0.063366
Si Si3 0.039636 0.586696 0.064543
Si Si4 0.798115 0.413781 0.434976
Si Si5 0.460690 0.087815 0.563628
Si Si6 0.118606 0.413052 0.936360
O O1 0.711602 0.250000 0.500000
O O2 0.715143 0.412062 0.750000
O O3 0.666697 0.474553 0.519413
O O4 0.754624 0.478730 0.497015
O O5 0.379721 0.594954 0.250000
O O6 0.417895 0.490192 0.013085
O O7 0.383121 0.750000 0.000000
O O8 0.038365 0.589276 0.250000
O O9 0.039159 0.750000 0.000000
O O10 0.080957 0.505357 0.006966
O O11 0.000000 0.500000 0.000000
O O12 0.802969 0.250000 0.500000
O O13 0.795759 0.403840 0.250000
O O14 0.837819 0.509976 0.477991
O O15 0.462039 0.250000 0.500000
O O16 0.462056 0.088970 0.750000
O O17 0.500000 0.000000 0.500000
O O18 0.114888 0.411748 0.750000
O O19 0.117208 0.250000 0.000000
#
# Coordination Sequence:
#
# PCOD9436945 Si02
#       6
#     8   8   8   8   8   8
#     4   9  16  29  51  78 108 142 181 225 273 326
#     4   9  19  34  54  80 109 141 179 224 273 328
#     4  12  25  43  66  92 122 155 193 236 284 337
#     4  10  20  34  55  83 113 146 187 233 280 331
#     4  11  23  39  57  80 109 142 182 226 276 331
#     4  11  24  41  60  85 117 154 195 238 287 339
#
# _framework density 18.766746000000001
#
# number of rings (size 3 to 8) (size 9 to 14) (size 15 to 20)
#    0.000    1.667    0.000    6.000    0.000    7.333 
#    0.000    0.833    0.000    4.000    0.000    0.000 
#    0.000    0.000    0.000    0.000    0.000    0.000 
#
# Total GULP energy -268112.046473 kJ/mol
# GULP energy per Si atom -5585.667635 kJ/mol
# Density = 1.872403 g / cm^3
# Si number density = 18.766746 Si / 1000 Ang^3
#
#
#
# Elastic Constant Matrix: (Units=GPa)
#
#
# Indices 1 2 3 4 5 6 
#
# 1 235.0309 106.0152 72.9179 0.0000 0.0000 0.0000
# 2 106.0152 132.3734 45.8286 0.0000 0.0000 0.0000
# 3 72.9179 45.8286 80.4448 0.0000 0.0000 0.0000
# 4 0.0000 0.0000 0.0000 29.1470 0.0000 0.0000
# 5 0.0000 0.0000 0.0000 0.0000 27.0335 0.0000
# 6 0.0000 0.0000 0.0000 0.0000 0.0000 36.6266
#
#
#
# Elastic Compliance Matrix: (Units=1/GPa)
#
#
# Indices 1 2 3 4 5 6 
#
# 1 0.007703 -0.004674 -0.004320 0.000000 0.000000 0.000000
# 2 -0.004674 0.012246 -0.002740 0.000000 0.000000 0.000000
# 3 -0.004320 -0.002740 0.017907 0.000000 0.000000 0.000000
# 4 0.000000 0.000000 0.000000 0.034309 0.000000 0.000000
# 5 0.000000 0.000000 0.000000 0.000000 0.036991 0.000000
# 6 0.000000 0.000000 0.000000 0.000000 0.000000 0.027303
#
#
# Mechanical properties :
#
#
# Convention : Reuss Voigt Hill
#
# Bulk Modulus (GPa) = 69.49489 99.70804 84.60146
# Shear Modulus (GPa) = 30.35397 33.43391 31.89394
#
# Velocity S-wave (km/s) = 4.02610 4.22542 4.12696
# Velocity P-wave (km/s) = 7.66315 8.77787 8.23939
#
# Compressibility (1/GPa) = 0.01438955
#
# Stress axis : x y z
#
# Youngs Moduli (GPa) = 129.81681 81.65847 55.84257
#
# Poissons Ratio (x) = 0.38165 0.24123
# Poissons Ratio (y) = 0.60673 0.15301
# Poissons Ratio (z) = 0.56078 0.22375
#
# Static dielectric constant tensor:
#      x y z
#    x 1.678350 0.000000 0.000000 
#    y 0.000000 1.635120 0.000000 
#    z 0.000000 0.000000 1.633570 
# 
# From -- ./inp_files/9957.got.cif
#   From: 2010.05.17/outbox.cif.g08.bks.cpg/sg57_5_cif.got.tgz:9957.got - 2010.06.03 13:58:18.
