data_PCOD9436636
_publ_section_title
;
Structure prediction by ZEFSAII (Michael W. Deem and Ramdas Pophale) SiO2 
 PCOD9436636
Probable space group: P B C M
;
_chemical_formula_sum "Si O2"
_cell_formula_units_Z 64
_cell_length_a 31.035000
_cell_length_b 14.172606
_cell_length_c 8.611484
_cell_angle_alpha 90.000000
_cell_angle_beta 90.000000
_cell_angle_gamma 90.000000
_cell_volume 3787.733915
_symmetry_space_group_name_H-M "P B C M"
_symmetry_group_IT_number 57
_symmetry_cell_setting 'orthorhombic'
loop_
_space_group_symop_operation_xyz
x,y,z
-x,-y,1/2+z
x,1/2-y,-z
-x,1/2+y,1/2-z
-x,-y,-z
x,y,1/2-z
-x,1/2+y,z
x,1/2-y,1/2+z
loop_
_atom_site_type_symbol
_atom_site_label
_atom_site_fract_x
_atom_site_fract_y
_atom_site_fract_z
Si Si1 0.113728 0.353900 0.934629
Si Si2 0.811852 0.983787 0.065287
Si Si3 0.123605 0.855690 0.936814
Si Si4 0.951653 0.998105 0.437536
Si Si5 0.481898 0.855184 0.564001
Si Si6 0.356104 0.351017 0.435012
Si Si7 0.432192 0.029084 0.435802
Si Si8 0.740273 0.852305 0.934946
O O1 0.120983 0.355929 0.750000
O O2 0.111268 0.250000 0.000000
O O3 0.151879 0.407364 0.023204
O O4 0.070986 0.409629 0.981391
O O5 0.805280 0.988965 0.250000
O O6 0.834689 0.081766 0.012572
O O7 0.769316 0.940526 0.987952
O O8 0.124869 0.852861 0.750000
O O9 0.079796 0.913218 0.978626
O O10 0.123857 0.750000 0.000000
O O11 0.951085 0.989381 0.250000
O O12 0.000000 0.000000 0.500000
O O13 0.478160 0.750000 0.500000
O O14 0.478789 0.854808 0.750000
O O15 0.528313 0.900612 0.521426
O O16 0.446511 0.926481 0.495066
O O17 0.371960 0.250000 0.500000
O O18 0.353788 0.346275 0.250000
O O19 0.388904 0.431209 0.489118
O O20 0.308253 0.364621 0.502759
O O21 0.428188 0.028544 0.250000
O O22 0.740171 0.845752 0.750000
O O23 0.756057 0.750000 0.000000
#
# Coordination Sequence:
#
# PCOD9436636 Si02
#       8
#     8   8   8   8   8   8   8   8
#     4  11  21  34  52  75 101 133 167 204 248 298
#     4  10  20  36  54  77 106 134 166 209 254 302
#     4   9  20  36  56  78 103 133 170 212 255 299
#     4  10  21  37  53  75 104 136 171 211 253 299
#     4  10  20  33  51  75 103 137 177 221 267 314
#     4  11  21  34  52  76 107 141 175 213 259 312
#     4  10  20  34  52  75 104 138 177 220 265 315
#     4  11  21  34  53  79 108 140 173 208 255 311
#
# _framework density 16.896646
#
# number of rings (size 3 to 8) (size 9 to 14) (size 15 to 20)
#    0.000    1.750    0.000    7.125    0.000    6.000 
#    0.000    1.250    0.000    0.750    0.000    3.500 
#    0.000    0.000    0.000    0.000    0.000    0.000 
#
# Total GULP energy -357233.713019 kJ/mol
# GULP energy per Si atom -5581.776766 kJ/mol
# Density = 1.685819 g / cm^3
# Si number density = 16.896646 Si / 1000 Ang^3
#
#
#
# Elastic Constant Matrix: (Units=GPa)
#
#
# Indices 1 2 3 4 5 6 
#
# 1 63.3574 35.6421 14.9897 0.0000 0.0000 0.0000
# 2 35.6421 128.2175 23.6150 0.0000 0.0000 0.0000
# 3 14.9897 23.6150 68.7860 0.0000 0.0000 0.0000
# 4 0.0000 0.0000 0.0000 30.6397 0.0000 0.0000
# 5 0.0000 0.0000 0.0000 0.0000 27.6284 0.0000
# 6 0.0000 0.0000 0.0000 0.0000 0.0000 15.0663
#
#
#
# Elastic Compliance Matrix: (Units=1/GPa)
#
#
# Indices 1 2 3 4 5 6 
#
# 1 0.019103 -0.004850 -0.002498 0.000000 0.000000 0.000000
# 2 -0.004850 0.009557 -0.002224 0.000000 0.000000 0.000000
# 3 -0.002498 -0.002224 0.015846 0.000000 0.000000 0.000000
# 4 0.000000 0.000000 0.000000 0.032637 0.000000 0.000000
# 5 0.000000 0.000000 0.000000 0.000000 0.036195 0.000000
# 6 0.000000 0.000000 0.000000 0.000000 0.000000 0.066373
#
#
# Mechanical properties :
#
#
# Convention : Reuss Voigt Hill
#
# Bulk Modulus (GPa) = 39.42964 45.42827 42.42895
# Shear Modulus (GPa) = 24.11856 27.07449 25.59653
#
# Velocity S-wave (km/s) = 3.78222 4.00729 3.89638
# Velocity P-wave (km/s) = 6.51613 6.95381 6.73853
#
# Compressibility (1/GPa) = 0.02536163
#
# Stress axis : x y z
#
# Youngs Moduli (GPa) = 52.34793 104.63357 63.10857
#
# Poissons Ratio (x) = 0.50750 0.15763
# Poissons Ratio (y) = 0.25390 0.14036
# Poissons Ratio (z) = 0.13075 0.23272
#
# Static dielectric constant tensor:
#      x y z
#    x 1.473580 0.000000 0.000000 
#    y 0.000000 1.690760 0.000000 
#    z 0.000000 0.000000 1.565270 
# 
# From -- ./inp_files/10288.got.cif
#   From: 2010.05.17/outbox.cif.g08.bks.cpg/sg57_6_cif.got.tgz:10288.got - 2010.06.03 13:58:18.
