data_PCOD9436585
_publ_section_title
;
Structure prediction by ZEFSAII (Michael W. Deem and Ramdas Pophale) SiO2 
 PCOD9436585
Probable space group: P B C M
;
_chemical_formula_sum "Si O2"
_cell_formula_units_Z 48
_cell_length_a 21.416754
_cell_length_b 7.569905
_cell_length_c 14.204510
_cell_angle_alpha 90.000000
_cell_angle_beta 90.000000
_cell_angle_gamma 90.000000
_cell_volume 2302.874837
_symmetry_space_group_name_H-M "P B C M"
_symmetry_group_IT_number 57
_symmetry_cell_setting 'orthorhombic'
loop_
_space_group_symop_operation_xyz
x,y,z
-x,-y,1/2+z
x,1/2-y,-z
-x,1/2+y,1/2-z
-x,-y,-z
x,y,1/2-z
-x,1/2+y,z
x,1/2-y,1/2+z
loop_
_atom_site_type_symbol
_atom_site_label
_atom_site_fract_x
_atom_site_fract_y
_atom_site_fract_z
Si Si1 0.328898 0.044910 0.145500
Si Si2 0.918321 0.018862 0.954581
Si Si3 0.220363 0.035451 0.497103
Si Si4 0.029796 0.168578 0.862594
Si Si5 0.677355 0.524275 0.856247
Si Si6 0.572784 0.961371 0.502023
O O1 0.322768 0.980084 0.250000
O O2 0.271249 0.991293 0.081586
O O3 0.326727 0.260173 0.145691
O O4 0.392828 0.983275 0.097660
O O5 0.845280 0.046620 0.968507
O O6 0.934208 0.848824 0.888308
O O7 0.941657 0.965862 0.059720
O O8 0.958200 0.167381 0.900302
O O9 0.210982 0.250000 0.500000
O O10 0.256920 0.983612 0.592492
O O11 0.033263 0.131367 0.750000
O O12 0.674716 0.460182 0.750000
O O13 0.617459 0.467979 0.918480
O O14 0.578322 0.750000 0.500000
O O15 0.500000 0.000000 0.500000
#
# Coordination Sequence:
#
# PCOD9436585 Si02
#       6
#     8   8   8   8   8   8
#     4   8  15  26  43  67  95 120 151 196 238 275
#     4  10  20  34  49  74 103 127 168 208 249 308
#     4   9  15  28  44  70  94 121 157 206 244 282
#     4  10  20  33  49  71 102 132 162 204 253 303
#     4   8  15  27  45  70  98 123 155 202 245 282
#     4   9  17  29  45  69 100 125 158 191 235 281
#
# _framework density 20.843512
#
# number of rings (size 3 to 8) (size 9 to 14) (size 15 to 20)
#    0.000    3.000    1.667    2.500    0.000    2.667 
#    0.000    0.000    0.000    0.000   34.667    0.000 
#    0.000    0.000    0.000    0.000    0.000    0.000 
#
# Total GULP energy -267478.963269 kJ/mol
# GULP energy per Si atom -5572.478401 kJ/mol
# Density = 2.079607 g / cm^3
# Si number density = 20.843512 Si / 1000 Ang^3
#
#
#
# Elastic Constant Matrix: (Units=GPa)
#
#
# Indices 1 2 3 4 5 6 
#
# 1 159.8955 -6.8288 47.8243 0.0000 0.0000 0.0000
# 2 -6.8288 47.0375 1.5101 0.0000 0.0000 0.0000
# 3 47.8243 1.5101 166.9066 0.0000 0.0000 0.0000
# 4 0.0000 0.0000 0.0000 2.4348 0.0000 0.0000
# 5 0.0000 0.0000 0.0000 0.0000 7.1907 0.0000
# 6 0.0000 0.0000 0.0000 0.0000 0.0000 18.1062
#
#
#
# Elastic Compliance Matrix: (Units=1/GPa)
#
#
# Indices 1 2 3 4 5 6 
#
# 1 0.006893 0.001064 -0.001985 0.000000 0.000000 0.000000
# 2 0.001064 0.021430 -0.000499 0.000000 0.000000 0.000000
# 3 -0.001985 -0.000499 0.006565 0.000000 0.000000 0.000000
# 4 0.000000 0.000000 0.000000 0.410703 0.000000 0.000000
# 5 0.000000 0.000000 0.000000 0.000000 0.139069 0.000000
# 6 0.000000 0.000000 0.000000 0.000000 0.000000 0.055230
#
#
# Mechanical properties :
#
#
# Convention : Reuss Voigt Hill
#
# Bulk Modulus (GPa) = 31.20169 50.98343 41.09256
# Shear Modulus (GPa) = 7.65215 27.63527 17.64371
#
# Velocity S-wave (km/s) = 1.91813 3.64517 2.91260
# Velocity P-wave (km/s) = 4.46179 6.49842 5.57392
#
# Compressibility (1/GPa) = 0.03204954
#
# Stress axis : x y z
#
# Youngs Moduli (GPa) = 145.07088 46.66320 152.33249
#
# Poissons Ratio (x) = -0.04967 0.30234
# Poissons Ratio (y) = -0.15442 0.07600
# Poissons Ratio (z) = 0.28793 0.02328
#
# Static dielectric constant tensor:
#      x y z
#    x 1.744900 0.000000 0.000000 
#    y 0.000000 1.891660 0.000000 
#    z 0.000000 0.000000 1.727570 
# 
# From -- ./inp_files/19266.got.cif
#   From: 2010.05.17/outbox.cif.g08.bks.cpg/sg57_10_cif.got.tgz:19266.got - 2010.06.03 13:58:18.
