data_PCOD9436484
_publ_section_title
;
Structure prediction by ZEFSAII (Michael W. Deem and Ramdas Pophale) SiO2 
 PCOD9436484
Probable space group: P B C M
;
_chemical_formula_sum "Si O2"
_cell_formula_units_Z 64
_cell_length_a 18.636709
_cell_length_b 24.638331
_cell_length_c 9.346187
_cell_angle_alpha 90.000000
_cell_angle_beta 90.000000
_cell_angle_gamma 90.000000
_cell_volume 4291.557894
_symmetry_space_group_name_H-M "P B C M"
_symmetry_group_IT_number 57
_symmetry_cell_setting 'orthorhombic'
loop_
_space_group_symop_operation_xyz
x,y,z
-x,-y,1/2+z
x,1/2-y,-z
-x,1/2+y,1/2-z
-x,-y,-z
x,y,1/2-z
-x,1/2+y,z
x,1/2-y,1/2+z
loop_
_atom_site_type_symbol
_atom_site_label
_atom_site_fract_x
_atom_site_fract_y
_atom_site_fract_z
Si Si1 0.409106 0.050515 0.416715
Si Si2 0.887953 0.995760 0.416902
Si Si3 0.254661 0.480613 0.581014
Si Si4 0.040992 0.805377 0.581962
Si Si5 0.455687 0.923486 0.083323
Si Si6 0.023844 0.584591 0.917590
Si Si7 0.785978 0.195784 0.415923
Si Si8 0.301222 0.606383 0.918721
O O1 0.410481 0.065167 0.250000
O O2 0.470109 0.082979 0.500239
O O3 0.326275 0.051882 0.465657
O O4 0.432489 0.987030 0.425975
O O5 0.876964 0.009834 0.250000
O O6 0.951737 0.951588 0.424833
O O7 0.816025 0.972620 0.487914
O O8 0.915212 0.048356 0.504777
O O9 0.241877 0.469741 0.750000
O O10 0.275008 0.544295 0.569051
O O11 0.019869 0.750000 0.500000
O O12 0.020681 0.804361 0.750000
O O13 0.014069 0.858878 0.500021
O O14 0.127785 0.808845 0.575288
O O15 0.466765 0.911537 0.250000
O O16 0.384675 0.891724 0.033914
O O17 0.041859 0.593322 0.750000
O O18 0.764803 0.250000 0.500000
O O19 0.766285 0.199606 0.250000
O O20 0.748555 0.145032 0.489888
O O21 0.297853 0.620383 0.750000
#
# Coordination Sequence:
#
# PCOD9436484 Si02
#       8
#     8   8   8   8   8   8   8   8
#     4   8  14  24  37  55  79 106 136 167 198 235
#     4  10  20  31  44  64  88 116 150 184 219 262
#     4   9  17  28  42  60  84 114 143 173 212 253
#     4  10  20  33  49  68  88 112 145 182 220 262
#     4   8  14  24  37  54  77 106 136 165 199 234
#     4  10  20  33  47  63  87 117 147 182 222 262
#     4  10  20  31  43  60  81 106 137 173 211 248
#     4   9  17  28  41  58  82 111 142 174 208 248
#
# _framework density 14.912998999999999
#
# number of rings (size 3 to 8) (size 9 to 14) (size 15 to 20)
#    0.000    2.750    0.000    3.750    0.000    6.500 
#    0.000    2.500    0.000    0.000    0.000    0.000 
#    0.000    1.000    0.000    3.250    0.000    4.750 
#
# Total GULP energy -356525.839225 kJ/mol
# GULP energy per Si atom -5570.716238 kJ/mol
# Density = 1.487906 g / cm^3
# Si number density = 14.912999 Si / 1000 Ang^3
#
#
#
# Elastic Constant Matrix: (Units=GPa)
#
#
# Indices 1 2 3 4 5 6 
#
# 1 60.5344 -5.9851 32.7838 0.0000 0.0000 0.0000
# 2 -5.9851 42.4000 28.2681 0.0000 0.0000 0.0000
# 3 32.7838 28.2681 84.0786 0.0000 0.0000 0.0000
# 4 0.0000 0.0000 0.0000 21.0876 0.0000 0.0000
# 5 0.0000 0.0000 0.0000 0.0000 26.9522 0.0000
# 6 0.0000 0.0000 0.0000 0.0000 0.0000 14.0111
#
#
#
# Elastic Compliance Matrix: (Units=1/GPa)
#
#
# Indices 1 2 3 4 5 6 
#
# 1 0.025668 0.013271 -0.014470 0.000000 0.000000 0.000000
# 2 0.013271 0.037260 -0.017702 0.000000 0.000000 0.000000
# 3 -0.014470 -0.017702 0.023487 0.000000 0.000000 0.000000
# 4 0.000000 0.000000 0.000000 0.047421 0.000000 0.000000
# 5 0.000000 0.000000 0.000000 0.000000 0.037103 0.000000
# 6 0.000000 0.000000 0.000000 0.000000 0.000000 0.071372
#
#
# Mechanical properties :
#
#
# Convention : Reuss Voigt Hill
#
# Bulk Modulus (GPa) = 20.57061 33.01629 26.79345
# Shear Modulus (GPa) = 16.87374 21.20661 19.04017
#
# Velocity S-wave (km/s) = 3.36740 3.77506 3.57704
# Velocity P-wave (km/s) = 5.37985 6.41785 5.92164
#
# Compressibility (1/GPa) = 0.04861304
#
# Stress axis : x y z
#
# Youngs Moduli (GPa) = 38.95838 26.83853 42.57603
#
# Poissons Ratio (x) = -0.35617 0.61609
# Poissons Ratio (y) = -0.51701 0.75367
# Poissons Ratio (z) = 0.56374 0.47509
#
# Static dielectric constant tensor:
#      x y z
#    x 1.508220 0.000000 0.000000 
#    y 0.000000 1.474390 0.000000 
#    z 0.000000 0.000000 1.499960 
# 
# From -- ./inp_files/7418.got.cif
#   From: 2010.05.17/outbox.cif.g08.bks.cpg/sg57_4_cif.got.tgz:7418.got - 2010.06.03 13:58:18.
