data_PCOD9436107
_publ_section_title
;
Structure prediction by ZEFSAII (Michael W. Deem and Ramdas Pophale) SiO2 
 PCOD9436107
Probable space group: P B C M
;
_chemical_formula_sum "Si O2"
_cell_formula_units_Z 64
_cell_length_a 14.201860
_cell_length_b 18.706571
_cell_length_c 12.475498
_cell_angle_alpha 90.000000
_cell_angle_beta 90.000000
_cell_angle_gamma 90.000000
_cell_volume 3314.341880
_symmetry_space_group_name_H-M "P B C M"
_symmetry_group_IT_number 57
_symmetry_cell_setting 'orthorhombic'
loop_
_space_group_symop_operation_xyz
x,y,z
-x,-y,1/2+z
x,1/2-y,-z
-x,1/2+y,1/2-z
-x,-y,-z
x,y,1/2-z
-x,1/2+y,z
x,1/2-y,1/2+z
loop_
_atom_site_type_symbol
_atom_site_label
_atom_site_fract_x
_atom_site_fract_y
_atom_site_fract_z
Si Si1 0.740990 0.064617 0.871659
Si Si2 0.105090 0.691331 0.127989
Si Si3 0.193491 0.421772 0.373664
Si Si4 0.312370 0.681085 0.451302
Si Si5 0.923394 0.780991 0.379587
Si Si6 0.092452 0.546105 0.491163
Si Si7 0.456938 0.925338 0.629802
Si Si8 0.367004 0.446169 0.997454
O O1 0.725133 0.083890 0.750000
O O2 0.712060 0.127137 0.952419
O O3 0.850419 0.050512 0.898164
O O4 0.681742 0.995077 0.906108
O O5 0.100392 0.666303 0.250000
O O6 0.213696 0.706153 0.100355
O O7 0.074568 0.624435 0.055295
O O8 0.033217 0.757554 0.118714
O O9 0.220631 0.425104 0.250000
O O10 0.110971 0.362926 0.384904
O O11 0.160434 0.500054 0.412789
O O12 0.284072 0.402618 0.445566
O O13 0.361740 0.750000 0.500000
O O14 0.378621 0.635971 0.374611
O O15 0.889974 0.750000 0.500000
O O16 0.895632 0.759905 0.250000
O O17 0.000000 0.500000 0.500000
O O18 0.489159 0.937663 0.750000
O O19 0.545074 0.906184 0.554372
O O20 0.409993 0.997283 0.582520
#
# Coordination Sequence:
#
# PCOD9436107 Si02
#       8
#     8   8   8   8   8   8   8   8
#     4   9  19  34  52  76 108 145 180 225 287 345
#     4  10  20  35  55  78 110 151 191 234 287 347
#     4  10  20  36  59  83 111 150 194 239 288 345
#     4  10  21  35  52  78 111 144 185 230 276 340
#     4  10  21  38  58  81 112 153 199 241 288 348
#     4  10  20  33  51  80 112 140 185 239 286 339
#     4  10  19  34  59  86 111 143 178 222 289 352
#     4   9  19  35  57  85 113 138 179 234 282 345
#
# _framework density 19.310016999999998
#
# number of rings (size 3 to 8) (size 9 to 14) (size 15 to 20)
#    0.000    2.250    0.000    3.375    0.000    3.000 
#    0.000   11.875    0.000    1.500    0.000    0.000 
#    0.000    0.000    0.000    0.000    0.000    0.000 
#
# Total GULP energy -356459.761141 kJ/mol
# GULP energy per Si atom -5569.683768 kJ/mol
# Density = 1.926607 g / cm^3
# Si number density = 19.310017 Si / 1000 Ang^3
#
#
#
# Elastic Constant Matrix: (Units=GPa)
#
#
# Indices 1 2 3 4 5 6 
#
# 1 88.8470 27.4488 24.4758 0.0000 0.0000 0.0000
# 2 27.4488 51.7981 13.5008 0.0000 0.0000 0.0000
# 3 24.4758 13.5008 102.9176 0.0000 0.0000 0.0000
# 4 0.0000 0.0000 0.0000 14.7929 0.0000 0.0000
# 5 0.0000 0.0000 0.0000 0.0000 19.4955 0.0000
# 6 0.0000 0.0000 0.0000 0.0000 0.0000 19.1443
#
#
#
# Elastic Compliance Matrix: (Units=1/GPa)
#
#
# Indices 1 2 3 4 5 6 
#
# 1 0.014029 -0.006797 -0.002445 0.000000 0.000000 0.000000
# 2 -0.006797 0.023282 -0.001438 0.000000 0.000000 0.000000
# 3 -0.002445 -0.001438 0.010487 0.000000 0.000000 0.000000
# 4 0.000000 0.000000 0.000000 0.067600 0.000000 0.000000
# 5 0.000000 0.000000 0.000000 0.000000 0.051294 0.000000
# 6 0.000000 0.000000 0.000000 0.000000 0.000000 0.052235
#
#
# Mechanical properties :
#
#
# Convention : Reuss Voigt Hill
#
# Bulk Modulus (GPa) = 37.82317 41.60151 39.71234
# Shear Modulus (GPa) = 20.07246 22.56237 21.31741
#
# Velocity S-wave (km/s) = 3.22760 3.42194 3.32619
# Velocity P-wave (km/s) = 5.78962 6.09948 5.94657
#
# Compressibility (1/GPa) = 0.02643882
#
# Stress axis : x y z
#
# Youngs Moduli (GPa) = 71.28292 42.95119 95.36067
#
# Poissons Ratio (x) = 0.29193 0.23312
# Poissons Ratio (y) = 0.48450 0.13711
# Poissons Ratio (z) = 0.17426 0.06175
#
# Static dielectric constant tensor:
#      x y z
#    x 1.707390 0.000000 0.000000 
#    y 0.000000 1.661700 0.000000 
#    z 0.000000 0.000000 1.717030 
# 
# From -- ./inp_files/13901.got.cif
#   From: 2010.05.17/outbox.cif.g08.bks.cpg/sg57_7_cif.got.tgz:13901.got - 2010.06.03 13:58:18.
