data_PCOD9436698
_publ_section_title
;
Structure prediction by ZEFSAII (Michael W. Deem and Ramdas Pophale) SiO2 
 PCOD9436698
Probable space group: P B C M
;
_chemical_formula_sum "Si O2"
_cell_formula_units_Z 64
_cell_length_a 22.431120
_cell_length_b 16.750123
_cell_length_c 9.263279
_cell_angle_alpha 90.000000
_cell_angle_beta 90.000000
_cell_angle_gamma 90.000000
_cell_volume 3480.436415
_symmetry_space_group_name_H-M "P B C M"
_symmetry_group_IT_number 57
_symmetry_cell_setting 'orthorhombic'
loop_
_space_group_symop_operation_xyz
x,y,z
-x,-y,1/2+z
x,1/2-y,-z
-x,1/2+y,1/2-z
-x,-y,-z
x,y,1/2-z
-x,1/2+y,z
x,1/2-y,1/2+z
loop_
_atom_site_type_symbol
_atom_site_label
_atom_site_fract_x
_atom_site_fract_y
_atom_site_fract_z
Si Si1 0.871725 0.833272 0.078782
Si Si2 0.382493 0.173116 0.079785
Si Si3 0.439575 0.023395 0.920665
Si Si4 0.891483 0.332874 0.079921
Si Si5 0.731607 0.637345 0.913651
Si Si6 0.251939 0.825685 0.411829
Si Si7 0.935488 0.004031 0.074059
Si Si8 0.687337 0.455586 0.591365
O O1 0.882195 0.822546 0.250000
O O2 0.800545 0.845199 0.056997
O O3 0.902491 0.918823 0.039287
O O4 0.889911 0.750000 0.000000
O O5 0.390246 0.174120 0.250000
O O6 0.407667 0.250000 0.000000
O O7 0.413919 0.099103 0.004487
O O8 0.312802 0.168670 0.035538
O O9 0.448934 0.038783 0.750000
O O10 0.383723 0.962392 0.929264
O O11 0.500000 0.000000 0.000000
O O12 0.911070 0.334944 0.250000
O O13 0.819634 0.330462 0.080040
O O14 0.911678 0.250000 0.000000
O O15 0.908205 0.414263 0.994359
O O16 0.716728 0.667203 0.750000
O O17 0.716665 0.543291 0.909252
O O18 0.272662 0.750000 0.500000
O O19 0.270146 0.813644 0.250000
O O20 0.280783 0.904667 0.472446
O O21 0.937211 0.010413 0.250000
O O22 0.000000 0.000000 0.000000
O O23 0.699157 0.420494 0.750000
#
# Coordination Sequence:
#
# PCOD9436698 Si02
#       8
#     8   8   8   8   8   8   8   8
#     4  10  22  38  58  84 116 152 188 228 281 338
#     4  11  21  34  54  81 111 143 178 220 267 317
#     4  10  21  38  57  78 105 141 183 226 270 321
#     4  10  21  38  61  89 116 147 187 234 287 342
#     4   9  18  34  55  82 113 144 177 218 270 331
#     4  10  20  33  53  81 112 142 178 223 274 331
#     4  11  24  42  61  83 113 151 194 241 287 337
#     4   9  18  33  54  78 109 144 178 220 274 329
#
# _framework density 18.388497999999998
#
# number of rings (size 3 to 8) (size 9 to 14) (size 15 to 20)
#    0.000    2.000    0.000    4.500    0.000    8.000 
#    0.000    1.875    0.000    3.000    0.000    0.000 
#    0.000    0.000    0.000    0.000    0.000    0.000 
#
# Total GULP energy -356737.846811 kJ/mol
# GULP energy per Si atom -5574.028856 kJ/mol
# Density = 1.834665 g / cm^3
# Si number density = 18.388498 Si / 1000 Ang^3
#
#
#
# Elastic Constant Matrix: (Units=GPa)
#
#
# Indices 1 2 3 4 5 6 
#
# 1 43.8228 33.3552 39.3032 0.0000 0.0000 0.0000
# 2 33.3552 118.3192 73.1433 0.0000 0.0000 0.0000
# 3 39.3032 73.1433 148.4313 0.0000 0.0000 0.0000
# 4 0.0000 0.0000 0.0000 37.6595 0.0000 0.0000
# 5 0.0000 0.0000 0.0000 0.0000 43.9884 0.0000
# 6 0.0000 0.0000 0.0000 0.0000 0.0000 5.3564
#
#
#
# Elastic Compliance Matrix: (Units=1/GPa)
#
#
# Indices 1 2 3 4 5 6 
#
# 1 0.032219 -0.005477 -0.005832 0.000000 0.000000 0.000000
# 2 -0.005477 0.013085 -0.004998 0.000000 0.000000 0.000000
# 3 -0.005832 -0.004998 0.010744 0.000000 0.000000 0.000000
# 4 0.000000 0.000000 0.000000 0.026554 0.000000 0.000000
# 5 0.000000 0.000000 0.000000 0.000000 0.022733 0.000000
# 6 0.000000 0.000000 0.000000 0.000000 0.000000 0.186693
#
#
# Mechanical properties :
#
#
# Convention : Reuss Voigt Hill
#
# Bulk Modulus (GPa) = 42.67339 66.90853 54.79096
# Shear Modulus (GPa) = 15.03966 28.38563 21.71265
#
# Velocity S-wave (km/s) = 2.86297 3.93321 3.43997
# Velocity P-wave (km/s) = 5.84686 7.55592 6.75565
#
# Compressibility (1/GPa) = 0.02343381
#
# Stress axis : x y z
#
# Youngs Moduli (GPa) = 31.03768 76.42091 93.07348
#
# Poissons Ratio (x) = 0.41859 0.54281
# Poissons Ratio (y) = 0.17001 0.46516
# Poissons Ratio (z) = 0.18101 0.38194
#
# Static dielectric constant tensor:
#      x y z
#    x 1.641460 0.000000 0.000000 
#    y 0.000000 1.658360 0.000000 
#    z 0.000000 0.000000 1.644300 
# 
# From -- ./inp_files/9479.got.cif
#   From: 2010.05.17/outbox.cif.g08.bks.cpg/sg57_5_cif.got.tgz:9479.got - 2010.06.03 13:58:18.
