data_PCOD9436080
_publ_section_title
;
Structure prediction by ZEFSAII (Michael W. Deem and Ramdas Pophale) SiO2 
 PCOD9436080
Probable space group: P B C M
;
_chemical_formula_sum "Si O2"
_cell_formula_units_Z 64
_cell_length_a 19.530825
_cell_length_b 4.904150
_cell_length_c 29.994723
_cell_angle_alpha 90.000000
_cell_angle_beta 90.000000
_cell_angle_gamma 90.000000
_cell_volume 2872.957421
_symmetry_space_group_name_H-M "P B C M"
_symmetry_group_IT_number 57
_symmetry_cell_setting 'orthorhombic'
loop_
_space_group_symop_operation_xyz
x,y,z
-x,-y,1/2+z
x,1/2-y,-z
-x,1/2+y,1/2-z
-x,-y,-z
x,y,1/2-z
-x,1/2+y,z
x,1/2-y,1/2+z
loop_
_atom_site_type_symbol
_atom_site_label
_atom_site_fract_x
_atom_site_fract_y
_atom_site_fract_z
Si Si1 0.861687 0.501185 0.529902
Si Si2 0.322794 0.728098 0.391118
Si Si3 0.953622 0.228812 0.604923
Si Si4 0.213414 0.351492 0.298894
Si Si5 0.690497 0.147327 0.702670
Si Si6 0.455499 0.723834 0.053116
Si Si7 0.047922 0.681252 0.798130
Si Si8 0.227934 0.271775 0.894440
O O1 0.832620 0.250000 0.500000
O O2 0.910409 0.337344 0.563904
O O3 0.810930 0.666940 0.562176
O O4 0.892952 0.750000 0.500000
O O5 0.350142 0.793322 0.341729
O O6 0.382445 0.779874 0.425593
O O7 0.294318 0.422833 0.391527
O O8 0.256718 0.923460 0.398078
O O9 0.978578 0.918188 0.602879
O O10 0.919379 0.253356 0.654242
O O11 0.179293 0.302914 0.250000
O O12 0.241848 0.658481 0.300007
O O13 0.185608 0.271533 0.347985
O O14 0.280396 0.157093 0.297707
O O15 0.656766 0.204683 0.750000
O O16 0.484055 0.429812 0.065921
O O17 0.448069 0.750000 0.000000
O O18 0.082524 0.729362 0.750000
O O19 0.980461 0.874649 0.798280
#
# Coordination Sequence:
#
# PCOD9436080 Si02
#       8
#     8   8   8   8   8   8   8   8
#     4  12  26  41  56  78 111 143 178 232 277 307
#     4  10  19  34  58  79 104 143 177 210 260 326
#     4  10  21  38  60  82 105 141 186 223 264 324
#     4   8  14  27  48  73 102 132 166 209 254 309
#     4   8  14  25  45  74 102 132 169 206 249 303
#     4  10  21  36  53  76 104 134 175 226 267 301
#     4   8  14  27  50  79 107 133 165 210 264 318
#     4  10  21  36  54  81 109 138 177 215 266 326
#
# _framework density 22.276696000000001
#
# number of rings (size 3 to 8) (size 9 to 14) (size 15 to 20)
#    0.000    2.500    0.000    2.250    0.000    3.000 
#    0.000    0.625    0.000    0.750    0.000   19.250 
#    0.000    0.000    0.000    0.000    0.000    0.000 
#
# Total GULP energy -356924.106713 kJ/mol
# GULP energy per Si atom -5576.939167 kJ/mol
# Density = 2.222599 g / cm^3
# Si number density = 22.276696 Si / 1000 Ang^3
#
#
#
# Elastic Constant Matrix: (Units=GPa)
#
#
# Indices 1 2 3 4 5 6 
#
# 1 37.2431 6.0808 28.8793 0.0000 0.0000 0.0000
# 2 6.0808 72.9867 21.6623 0.0000 0.0000 0.0000
# 3 28.8793 21.6623 144.0161 0.0000 0.0000 0.0000
# 4 0.0000 0.0000 0.0000 38.1318 0.0000 0.0000
# 5 0.0000 0.0000 0.0000 0.0000 46.1209 0.0000
# 6 0.0000 0.0000 0.0000 0.0000 0.0000 17.1150
#
#
#
# Elastic Compliance Matrix: (Units=1/GPa)
#
#
# Indices 1 2 3 4 5 6 
#
# 1 0.031838 -0.000793 -0.006265 0.000000 0.000000 0.000000
# 2 -0.000793 0.014361 -0.002001 0.000000 0.000000 0.000000
# 3 -0.006265 -0.002001 0.008501 0.000000 0.000000 0.000000
# 4 0.000000 0.000000 0.000000 0.026225 0.000000 0.000000
# 5 0.000000 0.000000 0.000000 0.000000 0.021682 0.000000
# 6 0.000000 0.000000 0.000000 0.000000 0.000000 0.058428
#
#
# Mechanical properties :
#
#
# Convention : Reuss Voigt Hill
#
# Bulk Modulus (GPa) = 27.33607 40.83228 34.08418
# Shear Modulus (GPa) = 26.13038 33.44846 29.78942
#
# Velocity S-wave (km/s) = 3.42861 3.87912 3.66080
# Velocity P-wave (km/s) = 5.28882 6.19942 5.76214
#
# Compressibility (1/GPa) = 0.03658170
#
# Stress axis : x y z
#
# Youngs Moduli (GPa) = 31.40875 69.63246 117.63301
#
# Poissons Ratio (x) = 0.05522 0.73699
# Poissons Ratio (y) = 0.02491 0.23540
# Poissons Ratio (z) = 0.19678 0.13934
#
# Static dielectric constant tensor:
#      x y z
#    x 1.761750 0.000000 0.000000 
#    y 0.000000 1.805510 0.000000 
#    z 0.000000 0.000000 1.922480 
# 
# From -- ./inp_files/28917.got.cif
#   From: 2010.05.17/outbox.cif.g08.bks.cpg/sg57_15_cif.got.tgz:28917.got - 2010.06.03 13:58:18.
