data_PCOD9436570
_publ_section_title
;
Structure prediction by ZEFSAII (Michael W. Deem and Ramdas Pophale) SiO2 
 PCOD9436570
Probable space group: P B C M
;
_chemical_formula_sum "Si O2"
_cell_formula_units_Z 64
_cell_length_a 14.511060
_cell_length_b 30.540220
_cell_length_c 8.668930
_cell_angle_alpha 90.000000
_cell_angle_beta 90.000000
_cell_angle_gamma 90.000000
_cell_volume 3841.818072
_symmetry_space_group_name_H-M "P B C M"
_symmetry_group_IT_number 57
_symmetry_cell_setting 'orthorhombic'
loop_
_space_group_symop_operation_xyz
x,y,z
-x,-y,1/2+z
x,1/2-y,-z
-x,1/2+y,1/2-z
-x,-y,-z
x,y,1/2-z
-x,1/2+y,z
x,1/2-y,1/2+z
loop_
_atom_site_type_symbol
_atom_site_label
_atom_site_fract_x
_atom_site_fract_y
_atom_site_fract_z
Si Si1 0.876649 0.121412 0.566437
Si Si2 0.709346 0.421686 0.567804
Si Si3 0.681468 0.591742 0.068887
Si Si4 0.491716 0.950501 0.937285
Si Si5 0.997077 0.797897 0.065754
Si Si6 0.843289 0.862594 0.067086
Si Si7 0.808114 0.504926 0.432246
Si Si8 0.971270 0.937895 0.932836
O O1 0.877726 0.122028 0.750000
O O2 0.773115 0.115346 0.507706
O O3 0.930158 0.164985 0.510310
O O4 0.936541 0.079160 0.513503
O O5 0.707924 0.414732 0.750000
O O6 0.604586 0.428600 0.513256
O O7 0.761402 0.466864 0.528128
O O8 0.678343 0.603371 0.250000
O O9 0.579517 0.578600 0.015159
O O10 0.741013 0.546997 0.055951
O O11 0.737873 0.628897 0.978293
O O12 0.492745 0.953190 0.750000
O O13 0.500000 0.000000 0.000000
O O14 0.006356 0.795752 0.250000
O O15 0.894476 0.816934 0.033483
O O16 0.011797 0.750000 0.000000
O O17 0.856178 0.871662 0.250000
O O18 0.901439 0.897706 0.968722
O O19 0.812980 0.493046 0.250000
O O20 0.909449 0.520763 0.485749
O O21 0.986292 0.942067 0.750000
#
# Coordination Sequence:
#
# PCOD9436570 Si02
#       8
#     8   8   8   8   8   8   8   8
#     4  10  21  36  50  68  97 128 159 197 241 291
#     4  11  22  32  46  68  93 127 170 211 248 286
#     4   9  17  30  47  67  95 130 167 206 248 287
#     4  10  20  33  48  69  95 127 173 219 253 287
#     4   9  19  34  54  79 102 125 152 187 234 293
#     4   9  17  29  46  73 103 127 156 192 235 289
#     4   9  17  29  45  64  90 126 164 204 248 285
#     4   9  17  30  47  66  91 125 164 200 239 284
#
# _framework density 16.65878
#
# number of rings (size 3 to 8) (size 9 to 14) (size 15 to 20)
#    0.000    2.500    1.250    3.000    0.000    7.000 
#    0.000    0.000    0.000    0.000    0.000    0.875 
#    0.000    0.000    0.000    0.000    0.000    0.000 
#
# Total GULP energy -356681.017042 kJ/mol
# GULP energy per Si atom -5573.140891 kJ/mol
# Density = 1.662086 g / cm^3
# Si number density = 16.658780 Si / 1000 Ang^3
#
#
#
# Elastic Constant Matrix: (Units=GPa)
#
#
# Indices 1 2 3 4 5 6 
#
# 1 150.1801 45.6773 27.8982 0.0000 0.0000 0.0000
# 2 45.6773 75.5665 16.1287 0.0000 0.0000 0.0000
# 3 27.8982 16.1287 24.0308 0.0000 0.0000 0.0000
# 4 0.0000 0.0000 0.0000 23.1268 0.0000 0.0000
# 5 0.0000 0.0000 0.0000 0.0000 20.4643 0.0000
# 6 0.0000 0.0000 0.0000 0.0000 0.0000 15.0384
#
#
#
# Elastic Compliance Matrix: (Units=1/GPa)
#
#
# Indices 1 2 3 4 5 6 
#
# 1 0.009383 -0.003906 -0.008272 0.000000 0.000000 0.000000
# 2 -0.003906 0.017072 -0.006923 0.000000 0.000000 0.000000
# 3 -0.008272 -0.006923 0.055863 0.000000 0.000000 0.000000
# 4 0.000000 0.000000 0.000000 0.043240 0.000000 0.000000
# 5 0.000000 0.000000 0.000000 0.000000 0.048865 0.000000
# 6 0.000000 0.000000 0.000000 0.000000 0.000000 0.066497
#
#
# Mechanical properties :
#
#
# Convention : Reuss Voigt Hill
#
# Bulk Modulus (GPa) = 22.66760 47.68729 35.17744
# Shear Modulus (GPa) = 17.01673 22.39745 19.70709
#
# Velocity S-wave (km/s) = 3.19954 3.67070 3.44319
# Velocity P-wave (km/s) = 5.22359 6.83033 6.08027
#
# Compressibility (1/GPa) = 0.04411584
#
# Stress axis : x y z
#
# Youngs Moduli (GPa) = 106.57119 58.57416 17.90101
#
# Poissons Ratio (x) = 0.22882 0.14807
# Poissons Ratio (y) = 0.41632 0.12393
# Poissons Ratio (z) = 0.88152 0.40552
#
# Static dielectric constant tensor:
#      x y z
#    x 1.615620 0.000000 0.000000 
#    y 0.000000 1.560000 0.000000 
#    z 0.000000 0.000000 1.566790 
# 
# From -- ./inp_files/6080.got.cif
#   From: 2010.05.17/outbox.cif.g08.bks.cpg/sg57_4_cif.got.tgz:6080.got - 2010.06.03 13:58:18.
