data_PCOD9436744
_publ_section_title
;
Structure prediction by ZEFSAII (Michael W. Deem and Ramdas Pophale) SiO2 
 PCOD9436744
Probable space group: P B C M
;
_chemical_formula_sum "Si O2"
_cell_formula_units_Z 64
_cell_length_a 7.822138
_cell_length_b 30.711279
_cell_length_c 13.910786
_cell_angle_alpha 90.000000
_cell_angle_beta 90.000000
_cell_angle_gamma 90.000000
_cell_volume 3341.758386
_symmetry_space_group_name_H-M "P B C M"
_symmetry_group_IT_number 57
_symmetry_cell_setting 'orthorhombic'
loop_
_space_group_symop_operation_xyz
x,y,z
-x,-y,1/2+z
x,1/2-y,-z
-x,1/2+y,1/2-z
-x,-y,-z
x,y,1/2-z
-x,1/2+y,z
x,1/2-y,1/2+z
loop_
_atom_site_type_symbol
_atom_site_label
_atom_site_fract_x
_atom_site_fract_y
_atom_site_fract_z
Si Si1 0.211431 0.844518 0.863004
Si Si2 0.416565 0.407386 0.042933
Si Si3 0.620123 0.647896 0.136790
Si Si4 0.125300 0.361277 0.356637
Si Si5 0.247363 0.926837 0.524138
Si Si6 0.083383 0.298988 0.535287
Si Si7 0.681134 0.995124 0.358860
Si Si8 0.949706 0.043853 0.645925
O O1 0.180157 0.848573 0.750000
O O2 0.417955 0.839481 0.875132
O O3 0.154108 0.889549 0.915655
O O4 0.092151 0.807106 0.906592
O O5 0.316053 0.377752 0.118306
O O6 0.386170 0.457142 0.072524
O O7 0.353208 0.392439 0.937271
O O8 0.618687 0.401279 0.042459
O O9 0.646923 0.638683 0.250000
O O10 0.755812 0.683671 0.098789
O O11 0.114351 0.342543 0.250000
O O12 0.072751 0.328866 0.440036
O O13 0.018200 0.406256 0.358287
O O14 0.152506 0.959425 0.452399
O O15 0.347319 0.957068 0.599846
O O16 0.106807 0.250000 0.500000
O O17 0.616066 0.989951 0.250000
O O18 0.885439 0.986976 0.355038
O O19 0.861750 0.037769 0.750000
#
# Coordination Sequence:
#
# PCOD9436744 Si02
#       8
#     8   8   8   8   8   8   8   8
#     4  10  21  38  60  87 119 154 191 236 286 343
#     4   9  19  33  54  78 104 145 190 237 282 334
#     4   9  20  39  60  85 119 153 191 236 287 345
#     4   9  18  36  55  74 106 147 181 225 285 341
#     4  11  19  33  54  80 109 147 193 235 286 334
#     4  11  22  37  62  89 115 148 189 233 289 350
#     4  10  20  34  50  74 109 151 192 234 285 335
#     4   9  18  32  50  71 105 144 182 230 277 326
#
# _framework density 19.151595
#
# number of rings (size 3 to 8) (size 9 to 14) (size 15 to 20)
#    0.000    2.250    1.250    2.625    0.000    3.000 
#    0.000    0.625    0.000    0.000    0.000    0.000 
#    0.000    0.000    0.000    0.000    0.000    0.000 
#
# Total GULP energy -356477.867293 kJ/mol
# GULP energy per Si atom -5569.966676 kJ/mol
# Density = 1.910800 g / cm^3
# Si number density = 19.151595 Si / 1000 Ang^3
#
#
#
# Elastic Constant Matrix: (Units=GPa)
#
#
# Indices 1 2 3 4 5 6 
#
# 1 36.6091 6.1378 33.3910 0.0000 0.0000 0.0000
# 2 6.1378 57.0901 24.9894 0.0000 0.0000 0.0000
# 3 33.3910 24.9894 119.1695 0.0000 0.0000 0.0000
# 4 0.0000 0.0000 0.0000 18.9337 0.0000 0.0000
# 5 0.0000 0.0000 0.0000 0.0000 23.0479 0.0000
# 6 0.0000 0.0000 0.0000 0.0000 0.0000 13.7693
#
#
#
# Elastic Compliance Matrix: (Units=1/GPa)
#
#
# Indices 1 2 3 4 5 6 
#
# 1 0.036713 0.000612 -0.010415 0.000000 0.000000 0.000000
# 2 0.000612 0.019297 -0.004218 0.000000 0.000000 0.000000
# 3 -0.010415 -0.004218 0.012194 0.000000 0.000000 0.000000
# 4 0.000000 0.000000 0.000000 0.052816 0.000000 0.000000
# 5 0.000000 0.000000 0.000000 0.000000 0.043388 0.000000
# 6 0.000000 0.000000 0.000000 0.000000 0.000000 0.072625
#
#
# Mechanical properties :
#
#
# Convention : Reuss Voigt Hill
#
# Bulk Modulus (GPa) = 24.89966 37.98945 31.44456
# Shear Modulus (GPa) = 17.95581 21.04022 19.49801
#
# Velocity S-wave (km/s) = 3.06529 3.31813 3.19421
# Velocity P-wave (km/s) = 5.05545 5.87871 5.48255
#
# Compressibility (1/GPa) = 0.04016119
#
# Stress axis : x y z
#
# Youngs Moduli (GPa) = 27.23864 51.82246 82.00647
#
# Poissons Ratio (x) = -0.03171 0.85410
# Poissons Ratio (y) = -0.01667 0.34589
# Poissons Ratio (z) = 0.28369 0.21858
#
# Static dielectric constant tensor:
#      x y z
#    x 1.726610 0.000000 0.000000 
#    y 0.000000 1.638880 0.000000 
#    z 0.000000 0.000000 1.697260 
# 
# From -- ./inp_files/12324.got.cif
#   From: 2010.05.17/outbox.cif.g08.bks.cpg/sg57_7_cif.got.tgz:12324.got - 2010.06.03 13:58:18.
