data_PCOD9436988
_publ_section_title
;
Structure prediction by ZEFSAII (Michael W. Deem and Ramdas Pophale) SiO2 
 PCOD9436988
Probable space group: P B C M
;
_chemical_formula_sum "Si O2"
_cell_formula_units_Z 64
_cell_length_a 12.209211
_cell_length_b 32.568662
_cell_length_c 8.528402
_cell_angle_alpha 90.000000
_cell_angle_beta 90.000000
_cell_angle_gamma 90.000000
_cell_volume 3391.213869
_symmetry_space_group_name_H-M "P B C M"
_symmetry_group_IT_number 57
_symmetry_cell_setting 'orthorhombic'
loop_
_space_group_symop_operation_xyz
x,y,z
-x,-y,1/2+z
x,1/2-y,-z
-x,1/2+y,1/2-z
-x,-y,-z
x,y,1/2-z
-x,1/2+y,z
x,1/2-y,1/2+z
loop_
_atom_site_type_symbol
_atom_site_label
_atom_site_fract_x
_atom_site_fract_y
_atom_site_fract_z
Si Si1 0.253883 0.927239 0.562416
Si Si2 0.942780 0.126396 0.435774
Si Si3 0.153081 0.412537 0.430815
Si Si4 0.512336 0.047171 0.562992
Si Si5 0.636970 0.619508 0.431769
Si Si6 0.122351 0.496567 0.935470
Si Si7 0.940892 0.705606 0.562082
Si Si8 0.682255 0.794867 0.062573
O O1 0.251434 0.934020 0.750000
O O2 0.376942 0.932118 0.503549
O O3 0.187340 0.962619 0.474022
O O4 0.182590 0.886218 0.530298
O O5 0.959452 0.120804 0.250000
O O6 0.027736 0.096710 0.525651
O O7 0.982866 0.171021 0.487206
O O8 0.173238 0.401778 0.250000
O O9 0.233711 0.387422 0.541199
O O10 0.175858 0.459730 0.467344
O O11 0.517061 0.044188 0.750000
O O12 0.419754 0.080448 0.515155
O O13 0.500000 0.000000 0.500000
O O14 0.607875 0.618150 0.250000
O O15 0.617777 0.665340 0.498524
O O16 0.122284 0.487663 0.750000
O O17 0.000000 0.500000 0.000000
O O18 0.974315 0.750000 0.500000
O O19 0.947838 0.703113 0.750000
O O20 0.811870 0.700678 0.519453
O O21 0.675713 0.794904 0.250000
O O22 0.647080 0.750000 0.000000
#
# Coordination Sequence:
#
# PCOD9436988 Si02
#       8
#     8   8   8   8   8   8   8   8
#     4  11  24  42  62  87 119 156 201 249 300 360
#     4  11  22  36  58  86 121 157 196 243 298 359
#     4  12  23  36  55  83 119 156 198 244 296 356
#     4  12  26  46  68  90 120 160 211 263 315 374
#     4  12  24  40  63  89 122 162 205 254 310 367
#     4  12  23  36  54  80 114 153 194 240 293 347
#     4  10  20  34  56  85 125 164 202 244 298 363
#     4  10  20  35  57  90 127 164 203 251 308 368
#
# _framework density 18.872299000000002
#
# number of rings (size 3 to 8) (size 9 to 14) (size 15 to 20)
#    0.000    0.750    2.500    6.750    0.000    2.500 
#    0.000    0.000    0.000    0.750    0.000    1.750 
#    0.000    0.000    0.000    0.000    0.000    0.000 
#
# Total GULP energy -357496.106168 kJ/mol
# GULP energy per Si atom -5585.876659 kJ/mol
# Density = 1.882934 g / cm^3
# Si number density = 18.872299 Si / 1000 Ang^3
#
#
#
# Elastic Constant Matrix: (Units=GPa)
#
#
# Indices 1 2 3 4 5 6 
#
# 1 68.4574 20.8031 13.9004 0.0000 0.0000 0.0000
# 2 20.8031 123.6228 20.1073 0.0000 0.0000 0.0000
# 3 13.9004 20.1073 72.2438 0.0000 0.0000 0.0000
# 4 0.0000 0.0000 0.0000 30.0549 0.0000 0.0000
# 5 0.0000 0.0000 0.0000 0.0000 27.8606 0.0000
# 6 0.0000 0.0000 0.0000 0.0000 0.0000 30.8600
#
#
#
# Elastic Compliance Matrix: (Units=1/GPa)
#
#
# Indices 1 2 3 4 5 6 
#
# 1 0.015785 -0.002265 -0.002407 0.000000 0.000000 0.000000
# 2 -0.002265 0.008798 -0.002013 0.000000 0.000000 0.000000
# 3 -0.002407 -0.002013 0.014865 0.000000 0.000000 0.000000
# 4 0.000000 0.000000 0.000000 0.033272 0.000000 0.000000
# 5 0.000000 0.000000 0.000000 0.000000 0.035893 0.000000
# 6 0.000000 0.000000 0.000000 0.000000 0.000000 0.032404
#
#
# Mechanical properties :
#
#
# Convention : Reuss Voigt Hill
#
# Bulk Modulus (GPa) = 38.34534 41.54952 39.94743
# Shear Modulus (GPa) = 30.66000 31.72265 31.19133
#
# Velocity S-wave (km/s) = 4.03501 4.10434 4.06982
# Velocity P-wave (km/s) = 6.48620 6.67269 6.58010
#
# Compressibility (1/GPa) = 0.02607879
#
# Stress axis : x y z
#
# Youngs Moduli (GPa) = 63.35314 113.66709 67.27062
#
# Poissons Ratio (x) = 0.25743 0.16190
# Poissons Ratio (y) = 0.14348 0.13541
# Poissons Ratio (z) = 0.15248 0.22879
#
# Static dielectric constant tensor:
#      x y z
#    x 1.655550 0.000000 0.000000 
#    y 0.000000 1.657200 0.000000 
#    z 0.000000 0.000000 -2.825770 
# 
# From -- ./inp_files/3784.got.cif
#   From: 2010.05.17/outbox.cif.g08.bks.cpg/sg57_2_cif.got.tgz:3784.got - 2010.06.03 13:58:18.
