data_PCOD9436368
_publ_section_title
;
Structure prediction by ZEFSAII (Michael W. Deem and Ramdas Pophale) SiO2 
 PCOD9436368
Probable space group: P B C M
;
_chemical_formula_sum "Si O2"
_cell_formula_units_Z 40
_cell_length_a 10.106628
_cell_length_b 19.591286
_cell_length_c 10.385921
_cell_angle_alpha 90.000000
_cell_angle_beta 90.000000
_cell_angle_gamma 90.000000
_cell_volume 2056.431464
_symmetry_space_group_name_H-M "P B C M"
_symmetry_group_IT_number 57
_symmetry_cell_setting 'orthorhombic'
loop_
_space_group_symop_operation_xyz
x,y,z
-x,-y,1/2+z
x,1/2-y,-z
-x,1/2+y,1/2-z
-x,-y,-z
x,y,1/2-z
-x,1/2+y,z
x,1/2-y,1/2+z
loop_
_atom_site_type_symbol
_atom_site_label
_atom_site_fract_x
_atom_site_fract_y
_atom_site_fract_z
Si Si1 0.815440 0.862361 0.521328
Si Si2 0.857190 0.539524 0.250000
Si Si3 0.112080 0.827130 0.982312
Si Si4 0.595974 0.750000 0.500000
Si Si5 0.802078 0.383842 0.250000
Si Si6 0.489498 0.822785 0.250000
Si Si7 0.261843 0.422932 0.250000
Si Si8 0.167977 0.574564 0.250000
O O1 0.807689 0.922533 0.623409
O O2 0.955546 0.825908 0.549185
O O3 0.695001 0.810718 0.540479
O O4 0.808343 0.893765 0.378236
O O5 0.803195 0.464407 0.250000
O O6 0.017451 0.544773 0.250000
O O7 0.126072 0.860614 0.121030
O O8 0.162825 0.750000 0.000000
O O9 0.179238 0.875401 0.874248
O O10 0.515483 0.777764 0.377794
O O11 0.656758 0.352061 0.250000
O O12 0.594691 0.885746 0.250000
O O13 0.257053 0.505828 0.250000
#
# Coordination Sequence:
#
# PCOD9436368 Si02
#       8
#     8   4   8   4   4   4   4   4
#     4  10  19  36  66  92 120 148 201 258 308 356
#     4  10  21  36  59  92 123 157 190 244 318 362
#     4  11  22  37  60  94 124 157 193 249 317 370
#     4  10  20  42  64  92 114 158 206 262 290 350
#     4  12  25  40  57  84 131 165 199 242 298 378
#     4  10  25  41  64  81 122 167 213 242 294 349
#     4  10  20  37  59  87 114 161 205 247 293 344
#     4  10  21  38  61  90 126 154 197 251 309 361
#
# _framework density 19.451170999999999
#
# number of rings (size 3 to 8) (size 9 to 14) (size 15 to 20)
#    0.000    1.600    1.000    4.200    1.400    3.200 
#    0.000    9.000    0.000    0.000    0.000    0.000 
#    0.000    0.000    0.000    0.000    0.000    0.000 
#
# Total GULP energy -223403.810550 kJ/mol
# GULP energy per Si atom -5585.095264 kJ/mol
# Density = 1.940690 g / cm^3
# Si number density = 19.451171 Si / 1000 Ang^3
#
#
#
# Elastic Constant Matrix: (Units=GPa)
#
#
# Indices 1 2 3 4 5 6 
#
# 1 55.1246 28.2341 15.7048 0.0000 0.0000 0.0000
# 2 28.2341 147.2646 47.0092 0.0000 0.0000 0.0000
# 3 15.7048 47.0092 105.8364 0.0000 0.0000 0.0000
# 4 0.0000 0.0000 0.0000 -58.2474 0.0000 0.0000
# 5 0.0000 0.0000 0.0000 0.0000 2.8032 0.0000
# 6 0.0000 0.0000 0.0000 0.0000 0.0000 24.2831
#
#
#
# Elastic Compliance Matrix: (Units=1/GPa)
#
#
# Indices 1 2 3 4 5 6 
#
# 1 0.020318 -0.003418 -0.001497 0.000000 0.000000 0.000000
# 2 -0.003418 0.008487 -0.003263 0.000000 0.000000 0.000000
# 3 -0.001497 -0.003263 0.011120 0.000000 0.000000 0.000000
# 4 0.000000 0.000000 0.000000 -0.017168 0.000000 0.000000
# 5 0.000000 0.000000 0.000000 0.000000 0.356733 0.000000
# 6 0.000000 0.000000 0.000000 0.000000 0.000000 0.041181
#
#
# Mechanical properties :
#
#
# Convention : Reuss Voigt Hill
#
# Bulk Modulus (GPa) = 42.42594 54.45798 48.44196
# Shear Modulus (GPa) = 11.23895 8.25295 9.74595
#
# Velocity S-wave (km/s) = 2.40636 2.06207 2.24084
# Velocity P-wave (km/s) = 5.43872 5.80754 5.62615
#
# Compressibility (1/GPa) = 0.02357048
#
# Stress axis : x y z
#
# Youngs Moduli (GPa) = 49.21836 117.82445 89.92944
#
# Poissons Ratio (x) = 0.40267 0.13462
# Poissons Ratio (y) = 0.16821 0.29341
# Poissons Ratio (z) = 0.07368 0.38442
#
# Static dielectric constant tensor:
#      x y z
#    x 1.668690 0.000000 0.000000 
#    y 0.000000 1.739330 0.000000 
#    z 0.000000 0.000000 1.645570 
# 
# From -- ./inp_files/2780.got.cif
#   From: 2010.05.17/outbox.cif.g08.bks.cpg/sg57_2_cif.got.tgz:2780.got - 2010.06.03 13:58:18.
