data_PCOD9436005
_publ_section_title
;
Structure prediction by ZEFSAII (Michael W. Deem and Ramdas Pophale) SiO2 
 PCOD9436005
Probable space group: P B C M
;
_chemical_formula_sum "Si O2"
_cell_formula_units_Z 48
_cell_length_a 7.700197
_cell_length_b 9.243486
_cell_length_c 29.393402
_cell_angle_alpha 90.000000
_cell_angle_beta 90.000000
_cell_angle_gamma 90.000000
_cell_volume 2092.124273
_symmetry_space_group_name_H-M "P B C M"
_symmetry_group_IT_number 57
_symmetry_cell_setting 'orthorhombic'
loop_
_space_group_symop_operation_xyz
x,y,z
-x,-y,1/2+z
x,1/2-y,-z
-x,1/2+y,1/2-z
-x,-y,-z
x,y,1/2-z
-x,1/2+y,z
x,1/2-y,1/2+z
loop_
_atom_site_type_symbol
_atom_site_label
_atom_site_fract_x
_atom_site_fract_y
_atom_site_fract_z
Si Si1 0.831686 0.236161 0.144428
Si Si2 0.335961 0.158771 0.300952
Si Si3 0.254659 0.708702 0.949449
Si Si4 0.975570 0.516671 0.802086
Si Si5 0.531364 0.910762 0.146416
Si Si6 0.478433 0.458001 0.552747
O O1 0.867701 0.232365 0.090469
O O2 0.956900 0.343326 0.171672
O O3 0.642101 0.309458 0.145493
O O4 0.845725 0.082449 0.168899
O O5 0.394560 0.194910 0.250000
O O6 0.150811 0.080948 0.299157
O O7 0.332996 0.303453 0.330655
O O8 0.466372 0.044011 0.323340
O O9 0.441958 0.795836 0.945934
O O10 0.289661 0.536786 0.940859
O O11 0.192075 0.750000 0.000000
O O12 0.918480 0.546299 0.750000
O O13 0.574982 0.968900 0.096024
O O14 0.500000 0.500000 0.500000
#
# Coordination Sequence:
#
# PCOD9436005 Si02
#       6
#     8   8   8   8   8   8
#     4  10  21  37  56  78 109 146 187 231 272 327
#     4  10  21  35  52  77 108 138 176 226 278 330
#     4   9  18  34  57  85 116 148 181 223 277 334
#     4  10  22  39  56  76 107 150 192 228 274 333
#     4  10  19  34  56  82 108 138 177 228 278 322
#     4   9  17  31  53  82 114 144 175 214 266 328
#
# _framework density 22.943187000000002
#
# number of rings (size 3 to 8) (size 9 to 14) (size 15 to 20)
#    0.000    2.333    0.000    3.000    0.000    4.667 
#    0.000    0.833    0.000    4.000    0.000    0.000 
#    0.000    0.000    0.000    0.000    0.000    0.000 
#
# Total GULP energy -267504.279855 kJ/mol
# GULP energy per Si atom -5573.005830 kJ/mol
# Density = 2.289097 g / cm^3
# Si number density = 22.943187 Si / 1000 Ang^3
#
#
#
# Elastic Constant Matrix: (Units=GPa)
#
#
# Indices 1 2 3 4 5 6 
#
# 1 45.3230 14.6512 20.6123 0.0000 0.0000 0.0000
# 2 14.6512 110.6470 43.0518 0.0000 0.0000 0.0000
# 3 20.6123 43.0518 184.7781 0.0000 0.0000 0.0000
# 4 0.0000 0.0000 0.0000 35.8663 0.0000 0.0000
# 5 0.0000 0.0000 0.0000 0.0000 22.5975 0.0000
# 6 0.0000 0.0000 0.0000 0.0000 0.0000 -21.4473
#
#
#
# Elastic Compliance Matrix: (Units=1/GPa)
#
#
# Indices 1 2 3 4 5 6 
#
# 1 0.023776 -0.002327 -0.002110 0.000000 0.000000 0.000000
# 2 -0.002327 0.010167 -0.002109 0.000000 0.000000 0.000000
# 3 -0.002110 -0.002109 0.006139 0.000000 0.000000 0.000000
# 4 0.000000 0.000000 0.000000 0.027881 0.000000 0.000000
# 5 0.000000 0.000000 0.000000 0.000000 0.044253 0.000000
# 6 0.000000 0.000000 0.000000 0.000000 0.000000 -0.046626
#
#
# Mechanical properties :
#
#
# Convention : Reuss Voigt Hill
#
# Bulk Modulus (GPa) = 37.05313 55.26427 46.15870
# Shear Modulus (GPa) = 57.02696 24.89883 40.96289
#
# Velocity S-wave (km/s) = 4.99096 3.29787 4.22999
# Velocity P-wave (km/s) = 7.02837 6.21619 6.63472
#
# Compressibility (1/GPa) = 0.02698827
#
# Stress axis : x y z
#
# Youngs Moduli (GPa) = 42.05961 98.36177 162.90156
#
# Poissons Ratio (x) = 0.22891 0.34372
# Poissons Ratio (y) = 0.09788 0.34358
# Poissons Ratio (z) = 0.08875 0.20746
#
# Static dielectric constant tensor:
#      x y z
#    x 1.916710 0.000000 0.000000 
#    y 0.000000 1.927020 0.000000 
#    z 0.000000 0.000000 1.900440 
# 
# From -- ./inp_files/29476.got.cif
#   From: 2010.05.17/outbox.cif.g08.bks.cpg/sg57_15_cif.got.tgz:29476.got - 2010.06.03 13:58:18.
