data_PCOD9436160
_publ_section_title
;
Structure prediction by ZEFSAII (Michael W. Deem and Ramdas Pophale) SiO2 
 PCOD9436160
Probable space group: P B C M
;
_chemical_formula_sum "Si O2"
_cell_formula_units_Z 64
_cell_length_a 19.987544
_cell_length_b 10.396955
_cell_length_c 15.332876
_cell_angle_alpha 90.000000
_cell_angle_beta 90.000000
_cell_angle_gamma 90.000000
_cell_volume 3186.318760
_symmetry_space_group_name_H-M "P B C M"
_symmetry_group_IT_number 57
_symmetry_cell_setting 'orthorhombic'
loop_
_space_group_symop_operation_xyz
x,y,z
-x,-y,1/2+z
x,1/2-y,-z
-x,1/2+y,1/2-z
-x,-y,-z
x,y,1/2-z
-x,1/2+y,z
x,1/2-y,1/2+z
loop_
_atom_site_type_symbol
_atom_site_label
_atom_site_fract_x
_atom_site_fract_y
_atom_site_fract_z
Si Si1 0.154992 0.987817 0.087205
Si Si2 0.916587 0.245503 0.347231
Si Si3 0.293656 0.408238 0.899920
Si Si4 0.704966 0.609604 0.611604
Si Si5 0.555928 0.904049 0.895100
Si Si6 0.154866 0.478672 0.120661
Si Si7 0.071786 0.267666 0.895255
Si Si8 0.445233 0.107176 0.891774
O O1 0.230068 0.005121 0.123965
O O2 0.107231 0.097814 0.127103
O O3 0.122860 0.848342 0.095436
O O4 0.157561 0.017848 0.984487
O O5 0.911731 0.298233 0.250000
O O6 0.994264 0.233932 0.370858
O O7 0.882366 0.106699 0.350879
O O8 0.282268 0.260762 0.871235
O O9 0.368339 0.443227 0.869869
O O10 0.295749 0.404606 0.005938
O O11 0.767877 0.532612 0.648146
O O12 0.629914 0.574925 0.639469
O O13 0.542436 0.756438 0.867590
O O14 0.501221 0.005879 0.863735
O O15 0.554891 0.899483 0.001665
O O16 0.112772 0.351748 0.144218
O O17 0.074632 0.250000 0.000000
#
# Coordination Sequence:
#
# PCOD9436160 Si02
#       8
#     8   8   8   8   8   8   8   8
#     4  10  19  35  57  78  99 129 172 215 253 294
#     4  12  26  38  48  72 109 138 162 202 261 312
#     4   8  13  25  46  69  93 127 168 206 241 285
#     4   8  13  25  46  69  93 127 168 206 241 285
#     4   8  13  21  34  57  94 133 161 186 229 289
#     4  10  19  35  57  78  99 129 172 215 253 294
#     4  10  20  36  60  80  95 124 172 216 253 300
#     4   8  13  21  34  57  94 133 161 186 229 289
#
# _framework density 20.085875000000001
#
# number of rings (size 3 to 8) (size 9 to 14) (size 15 to 20)
#    0.000    2.750    1.250    3.375    0.000    4.000 
#    2.250    0.000    0.000    0.000    0.000    0.000 
#    0.000    1.000    0.000    0.000    0.500    0.000 
#
# Total GULP energy -357018.863589 kJ/mol
# GULP energy per Si atom -5578.419744 kJ/mol
# Density = 2.004016 g / cm^3
# Si number density = 20.085875 Si / 1000 Ang^3
#
#
#
# Elastic Constant Matrix: (Units=GPa)
#
#
# Indices 1 2 3 4 5 6 
#
# 1 205.2972 97.6495 12.2327 0.0000 0.0000 0.0000
# 2 97.6495 108.7057 2.0589 0.0000 0.0000 0.0000
# 3 12.2327 2.0589 30.4059 0.0000 0.0000 0.0000
# 4 0.0000 0.0000 0.0000 -22.4984 0.0000 0.0000
# 5 0.0000 0.0000 0.0000 0.0000 -6.6974 0.0000
# 6 0.0000 0.0000 0.0000 0.0000 0.0000 23.1272
#
#
#
# Elastic Compliance Matrix: (Units=1/GPa)
#
#
# Indices 1 2 3 4 5 6 
#
# 1 0.008770 -0.007821 -0.002999 0.000000 0.000000 0.000000
# 2 -0.007821 0.016186 0.002050 0.000000 0.000000 0.000000
# 3 -0.002999 0.002050 0.033956 0.000000 0.000000 0.000000
# 4 0.000000 0.000000 0.000000 -0.044448 0.000000 0.000000
# 5 0.000000 0.000000 0.000000 0.000000 -0.149311 0.000000
# 6 0.000000 0.000000 0.000000 0.000000 0.000000 0.043239
#
#
# Mechanical properties :
#
#
# Convention : Reuss Voigt Hill
#
# Bulk Modulus (GPa) = 24.17019 63.14346 43.65682
# Shear Modulus (GPa) = -82.94765 14.28411 -34.33177
#
# Velocity S-wave (km/s) = -6.43321 2.66964 -4.13879
# Velocity P-wave (km/s) = 6.56673 6.40372 1.02820
#
# Compressibility (1/GPa) = 0.04137327
#
# Stress axis : x y z
#
# Youngs Moduli (GPa) = 114.02898 61.78241 29.44996
#
# Poissons Ratio (x) = 0.48320 0.08831
# Poissons Ratio (y) = 0.89182 -0.06039
# Poissons Ratio (z) = 0.34192 -0.12668
#
# Static dielectric constant tensor:
#      x y z
#    x 1.709090 0.000000 0.000000 
#    y 0.000000 1.664000 0.000000 
#    z 0.000000 0.000000 1.738720 
# 
# From -- ./inp_files/23010.got.cif
#   From: 2010.05.17/outbox.cif.g08.bks.cpg/sg57_12_cif.got.tgz:23010.got - 2010.06.03 13:58:18.
