data_PCOD9436885
_publ_section_title
;
Structure prediction by ZEFSAII (Michael W. Deem and Ramdas Pophale) SiO2 
 PCOD9436885
Probable space group: P B C M
;
_chemical_formula_sum "Si O2"
_cell_formula_units_Z 64
_cell_length_a 23.463643
_cell_length_b 15.301389
_cell_length_c 8.827182
_cell_angle_alpha 90.000000
_cell_angle_beta 90.000000
_cell_angle_gamma 90.000000
_cell_volume 3169.190748
_symmetry_space_group_name_H-M "P B C M"
_symmetry_group_IT_number 57
_symmetry_cell_setting 'orthorhombic'
loop_
_space_group_symop_operation_xyz
x,y,z
-x,-y,1/2+z
x,1/2-y,-z
-x,1/2+y,1/2-z
-x,-y,-z
x,y,1/2-z
-x,1/2+y,z
x,1/2-y,1/2+z
loop_
_atom_site_type_symbol
_atom_site_label
_atom_site_fract_x
_atom_site_fract_y
_atom_site_fract_z
Si Si1 0.284414 0.837523 0.418873
Si Si2 0.686470 0.522997 0.567706
Si Si3 0.561649 0.501063 0.922468
Si Si4 0.120704 0.477783 0.571709
Si Si5 0.106259 0.658011 0.070069
Si Si6 0.580953 0.169115 0.920507
Si Si7 0.972015 0.842848 0.932327
Si Si8 0.774475 0.844965 0.928781
O O1 0.260582 0.750000 0.500000
O O2 0.259482 0.848378 0.250000
O O3 0.351761 0.816660 0.400473
O O4 0.286970 0.931763 0.502816
O O5 0.684955 0.515872 0.750000
O O6 0.620761 0.541197 0.513802
O O7 0.724380 0.602958 0.512310
O O8 0.555321 0.528620 0.750000
O O9 0.500000 0.500000 0.000000
O O10 0.577961 0.401006 0.946702
O O11 0.113198 0.497072 0.750000
O O12 0.133868 0.568989 0.490459
O O13 0.064455 0.426163 0.514473
O O14 0.170549 0.407028 0.554930
O O15 0.111889 0.662673 0.250000
O O16 0.038805 0.648425 0.030301
O O17 0.125505 0.750000 0.000000
O O18 0.559730 0.147106 0.750000
O O19 0.550770 0.250000 0.000000
O O20 0.966288 0.838306 0.750000
O O21 0.951916 0.750000 0.000000
O O22 0.762258 0.836602 0.750000
O O23 0.783787 0.750000 0.000000
#
# Coordination Sequence:
#
# PCOD9436885 Si02
#       8
#     8   8   8   8   8   8   8   8
#     4   9  16  28  50  80 111 141 173 210 256 313
#     4  10  21  38  59  83 113 148 186 230 282 338
#     4  10  20  34  54  80 109 141 177 219 270 329
#     4  10  21  37  57  83 115 151 197 250 299 351
#     4  10  20  34  55  83 118 159 197 239 296 358
#     4   9  16  27  45  70 101 134 166 202 246 300
#     4   9  18  32  52  82 118 155 196 244 298 355
#     4  11  24  42  64  87 113 149 194 246 298 346
#
# _framework density 20.194430000000001
#
# number of rings (size 3 to 8) (size 9 to 14) (size 15 to 20)
#    0.000    2.250    0.000    3.000    0.000    6.500 
#    0.000    1.250    0.000    6.000    0.000    0.000 
#    0.000    0.000    0.000    0.000    0.000    0.000 
#
# Total GULP energy -356435.765902 kJ/mol
# GULP energy per Si atom -5569.308842 kJ/mol
# Density = 2.014847 g / cm^3
# Si number density = 20.194430 Si / 1000 Ang^3
#
#
#
# Elastic Constant Matrix: (Units=GPa)
#
#
# Indices 1 2 3 4 5 6 
#
# 1 51.6973 19.0844 29.3198 0.0000 0.0000 0.0000
# 2 19.0844 125.5028 49.9005 0.0000 0.0000 0.0000
# 3 29.3198 49.9005 61.3829 0.0000 0.0000 0.0000
# 4 0.0000 0.0000 0.0000 34.0472 0.0000 0.0000
# 5 0.0000 0.0000 0.0000 0.0000 12.5762 0.0000
# 6 0.0000 0.0000 0.0000 0.0000 0.0000 6.9450
#
#
#
# Elastic Compliance Matrix: (Units=1/GPa)
#
#
# Indices 1 2 3 4 5 6 
#
# 1 0.026719 0.001494 -0.013977 0.000000 0.000000 0.000000
# 2 0.001494 0.011857 -0.010353 0.000000 0.000000 0.000000
# 3 -0.013977 -0.010353 0.031384 0.000000 0.000000 0.000000
# 4 0.000000 0.000000 0.000000 0.029371 0.000000 0.000000
# 5 0.000000 0.000000 0.000000 0.000000 0.079515 0.000000
# 6 0.000000 0.000000 0.000000 0.000000 0.000000 0.143989
#
#
# Mechanical properties :
#
#
# Convention : Reuss Voigt Hill
#
# Bulk Modulus (GPa) = 41.17218 48.35469 44.76344
# Shear Modulus (GPa) = 13.27661 20.06557 16.67109
#
# Velocity S-wave (km/s) = 2.56684 3.15559 2.87632
# Velocity P-wave (km/s) = 5.40528 6.10521 5.76587
#
# Compressibility (1/GPa) = 0.02428824
#
# Stress axis : x y z
#
# Youngs Moduli (GPa) = 37.42684 84.33796 31.86362
#
# Poissons Ratio (x) = -0.12604 0.44537
# Poissons Ratio (y) = -0.05593 0.32988
# Poissons Ratio (z) = 0.52312 0.87314
#
# Static dielectric constant tensor:
#      x y z
#    x 1.892730 0.000000 0.000000 
#    y 0.000000 1.616950 0.000000 
#    z 0.000000 0.000000 1.735100 
# 
# From -- ./inp_files/9293.got.cif
#   From: 2010.05.17/outbox.cif.g08.bks.cpg/sg57_5_cif.got.tgz:9293.got - 2010.06.03 13:58:18.
