data_PCOD9436313
_publ_section_title
;
Structure prediction by ZEFSAII (Michael W. Deem and Ramdas Pophale) SiO2 
 PCOD9436313
Probable space group: P B C M
;
_chemical_formula_sum "Si O2"
_cell_formula_units_Z 56
_cell_length_a 12.135850
_cell_length_b 11.143298
_cell_length_c 21.703145
_cell_angle_alpha 90.000000
_cell_angle_beta 90.000000
_cell_angle_gamma 90.000000
_cell_volume 2934.989938
_symmetry_space_group_name_H-M "P B C M"
_symmetry_group_IT_number 57
_symmetry_cell_setting 'orthorhombic'
loop_
_space_group_symop_operation_xyz
x,y,z
-x,-y,1/2+z
x,1/2-y,-z
-x,1/2+y,1/2-z
-x,-y,-z
x,y,1/2-z
-x,1/2+y,z
x,1/2-y,1/2+z
loop_
_atom_site_type_symbol
_atom_site_label
_atom_site_fract_x
_atom_site_fract_y
_atom_site_fract_z
Si Si1 0.905756 0.185360 0.324929
Si Si2 0.563126 0.665318 0.182229
Si Si3 0.716088 0.897804 0.182918
Si Si4 0.973721 0.575581 0.679289
Si Si5 0.623554 0.017988 0.576412
Si Si6 0.333107 0.774718 0.620639
Si Si7 0.371816 0.497513 0.445205
O O1 0.908998 0.183115 0.250000
O O2 0.779499 0.183999 0.347008
O O3 0.958524 0.311581 0.347094
O O4 0.966615 0.061465 0.346089
O O5 0.559930 0.608063 0.250000
O O6 0.645011 0.777349 0.184357
O O7 0.609455 0.576312 0.130894
O O8 0.440582 0.708686 0.163846
O O9 0.693266 0.959711 0.250000
O O10 0.846899 0.881181 0.181113
O O11 0.683359 0.955925 0.118146
O O12 0.013433 0.562211 0.750000
O O13 0.679663 0.137716 0.600379
O O14 0.496659 0.049820 0.559224
O O15 0.672967 0.966310 0.512763
O O16 0.362512 0.858682 0.562183
#
# Coordination Sequence:
#
# PCOD9436313 Si02
#       7
#     8   8   8   8   8   8   8
#     4  10  20  34  56  84 116 155 199 249 304 362
#     4  10  22  35  53  86 123 153 186 237 293 350
#     4  10  19  36  59  84 115 153 191 235 294 352
#     4   9  19  35  56  83 114 151 196 245 301 358
#     4  10  22  35  53  85 119 155 192 235 286 350
#     4  11  20  35  56  85 112 153 196 243 288 354
#     4  10  20  36  57  81 116 155 195 234 285 353
#
# _framework density 19.080133
#
# number of rings (size 3 to 8) (size 9 to 14) (size 15 to 20)
#    0.000    2.000    2.857    0.857    0.000    5.143 
#    0.000    2.857    0.000    0.857    3.714    0.000 
#    0.000    0.000    0.000    0.000    0.000    0.000 
#
# Total GULP energy -311787.331946 kJ/mol
# GULP energy per Si atom -5567.630928 kJ/mol
# Density = 1.903671 g / cm^3
# Si number density = 19.080133 Si / 1000 Ang^3
#
#
#
# Elastic Constant Matrix: (Units=GPa)
#
#
# Indices 1 2 3 4 5 6 
#
# 1 29.5723 32.5919 14.0008 0.0000 0.0000 0.0000
# 2 32.5919 102.5251 35.9493 0.0000 0.0000 0.0000
# 3 14.0008 35.9493 133.5103 0.0000 0.0000 0.0000
# 4 0.0000 0.0000 0.0000 13.6054 0.0000 0.0000
# 5 0.0000 0.0000 0.0000 0.0000 37.0442 0.0000
# 6 0.0000 0.0000 0.0000 0.0000 0.0000 27.5918
#
#
#
# Elastic Compliance Matrix: (Units=1/GPa)
#
#
# Indices 1 2 3 4 5 6 
#
# 1 0.052201 -0.016205 -0.001111 0.000000 0.000000 0.000000
# 2 -0.016205 0.015801 -0.002555 0.000000 0.000000 0.000000
# 3 -0.001111 -0.002555 0.008295 0.000000 0.000000 0.000000
# 4 0.000000 0.000000 0.000000 0.073500 0.000000 0.000000
# 5 0.000000 0.000000 0.000000 0.000000 0.026995 0.000000
# 6 0.000000 0.000000 0.000000 0.000000 0.000000 0.036243
#
#
# Mechanical properties :
#
#
# Convention : Reuss Voigt Hill
#
# Bulk Modulus (GPa) = 27.35626 47.85463 37.60545
# Shear Modulus (GPa) = 18.87075 27.85266 23.36171
#
# Velocity S-wave (km/s) = 3.14829 3.82484 3.50294
# Velocity P-wave (km/s) = 5.25208 6.68141 6.00939
#
# Compressibility (1/GPa) = 0.03655470
#
# Stress axis : x y z
#
# Youngs Moduli (GPa) = 19.15688 63.28704 120.56050
#
# Poissons Ratio (x) = 1.02554 0.13392
# Poissons Ratio (y) = 0.31043 0.30807
# Poissons Ratio (z) = 0.02128 0.16172
#
# Static dielectric constant tensor:
#      x y z
#    x 1.647020 0.000000 0.000000 
#    y 0.000000 1.726620 0.000000 
#    z 0.000000 0.000000 1.722100 
# 
# From -- ./inp_files/25042.got.cif
#   From: 2010.05.17/outbox.cif.g08.bks.cpg/sg57_13_cif.got.tgz:25042.got - 2010.06.03 13:58:18.
