data_PCOD9436154
_publ_section_title
;
Structure prediction by ZEFSAII (Michael W. Deem and Ramdas Pophale) SiO2 
 PCOD9436154
Probable space group: P B C M
;
_chemical_formula_sum "Si O2"
_cell_formula_units_Z 64
_cell_length_a 13.670401
_cell_length_b 10.428182
_cell_length_c 21.816744
_cell_angle_alpha 90.000000
_cell_angle_beta 90.000000
_cell_angle_gamma 90.000000
_cell_volume 3110.138948
_symmetry_space_group_name_H-M "P B C M"
_symmetry_group_IT_number 57
_symmetry_cell_setting 'orthorhombic'
loop_
_space_group_symop_operation_xyz
x,y,z
-x,-y,1/2+z
x,1/2-y,-z
-x,1/2+y,1/2-z
-x,-y,-z
x,y,1/2-z
-x,1/2+y,z
x,1/2-y,1/2+z
loop_
_atom_site_type_symbol
_atom_site_label
_atom_site_fract_x
_atom_site_fract_y
_atom_site_fract_z
Si Si1 0.014739 0.876618 0.460780
Si Si2 0.429135 0.250174 0.074102
Si Si3 0.430027 0.529280 0.941749
Si Si4 0.089403 0.304143 0.352134
Si Si5 0.987725 0.437488 0.817808
Si Si6 0.766968 0.335994 0.437981
Si Si7 0.304142 0.126460 0.818752
Si Si8 0.763655 0.341225 0.679655
O O1 0.020844 0.750000 0.500000
O O2 0.121778 0.884853 0.429494
O O3 0.918409 0.862848 0.419493
O O4 0.000000 0.000000 0.500000
O O5 0.526367 0.335852 0.080573
O O6 0.355599 0.315825 0.121582
O O7 0.441473 0.103007 0.094522
O O8 0.402514 0.250000 0.000000
O O9 0.314926 0.555531 0.949461
O O10 0.500000 0.500000 0.000000
O O11 0.015159 0.408189 0.321267
O O12 0.193270 0.320112 0.321436
O O13 0.052318 0.158628 0.357879
O O14 0.020196 0.400944 0.750000
O O15 0.876139 0.390475 0.826605
O O16 0.763668 0.250000 0.500000
O O17 0.743980 0.254811 0.376311
O O18 0.343816 0.155525 0.750000
O O19 0.298438 0.972232 0.825088
O O20 0.752877 0.291131 0.750000
#
# Coordination Sequence:
#
# PCOD9436154 Si02
#       8
#     8   8   8   8   8   8   8   8
#     4  11  25  39  57  92 134 173 218 276 331 387
#     4  10  23  42  68  97 129 162 214 270 328 396
#     4  10  23  42  67 101 125 167 214 269 331 397
#     4  11  21  37  59  85 126 171 216 257 318 377
#     4  10  19  35  56  82 114 161 215 258 301 368
#     4  11  23  39  67  94 132 171 222 276 330 393
#     4  10  23  41  65  95 133 176 219 267 332 400
#     4   9  20  39  63  93 126 170 220 266 324 391
#
# _framework density 20.577857999999999
#
# number of rings (size 3 to 8) (size 9 to 14) (size 15 to 20)
#    0.000    1.750    1.250    3.750   10.500    2.500 
#    0.000    1.875    0.000    0.000    0.000    0.000 
#    0.000    0.000    0.000    0.000    0.000    0.000 
#
# Total GULP energy -356316.166923 kJ/mol
# GULP energy per Si atom -5567.440108 kJ/mol
# Density = 2.053102 g / cm^3
# Si number density = 20.577858 Si / 1000 Ang^3
#
#
#
# Elastic Constant Matrix: (Units=GPa)
#
#
# Indices 1 2 3 4 5 6 
#
# 1 46.8713 15.8226 30.0492 0.0000 0.0000 0.0000
# 2 15.8226 87.4938 28.5580 0.0000 0.0000 0.0000
# 3 30.0492 28.5580 109.4156 0.0000 0.0000 0.0000
# 4 0.0000 0.0000 0.0000 35.7029 0.0000 0.0000
# 5 0.0000 0.0000 0.0000 0.0000 65.0689 0.0000
# 6 0.0000 0.0000 0.0000 0.0000 0.0000 20.0175
#
#
#
# Elastic Compliance Matrix: (Units=1/GPa)
#
#
# Indices 1 2 3 4 5 6 
#
# 1 0.026439 -0.002636 -0.006573 0.000000 0.000000 0.000000
# 2 -0.002636 0.012757 -0.002606 0.000000 0.000000 0.000000
# 3 -0.006573 -0.002606 0.011625 0.000000 0.000000 0.000000
# 4 0.000000 0.000000 0.000000 0.028009 0.000000 0.000000
# 5 0.000000 0.000000 0.000000 0.000000 0.015368 0.000000
# 6 0.000000 0.000000 0.000000 0.000000 0.000000 0.049956
#
#
# Mechanical properties :
#
#
# Convention : Reuss Voigt Hill
#
# Bulk Modulus (GPa) = 36.77675 43.62670 40.20172
# Shear Modulus (GPa) = 28.27318 35.44793 31.86056
#
# Velocity S-wave (km/s) = 3.71072 4.15495 3.93910
# Velocity P-wave (km/s) = 6.02246 6.65320 6.34567
#
# Compressibility (1/GPa) = 0.02719110
#
# Stress axis : x y z
#
# Youngs Moduli (GPa) = 37.82324 78.39128 86.02361
#
# Poissons Ratio (x) = 0.20662 0.56543
# Poissons Ratio (y) = 0.09969 0.22415
# Poissons Ratio (z) = 0.24861 0.20426
#
# Static dielectric constant tensor:
#      x y z
#    x 1.744160 0.000000 0.000000 
#    y 0.000000 1.758340 0.000000 
#    z 0.000000 0.000000 1.838740 
# 
# From -- ./inp_files/27454.got.cif
#   From: 2010.05.17/outbox.cif.g08.bks.cpg/sg57_14_cif.got.tgz:27454.got - 2010.06.03 13:58:18.
