data_PCOD9436353
_publ_section_title
;
Structure prediction by ZEFSAII (Michael W. Deem and Ramdas Pophale) SiO2 
 PCOD9436353
Probable space group: P B C M
;
_chemical_formula_sum "Si O2"
_cell_formula_units_Z 64
_cell_length_a 12.194524
_cell_length_b 31.473507
_cell_length_c 8.987099
_cell_angle_alpha 90.000000
_cell_angle_beta 90.000000
_cell_angle_gamma 90.000000
_cell_volume 3449.288467
_symmetry_space_group_name_H-M "P B C M"
_symmetry_group_IT_number 57
_symmetry_cell_setting 'orthorhombic'
loop_
_space_group_symop_operation_xyz
x,y,z
-x,-y,1/2+z
x,1/2-y,-z
-x,1/2+y,1/2-z
-x,-y,-z
x,y,1/2-z
-x,1/2+y,z
x,1/2-y,1/2+z
loop_
_atom_site_type_symbol
_atom_site_label
_atom_site_fract_x
_atom_site_fract_y
_atom_site_fract_z
Si Si1 0.871024 0.375801 0.070463
Si Si2 0.976342 0.954702 0.072391
Si Si3 0.487352 0.293841 0.570604
Si Si4 0.520941 0.954443 0.570831
Si Si5 0.760452 0.919386 0.924609
Si Si6 0.985598 0.706570 0.927659
Si Si7 0.240945 0.182469 0.074936
Si Si8 0.368601 0.624137 0.429903
O O1 0.861762 0.375735 0.250000
O O2 0.936063 0.418534 0.026309
O O3 0.943195 0.334603 0.027810
O O4 0.751608 0.374301 0.998889
O O5 0.980456 0.958341 0.250000
O O6 0.857763 0.938460 0.020936
O O7 0.000000 0.000000 0.000000
O O8 0.527398 0.250000 0.500000
O O9 0.489831 0.291206 0.750000
O O10 0.360227 0.301064 0.526683
O O11 0.559698 0.334593 0.527041
O O12 0.515502 0.957680 0.750000
O O13 0.642425 0.937940 0.532811
O O14 0.433305 0.918571 0.524607
O O15 0.500000 0.000000 0.500000
O O16 0.779899 0.929389 0.750000
O O17 0.757567 0.868541 0.938341
O O18 0.987465 0.709922 0.750000
O O19 0.028304 0.750000 0.000000
O O20 0.861214 0.699810 0.983044
O O21 0.225675 0.193045 0.250000
O O22 0.361420 0.624040 0.250000
#
# Coordination Sequence:
#
# PCOD9436353 Si02
#       8
#     8   8   8   8   8   8   8   8
#     4  10  24  43  60  83 119 155 194 246 295 342
#     4  11  24  42  62  89 122 156 198 247 296 351
#     4  10  21  38  59  87 119 153 192 239 289 345
#     4  10  22  40  61  89 121 155 195 243 291 346
#     4  10  20  38  64  90 121 158 195 240 296 351
#     4  11  23  40  60  87 120 154 195 244 294 349
#     4  10  19  36  62  89 120 155 192 236 292 351
#     4  10  22  41  62  84 116 156 198 239 288 350
#
# _framework density 18.554551
#
# number of rings (size 3 to 8) (size 9 to 14) (size 15 to 20)
#    0.000    1.750    2.500    1.125    1.750    5.500 
#    0.000    2.500    0.000    0.000    0.000    0.000 
#    0.000    0.000    0.000    0.000    0.000    0.000 
#
# Total GULP energy -357587.796340 kJ/mol
# GULP energy per Si atom -5587.309318 kJ/mol
# Density = 1.851232 g / cm^3
# Si number density = 18.554551 Si / 1000 Ang^3
#
#
#
# Elastic Constant Matrix: (Units=GPa)
#
#
# Indices 1 2 3 4 5 6 
#
# 1 144.5693 85.0722 42.8150 0.0000 0.0000 0.0000
# 2 85.0722 171.3009 48.8922 0.0000 0.0000 0.0000
# 3 42.8150 48.8922 28.2157 0.0000 0.0000 0.0000
# 4 0.0000 0.0000 0.0000 35.0769 0.0000 0.0000
# 5 0.0000 0.0000 0.0000 0.0000 -69.7571 0.0000
# 6 0.0000 0.0000 0.0000 0.0000 0.0000 344.5001
#
#
#
# Elastic Compliance Matrix: (Units=1/GPa)
#
#
# Indices 1 2 3 4 5 6 
#
# 1 0.012782 -0.001607 -0.016612 0.000000 0.000000 0.000000
# 2 -0.001607 0.011752 -0.017926 0.000000 0.000000 0.000000
# 3 -0.016612 -0.017926 0.091711 0.000000 0.000000 0.000000
# 4 0.000000 0.000000 0.000000 0.028509 0.000000 0.000000
# 5 0.000000 0.000000 0.000000 0.000000 -0.014335 0.000000
# 6 0.000000 0.000000 0.000000 0.000000 0.000000 0.002903
#
#
# Mechanical properties :
#
#
# Convention : Reuss Voigt Hill
#
# Bulk Modulus (GPa) = 22.75012 77.51607 50.13309
# Shear Modulus (GPa) = 22.70022 73.11774 47.90898
#
# Velocity S-wave (km/s) = 3.50155 6.28430 5.08691
# Velocity P-wave (km/s) = 5.35123 9.72238 7.84730
#
# Compressibility (1/GPa) = 0.04395582
#
# Stress axis : x y z
#
# Youngs Moduli (GPa) = 78.23317 85.09273 10.90384
#
# Poissons Ratio (x) = 0.13671 0.18114
# Poissons Ratio (y) = 0.12569 0.19546
# Poissons Ratio (z) = 1.29962 1.52535
#
# Static dielectric constant tensor:
#      x y z
#    x 1.609100 0.000000 0.000000 
#    y 0.000000 1.632560 0.000000 
#    z 0.000000 0.000000 1.629580 
# 
# From -- ./inp_files/3733.got.cif
#   From: 2010.05.17/outbox.cif.g08.bks.cpg/sg57_2_cif.got.tgz:3733.got - 2010.06.03 13:58:18.
