data_PCOD9436600
_publ_section_title
;
Structure prediction by ZEFSAII (Michael W. Deem and Ramdas Pophale) SiO2 
 PCOD9436600
Probable space group: P B C M
;
_chemical_formula_sum "Si O2"
_cell_formula_units_Z 48
_cell_length_a 32.370852
_cell_length_b 9.908613
_cell_length_c 8.752673
_cell_angle_alpha 90.000000
_cell_angle_beta 90.000000
_cell_angle_gamma 90.000000
_cell_volume 2807.422009
_symmetry_space_group_name_H-M "P B C M"
_symmetry_group_IT_number 57
_symmetry_cell_setting 'orthorhombic'
loop_
_space_group_symop_operation_xyz
x,y,z
-x,-y,1/2+z
x,1/2-y,-z
-x,1/2+y,1/2-z
-x,-y,-z
x,y,1/2-z
-x,1/2+y,z
x,1/2-y,1/2+z
loop_
_atom_site_type_symbol
_atom_site_label
_atom_site_fract_x
_atom_site_fract_y
_atom_site_fract_z
Si Si1 0.965556 0.098459 0.933266
Si Si2 0.466331 0.100737 0.566763
Si Si3 0.790620 0.402020 0.567274
Si Si4 0.627711 0.898700 0.065849
Si Si5 0.300595 0.900512 0.565737
Si Si6 0.126449 0.901601 0.067624
O O1 0.968920 0.106106 0.750000
O O2 0.919188 0.044067 0.969986
O O3 0.969513 0.250000 0.000000
O O4 0.000000 0.000000 0.000000
O O5 0.472903 0.250000 0.500000
O O6 0.469252 0.104571 0.750000
O O7 0.419210 0.060062 0.524914
O O8 0.500000 0.000000 0.500000
O O9 0.789616 0.250000 0.500000
O O10 0.794298 0.395767 0.750000
O O11 0.745192 0.457540 0.526975
O O12 0.832181 0.468016 0.500391
O O13 0.629656 0.891420 0.250000
O O14 0.662425 0.003513 0.012953
O O15 0.635006 0.750000 0.000000
O O16 0.304579 0.750000 0.500000
O O17 0.302256 0.890910 0.750000
O O18 0.130528 0.894841 0.250000
O O19 0.125586 0.750000 0.000000
#
# Coordination Sequence:
#
# PCOD9436600 Si02
#       6
#     8   8   8   8   8   8
#     4  10  20  33  50  72  98 128 162 201 244 291
#     4  10  20  35  54  75 100 130 164 203 246 291
#     4   9  15  24  41  64  91 120 150 190 236 278
#     4   9  19  35  52  71  97 129 163 197 235 284
#     4   9  18  31  47  71  99 124 156 196 237 280
#     4   9  16  26  42  65  92 121 155 193 234 282
#
# _framework density 17.097536999999999
#
# number of rings (size 3 to 8) (size 9 to 14) (size 15 to 20)
#    0.000    2.667    0.000    3.000    0.000    4.667 
#    0.000    1.667    0.000    1.000    0.000    4.667 
#    0.000    0.000    0.000    0.000    0.000    0.000 
#
# Total GULP energy -267331.684245 kJ/mol
# GULP energy per Si atom -5569.410088 kJ/mol
# Density = 1.705862 g / cm^3
# Si number density = 17.097537 Si / 1000 Ang^3
#
#
#
# Elastic Constant Matrix: (Units=GPa)
#
#
# Indices 1 2 3 4 5 6 
#
# 1 211.8843 84.7602 60.7246 0.0000 0.0000 0.0000
# 2 84.7602 52.1280 24.5987 0.0000 0.0000 0.0000
# 3 60.7246 24.5987 49.0760 0.0000 0.0000 0.0000
# 4 0.0000 0.0000 0.0000 22.6917 0.0000 0.0000
# 5 0.0000 0.0000 0.0000 0.0000 24.5344 0.0000
# 6 0.0000 0.0000 0.0000 0.0000 0.0000 26.4742
#
#
#
# Elastic Compliance Matrix: (Units=1/GPa)
#
#
# Indices 1 2 3 4 5 6 
#
# 1 0.015975 -0.021805 -0.008837 0.000000 0.000000 0.000000
# 2 -0.021805 0.054890 -0.000532 0.000000 0.000000 0.000000
# 3 -0.008837 -0.000532 0.031578 0.000000 0.000000 0.000000
# 4 0.000000 0.000000 0.000000 0.044069 0.000000 0.000000
# 5 0.000000 0.000000 0.000000 0.000000 0.040759 0.000000
# 6 0.000000 0.000000 0.000000 0.000000 0.000000 0.037773
#
#
# Mechanical properties :
#
#
# Convention : Reuss Voigt Hill
#
# Bulk Modulus (GPa) = 24.94137 72.58392 48.76264
# Shear Modulus (GPa) = 16.62473 24.27371 20.44922
#
# Velocity S-wave (km/s) = 3.12163 3.77200 3.46212
# Velocity P-wave (km/s) = 5.25472 7.84319 6.67562
#
# Compressibility (1/GPa) = 0.04009404
#
# Stress axis : x y z
#
# Youngs Moduli (GPa) = 62.59801 18.21836 31.66758
#
# Poissons Ratio (x) = 0.39725 0.27985
# Poissons Ratio (y) = 1.36496 0.01685
# Poissons Ratio (z) = 0.55319 0.00969
#
# Static dielectric constant tensor:
#      x y z
#    x 1.646510 0.000000 0.000000 
#    y 0.000000 1.539610 0.000000 
#    z 0.000000 0.000000 1.576610 
# 
# From -- ./inp_files/10233.got.cif
#   From: 2010.05.17/outbox.cif.g08.bks.cpg/sg57_6_cif.got.tgz:10233.got - 2010.06.03 13:58:18.
