data_PCOD9436092
_publ_section_title
;
Structure prediction by ZEFSAII (Michael W. Deem and Ramdas Pophale) SiO2 
 PCOD9436092
Probable space group: P B C M
;
_chemical_formula_sum "Si O2"
_cell_formula_units_Z 64
_cell_length_a 24.080522
_cell_length_b 15.062785
_cell_length_c 9.108632
_cell_angle_alpha 90.000000
_cell_angle_beta 90.000000
_cell_angle_gamma 90.000000
_cell_volume 3303.880499
_symmetry_space_group_name_H-M "P B C M"
_symmetry_group_IT_number 57
_symmetry_cell_setting 'orthorhombic'
loop_
_space_group_symop_operation_xyz
x,y,z
-x,-y,1/2+z
x,1/2-y,-z
-x,1/2+y,1/2-z
-x,-y,-z
x,y,1/2-z
-x,1/2+y,z
x,1/2-y,1/2+z
loop_
_atom_site_type_symbol
_atom_site_label
_atom_site_fract_x
_atom_site_fract_y
_atom_site_fract_z
Si Si1 0.605980 0.163761 0.915953
Si Si2 0.253259 0.038708 0.426977
Si Si3 0.871566 0.968057 0.574805
Si Si4 0.649571 0.846420 0.073916
Si Si5 0.039399 0.343988 0.074655
Si Si6 0.559829 0.505898 0.925135
Si Si7 0.089883 0.842054 0.424548
Si Si8 0.261013 0.663560 0.914901
O O1 0.583675 0.156427 0.750000
O O2 0.672320 0.174329 0.904692
O O3 0.583377 0.250000 0.000000
O O4 0.593870 0.076164 0.008027
O O5 0.264053 0.038918 0.250000
O O6 0.298824 0.097849 0.507662
O O7 0.190012 0.069393 0.451955
O O8 0.254437 0.935575 0.477014
O O9 0.882323 0.962812 0.750000
O O10 0.874397 0.072209 0.534448
O O11 0.918971 0.916255 0.489284
O O12 0.655498 0.838564 0.250000
O O13 0.594140 0.904292 0.043201
O O14 0.647153 0.750000 0.000000
O O15 0.044532 0.337969 0.250000
O O16 0.974753 0.363199 0.039199
O O17 0.052775 0.250000 0.000000
O O18 0.554997 0.497303 0.750000
O O19 0.500000 0.500000 0.000000
O O20 0.104954 0.750000 0.500000
O O21 0.093015 0.829919 0.250000
O O22 0.237181 0.663085 0.750000
O O23 0.239842 0.750000 0.000000
#
# Coordination Sequence:
#
# PCOD9436092 Si02
#       8
#     8   8   8   8   8   8   8   8
#     4  10  19  34  58  86 118 152 187 231 281 337
#     4  10  21  39  60  84 117 157 196 240 292 345
#     4  10  21  36  56  83 116 151 193 243 294 347
#     4  11  25  44  67  91 118 156 201 244 291 345
#     4  10  20  35  56  80 110 148 193 243 297 352
#     4  11  24  41  63  92 123 156 195 242 292 346
#     4   9  19  35  55  82 115 152 192 238 293 354
#     4   9  18  32  54  82 111 146 184 225 277 335
#
# _framework density 19.37116
#
# number of rings (size 3 to 8) (size 9 to 14) (size 15 to 20)
#    0.000    2.000    1.250    1.875    0.000    5.500 
#    0.000    1.250    0.000    0.000    0.000    0.000 
#    0.000    0.000    0.000    0.000    0.000    0.000 
#
# Total GULP energy -357341.912782 kJ/mol
# GULP energy per Si atom -5583.467387 kJ/mol
# Density = 1.932707 g / cm^3
# Si number density = 19.371160 Si / 1000 Ang^3
#
#
#
# Elastic Constant Matrix: (Units=GPa)
#
#
# Indices 1 2 3 4 5 6 
#
# 1 101.8912 57.5855 54.6125 0.0000 0.0000 0.0000
# 2 57.5855 141.2162 64.0320 0.0000 0.0000 0.0000
# 3 54.6125 64.0320 74.0493 0.0000 0.0000 0.0000
# 4 0.0000 0.0000 0.0000 36.9716 0.0000 0.0000
# 5 0.0000 0.0000 0.0000 0.0000 7.2709 0.0000
# 6 0.0000 0.0000 0.0000 0.0000 0.0000 -3.5594
#
#
#
# Elastic Compliance Matrix: (Units=1/GPa)
#
#
# Indices 1 2 3 4 5 6 
#
# 1 0.016566 -0.001999 -0.010489 0.000000 0.000000 0.000000
# 2 -0.001999 0.011890 -0.008807 0.000000 0.000000 0.000000
# 3 -0.010489 -0.008807 0.028856 0.000000 0.000000 0.000000
# 4 0.000000 0.000000 0.000000 0.027048 0.000000 0.000000
# 5 0.000000 0.000000 0.000000 0.000000 0.137534 0.000000
# 6 0.000000 0.000000 0.000000 0.000000 0.000000 -0.280944
#
#
# Mechanical properties :
#
#
# Convention : Reuss Voigt Hill
#
# Bulk Modulus (GPa) = 67.92784 74.40186 71.16485
# Shear Modulus (GPa) = -432.82650 17.53173 -207.64739
#
# Velocity S-wave (km/s) = -14.96408 3.01166 -10.36469
# Velocity P-wave (km/s) = 16.23029 7.11234 10.31593
#
# Compressibility (1/GPa) = 0.01472150
#
# Stress axis : x y z
#
# Youngs Moduli (GPa) = 60.36313 84.10408 34.65494
#
# Poissons Ratio (x) = 0.16816 0.36350
# Poissons Ratio (y) = 0.12069 0.30520
# Poissons Ratio (z) = 0.63315 0.74070
#
# Static dielectric constant tensor:
#      x y z
#    x 1.692750 0.000000 0.000000 
#    y 0.000000 1.664500 0.000000 
#    z 0.000000 0.000000 1.661560 
# 
# From -- ./inp_files/9290.got.cif
#   From: 2010.05.17/outbox.cif.g08.bks.cpg/sg57_5_cif.got.tgz:9290.got - 2010.06.03 13:58:18.
