data_PCOD9436942
_publ_section_title
;
Structure prediction by ZEFSAII (Michael W. Deem and Ramdas Pophale) SiO2 
 PCOD9436942
Probable space group: P B C M
;
_chemical_formula_sum "Si O2"
_cell_formula_units_Z 64
_cell_length_a 21.073436
_cell_length_b 20.202826
_cell_length_c 8.730621
_cell_angle_alpha 90.000000
_cell_angle_beta 90.000000
_cell_angle_gamma 90.000000
_cell_volume 3717.000434
_symmetry_space_group_name_H-M "P B C M"
_symmetry_group_IT_number 57
_symmetry_cell_setting 'orthorhombic'
loop_
_space_group_symop_operation_xyz
x,y,z
-x,-y,1/2+z
x,1/2-y,-z
-x,1/2+y,1/2-z
-x,-y,-z
x,y,1/2-z
-x,1/2+y,z
x,1/2-y,1/2+z
loop_
_atom_site_type_symbol
_atom_site_label
_atom_site_fract_x
_atom_site_fract_y
_atom_site_fract_z
Si Si1 0.679514 0.538132 0.934470
Si Si2 0.011934 0.681084 0.933599
Si Si3 0.130382 0.320274 0.566750
Si Si4 0.177851 0.456652 0.433648
Si Si5 0.560557 0.038910 0.566206
Si Si6 0.367361 0.180854 0.566136
Si Si7 0.938789 0.462291 0.066738
Si Si8 0.515607 0.180838 0.566087
O O1 0.671852 0.535619 0.750000
O O2 0.751410 0.519086 0.972477
O O3 0.668422 0.614553 0.982107
O O4 0.625093 0.493790 0.008111
O O5 0.004177 0.686360 0.750000
O O6 0.052612 0.615659 0.967300
O O7 0.038074 0.750000 0.000000
O O8 0.942369 0.672242 0.008401
O O9 0.153618 0.250000 0.500000
O O10 0.131537 0.318623 0.750000
O O11 0.167122 0.383777 0.503480
O O12 0.172451 0.451615 0.250000
O O13 0.123635 0.504820 0.496604
O O14 0.557578 0.035935 0.750000
O O15 0.553090 0.115484 0.518015
O O16 0.500000 0.000000 0.500000
O O17 0.343034 0.250000 0.500000
O O18 0.365239 0.184708 0.750000
O O19 0.441479 0.173446 0.519421
O O20 0.938180 0.470547 0.250000
O O21 0.000000 0.500000 0.000000
O O22 0.539479 0.250000 0.500000
O O23 0.516509 0.184257 0.750000
#
# Coordination Sequence:
#
# PCOD9436942 Si02
#       8
#     8   8   8   8   8   8   8   8
#     4  10  22  39  55  77 111 148 184 229 276 326
#     4  10  20  34  55  83 112 141 179 227 280 329
#     4  11  21  34  54  78 111 149 188 228 272 328
#     4  11  23  38  56  79 112 150 189 231 280 331
#     4  11  21  35  57  83 110 142 183 228 274 326
#     4   9  17  32  50  73 107 141 180 220 263 316
#     4  11  22  36  58  84 112 145 185 230 277 330
#     4   9  18  32  52  79 109 138 174 221 269 318
#
# _framework density 17.218185999999999
#
# number of rings (size 3 to 8) (size 9 to 14) (size 15 to 20)
#    0.000    1.750    2.500    3.375    0.000    4.500 
#    0.000    1.250    0.000    0.750    0.000    0.000 
#    0.000    0.000    0.000    0.000    0.000    0.000 
#
# Total GULP energy -357360.329026 kJ/mol
# GULP energy per Si atom -5583.755141 kJ/mol
# Density = 1.717900 g / cm^3
# Si number density = 17.218186 Si / 1000 Ang^3
#
#
#
# Elastic Constant Matrix: (Units=GPa)
#
#
# Indices 1 2 3 4 5 6 
#
# 1 113.0426 75.0881 46.7374 0.0000 0.0000 0.0000
# 2 75.0881 140.6053 52.2256 0.0000 0.0000 0.0000
# 3 46.7374 52.2256 64.1167 0.0000 0.0000 0.0000
# 4 0.0000 0.0000 0.0000 33.7158 0.0000 0.0000
# 5 0.0000 0.0000 0.0000 0.0000 21.7438 0.0000
# 6 0.0000 0.0000 0.0000 0.0000 0.0000 22.3373
#
#
#
# Elastic Compliance Matrix: (Units=1/GPa)
#
#
# Indices 1 2 3 4 5 6 
#
# 1 0.015385 -0.005808 -0.006484 0.000000 0.000000 0.000000
# 2 -0.005808 0.012390 -0.005858 0.000000 0.000000 0.000000
# 3 -0.006484 -0.005858 0.025095 0.000000 0.000000 0.000000
# 4 0.000000 0.000000 0.000000 0.029660 0.000000 0.000000
# 5 0.000000 0.000000 0.000000 0.000000 0.045990 0.000000
# 6 0.000000 0.000000 0.000000 0.000000 0.000000 0.044768
#
#
# Mechanical properties :
#
#
# Convention : Reuss Voigt Hill
#
# Bulk Modulus (GPa) = 60.35309 73.98522 67.16916
# Shear Modulus (GPa) = 23.24387 25.14029 24.19208
#
# Velocity S-wave (km/s) = 3.67817 3.82527 3.75244
# Velocity P-wave (km/s) = 7.29154 7.91030 7.60721
#
# Compressibility (1/GPa) = 0.01656916
#
# Stress axis : x y z
#
# Youngs Moduli (GPa) = 64.99957 80.71315 39.84852
#
# Poissons Ratio (x) = 0.46875 0.25838
# Poissons Ratio (y) = 0.37749 0.23345
# Poissons Ratio (z) = 0.42146 0.47285
#
# Static dielectric constant tensor:
#      x y z
#    x 1.566990 0.000000 0.000000 
#    y 0.000000 1.590360 0.000000 
#    z 0.000000 0.000000 1.580700 
# 
# From -- ./inp_files/7209.got.cif
#   From: 2010.05.17/outbox.cif.g08.bks.cpg/sg57_4_cif.got.tgz:7209.got - 2010.06.03 13:58:18.
