data_PCOD9436465
_publ_section_title
;
Structure prediction by ZEFSAII (Michael W. Deem and Ramdas Pophale) SiO2 
 PCOD9436465
Probable space group: P B C M
;
_chemical_formula_sum "Si O2"
_cell_formula_units_Z 44
_cell_length_a 8.447019
_cell_length_b 16.196716
_cell_length_c 15.656521
_cell_angle_alpha 90.000000
_cell_angle_beta 90.000000
_cell_angle_gamma 90.000000
_cell_volume 2142.030760
_symmetry_space_group_name_H-M "P B C M"
_symmetry_group_IT_number 57
_symmetry_cell_setting 'orthorhombic'
loop_
_space_group_symop_operation_xyz
x,y,z
-x,-y,1/2+z
x,1/2-y,-z
-x,1/2+y,1/2-z
-x,-y,-z
x,y,1/2-z
-x,1/2+y,z
x,1/2-y,1/2+z
loop_
_atom_site_type_symbol
_atom_site_label
_atom_site_fract_x
_atom_site_fract_y
_atom_site_fract_z
Si Si1 0.848364 0.373429 0.653447
Si Si2 0.100366 0.392709 0.986172
Si Si3 0.828709 0.197918 0.585620
Si Si4 0.506711 0.150804 0.848944
Si Si5 0.653560 0.750000 0.000000
Si Si6 0.643569 0.001708 0.433174
O O1 0.852955 0.402624 0.750000
O O2 0.997790 0.403617 0.598470
O O3 0.855350 0.274079 0.649496
O O4 0.691544 0.411323 0.608360
O O5 0.981286 0.354493 0.057414
O O6 0.233302 0.323774 0.970157
O O7 0.198163 0.470171 0.019432
O O8 0.783764 0.250000 0.500000
O O9 0.689276 0.141640 0.622036
O O10 0.497301 0.176221 0.750000
O O11 0.407568 0.067119 0.864107
O O12 0.441287 0.216267 0.918293
O O13 0.500000 0.000000 0.500000
#
# Coordination Sequence:
#
# PCOD9436465 Si02
#       6
#     8   8   8   8   4   8
#     4  11  22  38  60  95 125 157 212 272 318 375
#     4  10  21  41  64  86 121 171 208 250 322 391
#     4  10  19  40  65  87 123 162 213 255 318 383
#     4  11  23  39  63  94 127 170 215 264 327 389
#     4  10  20  38  62  90 128 158 216 264 316 388
#     4  11  24  42  64  87 128 174 212 262 325 394
#
# _framework density 20.541253000000001
#
# number of rings (size 3 to 8) (size 9 to 14) (size 15 to 20)
#    0.000    1.455    3.636    3.818    2.545    0.727 
#    0.000    6.364    0.000    0.000    0.000    0.000 
#    0.000    0.000    0.000    0.000    0.000    0.000 
#
# Total GULP energy -245625.888636 kJ/mol
# GULP energy per Si atom -5582.406560 kJ/mol
# Density = 2.049450 g / cm^3
# Si number density = 20.541253 Si / 1000 Ang^3
#
#
#
# Elastic Constant Matrix: (Units=GPa)
#
#
# Indices 1 2 3 4 5 6 
#
# 1 111.1341 25.1754 61.4614 0.0000 0.0000 0.0000
# 2 25.1754 61.5460 28.7054 0.0000 0.0000 0.0000
# 3 61.4614 28.7054 131.5076 0.0000 0.0000 0.0000
# 4 0.0000 0.0000 0.0000 17.9977 0.0000 0.0000
# 5 0.0000 0.0000 0.0000 0.0000 2.8765 0.0000
# 6 0.0000 0.0000 0.0000 0.0000 0.0000 32.0552
#
#
#
# Elastic Compliance Matrix: (Units=1/GPa)
#
#
# Indices 1 2 3 4 5 6 
#
# 1 0.012514 -0.002662 -0.005268 0.000000 0.000000 0.000000
# 2 -0.002662 0.018656 -0.002828 0.000000 0.000000 0.000000
# 3 -0.005268 -0.002828 0.010683 0.000000 0.000000 0.000000
# 4 0.000000 0.000000 0.000000 0.055563 0.000000 0.000000
# 5 0.000000 0.000000 0.000000 0.000000 0.347645 0.000000
# 6 0.000000 0.000000 0.000000 0.000000 0.000000 0.031196
#
#
# Mechanical properties :
#
#
# Convention : Reuss Voigt Hill
#
# Bulk Modulus (GPa) = 49.16899 59.43025 54.29962
# Shear Modulus (GPa) = 9.90977 23.17558 16.54267
#
# Velocity S-wave (km/s) = 2.19882 3.36258 2.84093
# Velocity P-wave (km/s) = 5.51680 6.63859 6.10352
#
# Compressibility (1/GPa) = 0.02033802
#
# Stress axis : x y z
#
# Youngs Moduli (GPa) = 79.90793 53.60213 93.60399
#
# Poissons Ratio (x) = 0.14270 0.49307
# Poissons Ratio (y) = 0.21273 0.26471
# Poissons Ratio (z) = 0.42093 0.15159
#
# Static dielectric constant tensor:
#      x y z
#    x 1.737320 0.000000 0.000000 
#    y 0.000000 1.820380 0.000000 
#    z 0.000000 0.000000 1.740930 
# 
# From -- ./inp_files/16207.got.cif
#   From: 2010.05.17/outbox.cif.g08.bks.cpg/sg57_9_cif.got.tgz:16207.got - 2010.06.03 13:58:18.
