data_PCOD9436420
_publ_section_title
;
Structure prediction by ZEFSAII (Michael W. Deem and Ramdas Pophale) SiO2 
 PCOD9436420
Probable space group: P B C M
;
_chemical_formula_sum "Si O2"
_cell_formula_units_Z 64
_cell_length_a 15.563095
_cell_length_b 12.352727
_cell_length_c 15.852605
_cell_angle_alpha 90.000000
_cell_angle_beta 90.000000
_cell_angle_gamma 90.000000
_cell_volume 3047.610424
_symmetry_space_group_name_H-M "P B C M"
_symmetry_group_IT_number 57
_symmetry_cell_setting 'orthorhombic'
loop_
_space_group_symop_operation_xyz
x,y,z
-x,-y,1/2+z
x,1/2-y,-z
-x,1/2+y,1/2-z
-x,-y,-z
x,y,1/2-z
-x,1/2+y,z
x,1/2-y,1/2+z
loop_
_atom_site_type_symbol
_atom_site_label
_atom_site_fract_x
_atom_site_fract_y
_atom_site_fract_z
Si Si1 0.743286 0.032974 0.093935
Si Si2 0.327895 0.928496 0.090812
Si Si3 0.894307 0.317033 0.647460
Si Si4 0.392653 0.705057 0.151768
Si Si5 0.090695 0.355611 0.646870
Si Si6 0.744570 0.783666 0.147839
Si Si7 0.583173 0.865927 0.851902
Si Si8 0.150249 0.581402 0.654766
O O1 0.835373 0.087696 0.111552
O O2 0.672440 0.104482 0.143822
O O3 0.741939 0.907076 0.117485
O O4 0.715956 0.048389 0.997877
O O5 0.359966 0.806720 0.098869
O O6 0.250807 0.944996 0.156940
O O7 0.399939 0.016463 0.109612
O O8 0.886112 0.323671 0.750000
O O9 0.859977 0.200296 0.616918
O O10 0.994544 0.321515 0.625297
O O11 0.394703 0.738877 0.250000
O O12 0.488699 0.674584 0.124899
O O13 0.095835 0.358578 0.750000
O O14 0.168438 0.277875 0.619280
O O15 0.105686 0.477671 0.614527
O O16 0.745202 0.785480 0.250000
O O17 0.660501 0.714566 0.121825
O O18 0.585748 0.874037 0.750000
O O19 0.115262 0.590750 0.750000
#
# Coordination Sequence:
#
# PCOD9436420 Si02
#       8
#     8   8   8   8   8   8   8   8
#     4  12  26  40  60  93 136 170 203 263 327 388
#     4  12  24  43  65  92 132 169 210 254 322 385
#     4  10  21  37  63  95 127 169 216 269 320 378
#     4  11  24  43  68  95 121 162 217 270 315 372
#     4   9  19  36  64  97 123 161 223 273 314 372
#     4  10  21  41  65  93 126 167 214 267 316 373
#     4  10  23  43  70  95 121 163 217 266 311 372
#     4  10  19  37  66  90 118 166 218 266 310 369
#
# _framework density 21.000060000000001
#
# number of rings (size 3 to 8) (size 9 to 14) (size 15 to 20)
#    0.000    1.500    2.500    2.625    3.500    1.000 
#    2.250    0.625    2.750    0.000    0.000    0.000 
#    0.000    0.000    0.000    0.000    0.000    0.000 
#
# Total GULP energy -357678.242401 kJ/mol
# GULP energy per Si atom -5588.722538 kJ/mol
# Density = 2.095226 g / cm^3
# Si number density = 21.000060 Si / 1000 Ang^3
#
#
#
# Elastic Constant Matrix: (Units=GPa)
#
#
# Indices 1 2 3 4 5 6 
#
# 1 116.7116 26.6763 8.7764 0.0000 0.0000 0.0000
# 2 26.6763 106.8107 7.8004 0.0000 0.0000 0.0000
# 3 8.7764 7.8004 32.7615 0.0000 0.0000 0.0000
# 4 0.0000 0.0000 0.0000 16.9224 0.0000 0.0000
# 5 0.0000 0.0000 0.0000 0.0000 -4.0480 0.0000
# 6 0.0000 0.0000 0.0000 0.0000 0.0000 27.2660
#
#
#
# Elastic Compliance Matrix: (Units=1/GPa)
#
#
# Indices 1 2 3 4 5 6 
#
# 1 0.009208 -0.002157 -0.001953 0.000000 0.000000 0.000000
# 2 -0.002157 0.010033 -0.001811 0.000000 0.000000 0.000000
# 3 -0.001953 -0.001811 0.031478 0.000000 0.000000 0.000000
# 4 0.000000 0.000000 0.000000 0.059093 0.000000 0.000000
# 5 0.000000 0.000000 0.000000 0.000000 -0.247037 0.000000
# 6 0.000000 0.000000 0.000000 0.000000 0.000000 0.036676
#
#
# Mechanical properties :
#
#
# Convention : Reuss Voigt Hill
#
# Bulk Modulus (GPa) = 25.72219 38.08777 31.90498
# Shear Modulus (GPa) = -66.00879 22.23014 -21.88932
#
# Velocity S-wave (km/s) = -5.61257 3.25711 -3.23204
# Velocity P-wave (km/s) = 5.45215 5.68519 1.13915
#
# Compressibility (1/GPa) = 0.03887694
#
# Stress axis : x y z
#
# Youngs Moduli (GPa) = 108.60072 99.66752 31.76816
#
# Poissons Ratio (x) = 0.21499 0.06205
# Poissons Ratio (y) = 0.23426 0.05753
# Poissons Ratio (z) = 0.21211 0.18050
#
# Static dielectric constant tensor:
#      x y z
#    x 1.726000 0.000000 0.000000 
#    y 0.000000 1.730510 0.000000 
#    z 0.000000 0.000000 1.809100 
# 
# From -- ./inp_files/22640.got.cif
#   From: 2010.05.17/outbox.cif.g08.bks.cpg/sg57_12_cif.got.tgz:22640.got - 2010.06.03 13:58:18.
