data_PCOD9436498
_publ_section_title
;
Structure prediction by ZEFSAII (Michael W. Deem and Ramdas Pophale) SiO2 
 PCOD9436498
Probable space group: P B C M
;
_chemical_formula_sum "Si O2"
_cell_formula_units_Z 64
_cell_length_a 15.486562
_cell_length_b 31.094942
_cell_length_c 9.102136
_cell_angle_alpha 90.000000
_cell_angle_beta 90.000000
_cell_angle_gamma 90.000000
_cell_volume 4383.167698
_symmetry_space_group_name_H-M "P B C M"
_symmetry_group_IT_number 57
_symmetry_cell_setting 'orthorhombic'
loop_
_space_group_symop_operation_xyz
x,y,z
-x,-y,1/2+z
x,1/2-y,-z
-x,1/2+y,1/2-z
-x,-y,-z
x,y,1/2-z
-x,1/2+y,z
x,1/2-y,1/2+z
loop_
_atom_site_type_symbol
_atom_site_label
_atom_site_fract_x
_atom_site_fract_y
_atom_site_fract_z
Si Si1 0.583597 0.552569 0.418061
Si Si2 0.909976 0.888022 0.428270
Si Si3 0.101702 0.292573 0.082259
Si Si4 0.108480 0.793401 0.419854
Si Si5 0.777664 0.953506 0.927292
Si Si6 0.904335 0.381218 0.924106
Si Si7 0.760920 0.045636 0.423184
Si Si8 0.586855 0.052054 0.582316
O O1 0.569357 0.566321 0.250000
O O2 0.681087 0.563767 0.463606
O O3 0.582947 0.500262 0.418276
O O4 0.504524 0.567348 0.518155
O O5 0.912493 0.889671 0.250000
O O6 0.876404 0.840295 0.473699
O O7 0.849138 0.924195 0.496376
O O8 0.006549 0.892069 0.492533
O O9 0.130105 0.289696 0.250000
O O10 0.996687 0.291898 0.080287
O O11 0.132116 0.250000 0.000000
O O12 0.138537 0.750000 0.500000
O O13 0.135907 0.795212 0.250000
O O14 0.130433 0.836659 0.507593
O O15 0.785900 0.953889 0.750000
O O16 0.782401 0.002032 0.988835
O O17 0.921282 0.375578 0.750000
O O18 0.835351 0.419144 0.943079
O O19 0.753015 0.035662 0.250000
O O20 0.669481 0.062890 0.483685
O O21 0.599539 0.065810 0.750000
#
# Coordination Sequence:
#
# PCOD9436498 Si02
#       8
#     8   8   8   8   8   8   8   8
#     4   8  15  27  42  61  83 106 135 173 217 260
#     4  10  20  32  45  62  86 116 148 182 219 257
#     4   8  15  26  41  61  81 104 134 169 212 255
#     4   9  16  27  44  64  85 109 138 176 220 261
#     4  10  20  32  46  63  84 114 150 184 216 254
#     4  10  20  32  45  62  85 116 152 184 216 255
#     4  10  20  32  45  61  85 117 149 183 219 254
#     4   9  16  26  43  64  83 106 137 174 216 260
#
# _framework density 14.601312
#
# number of rings (size 3 to 8) (size 9 to 14) (size 15 to 20)
#    0.000    2.750    0.000    3.750    0.000    9.500 
#    0.000    0.000    0.000    0.000    0.000    0.000 
#    0.000    1.000    0.000    7.000    0.000    5.625 
#
# Total GULP energy -356366.636913 kJ/mol
# GULP energy per Si atom -5568.228702 kJ/mol
# Density = 1.456808 g / cm^3
# Si number density = 14.601312 Si / 1000 Ang^3
#
#
#
# Elastic Constant Matrix: (Units=GPa)
#
#
# Indices 1 2 3 4 5 6 
#
# 1 69.0526 40.2547 50.6448 0.0000 0.0000 0.0000
# 2 40.2547 71.4121 50.3448 0.0000 0.0000 0.0000
# 3 50.6448 50.3448 92.9176 0.0000 0.0000 0.0000
# 4 0.0000 0.0000 0.0000 22.9086 0.0000 0.0000
# 5 0.0000 0.0000 0.0000 0.0000 19.4018 0.0000
# 6 0.0000 0.0000 0.0000 0.0000 0.0000 -1.0191
#
#
#
# Elastic Compliance Matrix: (Units=1/GPa)
#
#
# Indices 1 2 3 4 5 6 
#
# 1 0.026506 -0.007696 -0.010277 0.000000 0.000000 0.000000
# 2 -0.007696 0.024893 -0.009293 0.000000 0.000000 0.000000
# 3 -0.010277 -0.009293 0.021399 0.000000 0.000000 0.000000
# 4 0.000000 0.000000 0.000000 0.043652 0.000000 0.000000
# 5 0.000000 0.000000 0.000000 0.000000 0.051542 0.000000
# 6 0.000000 0.000000 0.000000 0.000000 0.000000 -0.981262
#
#
# Mechanical properties :
#
#
# Convention : Reuss Voigt Hill
#
# Bulk Modulus (GPa) = 54.74771 57.31897 56.03334
# Shear Modulus (GPa) = -6.64318 14.40078 3.87880
#
# Velocity S-wave (km/s) = -2.13532 3.14389 1.63164
# Velocity P-wave (km/s) = 5.61222 7.24707 6.48140
#
# Compressibility (1/GPa) = 0.01826561
#
# Stress axis : x y z
#
# Youngs Moduli (GPa) = 37.72801 40.17255 46.73159
#
# Poissons Ratio (x) = 0.30916 0.48027
# Poissons Ratio (y) = 0.29035 0.43427
# Poissons Ratio (z) = 0.38774 0.37331
#
# Static dielectric constant tensor:
#      x y z
#    x 1.471210 0.000000 0.000000 
#    y 0.000000 1.475260 0.000000 
#    z 0.000000 0.000000 1.495920 
# 
# From -- ./inp_files/6064.got.cif
#   From: 2010.05.17/outbox.cif.g08.bks.cpg/sg57_4_cif.got.tgz:6064.got - 2010.06.03 13:58:18.
