data_PCOD9436770
_publ_section_title
;
Structure prediction by ZEFSAII (Michael W. Deem and Ramdas Pophale) SiO2 
 PCOD9436770
Probable space group: P B C M
;
_chemical_formula_sum "Si O2"
_cell_formula_units_Z 48
_cell_length_a 19.481412
_cell_length_b 13.080312
_cell_length_c 7.519947
_cell_angle_alpha 90.000000
_cell_angle_beta 90.000000
_cell_angle_gamma 90.000000
_cell_volume 1916.255057
_symmetry_space_group_name_H-M "P B C M"
_symmetry_group_IT_number 57
_symmetry_cell_setting 'orthorhombic'
loop_
_space_group_symop_operation_xyz
x,y,z
-x,-y,1/2+z
x,1/2-y,-z
-x,1/2+y,1/2-z
-x,-y,-z
x,y,1/2-z
-x,1/2+y,z
x,1/2-y,1/2+z
loop_
_atom_site_type_symbol
_atom_site_label
_atom_site_fract_x
_atom_site_fract_y
_atom_site_fract_z
Si Si1 0.245336 0.565834 0.543909
Si Si2 0.608232 0.369995 0.463039
Si Si3 0.690875 0.630697 0.961553
Si Si4 0.460593 0.372365 0.463037
Si Si5 0.901167 0.415991 0.044002
Si Si6 0.049655 0.362454 0.462168
O O1 0.246376 0.598525 0.750000
O O2 0.318043 0.597634 0.461498
O O3 0.251203 0.442885 0.537913
O O4 0.173879 0.604464 0.464218
O O5 0.605233 0.250000 0.500000
O O6 0.608156 0.386676 0.250000
O O7 0.534620 0.410809 0.533972
O O8 0.690990 0.618836 0.750000
O O9 0.614964 0.596071 0.031484
O O10 0.700249 0.750000 0.000000
O O11 0.460248 0.250000 0.500000
O O12 0.460389 0.383814 0.250000
O O13 0.898650 0.384155 0.250000
O O14 0.970816 0.368540 0.967128
O O15 0.912497 0.538556 0.037723
O O16 0.078119 0.250000 0.500000
O O17 0.048251 0.377318 0.250000
#
# Coordination Sequence:
#
# PCOD9436770 Si02
#       6
#     8   8   8   8   8   8
#     4  10  21  36  53  76 108 141 171 209 258 308
#     4   9  18  33  52  74 102 137 175 216 262 308
#     4  10  20  34  52  74 101 136 178 221 264 309
#     4   8  15  29  48  70  97 130 172 219 261 303
#     4   9  20  38  56  78 109 140 172 209 248 300
#     4  10  20  36  60  85 107 135 170 208 252 301
#
# _framework density 25.048857000000002
#
# number of rings (size 3 to 8) (size 9 to 14) (size 15 to 20)
#    0.000    2.667    0.000    1.000    0.000    4.667 
#    0.000    0.000    0.000    0.000    0.000    0.000 
#    0.000    0.000    0.000    0.000    0.000    0.000 
#
# Total GULP energy -268075.440912 kJ/mol
# GULP energy per Si atom -5584.905019 kJ/mol
# Density = 2.499184 g / cm^3
# Si number density = 25.048857 Si / 1000 Ang^3
#
#
#
# Elastic Constant Matrix: (Units=GPa)
#
#
# Indices 1 2 3 4 5 6 
#
# 1 122.4007 -8.1790 3.0296 0.0000 0.0000 0.0000
# 2 -8.1790 50.5972 -8.6411 0.0000 0.0000 0.0000
# 3 3.0296 -8.6411 99.9936 0.0000 0.0000 0.0000
# 4 0.0000 0.0000 0.0000 22.4571 0.0000 0.0000
# 5 0.0000 0.0000 0.0000 0.0000 0.9120 0.0000
# 6 0.0000 0.0000 0.0000 0.0000 0.0000 7.9474
#
#
#
# Elastic Compliance Matrix: (Units=1/GPa)
#
#
# Indices 1 2 3 4 5 6 
#
# 1 0.008261 0.001312 -0.000137 0.000000 0.000000 0.000000
# 2 0.001312 0.020268 0.001712 0.000000 0.000000 0.000000
# 3 -0.000137 0.001712 0.010153 0.000000 0.000000 0.000000
# 4 0.000000 0.000000 0.000000 0.044529 0.000000 0.000000
# 5 0.000000 0.000000 0.000000 0.000000 1.096471 0.000000
# 6 0.000000 0.000000 0.000000 0.000000 0.000000 0.125828
#
#
# Mechanical properties :
#
#
# Convention : Reuss Voigt Hill
#
# Bulk Modulus (GPa) = 22.49429 27.26783 24.88106
# Shear Modulus (GPa) = 3.80357 25.38209 14.59283
#
# Velocity S-wave (km/s) = 1.23360 3.18670 2.41628
# Velocity P-wave (km/s) = 3.32094 4.94465 4.21178
#
# Compressibility (1/GPa) = 0.04445574
#
# Stress axis : x y z
#
# Youngs Moduli (GPa) = 121.05149 49.33797 98.49580
#
# Poissons Ratio (x) = -0.06473 0.01349
# Poissons Ratio (y) = -0.15882 -0.16860
# Poissons Ratio (z) = 0.01657 -0.08446
#
# Static dielectric constant tensor:
#      x y z
#    x 2.035180 0.000000 0.000000 
#    y 0.000000 2.088460 0.000000 
#    z 0.000000 0.000000 1.919000 
# 
# From -- ./inp_files/6500.got.cif
#   From: 2010.05.17/outbox.cif.g08.bks.cpg/sg57_4_cif.got.tgz:6500.got - 2010.06.03 13:58:18.
