data_PCOD9436911
_publ_section_title
;
Structure prediction by ZEFSAII (Michael W. Deem and Ramdas Pophale) SiO2 
 PCOD9436911
Probable space group: P B C M
;
_chemical_formula_sum "Si O2"
_cell_formula_units_Z 64
_cell_length_a 23.512664
_cell_length_b 16.215389
_cell_length_c 9.161048
_cell_angle_alpha 90.000000
_cell_angle_beta 90.000000
_cell_angle_gamma 90.000000
_cell_volume 3492.805225
_symmetry_space_group_name_H-M "P B C M"
_symmetry_group_IT_number 57
_symmetry_cell_setting 'orthorhombic'
loop_
_space_group_symop_operation_xyz
x,y,z
-x,-y,1/2+z
x,1/2-y,-z
-x,1/2+y,1/2-z
-x,-y,-z
x,y,1/2-z
-x,1/2+y,z
x,1/2-y,1/2+z
loop_
_atom_site_type_symbol
_atom_site_label
_atom_site_fract_x
_atom_site_fract_y
_atom_site_fract_z
Si Si1 0.534996 0.166841 0.078073
Si Si2 0.688621 0.665558 0.923684
Si Si3 0.076922 0.164184 0.576605
Si Si4 0.417063 0.097630 0.417054
Si Si5 0.124061 0.499406 0.924233
Si Si6 0.059126 0.665035 0.923226
Si Si7 0.257007 0.491720 0.576161
Si Si8 0.364938 0.914640 0.083477
O O1 0.538880 0.178024 0.250000
O O2 0.483545 0.103574 0.047453
O O3 0.516583 0.250000 0.000000
O O4 0.595862 0.140838 0.016539
O O5 0.692636 0.670507 0.750000
O O6 0.707466 0.750000 0.000000
O O7 0.623804 0.647538 0.975073
O O8 0.724704 0.588962 0.986654
O O9 0.095037 0.250000 0.500000
O O10 0.087915 0.168270 0.750000
O O11 0.105081 0.083450 0.506362
O O12 0.008729 0.156376 0.554191
O O13 0.409209 0.129031 0.250000
O O14 0.395021 0.004319 0.418675
O O15 0.113626 0.488575 0.750000
O O16 0.090198 0.581309 0.973133
O O17 0.191341 0.511911 0.945493
O O18 0.069213 0.673026 0.750000
O O19 0.077524 0.750000 0.000000
O O20 0.266484 0.475408 0.750000
O O21 0.300463 0.565485 0.537327
O O22 0.365456 0.883594 0.250000
#
# Coordination Sequence:
#
# PCOD9436911 Si02
#       8
#     8   8   8   8   8   8   8   8
#     4  11  22  34  51  76 103 131 165 206 253 306
#     4  11  21  33  52  76 104 137 173 213 259 312
#     4  10  20  34  54  83 118 151 183 220 266 322
#     4   9  19  35  54  77 103 130 163 204 254 311
#     4  10  20  36  58  82 110 145 184 227 274 320
#     4   9  19  35  56  83 113 146 183 225 274 324
#     4   9  20  38  56  74 101 137 176 217 261 310
#     4   9  18  35  55  73  98 131 165 206 256 305
#
# _framework density 18.32338
#
# number of rings (size 3 to 8) (size 9 to 14) (size 15 to 20)
#    0.000    2.250    0.000    3.750    0.000    6.000 
#    0.000    0.625    0.000    1.500    0.000    0.000 
#    0.000    0.000    0.000    0.000    0.000    0.000 
#
# Total GULP energy -357085.563705 kJ/mol
# GULP energy per Si atom -5579.461933 kJ/mol
# Density = 1.828167 g / cm^3
# Si number density = 18.323380 Si / 1000 Ang^3
#
#
#
# Elastic Constant Matrix: (Units=GPa)
#
#
# Indices 1 2 3 4 5 6 
#
# 1 72.2830 39.1354 37.2402 0.0000 0.0000 0.0000
# 2 39.1354 68.8804 28.0231 0.0000 0.0000 0.0000
# 3 37.2402 28.0231 55.1779 0.0000 0.0000 0.0000
# 4 0.0000 0.0000 0.0000 31.5788 0.0000 0.0000
# 5 0.0000 0.0000 0.0000 0.0000 20.6872 0.0000
# 6 0.0000 0.0000 0.0000 0.0000 0.0000 33.0584
#
#
#
# Elastic Compliance Matrix: (Units=1/GPa)
#
#
# Indices 1 2 3 4 5 6 
#
# 1 0.025210 -0.009329 -0.012277 0.000000 0.000000 0.000000
# 2 -0.009329 0.021751 -0.004750 0.000000 0.000000 0.000000
# 3 -0.012277 -0.004750 0.028822 0.000000 0.000000 0.000000
# 4 0.000000 0.000000 0.000000 0.031667 0.000000 0.000000
# 5 0.000000 0.000000 0.000000 0.000000 0.048339 0.000000
# 6 0.000000 0.000000 0.000000 0.000000 0.000000 0.030249
#
#
# Mechanical properties :
#
#
# Convention : Reuss Voigt Hill
#
# Bulk Modulus (GPa) = 43.34554 45.01540 44.18047
# Shear Modulus (GPa) = 20.28881 23.19438 21.74160
#
# Velocity S-wave (km/s) = 3.33117 3.56172 3.44837
# Velocity P-wave (km/s) = 6.20506 6.44476 6.32605
#
# Compressibility (1/GPa) = 0.02307043
#
# Stress axis : x y z
#
# Youngs Moduli (GPa) = 39.66604 45.97504 34.69619
#
# Poissons Ratio (x) = 0.42890 0.42596
# Poissons Ratio (y) = 0.37004 0.16482
# Poissons Ratio (z) = 0.48698 0.21840
#
# Static dielectric constant tensor:
#      x y z
#    x 1.643360 0.000000 0.000000 
#    y 0.000000 1.629360 0.000000 
#    z 0.000000 0.000000 1.621530 
# 
# From -- ./inp_files/9501.got.cif
#   From: 2010.05.17/outbox.cif.g08.bks.cpg/sg57_5_cif.got.tgz:9501.got - 2010.06.03 13:58:18.
