data_PCOD9436566
_publ_section_title
;
Structure prediction by ZEFSAII (Michael W. Deem and Ramdas Pophale) SiO2 
 PCOD9436566
Probable space group: P B C M
;
_chemical_formula_sum "Si O2"
_cell_formula_units_Z 56
_cell_length_a 21.322802
_cell_length_b 14.421701
_cell_length_c 7.844832
_cell_angle_alpha 90.000000
_cell_angle_beta 90.000000
_cell_angle_gamma 90.000000
_cell_volume 2412.372721
_symmetry_space_group_name_H-M "P B C M"
_symmetry_group_IT_number 57
_symmetry_cell_setting 'orthorhombic'
loop_
_space_group_symop_operation_xyz
x,y,z
-x,-y,1/2+z
x,1/2-y,-z
-x,1/2+y,1/2-z
-x,-y,-z
x,y,1/2-z
-x,1/2+y,z
x,1/2-y,1/2+z
loop_
_atom_site_type_symbol
_atom_site_label
_atom_site_fract_x
_atom_site_fract_y
_atom_site_fract_z
Si Si1 0.897389 0.856159 0.044463
Si Si2 0.553283 0.600208 0.545868
Si Si3 0.708276 0.055990 0.548229
Si Si4 0.579095 0.391098 0.444466
Si Si5 0.162093 0.535859 0.051658
Si Si6 0.038758 0.857305 0.046327
Si Si7 0.688046 0.652183 0.452650
O O1 0.897794 0.862731 0.250000
O O2 0.849333 0.932725 0.976684
O O3 0.968244 0.880582 0.985019
O O4 0.884174 0.750000 0.000000
O O5 0.547185 0.583989 0.750000
O O6 0.566526 0.502404 0.452274
O O7 0.487364 0.642528 0.480784
O O8 0.616234 0.655997 0.515142
O O9 0.695602 0.050940 0.750000
O O10 0.779024 0.089707 0.525914
O O11 0.709444 0.949280 0.480388
O O12 0.648945 0.114008 0.476523
O O13 0.582060 0.356180 0.250000
O O14 0.176551 0.528084 0.250000
O O15 0.095550 0.585566 0.030961
O O16 0.040395 0.868723 0.250000
O O17 0.047808 0.750000 0.000000
O O18 0.719936 0.750000 0.500000
O O19 0.689800 0.647517 0.250000
#
# Coordination Sequence:
#
# PCOD9436566 Si02
#       7
#     8   8   8   8   8   8   8
#     4   9  20  36  55  81 112 144 180 222 268 320
#     4   9  15  25  45  69  90 116 153 199 249 296
#     4   9  19  34  49  69  99 137 176 212 255 308
#     4   8  15  28  45  66  92 120 155 200 246 295
#     4  11  22  35  53  81 113 145 184 225 266 320
#     4  10  20  37  60  83 107 138 176 223 277 326
#     4  10  20  33  48  68  98 134 173 215 260 313
#
# _framework density 23.213660000000001
#
# number of rings (size 3 to 8) (size 9 to 14) (size 15 to 20)
#    0.000    2.571    0.000    3.000    0.000    5.714 
#    0.000    2.857    0.000    0.857    0.000    4.000 
#    0.000    0.000    0.000    0.000    0.000    0.000 
#
# Total GULP energy -312213.376354 kJ/mol
# GULP energy per Si atom -5575.238863 kJ/mol
# Density = 2.316082 g / cm^3
# Si number density = 23.213660 Si / 1000 Ang^3
#
#
#
# Elastic Constant Matrix: (Units=GPa)
#
#
# Indices 1 2 3 4 5 6 
#
# 1 127.4928 6.9480 -6.5817 0.0000 0.0000 0.0000
# 2 6.9480 17.1876 -11.2593 0.0000 0.0000 0.0000
# 3 -6.5817 -11.2593 50.7906 0.0000 0.0000 0.0000
# 4 0.0000 0.0000 0.0000 18.2929 0.0000 0.0000
# 5 0.0000 0.0000 0.0000 0.0000 12.1969 0.0000
# 6 0.0000 0.0000 0.0000 0.0000 0.0000 3.7763
#
#
#
# Elastic Compliance Matrix: (Units=1/GPa)
#
#
# Indices 1 2 3 4 5 6 
#
# 1 0.008026 -0.002999 0.000375 0.000000 0.000000 0.000000
# 2 -0.002999 0.069186 0.014949 0.000000 0.000000 0.000000
# 3 0.000375 0.014949 0.023051 0.000000 0.000000 0.000000
# 4 0.000000 0.000000 0.000000 0.054666 0.000000 0.000000
# 5 0.000000 0.000000 0.000000 0.000000 0.081988 0.000000
# 6 0.000000 0.000000 0.000000 0.000000 0.000000 0.264809
#
#
# Mechanical properties :
#
#
# Convention : Reuss Voigt Hill
#
# Bulk Modulus (GPa) = 8.00547 19.29833 13.65190
# Shear Modulus (GPa) = 9.63921 20.61082 15.12501
#
# Velocity S-wave (km/s) = 2.03995 2.98296 2.55533
# Velocity P-wave (km/s) = 3.00077 4.49393 3.82100
#
# Compressibility (1/GPa) = 0.12491462
#
# Stress axis : x y z
#
# Youngs Moduli (GPa) = 124.58914 14.45369 43.38172
#
# Poissons Ratio (x) = 0.04334 -0.01628
# Poissons Ratio (y) = 0.37361 -0.64850
# Poissons Ratio (z) = -0.04676 -0.21606
#
# Static dielectric constant tensor:
#      x y z
#    x 1.938180 0.000000 0.000000 
#    y 0.000000 1.892750 0.000000 
#    z 0.000000 0.000000 1.832700 
# 
# From -- ./inp_files/8201.got.cif
#   From: 2010.05.17/outbox.cif.g08.bks.cpg/sg57_5_cif.got.tgz:8201.got - 2010.06.03 13:58:18.
