data_PCOD9436515
_publ_section_title
;
Structure prediction by ZEFSAII (Michael W. Deem and Ramdas Pophale) SiO2 
 PCOD9436515
Probable space group: P B C M
;
_chemical_formula_sum "Si O2"
_cell_formula_units_Z 48
_cell_length_a 15.481151
_cell_length_b 18.624933
_cell_length_c 7.444788
_cell_angle_alpha 90.000000
_cell_angle_beta 90.000000
_cell_angle_gamma 90.000000
_cell_volume 2146.595927
_symmetry_space_group_name_H-M "P B C M"
_symmetry_group_IT_number 57
_symmetry_cell_setting 'orthorhombic'
loop_
_space_group_symop_operation_xyz
x,y,z
-x,-y,1/2+z
x,1/2-y,-z
-x,1/2+y,1/2-z
-x,-y,-z
x,y,1/2-z
-x,1/2+y,z
x,1/2-y,1/2+z
loop_
_atom_site_type_symbol
_atom_site_label
_atom_site_fract_x
_atom_site_fract_y
_atom_site_fract_z
Si Si1 0.527598 0.832063 0.534826
Si Si2 0.688794 0.909640 0.957522
Si Si3 0.945742 0.109286 0.042426
Si Si4 0.878069 0.549855 0.469579
Si Si5 0.775700 0.170507 0.464586
Si Si6 0.373999 0.934607 0.968310
O O1 0.502818 0.750000 0.500000
O O2 0.530401 0.840684 0.750000
O O3 0.623083 0.851287 0.463695
O O4 0.457186 0.889726 0.470199
O O5 0.704227 0.890196 0.750000
O O6 0.784119 0.924724 0.033336
O O7 0.636507 0.984647 0.965534
O O8 0.957506 0.129988 0.250000
O O9 0.872465 0.160197 0.961270
O O10 0.042098 0.099678 0.968709
O O11 0.901985 0.030164 0.033392
O O12 0.878533 0.546788 0.250000
O O13 0.742347 0.250000 0.500000
O O14 0.780467 0.161224 0.250000
O O15 0.709799 0.110311 0.529721
O O16 0.374598 0.936960 0.750000
#
# Coordination Sequence:
#
# PCOD9436515 Si02
#       6
#     8   8   8   8   8   8
#     4  10  22  38  54  75 105 139 175 213 257 309
#     4  10  20  34  54  81 106 132 171 217 260 307
#     4   9  17  31  49  71 100 132 167 207 251 300
#     4   9  17  30  51  75  99 129 165 208 254 299
#     4  10  20  32  48  72 103 136 170 211 258 307
#     4  10  20  35  54  77 103 134 173 216 260 308
#
# _framework density 22.360986
#
# number of rings (size 3 to 8) (size 9 to 14) (size 15 to 20)
#    0.000    2.333    1.667    1.000    0.000    2.667 
#    0.000    0.833    0.000    0.000    0.000    0.000 
#    0.000    0.000    0.000    0.000    0.000    0.000 
#
# Total GULP energy -267960.794308 kJ/mol
# GULP energy per Si atom -5582.516548 kJ/mol
# Density = 2.231009 g / cm^3
# Si number density = 22.360986 Si / 1000 Ang^3
#
#
#
# Elastic Constant Matrix: (Units=GPa)
#
#
# Indices 1 2 3 4 5 6 
#
# 1 138.8604 7.0262 2.1538 0.0000 0.0000 0.0000
# 2 7.0262 24.5261 -9.5859 0.0000 0.0000 0.0000
# 3 2.1538 -9.5859 71.4230 0.0000 0.0000 0.0000
# 4 0.0000 0.0000 0.0000 6.0167 0.0000 0.0000
# 5 0.0000 0.0000 0.0000 0.0000 -27.7509 0.0000
# 6 0.0000 0.0000 0.0000 0.0000 0.0000 18.1893
#
#
#
# Elastic Compliance Matrix: (Units=1/GPa)
#
#
# Indices 1 2 3 4 5 6 
#
# 1 0.007326 -0.002306 -0.000530 0.000000 0.000000 0.000000
# 2 -0.002306 0.043756 0.005942 0.000000 0.000000 0.000000
# 3 -0.000530 0.005942 0.014815 0.000000 0.000000 0.000000
# 4 0.000000 0.000000 0.000000 0.166204 0.000000 0.000000
# 5 0.000000 0.000000 0.000000 0.000000 -0.036035 0.000000
# 6 0.000000 0.000000 0.000000 0.000000 0.000000 0.054977
#
#
# Mechanical properties :
#
#
# Convention : Reuss Voigt Hill
#
# Bulk Modulus (GPa) = 13.86807 25.99975 19.93391
# Shear Modulus (GPa) = 18.59648 14.97205 16.78427
#
# Velocity S-wave (km/s) = 2.88696 2.59040 2.74269
# Velocity P-wave (km/s) = 4.16270 4.53866 4.35474
#
# Compressibility (1/GPa) = 0.07210811
#
# Stress axis : x y z
#
# Youngs Moduli (GPa) = 136.49277 22.85401 67.50093
#
# Poissons Ratio (x) = 0.05271 0.03581
# Poissons Ratio (y) = 0.31478 -0.40110
# Poissons Ratio (z) = 0.07240 -0.13580
#
# Static dielectric constant tensor:
#      x y z
#    x 1.879750 0.000000 0.000000 
#    y 0.000000 1.770150 0.000000 
#    z 0.000000 0.000000 1.820730 
# 
# From -- ./inp_files/4607.got.cif
#   From: 2010.05.17/outbox.cif.g08.bks.cpg/sg57_3_cif.got.tgz:4607.got - 2010.06.03 13:58:18.
