data_PCOD9436851
_publ_section_title
;
Structure prediction by ZEFSAII (Michael W. Deem and Ramdas Pophale) SiO2 
 PCOD9436851
Probable space group: P B C M
;
_chemical_formula_sum "Si O2"
_cell_formula_units_Z 56
_cell_length_a 19.473800
_cell_length_b 18.754370
_cell_length_c 9.005223
_cell_angle_alpha 90.000000
_cell_angle_beta 90.000000
_cell_angle_gamma 90.000000
_cell_volume 3288.877193
_symmetry_space_group_name_H-M "P B C M"
_symmetry_group_IT_number 57
_symmetry_cell_setting 'orthorhombic'
loop_
_space_group_symop_operation_xyz
x,y,z
-x,-y,1/2+z
x,1/2-y,-z
-x,1/2+y,1/2-z
-x,-y,-z
x,y,1/2-z
-x,1/2+y,z
x,1/2-y,1/2+z
loop_
_atom_site_type_symbol
_atom_site_label
_atom_site_fract_x
_atom_site_fract_y
_atom_site_fract_z
Si Si1 0.355243 0.566012 0.571656
Si Si2 0.739821 0.622731 0.923831
Si Si3 0.792270 0.479087 0.426613
Si Si4 0.462107 0.671946 0.427657
Si Si5 0.072129 0.479329 0.429142
Si Si6 0.393269 0.402361 0.572438
Si Si7 0.885616 0.820237 0.077520
O O1 0.362268 0.572769 0.750000
O O2 0.273678 0.569831 0.536321
O O3 0.399344 0.625545 0.490502
O O4 0.383359 0.486254 0.532464
O O5 0.735473 0.601852 0.750000
O O6 0.802709 0.677012 0.935473
O O7 0.764030 0.556258 0.023439
O O8 0.665347 0.641547 0.985785
O O9 0.803215 0.476725 0.250000
O O10 0.864666 0.472768 0.510391
O O11 0.464294 0.750000 0.500000
O O12 0.457179 0.678451 0.250000
O O13 0.532011 0.628323 0.462323
O O14 0.071002 0.482617 0.250000
O O15 0.087954 0.397242 0.475196
O O16 0.000000 0.500000 0.500000
O O17 0.381924 0.396833 0.750000
O O18 0.902687 0.816038 0.250000
O O19 0.912921 0.750000 0.000000
#
# Coordination Sequence:
#
# PCOD9436851 Si02
#       7
#     8   8   8   8   8   8   8
#     4   9  18  34  55  76  98 126 167 214 257 304
#     4   9  17  29  46  71 100 129 163 203 243 293
#     4   9  17  31  52  77 102 128 159 200 247 296
#     4  11  23  36  50  70  99 134 172 215 266 315
#     4  10  20  34  53  80 109 137 171 209 250 298
#     4   9  19  34  51  73  99 131 170 211 257 308
#     4   9  19  32  47  71 102 135 171 204 241 294
#
# _framework density 17.027087000000002
#
# number of rings (size 3 to 8) (size 9 to 14) (size 15 to 20)
#    0.000    2.571    0.000    3.857    0.000    8.000 
#    0.000    2.857    0.000    0.857    0.000    4.000 
#    0.000    0.000    0.000    0.000    0.000    0.000 
#
# Total GULP energy -311935.995081 kJ/mol
# GULP energy per Si atom -5570.285626 kJ/mol
# Density = 1.698833 g / cm^3
# Si number density = 17.027087 Si / 1000 Ang^3
#
#
#
# Elastic Constant Matrix: (Units=GPa)
#
#
# Indices 1 2 3 4 5 6 
#
# 1 148.8575 52.0592 60.0475 0.0000 0.0000 0.0000
# 2 52.0592 66.1215 32.1698 0.0000 0.0000 0.0000
# 3 60.0475 32.1698 41.3564 0.0000 0.0000 0.0000
# 4 0.0000 0.0000 0.0000 22.1751 0.0000 0.0000
# 5 0.0000 0.0000 0.0000 0.0000 30.6446 0.0000
# 6 0.0000 0.0000 0.0000 0.0000 0.0000 0.4330
#
#
#
# Elastic Compliance Matrix: (Units=1/GPa)
#
#
# Indices 1 2 3 4 5 6 
#
# 1 0.016400 -0.002135 -0.022152 0.000000 0.000000 0.000000
# 2 -0.002135 0.024610 -0.016044 0.000000 0.000000 0.000000
# 3 -0.022152 -0.016044 0.068823 0.000000 0.000000 0.000000
# 4 0.000000 0.000000 0.000000 0.045096 0.000000 0.000000
# 5 0.000000 0.000000 0.000000 0.000000 0.032632 0.000000
# 6 0.000000 0.000000 0.000000 0.000000 0.000000 2.309405
#
#
# Mechanical properties :
#
#
# Convention : Reuss Voigt Hill
#
# Bulk Modulus (GPa) = 34.27827 60.54316 47.41071
# Shear Modulus (GPa) = 1.93248 18.12114 10.02681
#
# Velocity S-wave (km/s) = 1.06649 3.26583 2.42931
# Velocity P-wave (km/s) = 4.65745 7.06081 5.98109
#
# Compressibility (1/GPa) = 0.02917300
#
# Stress axis : x y z
#
# Youngs Moduli (GPa) = 60.97485 40.63344 14.53002
#
# Poissons Ratio (x) = 0.08675 0.32186
# Poissons Ratio (y) = 0.13018 0.23311
# Poissons Ratio (z) = 1.35069 0.65191
#
# Static dielectric constant tensor:
#      x y z
#    x 1.600270 0.000000 0.000000 
#    y 0.000000 1.572340 0.000000 
#    z 0.000000 0.000000 1.593750 
# 
# From -- ./inp_files/7034.got.cif
#   From: 2010.05.17/outbox.cif.g08.bks.cpg/sg57_4_cif.got.tgz:7034.got - 2010.06.03 13:58:18.
