data_PCOD9436094
_publ_section_title
;
Structure prediction by ZEFSAII (Michael W. Deem and Ramdas Pophale) SiO2 
 PCOD9436094
Probable space group: P B C M
;
_chemical_formula_sum "Si O2"
_cell_formula_units_Z 32
_cell_length_a 17.495162
_cell_length_b 4.979331
_cell_length_c 14.258217
_cell_angle_alpha 90.000000
_cell_angle_beta 90.000000
_cell_angle_gamma 90.000000
_cell_volume 1242.093203
_symmetry_space_group_name_H-M "P B C M"
_symmetry_group_IT_number 57
_symmetry_cell_setting 'orthorhombic'
loop_
_space_group_symop_operation_xyz
x,y,z
-x,-y,1/2+z
x,1/2-y,-z
-x,1/2+y,1/2-z
-x,-y,-z
x,y,1/2-z
-x,1/2+y,z
x,1/2-y,1/2+z
loop_
_atom_site_type_symbol
_atom_site_label
_atom_site_fract_x
_atom_site_fract_y
_atom_site_fract_z
Si Si1 0.048156 0.415183 0.135606
Si Si2 0.457018 0.215832 0.113285
Si Si3 0.685181 0.368257 0.098344
Si Si4 0.781163 0.853185 0.141770
O O1 0.049370 0.427326 0.250000
O O2 0.135950 0.448854 0.107246
O O3 0.987034 0.634524 0.105630
O O4 0.474049 0.518240 0.143494
O O5 0.381836 0.051707 0.141599
O O6 0.453919 0.250000 0.000000
O O7 0.750752 0.592859 0.086980
O O8 0.722979 0.104489 0.142472
O O9 0.655464 0.250000 0.000000
O O10 0.788856 0.758907 0.250000
#
# Coordination Sequence:
#
# PCOD9436094 Si02
#       4
#     8   8   8   8
#     4   9  17  32  56  83 108 143 197 247 280 328
#     4  10  19  34  58  87 114 146 197 249 283 326
#     4  12  23  38  61  89 120 154 194 244 299 353
#     4  11  23  39  61  88 120 156 194 242 298 356
#
# _framework density 25.76296
#
# number of rings (size 3 to 8) (size 9 to 14) (size 15 to 20)
#    0.000    1.500    0.000    8.250    0.000    4.000 
#    0.000    0.000    0.000   30.000    0.000    0.000 
#    0.000    0.000    0.000    0.000    0.000    0.000 
#
# Total GULP energy -178991.522395 kJ/mol
# GULP energy per Si atom -5593.485075 kJ/mol
# Density = 2.570432 g / cm^3
# Si number density = 25.762960 Si / 1000 Ang^3
#
#
#
# Elastic Constant Matrix: (Units=GPa)
#
#
# Indices 1 2 3 4 5 6 
#
# 1 135.3140 37.8635 0.0435 0.0000 0.0000 0.0000
# 2 37.8635 153.4551 2.8034 0.0000 0.0000 0.0000
# 3 0.0435 2.8034 79.9081 0.0000 0.0000 0.0000
# 4 0.0000 0.0000 0.0000 13.9577 0.0000 0.0000
# 5 0.0000 0.0000 0.0000 0.0000 9.2795 0.0000
# 6 0.0000 0.0000 0.0000 0.0000 0.0000 54.0194
#
#
#
# Elastic Compliance Matrix: (Units=1/GPa)
#
#
# Indices 1 2 3 4 5 6 
#
# 1 0.007939 -0.001960 0.000064 0.000000 0.000000 0.000000
# 2 -0.001960 0.007005 -0.000245 0.000000 0.000000 0.000000
# 3 0.000064 -0.000245 0.012523 0.000000 0.000000 0.000000
# 4 0.000000 0.000000 0.000000 0.071645 0.000000 0.000000
# 5 0.000000 0.000000 0.000000 0.000000 0.107765 0.000000
# 6 0.000000 0.000000 0.000000 0.000000 0.000000 0.018512
#
#
# Mechanical properties :
#
#
# Convention : Reuss Voigt Hill
#
# Bulk Modulus (GPa) = 43.12983 50.01089 46.57036
# Shear Modulus (GPa) = 21.06177 37.31578 29.18878
#
# Velocity S-wave (km/s) = 2.86233 3.80995 3.36962
# Velocity P-wave (km/s) = 5.26320 6.22964 5.76670
#
# Compressibility (1/GPa) = 0.02318581
#
# Stress axis : x y z
#
# Youngs Moduli (GPa) = 125.96632 142.76267 79.85355
#
# Poissons Ratio (x) = 0.27981 -0.00515
# Poissons Ratio (y) = 0.24689 0.01954
# Poissons Ratio (z) = -0.00812 0.03493
#
# Static dielectric constant tensor:
#      x y z
#    x 2.026200 0.000000 0.000000 
#    y 0.000000 1.896300 0.000000 
#    z 0.000000 0.000000 2.106340 
# 
# From -- ./inp_files/22224.got.cif
#   From: 2010.05.17/outbox.cif.g08.bks.cpg/sg57_12_cif.got.tgz:22224.got - 2010.06.03 13:58:18.
