data_PCOD9436575
_publ_section_title
;
Structure prediction by ZEFSAII (Michael W. Deem and Ramdas Pophale) SiO2 
 PCOD9436575
Probable space group: P B C M
;
_chemical_formula_sum "Si O2"
_cell_formula_units_Z 64
_cell_length_a 21.945776
_cell_length_b 20.044733
_cell_length_c 9.062440
_cell_angle_alpha 90.000000
_cell_angle_beta 90.000000
_cell_angle_gamma 90.000000
_cell_volume 3986.542166
_symmetry_space_group_name_H-M "P B C M"
_symmetry_group_IT_number 57
_symmetry_cell_setting 'orthorhombic'
loop_
_space_group_symop_operation_xyz
x,y,z
-x,-y,1/2+z
x,1/2-y,-z
-x,1/2+y,1/2-z
-x,-y,-z
x,y,1/2-z
-x,1/2+y,z
x,1/2-y,1/2+z
loop_
_atom_site_type_symbol
_atom_site_label
_atom_site_fract_x
_atom_site_fract_y
_atom_site_fract_z
Si Si1 0.558490 0.035980 0.427329
Si Si2 0.010626 0.394432 0.082361
Si Si3 0.621391 0.683195 0.426076
Si Si4 0.132421 0.321429 0.071572
Si Si5 0.190401 0.452029 0.574177
Si Si6 0.478934 0.817438 0.573629
Si Si7 0.088944 0.531851 0.417273
Si Si8 0.669640 0.539564 0.426728
O O1 0.554378 0.029430 0.250000
O O2 0.554422 0.114289 0.465801
O O3 0.500000 0.000000 0.500000
O O4 0.620395 0.004381 0.488325
O O5 0.991427 0.379493 0.250000
O O6 0.061899 0.341292 0.035317
O O7 0.047113 0.464941 0.086303
O O8 0.952790 0.408894 0.980324
O O9 0.645620 0.750000 0.500000
O O10 0.623537 0.690740 0.250000
O O11 0.550312 0.674860 0.469431
O O12 0.656514 0.616536 0.466430
O O13 0.137873 0.319893 0.250000
O O14 0.147509 0.250000 0.000000
O O15 0.172158 0.382734 0.006755
O O16 0.184177 0.441807 0.750000
O O17 0.144710 0.509452 0.519188
O O18 0.259694 0.472850 0.541901
O O19 0.455415 0.750000 0.500000
O O20 0.477201 0.810043 0.750000
O O21 0.108653 0.545110 0.250000
O O22 0.659246 0.532648 0.250000
#
# Coordination Sequence:
#
# PCOD9436575 Si02
#       8
#     8   8   8   8   8   8   8   8
#     4  11  21  34  53  76 101 129 163 209 261 310
#     4   8  15  27  44  67  92 121 156 195 237 280
#     4   9  17  31  46  64  93 123 160 202 240 292
#     4  10  20  33  49  70 100 135 172 208 242 287
#     4  10  20  33  49  67  95 133 169 206 247 293
#     4   9  18  32  50  72  97 123 154 195 243 300
#     4   9  16  27  45  68  93 119 153 198 241 283
#     4  10  21  36  50  70  99 132 171 213 255 305
#
# _framework density 16.054013999999999
#
# number of rings (size 3 to 8) (size 9 to 14) (size 15 to 20)
#    0.000    2.500    1.250    2.250    0.000    6.500 
#    0.000    1.250    0.000    0.000    0.000    0.875 
#    0.000    6.000    0.000    0.000    0.000    0.000 
#
# Total GULP energy -356667.719229 kJ/mol
# GULP energy per Si atom -5572.933113 kJ/mol
# Density = 1.601747 g / cm^3
# Si number density = 16.054014 Si / 1000 Ang^3
#
#
#
# Elastic Constant Matrix: (Units=GPa)
#
#
# Indices 1 2 3 4 5 6 
#
# 1 88.3127 39.5073 49.2932 0.0000 0.0000 0.0000
# 2 39.5073 60.2724 33.2979 0.0000 0.0000 0.0000
# 3 49.2932 33.2979 56.9253 0.0000 0.0000 0.0000
# 4 0.0000 0.0000 0.0000 24.8296 0.0000 0.0000
# 5 0.0000 0.0000 0.0000 0.0000 21.4606 0.0000
# 6 0.0000 0.0000 0.0000 0.0000 0.0000 16.5830
#
#
#
# Elastic Compliance Matrix: (Units=1/GPa)
#
#
# Indices 1 2 3 4 5 6 
#
# 1 0.023345 -0.006108 -0.016642 0.000000 0.000000 0.000000
# 2 -0.006108 0.026111 -0.009984 0.000000 0.000000 0.000000
# 3 -0.016642 -0.009984 0.037818 0.000000 0.000000 0.000000
# 4 0.000000 0.000000 0.000000 0.040275 0.000000 0.000000
# 5 0.000000 0.000000 0.000000 0.000000 0.046597 0.000000
# 6 0.000000 0.000000 0.000000 0.000000 0.000000 0.060303
#
#
# Mechanical properties :
#
#
# Convention : Reuss Voigt Hill
#
# Bulk Modulus (GPa) = 45.86114 49.96747 47.91431
# Shear Modulus (GPa) = 16.27681 18.13544 17.20612
#
# Velocity S-wave (km/s) = 3.18760 3.36467 3.27733
# Velocity P-wave (km/s) = 6.49434 6.80345 6.65069
#
# Compressibility (1/GPa) = 0.02180495
#
# Stress axis : x y z
#
# Youngs Moduli (GPa) = 42.83563 38.29826 26.44239
#
# Poissons Ratio (x) = 0.23393 0.44006
# Poissons Ratio (y) = 0.26164 0.26401
# Poissons Ratio (z) = 0.71288 0.38238
#
# Static dielectric constant tensor:
#      x y z
#    x 1.541390 0.000000 0.000000 
#    y 0.000000 1.526060 0.000000 
#    z 0.000000 0.000000 1.544040 
# 
# From -- ./inp_files/8465.got.cif
#   From: 2010.05.17/outbox.cif.g08.bks.cpg/sg57_5_cif.got.tgz:8465.got - 2010.06.03 13:58:18.
