data_PCOD9436798
_publ_section_title
;
Structure prediction by ZEFSAII (Michael W. Deem and Ramdas Pophale) SiO2 
 PCOD9436798
Probable space group: P B C M
;
_chemical_formula_sum "Si O2"
_cell_formula_units_Z 64
_cell_length_a 25.180076
_cell_length_b 15.153126
_cell_length_c 8.249242
_cell_angle_alpha 90.000000
_cell_angle_beta 90.000000
_cell_angle_gamma 90.000000
_cell_volume 3147.554911
_symmetry_space_group_name_H-M "P B C M"
_symmetry_group_IT_number 57
_symmetry_cell_setting 'orthorhombic'
loop_
_space_group_symop_operation_xyz
x,y,z
-x,-y,1/2+z
x,1/2-y,-z
-x,1/2+y,1/2-z
-x,-y,-z
x,y,1/2-z
-x,1/2+y,z
x,1/2-y,1/2+z
loop_
_atom_site_type_symbol
_atom_site_label
_atom_site_fract_x
_atom_site_fract_y
_atom_site_fract_z
Si Si1 0.120370 0.465029 0.445530
Si Si2 0.364281 0.847977 0.942849
Si Si3 0.097237 0.653755 0.556609
Si Si4 0.024651 0.346825 0.445748
Si Si5 0.319206 0.473379 0.051845
Si Si6 0.481385 0.903445 0.444672
Si Si7 0.591885 0.659110 0.555591
Si Si8 0.778537 0.851356 0.445986
O O1 0.119971 0.464921 0.250000
O O2 0.127056 0.565836 0.500164
O O3 0.064522 0.422941 0.503103
O O4 0.167258 0.399557 0.499090
O O5 0.361783 0.848583 0.750000
O O6 0.325389 0.925835 0.003793
O O7 0.351613 0.750000 0.000000
O O8 0.424758 0.873179 0.989692
O O9 0.116874 0.750000 0.500000
O O10 0.096176 0.654607 0.750000
O O11 0.036024 0.644149 0.495188
O O12 0.043965 0.250000 0.500000
O O13 0.023875 0.348604 0.250000
O O14 0.317628 0.474042 0.250000
O O15 0.372961 0.423037 0.001213
O O16 0.269934 0.413844 0.997895
O O17 0.478673 0.900457 0.250000
O O18 0.531501 0.845982 0.504063
O O19 0.500000 0.000000 0.500000
O O20 0.617565 0.750000 0.500000
O O21 0.590806 0.657010 0.750000
O O22 0.774625 0.750000 0.500000
O O23 0.777781 0.851007 0.250000
#
# Coordination Sequence:
#
# PCOD9436798 Si02
#       8
#     8   8   8   8   8   8   8   8
#     4  10  20  34  53  80 112 146 184 227 277 330
#     4  11  22  39  59  81 111 146 185 230 276 329
#     4  10  20  34  53  77 108 148 187 228 275 325
#     4   9  18  31  49  77 112 147 185 227 274 329
#     4   9  19  38  58  77 108 144 179 222 274 323
#     4  11  21  35  55  81 113 149 183 220 270 324
#     4  10  20  34  52  77 106 140 174 211 260 314
#     4  10  21  38  61  85 111 144 179 224 278 328
#
# _framework density 20.333243
#
# number of rings (size 3 to 8) (size 9 to 14) (size 15 to 20)
#    0.000    2.000    1.250    2.625    0.000    3.500 
#    0.000    1.875    0.000    1.500    0.000    0.000 
#    0.000    0.000    0.000    0.000    0.000    0.000 
#
# Total GULP energy -357219.079900 kJ/mol
# GULP energy per Si atom -5581.548123 kJ/mol
# Density = 2.028696 g / cm^3
# Si number density = 20.333243 Si / 1000 Ang^3
#
#
#
# Elastic Constant Matrix: (Units=GPa)
#
#
# Indices 1 2 3 4 5 6 
#
# 1 62.0826 53.0867 10.0835 0.0000 0.0000 0.0000
# 2 53.0867 195.1014 13.2212 0.0000 0.0000 0.0000
# 3 10.0835 13.2212 14.8802 0.0000 0.0000 0.0000
# 4 0.0000 0.0000 0.0000 35.5242 0.0000 0.0000
# 5 0.0000 0.0000 0.0000 0.0000 10.5010 0.0000
# 6 0.0000 0.0000 0.0000 0.0000 0.0000 32.9645
#
#
#
# Elastic Compliance Matrix: (Units=1/GPa)
#
#
# Indices 1 2 3 4 5 6 
#
# 1 0.022407 -0.005393 -0.010392 0.000000 0.000000 0.000000
# 2 -0.005393 0.006752 -0.002345 0.000000 0.000000 0.000000
# 3 -0.010392 -0.002345 0.076329 0.000000 0.000000 0.000000
# 4 0.000000 0.000000 0.000000 0.028150 0.000000 0.000000
# 5 0.000000 0.000000 0.000000 0.000000 0.095229 0.000000
# 6 0.000000 0.000000 0.000000 0.000000 0.000000 0.030336
#
#
# Mechanical properties :
#
#
# Convention : Reuss Voigt Hill
#
# Bulk Modulus (GPa) = 14.44499 47.20523 30.82511
# Shear Modulus (GPa) = 15.69675 28.84280 22.26977
#
# Velocity S-wave (km/s) = 2.78146 3.77039 3.31303
# Velocity P-wave (km/s) = 4.17551 6.49774 5.46148
#
# Compressibility (1/GPa) = 0.06922814
#
# Stress axis : x y z
#
# Youngs Moduli (GPa) = 44.62957 148.10997 13.10114
#
# Poissons Ratio (x) = 0.79869 0.13615
# Poissons Ratio (y) = 0.24067 0.03072
# Poissons Ratio (z) = 0.46381 0.34728
#
# Static dielectric constant tensor:
#      x y z
#    x 1.729340 0.000000 0.000000 
#    y 0.000000 1.738310 0.000000 
#    z 0.000000 0.000000 1.705740 
# 
# From -- ./inp_files/9316.got.cif
#   From: 2010.05.17/outbox.cif.g08.bks.cpg/sg57_5_cif.got.tgz:9316.got - 2010.06.03 13:58:18.
