data_PCOD9436791
_publ_section_title
;
Structure prediction by ZEFSAII (Michael W. Deem and Ramdas Pophale) SiO2 
 PCOD9436791
Probable space group: P B C M
;
_chemical_formula_sum "Si O2"
_cell_formula_units_Z 64
_cell_length_a 22.978628
_cell_length_b 18.000592
_cell_length_c 9.044310
_cell_angle_alpha 90.000000
_cell_angle_beta 90.000000
_cell_angle_gamma 90.000000
_cell_volume 3740.988063
_symmetry_space_group_name_H-M "P B C M"
_symmetry_group_IT_number 57
_symmetry_cell_setting 'orthorhombic'
loop_
_space_group_symop_operation_xyz
x,y,z
-x,-y,1/2+z
x,1/2-y,-z
-x,1/2+y,1/2-z
-x,-y,-z
x,y,1/2-z
-x,1/2+y,z
x,1/2-y,1/2+z
loop_
_atom_site_type_symbol
_atom_site_label
_atom_site_fract_x
_atom_site_fract_y
_atom_site_fract_z
Si Si1 0.763411 0.519442 0.073713
Si Si2 0.879868 0.033052 0.426759
Si Si3 0.956386 0.325218 0.573911
Si Si4 0.074232 0.371118 0.424091
Si Si5 0.792836 0.673369 0.926235
Si Si6 0.540274 0.563261 0.572893
Si Si7 0.365574 0.973627 0.426930
Si Si8 0.558991 0.329384 0.072753
O O1 0.769197 0.528330 0.250000
O O2 0.702849 0.477874 0.042753
O O3 0.819015 0.476084 0.010082
O O4 0.764241 0.600531 0.997917
O O5 0.868741 0.034383 0.250000
O O6 0.916527 0.104975 0.469235
O O7 0.917128 0.958595 0.455181
O O8 0.934549 0.250000 0.500000
O O9 0.955871 0.318749 0.750000
O O10 0.022048 0.339132 0.519133
O O11 0.060965 0.361240 0.250000
O O12 0.137510 0.335765 0.452698
O O13 0.783868 0.673758 0.750000
O O14 0.773182 0.750000 0.000000
O O15 0.500000 0.500000 0.500000
O O16 0.541077 0.555602 0.750000
O O17 0.602643 0.542931 0.506003
O O18 0.505950 0.639254 0.537618
O O19 0.374724 0.980680 0.250000
O O20 0.396242 0.895698 0.471827
O O21 0.563181 0.322174 0.250000
O O22 0.570037 0.250000 0.000000
#
# Coordination Sequence:
#
# PCOD9436791 Si02
#       8
#     8   8   8   8   8   8   8   8
#     4  10  20  35  56  77 100 135 174 214 258 300
#     4   9  20  37  53  72  99 131 169 212 254 305
#     4  11  22  34  50  73 101 131 165 208 258 311
#     4   9  18  33  53  75  98 125 160 205 256 311
#     4  10  20  34  52  76 105 133 166 209 256 309
#     4   9  17  30  50  75 102 132 164 200 244 292
#     4   9  19  35  53  76 104 133 172 214 249 297
#     4   9  18  32  50  76 107 134 165 206 248 291
#
# _framework density 17.107780000000002
#
# number of rings (size 3 to 8) (size 9 to 14) (size 15 to 20)
#    0.000    2.500    0.000    3.750    0.000    8.000 
#    0.000    1.250    0.000    4.500    0.000    0.000 
#    0.000    0.000    0.000    0.000    0.000    0.000 
#
# Total GULP energy -356847.329523 kJ/mol
# GULP energy per Si atom -5575.739524 kJ/mol
# Density = 1.706884 g / cm^3
# Si number density = 17.107780 Si / 1000 Ang^3
#
#
#
# Elastic Constant Matrix: (Units=GPa)
#
#
# Indices 1 2 3 4 5 6 
#
# 1 63.0147 38.8145 32.1772 0.0000 0.0000 0.0000
# 2 38.8145 110.2845 41.0209 0.0000 0.0000 0.0000
# 3 32.1772 41.0209 37.2820 0.0000 0.0000 0.0000
# 4 0.0000 0.0000 0.0000 30.5714 0.0000 0.0000
# 5 0.0000 0.0000 0.0000 0.0000 24.7497 0.0000
# 6 0.0000 0.0000 0.0000 0.0000 0.0000 13.2632
#
#
#
# Elastic Compliance Matrix: (Units=1/GPa)
#
#
# Indices 1 2 3 4 5 6 
#
# 1 0.028519 -0.001493 -0.022971 0.000000 0.000000 0.000000
# 2 -0.001493 0.015427 -0.015686 0.000000 0.000000 0.000000
# 3 -0.022971 -0.015686 0.063908 0.000000 0.000000 0.000000
# 4 0.000000 0.000000 0.000000 0.032710 0.000000 0.000000
# 5 0.000000 0.000000 0.000000 0.000000 0.040405 0.000000
# 6 0.000000 0.000000 0.000000 0.000000 0.000000 0.075397
#
#
# Mechanical properties :
#
#
# Convention : Reuss Voigt Hill
#
# Bulk Modulus (GPa) = 36.29312 48.28961 42.29137
# Shear Modulus (GPa) = 14.45709 20.28807 17.37258
#
# Velocity S-wave (km/s) = 2.91014 3.44742 3.19011
# Velocity P-wave (km/s) = 5.70547 6.64336 6.19220
#
# Compressibility (1/GPa) = 0.02755343
#
# Stress axis : x y z
#
# Youngs Moduli (GPa) = 35.06470 64.81967 15.64749
#
# Poissons Ratio (x) = 0.09676 0.35944
# Poissons Ratio (y) = 0.05234 0.24545
# Poissons Ratio (z) = 0.80548 1.01678
#
# Static dielectric constant tensor:
#      x y z
#    x 1.585510 0.000000 0.000000 
#    y 0.000000 1.580070 0.000000 
#    z 0.000000 0.000000 1.572960 
# 
# From -- ./inp_files/8579.got.cif
#   From: 2010.05.17/outbox.cif.g08.bks.cpg/sg57_5_cif.got.tgz:8579.got - 2010.06.03 13:58:18.
