data_PCOD9436402
_publ_section_title
;
Structure prediction by ZEFSAII (Michael W. Deem and Ramdas Pophale) SiO2 
 PCOD9436402
Probable space group: P B C M
;
_chemical_formula_sum "Si O2"
_cell_formula_units_Z 40
_cell_length_a 5.214370
_cell_length_b 13.276731
_cell_length_c 27.603982
_cell_angle_alpha 90.000000
_cell_angle_beta 90.000000
_cell_angle_gamma 90.000000
_cell_volume 1911.017817
_symmetry_space_group_name_H-M "P B C M"
_symmetry_group_IT_number 57
_symmetry_cell_setting 'orthorhombic'
loop_
_space_group_symop_operation_xyz
x,y,z
-x,-y,1/2+z
x,1/2-y,-z
-x,1/2+y,1/2-z
-x,-y,-z
x,y,1/2-z
-x,1/2+y,z
x,1/2-y,1/2+z
loop_
_atom_site_type_symbol
_atom_site_label
_atom_site_fract_x
_atom_site_fract_y
_atom_site_fract_z
Si Si1 0.519327 0.693543 0.563943
Si Si2 0.975178 0.410637 0.462161
Si Si3 0.947112 0.235909 0.692633
Si Si4 0.256936 0.946545 0.136584
Si Si5 0.551125 0.666938 0.354391
O O1 0.277395 0.658590 0.532220
O O2 0.474629 0.622663 0.611442
O O3 0.523125 0.802931 0.588586
O O4 0.778771 0.660540 0.538908
O O5 0.938158 0.459405 0.408611
O O6 0.000000 0.500000 0.500000
O O7 0.967131 0.245445 0.750000
O O8 0.712524 0.303087 0.671907
O O9 0.208547 0.271439 0.667352
O O10 0.876620 0.121957 0.676920
O O11 0.375285 0.051067 0.152190
#
# Coordination Sequence:
#
# PCOD9436402 Si02
#       5
#     8   8   8   8   8
#     4   9  19  37  57  86 118 156 190 248 287 351
#     4  10  19  37  63  85 120 158 195 245 300 352
#     4  11  24  40  59  90 122 156 207 256 300 362
#     4   9  23  37  66  82 124 159 197 246 310 356
#     4  11  21  40  63  85 120 162 199 245 311 355
#
# _framework density 20.931255
#
# number of rings (size 3 to 8) (size 9 to 14) (size 15 to 20)
#    1.200    0.800    2.000    1.200    2.800    1.600 
#    0.000    1.000    0.000    0.000    0.000    0.000 
#    0.000    0.000    0.000    0.000    0.000    0.000 
#
# Total GULP energy -223163.698938 kJ/mol
# GULP energy per Si atom -5579.092473 kJ/mol
# Density = 2.088361 g / cm^3
# Si number density = 20.931255 Si / 1000 Ang^3
#
#
#
# Elastic Constant Matrix: (Units=GPa)
#
#
# Indices 1 2 3 4 5 6 
#
# 1 135.2970 2.9840 23.9358 0.0000 0.0000 0.0000
# 2 2.9840 71.5375 17.2314 0.0000 0.0000 0.0000
# 3 23.9358 17.2314 65.8957 0.0000 0.0000 0.0000
# 4 0.0000 0.0000 0.0000 14.5445 0.0000 0.0000
# 5 0.0000 0.0000 0.0000 0.0000 26.2589 0.0000
# 6 0.0000 0.0000 0.0000 0.0000 0.0000 36.8782
#
#
#
# Elastic Compliance Matrix: (Units=1/GPa)
#
#
# Indices 1 2 3 4 5 6 
#
# 1 0.007909 0.000386 -0.002974 0.000000 0.000000 0.000000
# 2 0.000386 0.014937 -0.004046 0.000000 0.000000 0.000000
# 3 -0.002974 -0.004046 0.017314 0.000000 0.000000 0.000000
# 4 0.000000 0.000000 0.000000 0.068755 0.000000 0.000000
# 5 0.000000 0.000000 0.000000 0.000000 0.038082 0.000000
# 6 0.000000 0.000000 0.000000 0.000000 0.000000 0.027116
#
#
# Mechanical properties :
#
#
# Convention : Reuss Voigt Hill
#
# Bulk Modulus (GPa) = 37.18542 40.11472 38.65007
# Shear Modulus (GPa) = 25.46542 30.77491 28.12017
#
# Velocity S-wave (km/s) = 3.49179 3.83859 3.66929
# Velocity P-wave (km/s) = 5.83617 6.23321 6.03796
#
# Compressibility (1/GPa) = 0.02689226
#
# Stress axis : x y z
#
# Youngs Moduli (GPa) = 126.44258 66.94683 57.75737
#
# Poissons Ratio (x) = -0.02587 0.17176
# Poissons Ratio (y) = -0.04886 0.23371
# Poissons Ratio (z) = 0.37601 0.27089
#
# Static dielectric constant tensor:
#      x y z
#    x 1.735450 0.000000 0.000000 
#    y 0.000000 1.754270 0.000000 
#    z 0.000000 0.000000 1.769630 
# 
# From -- ./inp_files/29047.got.cif
#   From: 2010.05.17/outbox.cif.g08.bks.cpg/sg57_15_cif.got.tgz:29047.got - 2010.06.03 13:58:18.
