data_PCOD9436877
_publ_section_title
;
Structure prediction by ZEFSAII (Michael W. Deem and Ramdas Pophale) SiO2 
 PCOD9436877
Probable space group: P B C M
;
_chemical_formula_sum "Si O2"
_cell_formula_units_Z 40
_cell_length_a 26.793430
_cell_length_b 9.198864
_cell_length_c 8.710313
_cell_angle_alpha 90.000000
_cell_angle_beta 90.000000
_cell_angle_gamma 90.000000
_cell_volume 2146.823168
_symmetry_space_group_name_H-M "P B C M"
_symmetry_group_IT_number 57
_symmetry_cell_setting 'orthorhombic'
loop_
_space_group_symop_operation_xyz
x,y,z
-x,-y,1/2+z
x,1/2-y,-z
-x,1/2+y,1/2-z
-x,-y,-z
x,y,1/2-z
-x,1/2+y,z
x,1/2-y,1/2+z
loop_
_atom_site_type_symbol
_atom_site_label
_atom_site_fract_x
_atom_site_fract_y
_atom_site_fract_z
Si Si1 0.046816 0.912124 0.433860
Si Si2 0.546276 0.412500 0.066271
Si Si3 0.758982 0.414108 0.933457
Si Si4 0.656009 0.414141 0.065775
Si Si5 0.852599 0.588143 0.065632
O O1 0.047741 0.750000 0.500000
O O2 0.042823 0.905648 0.250000
O O3 0.097855 0.996327 0.473336
O O4 0.000000 0.000000 0.500000
O O5 0.543005 0.406221 0.250000
O O6 0.601303 0.477252 0.027891
O O7 0.544428 0.250000 0.000000
O O8 0.500000 0.500000 0.000000
O O9 0.759147 0.406765 0.750000
O O10 0.763533 0.250000 0.000000
O O11 0.705981 0.478033 0.991861
O O12 0.804644 0.508675 0.994942
O O13 0.661458 0.409794 0.250000
O O14 0.654323 0.250000 0.000000
O O15 0.847969 0.593001 0.250000
O O16 0.857062 0.750000 0.000000
#
# Coordination Sequence:
#
# PCOD9436877 Si02
#       5
#     8   8   8   8   8
#     4  11  24  41  64  91 121 155 193 236 282 332
#     4  10  20  34  54  79 109 144 183 228 278 332
#     4  11  21  35  58  85 112 145 185 232 280 331
#     4   9  17  31  52  78 107 141 182 228 277 332
#     4  11  24  41  60  85 117 153 190 232 281 335
#
# _framework density 18.632180999999999
#
# number of rings (size 3 to 8) (size 9 to 14) (size 15 to 20)
#    0.000    1.600    0.000    6.600    0.000    8.800 
#    0.000    1.000    0.000    4.800    0.000    0.000 
#    0.000    0.000    0.000    0.000    0.000    0.000 
#
# Total GULP energy -223418.714306 kJ/mol
# GULP energy per Si atom -5585.467858 kJ/mol
# Density = 1.858977 g / cm^3
# Si number density = 18.632181 Si / 1000 Ang^3
#
#
#
# Elastic Constant Matrix: (Units=GPa)
#
#
# Indices 1 2 3 4 5 6 
#
# 1 233.7552 95.1904 95.6932 0.0000 0.0000 0.0000
# 2 95.1904 110.3870 51.1711 0.0000 0.0000 0.0000
# 3 95.6932 51.1711 106.8028 0.0000 0.0000 0.0000
# 4 0.0000 0.0000 0.0000 32.1921 0.0000 0.0000
# 5 0.0000 0.0000 0.0000 0.0000 33.0960 0.0000
# 6 0.0000 0.0000 0.0000 0.0000 0.0000 33.2068
#
#
#
# Elastic Compliance Matrix: (Units=1/GPa)
#
#
# Indices 1 2 3 4 5 6 
#
# 1 0.008357 -0.004802 -0.005187 0.000000 0.000000 0.000000
# 2 -0.004802 0.014405 -0.002599 0.000000 0.000000 0.000000
# 3 -0.005187 -0.002599 0.015256 0.000000 0.000000 0.000000
# 4 0.000000 0.000000 0.000000 0.031064 0.000000 0.000000
# 5 0.000000 0.000000 0.000000 0.000000 0.030215 0.000000
# 6 0.000000 0.000000 0.000000 0.000000 0.000000 0.030114
#
#
# Mechanical properties :
#
#
# Convention : Reuss Voigt Hill
#
# Bulk Modulus (GPa) = 77.87319 103.89496 90.88407
# Shear Modulus (GPa) = 31.47298 33.62500 32.54899
#
# Velocity S-wave (km/s) = 4.11441 4.25275 4.18416
# Velocity P-wave (km/s) = 8.02851 8.94408 8.49863
#
# Compressibility (1/GPa) = 0.01284139
#
# Stress axis : x y z
#
# Youngs Moduli (GPa) = 119.66328 69.42151 65.54948
#
# Poissons Ratio (x) = 0.33336 0.33999
# Poissons Ratio (y) = 0.57461 0.17037
# Poissons Ratio (z) = 0.62067 0.18044
#
# Static dielectric constant tensor:
#      x y z
#    x 1.671240 0.000000 0.000000 
#    y 0.000000 1.608180 0.000000 
#    z 0.000000 0.000000 1.621790 
# 
# From -- ./inp_files/8921.got.cif
#   From: 2010.05.17/outbox.cif.g08.bks.cpg/sg57_5_cif.got.tgz:8921.got - 2010.06.03 13:58:18.
