data_PCOD9436125
_publ_section_title
;
Structure prediction by ZEFSAII (Michael W. Deem and Ramdas Pophale) SiO2 
 PCOD9436125
Probable space group: P B C M
;
_chemical_formula_sum "Si O2"
_cell_formula_units_Z 60
_cell_length_a 9.028532
_cell_length_b 23.710741
_cell_length_c 13.872735
_cell_angle_alpha 90.000000
_cell_angle_beta 90.000000
_cell_angle_gamma 90.000000
_cell_volume 2969.780550
_symmetry_space_group_name_H-M "P B C M"
_symmetry_group_IT_number 57
_symmetry_cell_setting 'orthorhombic'
loop_
_space_group_symop_operation_xyz
x,y,z
-x,-y,1/2+z
x,1/2-y,-z
-x,1/2+y,1/2-z
-x,-y,-z
x,y,1/2-z
-x,1/2+y,z
x,1/2-y,1/2+z
loop_
_atom_site_type_symbol
_atom_site_label
_atom_site_fract_x
_atom_site_fract_y
_atom_site_fract_z
Si Si1 0.706531 0.091483 0.143202
Si Si2 0.459830 0.319995 0.639749
Si Si3 0.668294 0.250000 0.000000
Si Si4 0.110256 0.080067 0.636713
Si Si5 0.122896 0.344920 0.862053
Si Si6 0.878748 0.519593 0.140077
Si Si7 0.664345 0.515367 0.964799
Si Si8 0.897226 0.158274 0.987734
O O1 0.769546 0.103650 0.250000
O O2 0.545940 0.120487 0.138506
O O3 0.801680 0.116149 0.055624
O O4 0.688568 0.026168 0.124967
O O5 0.459764 0.299709 0.750000
O O6 0.560831 0.279857 0.575808
O O7 0.290935 0.329745 0.610781
O O8 0.777962 0.203777 0.952623
O O9 0.133800 0.090835 0.750000
O O10 0.264044 0.073398 0.577005
O O11 0.998401 0.125651 0.589364
O O12 0.021318 0.020318 0.626727
O O13 0.100688 0.330119 0.750000
O O14 0.098294 0.412969 0.870230
O O15 0.010313 0.315384 0.934309
O O16 0.825969 0.510484 0.250000
O O17 0.763531 0.502631 0.058463
O O18 0.500000 0.500000 0.000000
#
# Coordination Sequence:
#
# PCOD9436125 Si02
#       8
#     8   8   4   8   8   8   8   8
#     4  10  20  35  57  87 121 156 201 248 293 353
#     4   9  20  39  61  88 119 154 199 253 308 358
#     4  10  24  40  64  88 116 158 204 258 314 368
#     4  11  23  39  58  86 130 169 205 247 295 363
#     4  10  19  34  62  92 118 150 197 254 302 353
#     4  10  20  36  59  90 124 162 202 242 291 357
#     4  12  22  34  56  86 124 164 200 236 294 365
#     4  11  21  39  62  90 117 159 207 253 311 354
#
# _framework density 20.203513000000001
#
# number of rings (size 3 to 8) (size 9 to 14) (size 15 to 20)
#    0.000    1.600    2.667    2.800    0.000    4.800 
#    0.000    0.000    0.000    0.800    0.000    0.000 
#    0.000    0.000    0.000    0.000    0.000    0.000 
#
# Total GULP energy -334615.995254 kJ/mol
# GULP energy per Si atom -5576.933254 kJ/mol
# Density = 2.015753 g / cm^3
# Si number density = 20.203513 Si / 1000 Ang^3
#
#
#
# Elastic Constant Matrix: (Units=GPa)
#
#
# Indices 1 2 3 4 5 6 
#
# 1 90.0720 4.9873 16.7671 0.0000 0.0000 0.0000
# 2 4.9873 44.7447 1.5506 0.0000 0.0000 0.0000
# 3 16.7671 1.5506 65.7528 0.0000 0.0000 0.0000
# 4 0.0000 0.0000 0.0000 19.3965 0.0000 0.0000
# 5 0.0000 0.0000 0.0000 0.0000 29.0516 0.0000
# 6 0.0000 0.0000 0.0000 0.0000 0.0000 16.8177
#
#
#
# Elastic Compliance Matrix: (Units=1/GPa)
#
#
# Indices 1 2 3 4 5 6 
#
# 1 0.011720 -0.001204 -0.002960 0.000000 0.000000 0.000000
# 2 -0.001204 0.022491 -0.000223 0.000000 0.000000 0.000000
# 3 -0.002960 -0.000223 0.015969 0.000000 0.000000 0.000000
# 4 0.000000 0.000000 0.000000 0.051556 0.000000 0.000000
# 5 0.000000 0.000000 0.000000 0.000000 0.034421 0.000000
# 6 0.000000 0.000000 0.000000 0.000000 0.000000 0.059461
#
#
# Mechanical properties :
#
#
# Convention : Reuss Voigt Hill
#
# Bulk Modulus (GPa) = 24.15183 27.46437 25.80810
# Shear Modulus (GPa) = 22.91539 24.87081 23.89310
#
# Velocity S-wave (km/s) = 3.37148 3.51239 3.44266
# Velocity P-wave (km/s) = 5.20923 5.48384 5.34830
#
# Compressibility (1/GPa) = 0.04140472
#
# Stress axis : x y z
#
# Youngs Moduli (GPa) = 85.32470 44.46235 62.62286
#
# Poissons Ratio (x) = 0.05352 0.18538
# Poissons Ratio (y) = 0.10271 0.01399
# Poissons Ratio (z) = 0.25258 0.00993
#
# Static dielectric constant tensor:
#      x y z
#    x 1.760110 0.000000 0.000000 
#    y 0.000000 1.771830 0.000000 
#    z 0.000000 0.000000 1.717600 
# 
# From -- ./inp_files/17021.got.cif
#   From: 2010.05.17/outbox.cif.g08.bks.cpg/sg57_9_cif.got.tgz:17021.got - 2010.06.03 13:58:18.
