data_PCOD9436307
_publ_section_title
;
Structure prediction by ZEFSAII (Michael W. Deem and Ramdas Pophale) SiO2 
 PCOD9436307
Probable space group: P B C M
;
_chemical_formula_sum "Si O2"
_cell_formula_units_Z 48
_cell_length_a 17.355267
_cell_length_b 16.468914
_cell_length_c 7.867121
_cell_angle_alpha 90.000000
_cell_angle_beta 90.000000
_cell_angle_gamma 90.000000
_cell_volume 2248.599403
_symmetry_space_group_name_H-M "P B C M"
_symmetry_group_IT_number 57
_symmetry_cell_setting 'orthorhombic'
loop_
_space_group_symop_operation_xyz
x,y,z
-x,-y,1/2+z
x,1/2-y,-z
-x,1/2+y,1/2-z
-x,-y,-z
x,y,1/2-z
-x,1/2+y,z
x,1/2-y,1/2+z
loop_
_atom_site_type_symbol
_atom_site_label
_atom_site_fract_x
_atom_site_fract_y
_atom_site_fract_z
Si Si1 0.685719 0.841538 0.045250
Si Si2 0.161024 0.077041 0.547063
Si Si3 0.672778 0.162328 0.454312
Si Si4 0.410587 0.001805 0.954884
Si Si5 0.004161 0.341599 0.951770
Si Si6 0.164033 0.892557 0.541700
O O1 0.685662 0.844820 0.250000
O O2 0.772676 0.862283 0.982679
O O3 0.631433 0.915631 0.984301
O O4 0.662810 0.750000 0.000000
O O5 0.169063 0.075357 0.750000
O O6 0.073961 0.102284 0.510073
O O7 0.175569 0.985625 0.487477
O O8 0.638968 0.250000 0.500000
O O9 0.673761 0.157562 0.250000
O O10 0.761405 0.156923 0.515770
O O11 0.629115 0.081704 0.516925
O O12 0.403013 0.001908 0.750000
O O13 0.500000 0.000000 0.000000
O O14 0.000153 0.348645 0.750000
O O15 0.919128 0.362517 0.020170
O O16 0.023788 0.250000 0.000000
O O17 0.162800 0.890469 0.750000
#
# Coordination Sequence:
#
# PCOD9436307 Si02
#       6
#     8   8   8   8   8   8
#     4  10  21  38  61  86 114 152 193 233 283 340
#     4  10  19  36  59  80 109 150 192 236 285 334
#     4  10  20  38  62  87 116 153 193 233 283 341
#     4  10  22  41  63  86 116 151 187 231 287 347
#     4  11  22  34  50  78 113 149 192 238 282 332
#     4   9  18  35  58  80 109 151 193 233 282 337
#
# _framework density 21.346623000000001
#
# number of rings (size 3 to 8) (size 9 to 14) (size 15 to 20)
#    0.000    2.000    1.667    2.000    0.000    4.000 
#    0.000    5.833    0.000    0.000    0.000    0.000 
#    0.000    0.000    0.000    0.000    0.000    0.000 
#
# Total GULP energy -268046.959724 kJ/mol
# GULP energy per Si atom -5584.311661 kJ/mol
# Density = 2.129804 g / cm^3
# Si number density = 21.346623 Si / 1000 Ang^3
#
#
#
# Elastic Constant Matrix: (Units=GPa)
#
#
# Indices 1 2 3 4 5 6 
#
# 1 115.6507 49.5581 0.6161 0.0000 0.0000 0.0000
# 2 49.5581 148.3596 4.8350 0.0000 0.0000 0.0000
# 3 0.6161 4.8350 17.9144 0.0000 0.0000 0.0000
# 4 0.0000 0.0000 0.0000 18.1376 0.0000 0.0000
# 5 0.0000 0.0000 0.0000 0.0000 69.3226 0.0000
# 6 0.0000 0.0000 0.0000 0.0000 0.0000 16.7709
#
#
#
# Elastic Compliance Matrix: (Units=1/GPa)
#
#
# Indices 1 2 3 4 5 6 
#
# 1 0.010097 -0.003391 0.000568 0.000000 0.000000 0.000000
# 2 -0.003391 0.007939 -0.002026 0.000000 0.000000 0.000000
# 3 0.000568 -0.002026 0.056348 0.000000 0.000000 0.000000
# 4 0.000000 0.000000 0.000000 0.055134 0.000000 0.000000
# 5 0.000000 0.000000 0.000000 0.000000 0.014425 0.000000
# 6 0.000000 0.000000 0.000000 0.000000 0.000000 0.059627
#
#
# Mechanical properties :
#
#
# Convention : Reuss Voigt Hill
#
# Bulk Modulus (GPa) = 15.45938 43.54923 29.50431
# Shear Modulus (GPa) = 21.29188 35.97394 28.63291
#
# Velocity S-wave (km/s) = 3.16165 4.10961 3.66639
# Velocity P-wave (km/s) = 4.53716 6.55468 5.63691
#
# Compressibility (1/GPa) = 0.06468565
#
# Stress axis : x y z
#
# Youngs Moduli (GPa) = 99.04014 125.95673 17.74679
#
# Poissons Ratio (x) = 0.42716 -0.01008
# Poissons Ratio (y) = 0.33587 0.03596
# Poissons Ratio (z) = -0.05626 0.25520
#
# Static dielectric constant tensor:
#      x y z
#    x 1.772690 0.000000 0.000000 
#    y 0.000000 1.762720 0.000000 
#    z 0.000000 0.000000 2.016070 
# 
# From -- ./inp_files/6522.got.cif
#   From: 2010.05.17/outbox.cif.g08.bks.cpg/sg57_4_cif.got.tgz:6522.got - 2010.06.03 13:58:18.
