data_PCOD9436980
_publ_section_title
;
Structure prediction by ZEFSAII (Michael W. Deem and Ramdas Pophale) SiO2 
 PCOD9436980
Probable space group: P B C M
;
_chemical_formula_sum "Si O2"
_cell_formula_units_Z 56
_cell_length_a 17.547008
_cell_length_b 20.259731
_cell_length_c 8.976448
_cell_angle_alpha 90.000000
_cell_angle_beta 90.000000
_cell_angle_gamma 90.000000
_cell_volume 3191.106276
_symmetry_space_group_name_H-M "P B C M"
_symmetry_group_IT_number 57
_symmetry_cell_setting 'orthorhombic'
loop_
_space_group_symop_operation_xyz
x,y,z
-x,-y,1/2+z
x,1/2-y,-z
-x,1/2+y,1/2-z
-x,-y,-z
x,y,1/2-z
-x,1/2+y,z
x,1/2-y,1/2+z
loop_
_atom_site_type_symbol
_atom_site_label
_atom_site_fract_x
_atom_site_fract_y
_atom_site_fract_z
Si Si1 0.176943 0.820192 0.072281
Si Si2 0.379070 0.180439 0.071164
Si Si3 0.270381 0.440030 0.930065
Si Si4 0.556607 0.179791 0.428171
Si Si5 0.321041 0.913529 0.071763
Si Si6 0.954124 0.097499 0.426868
Si Si7 0.894344 0.948516 0.073068
O O1 0.170446 0.813966 0.250000
O O2 0.244562 0.871872 0.039438
O O3 0.195246 0.750000 0.000000
O O4 0.099213 0.848781 0.004139
O O5 0.375416 0.186154 0.250000
O O6 0.325271 0.120074 0.025958
O O7 0.467804 0.168279 0.032010
O O8 0.355985 0.250000 0.000000
O O9 0.262092 0.439806 0.750000
O O10 0.306926 0.510655 0.971428
O O11 0.187578 0.434305 0.003096
O O12 0.579538 0.250000 0.500000
O O13 0.563044 0.184340 0.250000
O O14 0.609703 0.122103 0.489782
O O15 0.333832 0.910955 0.250000
O O16 0.958101 0.108276 0.250000
O O17 0.038069 0.092751 0.496616
O O18 0.915381 0.025647 0.453079
O O19 0.894165 0.937454 0.250000
#
# Coordination Sequence:
#
# PCOD9436980 Si02
#       7
#     8   8   8   8   8   8   8
#     4  11  22  36  54  79 113 151 188 229 279 331
#     4   9  20  38  59  81 108 144 184 229 280 334
#     4  10  20  37  58  82 113 146 183 229 282 334
#     4  10  20  35  55  79 109 147 189 229 274 329
#     4  10  21  35  54  81 112 147 185 228 278 333
#     4  10  20  35  56  80 108 144 184 225 272 326
#     4  10  20  34  56  84 111 140 180 227 274 326
#
# _framework density 17.548773000000001
#
# number of rings (size 3 to 8) (size 9 to 14) (size 15 to 20)
#    0.000    2.000    1.429    2.143    0.000    5.714 
#    0.000    0.714    0.000    1.714    0.000    0.000 
#    0.000    0.000    0.000    0.000    0.000    0.000 
#
# Total GULP energy -312723.598191 kJ/mol
# GULP energy per Si atom -5584.349968 kJ/mol
# Density = 1.750883 g / cm^3
# Si number density = 17.548773 Si / 1000 Ang^3
#
#
#
# Elastic Constant Matrix: (Units=GPa)
#
#
# Indices 1 2 3 4 5 6 
#
# 1 124.2336 88.5165 51.5562 0.0000 0.0000 0.0000
# 2 88.5165 139.0614 54.4370 0.0000 0.0000 0.0000
# 3 51.5562 54.4370 39.3457 0.0000 0.0000 0.0000
# 4 0.0000 0.0000 0.0000 28.3811 0.0000 0.0000
# 5 0.0000 0.0000 0.0000 0.0000 29.6737 0.0000
# 6 0.0000 0.0000 0.0000 0.0000 0.0000 25.7727
#
#
#
# Elastic Compliance Matrix: (Units=1/GPa)
#
#
# Indices 1 2 3 4 5 6 
#
# 1 0.019214 -0.005180 -0.018010 0.000000 0.000000 0.000000
# 2 -0.005180 0.017084 -0.016849 0.000000 0.000000 0.000000
# 3 -0.018010 -0.016849 0.072327 0.000000 0.000000 0.000000
# 4 0.000000 0.000000 0.000000 0.035235 0.000000 0.000000
# 5 0.000000 0.000000 0.000000 0.000000 0.033700 0.000000
# 6 0.000000 0.000000 0.000000 0.000000 0.000000 0.038801
#
#
# Mechanical properties :
#
#
# Convention : Reuss Voigt Hill
#
# Bulk Modulus (GPa) = 35.03065 76.85112 55.94089
# Shear Modulus (GPa) = 16.34224 23.97423 20.15823
#
# Velocity S-wave (km/s) = 3.05494 3.70015 3.39292
# Velocity P-wave (km/s) = 5.69638 7.88307 6.87719
#
# Compressibility (1/GPa) = 0.02854643
#
# Stress axis : x y z
#
# Youngs Moduli (GPa) = 52.04414 58.53381 13.82608
#
# Poissons Ratio (x) = 0.30322 0.24901
# Poissons Ratio (y) = 0.26960 0.23296
# Poissons Ratio (z) = 0.93733 0.98624
#
# Static dielectric constant tensor:
#      x y z
#    x 1.576620 0.000000 0.000000 
#    y 0.000000 1.579230 0.000000 
#    z 0.000000 0.000000 1.583750 
# 
# From -- ./inp_files/5288.got.cif
#   From: 2010.05.17/outbox.cif.g08.bks.cpg/sg57_3_cif.got.tgz:5288.got - 2010.06.03 13:58:18.
