data_PCOD9436579
_publ_section_title
;
Structure prediction by ZEFSAII (Michael W. Deem and Ramdas Pophale) SiO2 
 PCOD9436579
Probable space group: P B C M
;
_chemical_formula_sum "Si O2"
_cell_formula_units_Z 48
_cell_length_a 16.685352
_cell_length_b 18.735889
_cell_length_c 9.212840
_cell_angle_alpha 90.000000
_cell_angle_beta 90.000000
_cell_angle_gamma 90.000000
_cell_volume 2880.071083
_symmetry_space_group_name_H-M "P B C M"
_symmetry_group_IT_number 57
_symmetry_cell_setting 'orthorhombic'
loop_
_space_group_symop_operation_xyz
x,y,z
-x,-y,1/2+z
x,1/2-y,-z
-x,1/2+y,1/2-z
-x,-y,-z
x,y,1/2-z
-x,1/2+y,z
x,1/2-y,1/2+z
loop_
_atom_site_type_symbol
_atom_site_label
_atom_site_fract_x
_atom_site_fract_y
_atom_site_fract_z
Si Si1 0.797736 0.858555 0.084706
Si Si2 0.740483 0.476316 0.583841
Si Si3 0.638691 0.682732 0.079138
Si Si4 0.105758 0.563072 0.917910
Si Si5 0.581857 0.978128 0.922824
Si Si6 0.049468 0.396081 0.917624
O O1 0.799336 0.831506 0.250000
O O2 0.774740 0.942661 0.091273
O O3 0.726704 0.825757 0.990374
O O4 0.882950 0.853542 0.005841
O O5 0.728978 0.452120 0.750000
O O6 0.809218 0.433278 0.499089
O O7 0.657429 0.482181 0.496707
O O8 0.644378 0.695753 0.250000
O O9 0.596000 0.606785 0.056199
O O10 0.598952 0.750000 0.000000
O O11 0.111346 0.584821 0.750000
O O12 0.078516 0.479354 0.918008
O O13 0.035962 0.604298 0.003088
O O14 0.580143 0.991772 0.750000
O O15 0.500000 0.000000 0.000000
O O16 0.044498 0.373843 0.750000
#
# Coordination Sequence:
#
# PCOD9436579 Si02
#       6
#     8   8   8   8   8   8
#     4   9  16  26  40  58  82 113 147 182 221 265
#     4   9  16  26  40  58  82 113 147 183 226 275
#     4  10  20  33  49  69  93 122 156 193 234 283
#     4   9  15  22  33  51  77 109 144 180 217 258
#     4  10  20  33  49  69  93 122 156 195 242 295
#     4   9  15  22  33  51  77 109 144 179 214 254
#
# _framework density 16.666256000000001
#
# number of rings (size 3 to 8) (size 9 to 14) (size 15 to 20)
#    0.000    2.667    0.000    3.000    0.000   10.000 
#    0.000    0.000    0.000    0.000    0.000    0.000 
#    0.000    1.333    0.000   11.333    0.000   19.500 
#
# Total GULP energy -267544.853538 kJ/mol
# GULP energy per Si atom -5573.851115 kJ/mol
# Density = 1.662832 g / cm^3
# Si number density = 16.666256 Si / 1000 Ang^3
#
#
#
# Elastic Constant Matrix: (Units=GPa)
#
#
# Indices 1 2 3 4 5 6 
#
# 1 149.3526 27.0066 100.6153 0.0000 0.0000 0.0000
# 2 27.0066 24.8601 37.2085 0.0000 0.0000 0.0000
# 3 100.6153 37.2085 173.8431 0.0000 0.0000 0.0000
# 4 0.0000 0.0000 0.0000 14.6481 0.0000 0.0000
# 5 0.0000 0.0000 0.0000 0.0000 30.8837 0.0000
# 6 0.0000 0.0000 0.0000 0.0000 0.0000 5.6361
#
#
#
# Elastic Compliance Matrix: (Units=1/GPa)
#
#
# Indices 1 2 3 4 5 6 
#
# 1 0.011192 -0.003624 -0.005702 0.000000 0.000000 0.000000
# 2 -0.003624 0.060359 -0.010821 0.000000 0.000000 0.000000
# 3 -0.005702 -0.010821 0.011369 0.000000 0.000000 0.000000
# 4 0.000000 0.000000 0.000000 0.068268 0.000000 0.000000
# 5 0.000000 0.000000 0.000000 0.000000 0.032379 0.000000
# 6 0.000000 0.000000 0.000000 0.000000 0.000000 0.177428
#
#
# Mechanical properties :
#
#
# Convention : Reuss Voigt Hill
#
# Bulk Modulus (GPa) = 23.46080 75.30186 49.38133
# Shear Modulus (GPa) = 12.03374 22.44861 17.24118
#
# Velocity S-wave (km/s) = 2.69000 3.67406 3.21985
# Velocity P-wave (km/s) = 4.87396 7.95479 6.59675
#
# Compressibility (1/GPa) = 0.04262429
#
# Stress axis : x y z
#
# Youngs Moduli (GPa) = 89.34766 16.56767 87.96175
#
# Poissons Ratio (x) = 0.06005 0.50156
# Poissons Ratio (y) = 0.32383 0.95185
# Poissons Ratio (z) = 0.50946 0.17928
#
# Static dielectric constant tensor:
#      x y z
#    x 1.539210 0.000000 0.000000 
#    y 0.000000 1.584120 0.000000 
#    z 0.000000 0.000000 1.563630 
# 
# From -- ./inp_files/4851.got.cif
#   From: 2010.05.17/outbox.cif.g08.bks.cpg/sg57_3_cif.got.tgz:4851.got - 2010.06.03 13:58:18.
