data_PCOD9436299
_publ_section_title
;
Structure prediction by ZEFSAII (Michael W. Deem and Ramdas Pophale) SiO2 
 PCOD9436299
Probable space group: P B C M
;
_chemical_formula_sum "Si O2"
_cell_formula_units_Z 56
_cell_length_a 7.050694
_cell_length_b 19.890176
_cell_length_c 20.172230
_cell_angle_alpha 90.000000
_cell_angle_beta 90.000000
_cell_angle_gamma 90.000000
_cell_volume 2828.944348
_symmetry_space_group_name_H-M "P B C M"
_symmetry_group_IT_number 57
_symmetry_cell_setting 'orthorhombic'
loop_
_space_group_symop_operation_xyz
x,y,z
-x,-y,1/2+z
x,1/2-y,-z
-x,1/2+y,1/2-z
-x,-y,-z
x,y,1/2-z
-x,1/2+y,z
x,1/2-y,1/2+z
loop_
_atom_site_type_symbol
_atom_site_label
_atom_site_fract_x
_atom_site_fract_y
_atom_site_fract_z
Si Si1 0.191840 0.418695 0.470207
Si Si2 0.141130 0.724014 0.328132
Si Si3 0.488706 0.959692 0.115574
Si Si4 0.914774 0.976254 0.900551
Si Si5 0.184384 0.273215 0.075984
Si Si6 0.499301 0.685799 0.825141
Si Si7 0.251748 0.576847 0.173227
O O1 0.410801 0.434937 0.452643
O O2 0.152152 0.418902 0.548089
O O3 0.129043 0.351186 0.434158
O O4 0.066585 0.477374 0.438392
O O5 0.080562 0.717846 0.250000
O O6 0.286476 0.786282 0.331545
O O7 0.252911 0.655266 0.346011
O O8 0.973110 0.735646 0.380308
O O9 0.512159 0.894248 0.162115
O O10 0.270436 0.980091 0.113334
O O11 0.605495 0.025573 0.137739
O O12 0.035103 0.946662 0.840417
O O13 0.373534 0.276650 0.120301
O O14 0.212381 0.250000 0.000000
O O15 0.564439 0.700460 0.750000
O O16 0.297434 0.572550 0.250000
#
# Coordination Sequence:
#
# PCOD9436299 Si02
#       7
#     8   8   8   8   8   8   8
#     4   9  20  35  54  84 113 141 186 235 278 343
#     4  10  22  40  59  82 117 158 197 242 297 354
#     4  10  20  36  60  86 114 148 190 237 289 350
#     4  10  19  36  58  79 111 150 180 224 294 347
#     4  11  22  37  58  85 115 151 197 244 293 349
#     4  10  22  40  61  86 117 156 199 244 297 357
#     4  10  22  36  53  83 114 142 188 240 280 336
#
# _framework density 19.795370999999999
#
# number of rings (size 3 to 8) (size 9 to 14) (size 15 to 20)
#    0.000    2.000    0.000    3.000    0.000    4.000 
#    0.000   10.714    0.000    0.000    0.000    0.000 
#    0.000    0.000    0.000    0.000    0.000    0.000 
#
# Total GULP energy -312123.295092 kJ/mol
# GULP energy per Si atom -5573.630269 kJ/mol
# Density = 1.975032 g / cm^3
# Si number density = 19.795371 Si / 1000 Ang^3
#
#
#
# Elastic Constant Matrix: (Units=GPa)
#
#
# Indices 1 2 3 4 5 6 
#
# 1 54.2251 3.4231 21.0367 0.0000 0.0000 0.0000
# 2 3.4231 62.2326 9.3424 0.0000 0.0000 0.0000
# 3 21.0367 9.3424 76.7785 0.0000 0.0000 0.0000
# 4 0.0000 0.0000 0.0000 29.2834 0.0000 0.0000
# 5 0.0000 0.0000 0.0000 0.0000 13.1201 0.0000
# 6 0.0000 0.0000 0.0000 0.0000 0.0000 21.8884
#
#
#
# Elastic Compliance Matrix: (Units=1/GPa)
#
#
# Indices 1 2 3 4 5 6 
#
# 1 0.020640 -0.000292 -0.005620 0.000000 0.000000 0.000000
# 2 -0.000292 0.016372 -0.001912 0.000000 0.000000 0.000000
# 3 -0.005620 -0.001912 0.014797 0.000000 0.000000 0.000000
# 4 0.000000 0.000000 0.000000 0.034149 0.000000 0.000000
# 5 0.000000 0.000000 0.000000 0.000000 0.076219 0.000000
# 6 0.000000 0.000000 0.000000 0.000000 0.000000 0.045686
#
#
# Mechanical properties :
#
#
# Convention : Reuss Voigt Hill
#
# Bulk Modulus (GPa) = 27.65354 28.98228 28.31791
# Shear Modulus (GPa) = 21.22562 23.48731 22.35646
#
# Velocity S-wave (km/s) = 3.27808 3.44831 3.36427
# Velocity P-wave (km/s) = 5.32238 5.52514 5.42471
#
# Compressibility (1/GPa) = 0.03616174
#
# Stress axis : x y z
#
# Youngs Moduli (GPa) = 48.44895 61.08041 67.58155
#
# Poissons Ratio (x) = 0.01782 0.37979
# Poissons Ratio (y) = 0.01413 0.12923
# Poissons Ratio (z) = 0.27227 0.11680
#
# Static dielectric constant tensor:
#      x y z
#    x 1.682520 0.000000 0.000000 
#    y 0.000000 1.717560 0.000000 
#    z 0.000000 0.000000 1.705570 
# 
# From -- ./inp_files/23786.got.cif
#   From: 2010.05.17/outbox.cif.g08.bks.cpg/sg57_12_cif.got.tgz:23786.got - 2010.06.03 13:58:18.
