data_PCOD9436728
_publ_section_title
;
Structure prediction by ZEFSAII (Michael W. Deem and Ramdas Pophale) SiO2 
 PCOD9436728
Probable space group: P B C M
;
_chemical_formula_sum "Si O2"
_cell_formula_units_Z 40
_cell_length_a 6.978024
_cell_length_b 9.748651
_cell_length_c 25.198668
_cell_angle_alpha 90.000000
_cell_angle_beta 90.000000
_cell_angle_gamma 90.000000
_cell_volume 1714.172669
_symmetry_space_group_name_H-M "P B C M"
_symmetry_group_IT_number 57
_symmetry_cell_setting 'orthorhombic'
loop_
_space_group_symop_operation_xyz
x,y,z
-x,-y,1/2+z
x,1/2-y,-z
-x,1/2+y,1/2-z
-x,-y,-z
x,y,1/2-z
-x,1/2+y,z
x,1/2-y,1/2+z
loop_
_atom_site_type_symbol
_atom_site_label
_atom_site_fract_x
_atom_site_fract_y
_atom_site_fract_z
Si Si1 0.561903 0.712349 0.643067
Si Si2 0.251540 0.926491 0.639329
Si Si3 0.217783 0.605206 0.476161
Si Si4 0.322644 0.362780 0.957240
Si Si5 0.046118 0.010855 0.750000
Si Si6 0.233402 0.287722 0.750000
O O1 0.350841 0.777012 0.640169
O O2 0.590002 0.549914 0.635515
O O3 0.690566 0.792615 0.599773
O O4 0.642379 0.753697 0.699424
O O5 0.141299 0.930348 0.582868
O O6 0.144131 0.957823 0.694825
O O7 0.156695 0.750000 0.500000
O O8 0.448467 0.613314 0.464872
O O9 0.208411 0.494973 0.523258
O O10 0.269812 0.250000 0.000000
O O11 0.839225 0.942207 0.750000
O O12 0.061405 0.175426 0.750000
#
# Coordination Sequence:
#
# PCOD9436728 Si02
#       6
#     8   8   8   8   4   4
#     4  10  20  33  56  83 111 137 178 220 267 314
#     4  10  20  34  55  84 111 138 175 224 263 314
#     4   9  17  27  46  77 113 139 170 209 262 316
#     4   9  15  27  46  75 110 140 164 207 262 314
#     4  10  23  42  58  74 106 142 183 226 268 316
#     4  10  23  42  56  76 104 144 183 224 268 322
#
# _framework density 23.334873000000002
#
# number of rings (size 3 to 8) (size 9 to 14) (size 15 to 20)
#    0.000    2.400    2.000    0.600    8.400    1.600 
#    0.000    0.000    0.000    2.400    0.000    0.000 
#    0.000    0.000    0.000    0.000    0.000    0.000 
#
# Total GULP energy -223284.452649 kJ/mol
# GULP energy per Si atom -5582.111316 kJ/mol
# Density = 2.328176 g / cm^3
# Si number density = 23.334873 Si / 1000 Ang^3
#
#
#
# Elastic Constant Matrix: (Units=GPa)
#
#
# Indices 1 2 3 4 5 6 
#
# 1 43.2127 -6.2834 11.0125 0.0000 0.0000 0.0000
# 2 -6.2834 55.4850 30.0640 0.0000 0.0000 0.0000
# 3 11.0125 30.0640 182.6795 0.0000 0.0000 0.0000
# 4 0.0000 0.0000 0.0000 29.7676 0.0000 0.0000
# 5 0.0000 0.0000 0.0000 0.0000 20.3419 0.0000
# 6 0.0000 0.0000 0.0000 0.0000 0.0000 -0.8858
#
#
#
# Elastic Compliance Matrix: (Units=1/GPa)
#
#
# Indices 1 2 3 4 5 6 
#
# 1 0.024241 0.003883 -0.002100 0.000000 0.000000 0.000000
# 2 0.003883 0.020409 -0.003593 0.000000 0.000000 0.000000
# 3 -0.002100 -0.003593 0.006192 0.000000 0.000000 0.000000
# 4 0.000000 0.000000 0.000000 0.033594 0.000000 0.000000
# 5 0.000000 0.000000 0.000000 0.000000 0.049160 0.000000
# 6 0.000000 0.000000 0.000000 0.000000 0.000000 -1.128981
#
#
# Mechanical properties :
#
#
# Convention : Reuss Voigt Hill
#
# Bulk Modulus (GPa) = 21.17629 38.99593 30.08611
# Shear Modulus (GPa) = -5.12282 26.28369 10.58043
#
# Velocity S-wave (km/s) = -1.48328 3.35978 2.13167
# Velocity P-wave (km/s) = 2.48217 5.63902 4.35659
#
# Compressibility (1/GPa) = 0.04722262
#
# Stress axis : x y z
#
# Youngs Moduli (GPa) = 41.25196 48.99691 161.49902
#
# Poissons Ratio (x) = -0.19027 0.33922
# Poissons Ratio (y) = -0.16019 0.58026
# Poissons Ratio (z) = 0.08665 0.17604
#
# Static dielectric constant tensor:
#      x y z
#    x 1.935480 0.000000 0.000000 
#    y 0.000000 -0.536740 0.000000 
#    z 0.000000 0.000000 1.859470 
# 
# From -- ./inp_files/24158.got.cif
#   From: 2010.05.17/outbox.cif.g08.bks.cpg/sg57_13_cif.got.tgz:24158.got - 2010.06.03 13:58:18.
