data_PCOD9436824
_publ_section_title
;
Structure prediction by ZEFSAII (Michael W. Deem and Ramdas Pophale) SiO2 
 PCOD9436824
Probable space group: P B C M
;
_chemical_formula_sum "Si O2"
_cell_formula_units_Z 64
_cell_length_a 18.940188
_cell_length_b 21.187485
_cell_length_c 8.419980
_cell_angle_alpha 90.000000
_cell_angle_beta 90.000000
_cell_angle_gamma 90.000000
_cell_volume 3378.895446
_symmetry_space_group_name_H-M "P B C M"
_symmetry_group_IT_number 57
_symmetry_cell_setting 'orthorhombic'
loop_
_space_group_symop_operation_xyz
x,y,z
-x,-y,1/2+z
x,1/2-y,-z
-x,1/2+y,1/2-z
-x,-y,-z
x,y,1/2-z
-x,1/2+y,z
x,1/2-y,1/2+z
loop_
_atom_site_type_symbol
_atom_site_label
_atom_site_fract_x
_atom_site_fract_y
_atom_site_fract_z
Si Si1 0.794353 0.439465 0.555845
Si Si2 0.705459 0.938715 0.441856
Si Si3 0.295211 0.818930 0.558456
Si Si4 0.045868 0.181034 0.441488
Si Si5 0.791286 0.819146 0.940159
Si Si6 0.541459 0.319257 0.559596
Si Si7 0.543420 0.939794 0.059761
Si Si8 0.956835 0.060427 0.442260
O O1 0.794154 0.439290 0.750000
O O2 0.751016 0.501051 0.503817
O O3 0.754396 0.375927 0.503993
O O4 0.875584 0.441704 0.504103
O O5 0.705060 0.939752 0.250000
O O6 0.742306 0.874585 0.496575
O O7 0.624533 0.942853 0.496681
O O8 0.272461 0.750000 0.500000
O O9 0.294766 0.818644 0.750000
O O10 0.376761 0.828883 0.507607
O O11 0.023332 0.250000 0.500000
O O12 0.045531 0.181529 0.250000
O O13 0.127208 0.170713 0.493684
O O14 0.996097 0.124244 0.496092
O O15 0.790280 0.819521 0.750000
O O16 0.769367 0.750000 0.000000
O O17 0.519312 0.250000 0.500000
O O18 0.539938 0.319959 0.750000
O O19 0.493526 0.375528 0.496201
O O20 0.543901 0.941143 0.250000
O O21 0.500000 0.000000 0.000000
O O22 0.956959 0.060337 0.250000
O O23 0.000000 0.000000 0.500000
#
# Coordination Sequence:
#
# PCOD9436824 Si02
#       8
#     8   8   8   8   8   8   8   8
#     4   9  18  34  55  76 103 140 175 210 260 315
#     4  10  21  37  56  78 104 137 177 218 262 314
#     4   9  18  34  55  79 107 139 175 214 257 308
#     4   9  19  34  52  77 107 138 174 214 257 307
#     4  10  20  35  55  78 106 139 174 215 261 310
#     4  10  20  36  58  82 110 143 179 220 266 319
#     4  11  23  38  57  81 109 141 179 223 269 320
#     4  10  20  34  53  77 105 137 174 216 260 309
#
# _framework density 18.941101
#
# number of rings (size 3 to 8) (size 9 to 14) (size 15 to 20)
#    0.000    2.250    0.000    2.625    0.000    5.500 
#    0.000    1.250    0.000    0.000    0.000    0.000 
#    0.000    0.000    0.000    0.000    0.000    0.000 
#
# Total GULP energy -357407.721486 kJ/mol
# GULP energy per Si atom -5584.495648 kJ/mol
# Density = 1.889799 g / cm^3
# Si number density = 18.941101 Si / 1000 Ang^3
#
#
#
# Elastic Constant Matrix: (Units=GPa)
#
#
# Indices 1 2 3 4 5 6 
#
# 1 159.7075 142.1302 24.6934 0.0000 0.0000 0.0000
# 2 142.1302 213.7207 24.6468 0.0000 0.0000 0.0000
# 3 24.6934 24.6468 13.8949 0.0000 0.0000 0.0000
# 4 0.0000 0.0000 0.0000 34.0785 0.0000 0.0000
# 5 0.0000 0.0000 0.0000 0.0000 9.3308 0.0000
# 6 0.0000 0.0000 0.0000 0.0000 0.0000 42.9562
#
#
#
# Elastic Compliance Matrix: (Units=1/GPa)
#
#
# Indices 1 2 3 4 5 6 
#
# 1 0.016963 -0.009812 -0.012743 0.000000 0.000000 0.000000
# 2 -0.009812 0.011557 -0.003064 0.000000 0.000000 0.000000
# 3 -0.012743 -0.003064 0.100049 0.000000 0.000000 0.000000
# 4 0.000000 0.000000 0.000000 0.029344 0.000000 0.000000
# 5 0.000000 0.000000 0.000000 0.000000 0.107172 0.000000
# 6 0.000000 0.000000 0.000000 0.000000 0.000000 0.023280
#
#
# Mechanical properties :
#
#
# Convention : Reuss Voigt Hill
#
# Bulk Modulus (GPa) = 12.93101 85.58487 49.25794
# Shear Modulus (GPa) = 13.68441 30.32994 22.00718
#
# Velocity S-wave (km/s) = 2.69080 4.00594 3.41233
# Velocity P-wave (km/s) = 4.06148 8.16575 6.44884
#
# Compressibility (1/GPa) = 0.07733347
#
# Stress axis : x y z
#
# Youngs Moduli (GPa) = 58.95016 86.52523 9.99514
#
# Poissons Ratio (x) = 0.84896 0.12737
# Poissons Ratio (y) = 0.57840 0.03062
# Poissons Ratio (z) = 0.75119 0.26507
#
# Static dielectric constant tensor:
#      x y z
#    x 1.652020 0.000000 0.000000 
#    y 0.000000 1.616050 0.000000 
#    z 0.000000 0.000000 1.652370 
# 
# From -- ./inp_files/7199.got.cif
#   From: 2010.05.17/outbox.cif.g08.bks.cpg/sg57_4_cif.got.tgz:7199.got - 2010.06.03 13:58:18.
