data_PCOD9436478
_publ_section_title
;
Structure prediction by ZEFSAII (Michael W. Deem and Ramdas Pophale) SiO2 
 PCOD9436478
Probable space group: P B C M
;
_chemical_formula_sum "Si O2"
_cell_formula_units_Z 28
_cell_length_a 12.902035
_cell_length_b 5.053992
_cell_length_c 20.146387
_cell_angle_alpha 90.000000
_cell_angle_beta 90.000000
_cell_angle_gamma 90.000000
_cell_volume 1313.681059
_symmetry_space_group_name_H-M "P B C M"
_symmetry_group_IT_number 57
_symmetry_cell_setting 'orthorhombic'
loop_
_space_group_symop_operation_xyz
x,y,z
-x,-y,1/2+z
x,1/2-y,-z
-x,1/2+y,1/2-z
-x,-y,-z
x,y,1/2-z
-x,1/2+y,z
x,1/2-y,1/2+z
loop_
_atom_site_type_symbol
_atom_site_label
_atom_site_fract_x
_atom_site_fract_y
_atom_site_fract_z
Si Si1 0.724403 0.003235 0.825029
Si Si2 0.570916 0.671610 0.750000
Si Si3 0.425792 0.766520 0.576030
Si Si4 0.939802 0.758145 0.669318
O O1 0.744491 0.117972 0.750000
O O2 0.666784 0.202526 0.873589
O O3 0.830063 0.878207 0.851692
O O4 0.644055 0.764416 0.810033
O O5 0.525603 0.378789 0.750000
O O6 0.388087 0.750000 0.500000
O O7 0.512203 0.537674 0.584639
O O8 0.935682 0.754301 0.750000
O O9 0.029623 0.963697 0.648849
#
# Coordination Sequence:
#
# PCOD9436478 Si02
#       4
#     8   4   8   8
#     4   9  20  34  53  80 100 140 167 215 255 298
#     4  10  20  30  44  72 102 124 158 202 242 288
#     4  10  21  36  53  75 106 140 170 204 251 310
#     4   9  18  32  48  71 100 129 167 209 253 300
#
# _framework density 21.314153999999998
#
# number of rings (size 3 to 8) (size 9 to 14) (size 15 to 20)
#    0.857    1.714    0.000    1.714    0.000    4.571 
#    0.000    0.000    0.000    1.714    0.000    0.000 
#    0.000    0.000    0.000    0.000    0.000    0.000 
#
# Total GULP energy -156341.168176 kJ/mol
# GULP energy per Si atom -5583.613149 kJ/mol
# Density = 2.126564 g / cm^3
# Si number density = 21.314154 Si / 1000 Ang^3
#
#
#
# Elastic Constant Matrix: (Units=GPa)
#
#
# Indices 1 2 3 4 5 6 
#
# 1 58.8371 -8.2108 5.7763 0.0000 0.0000 0.0000
# 2 -8.2108 83.9809 2.1632 0.0000 0.0000 0.0000
# 3 5.7763 2.1632 56.6690 0.0000 0.0000 0.0000
# 4 0.0000 0.0000 0.0000 16.9158 0.0000 0.0000
# 5 0.0000 0.0000 0.0000 0.0000 16.9072 0.0000
# 6 0.0000 0.0000 0.0000 0.0000 0.0000 13.7537
#
#
#
# Elastic Compliance Matrix: (Units=1/GPa)
#
#
# Indices 1 2 3 4 5 6 
#
# 1 0.017421 0.001751 -0.001843 0.000000 0.000000 0.000000
# 2 0.001751 0.012095 -0.000640 0.000000 0.000000 0.000000
# 3 -0.001843 -0.000640 0.017859 0.000000 0.000000 0.000000
# 4 0.000000 0.000000 0.000000 0.059116 0.000000 0.000000
# 5 0.000000 0.000000 0.000000 0.000000 0.059147 0.000000
# 6 0.000000 0.000000 0.000000 0.000000 0.000000 0.072708
#
#
# Mechanical properties :
#
#
# Convention : Reuss Voigt Hill
#
# Bulk Modulus (GPa) = 21.78128 22.10493 21.94311
# Shear Modulus (GPa) = 19.59915 22.83256 21.21585
#
# Velocity S-wave (km/s) = 3.03568 3.27653 3.15840
# Velocity P-wave (km/s) = 4.74641 4.97069 4.85984
#
# Compressibility (1/GPa) = 0.04591099
#
# Stress axis : x y z
#
# Youngs Moduli (GPa) = 57.40100 82.67794 55.99543
#
# Poissons Ratio (x) = -0.14475 0.10318
# Poissons Ratio (y) = -0.10049 0.03585
# Poissons Ratio (z) = 0.10577 0.05293
#
# Static dielectric constant tensor:
#      x y z
#    x 1.779100 0.000000 0.000000 
#    y 0.000000 1.785850 0.000000 
#    z 0.000000 0.000000 1.834950 
# 
# From -- ./inp_files/24760.got.cif
#   From: 2010.05.17/outbox.cif.g08.bks.cpg/sg57_13_cif.got.tgz:24760.got - 2010.06.03 13:58:18.
