data_PCOD9436775
_publ_section_title
;
Structure prediction by ZEFSAII (Michael W. Deem and Ramdas Pophale) SiO2 
 PCOD9436775
Probable space group: P B C M
;
_chemical_formula_sum "Si O2"
_cell_formula_units_Z 64
_cell_length_a 21.190943
_cell_length_b 20.179439
_cell_length_c 9.257803
_cell_angle_alpha 90.000000
_cell_angle_beta 90.000000
_cell_angle_gamma 90.000000
_cell_volume 3958.834139
_symmetry_space_group_name_H-M "P B C M"
_symmetry_group_IT_number 57
_symmetry_cell_setting 'orthorhombic'
loop_
_space_group_symop_operation_xyz
x,y,z
-x,-y,1/2+z
x,1/2-y,-z
-x,1/2+y,1/2-z
-x,-y,-z
x,y,1/2-z
-x,1/2+y,z
x,1/2-y,1/2+z
loop_
_atom_site_type_symbol
_atom_site_label
_atom_site_fract_x
_atom_site_fract_y
_atom_site_fract_z
Si Si1 0.703439 0.450497 0.076733
Si Si2 0.030042 0.936712 0.577174
Si Si3 0.556492 0.912767 0.916964
Si Si4 0.819358 0.615419 0.580518
Si Si5 0.827428 0.456028 0.578950
Si Si6 0.319778 0.408365 0.077589
Si Si7 0.934432 0.818492 0.922040
Si Si8 0.566648 0.074294 0.916554
O O1 0.706473 0.459744 0.250000
O O2 0.639314 0.409744 0.045908
O O3 0.769843 0.426532 0.013164
O O4 0.692816 0.520669 0.997092
O O5 0.028197 0.947716 0.750000
O O6 0.103600 0.929751 0.537749
O O7 0.987706 0.873056 0.543831
O O8 0.000000 0.000000 0.500000
O O9 0.561284 0.893961 0.750000
O O10 0.562135 0.993549 0.923989
O O11 0.615085 0.884051 0.007749
O O12 0.488234 0.897283 0.983571
O O13 0.832170 0.628656 0.750000
O O14 0.828724 0.536142 0.558267
O O15 0.745529 0.630725 0.551936
O O16 0.867994 0.654246 0.481868
O O17 0.816295 0.445051 0.750000
O O18 0.326685 0.416718 0.250000
O O19 0.931425 0.810134 0.750000
O O20 0.948897 0.750000 0.000000
O O21 0.554734 0.092333 0.750000
#
# Coordination Sequence:
#
# PCOD9436775 Si02
#       8
#     8   8   8   8   8   8   8   8
#     4   9  16  24  35  54  78 106 144 183 221 268
#     4  10  20  34  52  74  95 122 157 195 240 288
#     4   9  15  21  31  48  69  99 142 184 217 260
#     4   9  17  30  47  65  88 117 149 189 233 278
#     4   9  17  29  45  65  90 115 145 188 235 279
#     4   9  16  25  37  53  77 108 140 180 227 267
#     4  11  23  36  52  72  96 126 158 194 239 288
#     4   8  14  22  30  43  69 104 139 177 218 262
#
# _framework density 16.166376
#
# number of rings (size 3 to 8) (size 9 to 14) (size 15 to 20)
#    0.000    2.750    1.250    3.000    0.000    7.000 
#    0.000    0.000    0.000    0.000    0.000    0.000 
#    0.000    0.000    0.000    1.125    0.000   20.000 
#
# Total GULP energy -356334.329855 kJ/mol
# GULP energy per Si atom -5567.723904 kJ/mol
# Density = 1.612958 g / cm^3
# Si number density = 16.166376 Si / 1000 Ang^3
#
#
#
# Elastic Constant Matrix: (Units=GPa)
#
#
# Indices 1 2 3 4 5 6 
#
# 1 177.1698 39.0154 85.9772 0.0000 0.0000 0.0000
# 2 39.0154 34.6589 33.6143 0.0000 0.0000 0.0000
# 3 85.9772 33.6143 79.1351 0.0000 0.0000 0.0000
# 4 0.0000 0.0000 0.0000 10.8525 0.0000 0.0000
# 5 0.0000 0.0000 0.0000 0.0000 32.4662 0.0000
# 6 0.0000 0.0000 0.0000 0.0000 0.0000 5.2792
#
#
#
# Elastic Compliance Matrix: (Units=1/GPa)
#
#
# Indices 1 2 3 4 5 6 
#
# 1 0.011983 -0.001467 -0.012396 0.000000 0.000000 0.000000
# 2 -0.001467 0.049246 -0.019325 0.000000 0.000000 0.000000
# 3 -0.012396 -0.019325 0.034313 0.000000 0.000000 0.000000
# 4 0.000000 0.000000 0.000000 0.092145 0.000000 0.000000
# 5 0.000000 0.000000 0.000000 0.000000 0.030801 0.000000
# 6 0.000000 0.000000 0.000000 0.000000 0.000000 0.189424
#
#
# Mechanical properties :
#
#
# Convention : Reuss Voigt Hill
#
# Bulk Modulus (GPa) = 34.28532 67.57530 50.93031
# Shear Modulus (GPa) = 10.33040 18.54335 14.43687
#
# Velocity S-wave (km/s) = 2.53060 3.39046 2.99158
# Velocity P-wave (km/s) = 5.45824 7.56423 6.59583
#
# Compressibility (1/GPa) = 0.02916700
#
# Stress axis : x y z
#
# Youngs Moduli (GPa) = 83.45347 20.30620 29.14374
#
# Poissons Ratio (x) = 0.02978 0.36126
# Poissons Ratio (y) = 0.12241 0.56319
# Poissons Ratio (z) = 1.03447 0.39241
#
# Static dielectric constant tensor:
#      x y z
#    x 1.585280 0.000000 0.000000 
#    y 0.000000 1.516640 0.000000 
#    z 0.000000 0.000000 1.712830 
# 
# From -- ./inp_files/8718.got.cif
#   From: 2010.05.17/outbox.cif.g08.bks.cpg/sg57_5_cif.got.tgz:8718.got - 2010.06.03 13:58:18.
