data_PCOD9436772
_publ_section_title
;
Structure prediction by ZEFSAII (Michael W. Deem and Ramdas Pophale) SiO2 
 PCOD9436772
Probable space group: P B C M
;
_chemical_formula_sum "Si O2"
_cell_formula_units_Z 48
_cell_length_a 20.026766
_cell_length_b 14.737872
_cell_length_c 8.703785
_cell_angle_alpha 90.000000
_cell_angle_beta 90.000000
_cell_angle_gamma 90.000000
_cell_volume 2568.938801
_symmetry_space_group_name_H-M "P B C M"
_symmetry_group_IT_number 57
_symmetry_cell_setting 'orthorhombic'
loop_
_space_group_symop_operation_xyz
x,y,z
-x,-y,1/2+z
x,1/2-y,-z
-x,1/2+y,1/2-z
-x,-y,-z
x,y,1/2-z
-x,1/2+y,z
x,1/2-y,1/2+z
loop_
_atom_site_type_symbol
_atom_site_label
_atom_site_fract_x
_atom_site_fract_y
_atom_site_fract_z
Si Si1 0.641753 0.351065 0.564667
Si Si2 0.997683 0.851342 0.434090
Si Si3 0.896687 0.995051 0.566164
Si Si4 0.748754 0.001018 0.435551
Si Si5 0.494706 0.352616 0.934326
Si Si6 0.642488 0.850936 0.433635
O O1 0.648521 0.250000 0.500000
O O2 0.642506 0.346814 0.750000
O O3 0.702277 0.414804 0.515264
O O4 0.568015 0.388769 0.522008
O O5 0.001275 0.750000 0.500000
O O6 0.994945 0.846454 0.250000
O O7 0.934133 0.908038 0.494819
O O8 0.060912 0.914965 0.478271
O O9 0.899013 0.987535 0.750000
O O10 0.821253 0.001681 0.509094
O O11 0.755324 0.003765 0.250000
O O12 0.705635 0.912143 0.475744
O O13 0.489141 0.351354 0.750000
O O14 0.495577 0.250000 0.000000
O O15 0.427108 0.392422 0.004415
O O16 0.649603 0.750000 0.500000
O O17 0.637766 0.846602 0.250000
#
# Coordination Sequence:
#
# PCOD9436772 Si02
#       6
#     8   8   8   8   8   8
#     4   9  19  35  53  75 104 140 182 226 275 328
#     4  10  21  39  64  90 115 146 181 219 266 319
#     4  10  22  39  59  86 117 146 182 225 266 317
#     4  10  22  38  54  76 111 149 180 218 272 327
#     4   9  16  29  50  73  99 133 177 229 277 322
#     4  10  20  34  52  74 102 139 181 225 274 324
#
# _framework density 18.684757999999999
#
# number of rings (size 3 to 8) (size 9 to 14) (size 15 to 20)
#    0.000    2.333    0.000    3.000    0.000    6.667 
#    0.000    5.000    0.000    0.000    0.000    0.000 
#    0.000    0.000    0.000    0.000    0.000    0.000 
#
# Total GULP energy -267844.075180 kJ/mol
# GULP energy per Si atom -5580.084900 kJ/mol
# Density = 1.864223 g / cm^3
# Si number density = 18.684758 Si / 1000 Ang^3
#
#
#
# Elastic Constant Matrix: (Units=GPa)
#
#
# Indices 1 2 3 4 5 6 
#
# 1 203.5238 91.2911 55.7855 0.0000 0.0000 0.0000
# 2 91.2911 144.0814 43.2049 0.0000 0.0000 0.0000
# 3 55.7855 43.2049 46.8415 0.0000 0.0000 0.0000
# 4 0.0000 0.0000 0.0000 17.9350 0.0000 0.0000
# 5 0.0000 0.0000 0.0000 0.0000 38.1307 0.0000
# 6 0.0000 0.0000 0.0000 0.0000 0.0000 17.0565
#
#
#
# Elastic Compliance Matrix: (Units=1/GPa)
#
#
# Indices 1 2 3 4 5 6 
#
# 1 0.008206 -0.003136 -0.006880 0.000000 0.000000 0.000000
# 2 -0.003136 0.010793 -0.006220 0.000000 0.000000 0.000000
# 3 -0.006880 -0.006220 0.035279 0.000000 0.000000 0.000000
# 4 0.000000 0.000000 0.000000 0.055757 0.000000 0.000000
# 5 0.000000 0.000000 0.000000 0.000000 0.026226 0.000000
# 6 0.000000 0.000000 0.000000 0.000000 0.000000 0.058629
#
#
# Mechanical properties :
#
#
# Convention : Reuss Voigt Hill
#
# Bulk Modulus (GPa) = 45.85937 86.11221 65.98579
# Shear Modulus (GPa) = 21.31014 28.23544 24.77279
#
# Velocity S-wave (km/s) = 3.38081 3.89157 3.64514
# Velocity P-wave (km/s) = 6.31164 8.14735 7.28753
#
# Compressibility (1/GPa) = 0.02180579
#
# Stress axis : x y z
#
# Youngs Moduli (GPa) = 121.86109 92.65446 28.34530
#
# Poissons Ratio (x) = 0.29059 0.19502
# Poissons Ratio (y) = 0.38220 0.17630
# Poissons Ratio (z) = 0.83842 0.57628
#
# Static dielectric constant tensor:
#      x y z
#    x 1.646220 0.000000 0.000000 
#    y 0.000000 1.622370 0.000000 
#    z 0.000000 0.000000 1.605080 
# 
# From -- ./inp_files/6572.got.cif
#   From: 2010.05.17/outbox.cif.g08.bks.cpg/sg57_4_cif.got.tgz:6572.got - 2010.06.03 13:58:18.
