data_PCOD9436010
_publ_section_title
;
Structure prediction by ZEFSAII (Michael W. Deem and Ramdas Pophale) SiO2 
 PCOD9436010
Probable space group: P B C M
;
_chemical_formula_sum "Si O2"
_cell_formula_units_Z 64
_cell_length_a 20.350231
_cell_length_b 20.517238
_cell_length_c 8.908742
_cell_angle_alpha 90.000000
_cell_angle_beta 90.000000
_cell_angle_gamma 90.000000
_cell_volume 3719.671794
_symmetry_space_group_name_H-M "P B C M"
_symmetry_group_IT_number 57
_symmetry_cell_setting 'orthorhombic'
loop_
_space_group_symop_operation_xyz
x,y,z
-x,-y,1/2+z
x,1/2-y,-z
-x,1/2+y,1/2-z
-x,-y,-z
x,y,1/2-z
-x,1/2+y,z
x,1/2-y,1/2+z
loop_
_atom_site_type_symbol
_atom_site_label
_atom_site_fract_x
_atom_site_fract_y
_atom_site_fract_z
Si Si1 0.336315 0.084314 0.429103
Si Si2 0.801513 0.893662 0.428094
Si Si3 0.406112 0.819506 0.069534
Si Si4 0.931746 0.819806 0.430774
Si Si5 0.691371 0.064914 0.931058
Si Si6 0.169420 0.953660 0.927296
Si Si7 0.968898 0.065147 0.569869
Si Si8 0.441173 0.320062 0.429889
O O1 0.342157 0.089336 0.250000
O O2 0.266181 0.112464 0.482853
O O3 0.394266 0.124094 0.506879
O O4 0.334907 0.007464 0.470546
O O5 0.788944 0.884878 0.250000
O O6 0.859608 0.845705 0.476590
O O7 0.827234 0.967779 0.447987
O O8 0.402995 0.814523 0.250000
O O9 0.358824 0.878449 0.022898
O O10 0.482364 0.832407 0.029439
O O11 0.387126 0.750000 0.000000
O O12 0.945671 0.750000 0.500000
O O13 0.931669 0.815824 0.250000
O O14 0.985590 0.873789 0.473512
O O15 0.698482 0.066418 0.750000
O O16 0.762591 0.072873 0.005507
O O17 0.165312 0.940893 0.750000
O O18 0.104995 0.927965 0.010117
O O19 0.969365 0.059510 0.750000
O O20 0.000000 0.000000 0.500000
O O21 0.422971 0.250000 0.500000
O O22 0.436054 0.316836 0.250000
#
# Coordination Sequence:
#
# PCOD9436010 Si02
#       8
#     8   8   8   8   8   8   8   8
#     4  10  20  33  52  80 110 142 179 219 266 322
#     4   9  18  35  53  73 106 141 175 218 263 315
#     4   9  19  36  57  79 106 140 183 227 273 327
#     4  10  22  38  54  78 110 142 178 223 269 317
#     4   9  19  36  55  80 112 143 176 222 273 323
#     4  10  19  34  56  83 109 137 179 224 265 318
#     4  11  21  36  58  83 109 141 181 225 270 321
#     4  10  20  35  54  76 104 142 182 225 272 322
#
# _framework density 17.205819999999999
#
# number of rings (size 3 to 8) (size 9 to 14) (size 15 to 20)
#    0.000    2.250    1.250    1.500    0.000    4.500 
#    0.000    1.875    0.000    0.000    0.000    0.000 
#    0.000    0.000    0.000    0.000    0.000    0.000 
#
# Total GULP energy -357186.911330 kJ/mol
# GULP energy per Si atom -5581.045490 kJ/mol
# Density = 1.716666 g / cm^3
# Si number density = 17.205820 Si / 1000 Ang^3
#
#
#
# Elastic Constant Matrix: (Units=GPa)
#
#
# Indices 1 2 3 4 5 6 
#
# 1 132.4514 100.4509 49.7220 0.0000 0.0000 0.0000
# 2 100.4509 130.0625 48.7225 0.0000 0.0000 0.0000
# 3 49.7220 48.7225 42.7819 0.0000 0.0000 0.0000
# 4 0.0000 0.0000 0.0000 28.8335 0.0000 0.0000
# 5 0.0000 0.0000 0.0000 0.0000 28.3456 0.0000
# 6 0.0000 0.0000 0.0000 0.0000 0.0000 30.3015
#
#
#
# Elastic Compliance Matrix: (Units=1/GPa)
#
#
# Indices 1 2 3 4 5 6 
#
# 1 0.020446 -0.012015 -0.010079 0.000000 0.000000 0.000000
# 2 -0.012015 0.020470 -0.009348 0.000000 0.000000 0.000000
# 3 -0.010079 -0.009348 0.045735 0.000000 0.000000 0.000000
# 4 0.000000 0.000000 0.000000 0.034682 0.000000 0.000000
# 5 0.000000 0.000000 0.000000 0.000000 0.035279 0.000000
# 6 0.000000 0.000000 0.000000 0.000000 0.000000 0.033002
#
#
# Mechanical properties :
#
#
# Convention : Reuss Voigt Hill
#
# Bulk Modulus (GPa) = 42.07719 78.12074 60.09897
# Shear Modulus (GPa) = 19.19966 24.58946 21.89456
#
# Velocity S-wave (km/s) = 3.34411 3.78449 3.57109
# Velocity P-wave (km/s) = 6.27846 8.03733 7.21172
#
# Compressibility (1/GPa) = 0.02376584
#
# Stress axis : x y z
#
# Youngs Moduli (GPa) = 48.90934 48.85102 21.86512
#
# Poissons Ratio (x) = 0.58696 0.22038
# Poissons Ratio (y) = 0.58766 0.20440
# Poissons Ratio (z) = 0.49296 0.45668
#
# Static dielectric constant tensor:
#      x y z
#    x 1.569580 0.000000 0.000000 
#    y 0.000000 1.561650 0.000000 
#    z 0.000000 0.000000 1.575480 
# 
# From -- ./inp_files/7149.got.cif
#   From: 2010.05.17/outbox.cif.g08.bks.cpg/sg57_4_cif.got.tgz:7149.got - 2010.06.03 13:58:18.
