data_PCOD9436247
_publ_section_title
;
Structure prediction by ZEFSAII (Michael W. Deem and Ramdas Pophale) SiO2 
 PCOD9436247
Probable space group: P B C M
;
_chemical_formula_sum "Si O2"
_cell_formula_units_Z 40
_cell_length_a 7.202913
_cell_length_b 13.216900
_cell_length_c 19.191377
_cell_angle_alpha 90.000000
_cell_angle_beta 90.000000
_cell_angle_gamma 90.000000
_cell_volume 1827.022561
_symmetry_space_group_name_H-M "P B C M"
_symmetry_group_IT_number 57
_symmetry_cell_setting 'orthorhombic'
loop_
_space_group_symop_operation_xyz
x,y,z
-x,-y,1/2+z
x,1/2-y,-z
-x,1/2+y,1/2-z
-x,-y,-z
x,y,1/2-z
-x,1/2+y,z
x,1/2-y,1/2+z
loop_
_atom_site_type_symbol
_atom_site_label
_atom_site_fract_x
_atom_site_fract_y
_atom_site_fract_z
Si Si1 0.972183 0.164194 0.332289
Si Si2 0.298621 0.844353 0.170736
Si Si3 0.454849 0.156344 0.956748
Si Si4 0.351875 0.423333 0.670458
Si Si5 0.303002 0.944727 0.567932
O O1 0.942132 0.134659 0.250000
O O2 0.878681 0.273677 0.341707
O O3 0.872152 0.092325 0.388537
O O4 0.191263 0.156846 0.343891
O O5 0.359858 0.826253 0.250000
O O6 0.463170 0.816410 0.118279
O O7 0.262296 0.964109 0.164282
O O8 0.313567 0.063109 0.950653
O O9 0.379311 0.250000 0.000000
O O10 0.638143 0.116276 0.998930
O O11 0.417251 0.411746 0.750000
O O12 0.522884 0.424094 0.618955
#
# Coordination Sequence:
#
# PCOD9436247 Si02
#       5
#     8   8   8   8   8
#     4  10  19  35  60  85 114 153 193 229 278 339
#     4   9  18  35  58  80 112 153 184 232 287 328
#     4  10  19  36  57  80 116 145 185 236 277 338
#     4   9  19  36  56  85 117 145 191 238 275 332
#     4  10  20  35  60  81 112 153 187 232 288 329
#
# _framework density 21.893545
#
# number of rings (size 3 to 8) (size 9 to 14) (size 15 to 20)
#    0.000    2.400    2.000    0.600    0.000    0.800 
#    3.600    9.000    0.000    0.000    0.000    0.000 
#    0.000    0.000    0.000    0.000    0.000    0.000 
#
# Total GULP energy -223504.329084 kJ/mol
# GULP energy per Si atom -5587.608227 kJ/mol
# Density = 2.184371 g / cm^3
# Si number density = 21.893545 Si / 1000 Ang^3
#
#
#
# Elastic Constant Matrix: (Units=GPa)
#
#
# Indices 1 2 3 4 5 6 
#
# 1 38.7906 5.6223 23.8531 0.0000 0.0000 0.0000
# 2 5.6223 69.3033 16.6905 0.0000 0.0000 0.0000
# 3 23.8531 16.6905 82.6438 0.0000 0.0000 0.0000
# 4 0.0000 0.0000 0.0000 23.0766 0.0000 0.0000
# 5 0.0000 0.0000 0.0000 0.0000 21.1019 0.0000
# 6 0.0000 0.0000 0.0000 0.0000 0.0000 20.2194
#
#
#
# Elastic Compliance Matrix: (Units=1/GPa)
#
#
# Indices 1 2 3 4 5 6 
#
# 1 0.031352 -0.000383 -0.008972 0.000000 0.000000 0.000000
# 2 -0.000383 0.015172 -0.002954 0.000000 0.000000 0.000000
# 3 -0.008972 -0.002954 0.015286 0.000000 0.000000 0.000000
# 4 0.000000 0.000000 0.000000 0.043334 0.000000 0.000000
# 5 0.000000 0.000000 0.000000 0.000000 0.047389 0.000000
# 6 0.000000 0.000000 0.000000 0.000000 0.000000 0.049457
#
#
# Mechanical properties :
#
#
# Convention : Reuss Voigt Hill
#
# Bulk Modulus (GPa) = 26.88635 31.45216 29.16925
# Shear Modulus (GPa) = 20.92019 22.51771 21.71895
#
# Velocity S-wave (km/s) = 3.09454 3.21052 3.15306
# Velocity P-wave (km/s) = 5.00753 5.30475 5.15828
#
# Compressibility (1/GPa) = 0.03719360
#
# Stress axis : x y z
#
# Youngs Moduli (GPa) = 31.89620 65.91222 65.41913
#
# Poissons Ratio (x) = 0.02523 0.58691
# Poissons Ratio (y) = 0.01221 0.19322
# Poissons Ratio (z) = 0.28616 0.19468
#
# Static dielectric constant tensor:
#      x y z
#    x 1.744130 0.000000 0.000000 
#    y 0.000000 1.853660 0.000000 
#    z 0.000000 0.000000 1.842330 
# 
# From -- ./inp_files/20714.got.cif
#   From: 2010.05.17/outbox.cif.g08.bks.cpg/sg57_11_cif.got.tgz:20714.got - 2010.06.03 13:58:18.
