data_PCOD9436568
_publ_section_title
;
Structure prediction by ZEFSAII (Michael W. Deem and Ramdas Pophale) SiO2 
 PCOD9436568
Probable space group: P B C M
;
_chemical_formula_sum "Si O2"
_cell_formula_units_Z 64
_cell_length_a 23.481402
_cell_length_b 17.581486
_cell_length_c 9.145321
_cell_angle_alpha 90.000000
_cell_angle_beta 90.000000
_cell_angle_gamma 90.000000
_cell_volume 3775.535487
_symmetry_space_group_name_H-M "P B C M"
_symmetry_group_IT_number 57
_symmetry_cell_setting 'orthorhombic'
loop_
_space_group_symop_operation_xyz
x,y,z
-x,-y,1/2+z
x,1/2-y,-z
-x,1/2+y,1/2-z
-x,-y,-z
x,y,1/2-z
-x,1/2+y,z
x,1/2-y,1/2+z
loop_
_atom_site_type_symbol
_atom_site_label
_atom_site_fract_x
_atom_site_fract_y
_atom_site_fract_z
Si Si1 0.566629 0.830024 0.075183
Si Si2 0.631338 0.513826 0.924347
Si Si3 0.183419 0.171573 0.423020
Si Si4 0.765020 0.976016 0.423692
Si Si5 0.863702 0.057063 0.924180
Si Si6 0.064490 0.094703 0.421105
Si Si7 0.960569 0.169189 0.575806
Si Si8 0.535708 0.067631 0.924956
O O1 0.572038 0.821356 0.250000
O O2 0.606461 0.902424 0.032706
O O3 0.501634 0.857318 0.042566
O O4 0.580112 0.750000 0.000000
O O5 0.620419 0.506625 0.750000
O O6 0.698485 0.510092 0.950470
O O7 0.597663 0.447260 0.008218
O O8 0.198765 0.250000 0.500000
O O9 0.194684 0.173621 0.250000
O O10 0.216080 0.101406 0.496271
O O11 0.116007 0.154544 0.442236
O O12 0.773829 0.968252 0.250000
O O13 0.806465 0.040824 0.487447
O O14 0.851691 0.055320 0.750000
O O15 0.899630 0.131713 0.960634
O O16 0.906439 0.986287 0.953307
O O17 0.047985 0.095658 0.250000
O O18 0.011046 0.115101 0.519194
O O19 0.967526 0.250000 0.500000
O O20 0.964422 0.176152 0.750000
O O21 0.536577 0.058599 0.750000
O O22 0.500000 0.000000 0.000000
#
# Coordination Sequence:
#
# PCOD9436568 Si02
#       8
#     8   8   8   8   8   8   8   8
#     4   9  18  31  47  72 105 133 159 193 234 282
#     4   9  19  34  50  73 101 128 166 208 242 288
#     4  10  20  33  48  69 100 135 169 205 246 295
#     4  10  20  34  53  74  97 129 168 210 251 291
#     4   9  20  37  53  72  99 130 165 206 249 298
#     4   9  18  33  52  73  97 126 162 202 246 300
#     4  11  22  34  51  75 101 127 158 202 255 307
#     4   9  17  30  49  72  98 130 165 200 238 279
#
# _framework density 16.951236999999999
#
# number of rings (size 3 to 8) (size 9 to 14) (size 15 to 20)
#    0.000    2.500    0.000    3.750    0.000    8.500 
#    0.000    1.250    0.000    0.750    0.000    0.000 
#    0.000    0.000    0.000    0.000    0.000    0.000 
#
# Total GULP energy -356821.963330 kJ/mol
# GULP energy per Si atom -5575.343177 kJ/mol
# Density = 1.691265 g / cm^3
# Si number density = 16.951237 Si / 1000 Ang^3
#
#
#
# Elastic Constant Matrix: (Units=GPa)
#
#
# Indices 1 2 3 4 5 6 
#
# 1 100.3203 16.5947 53.4878 0.0000 0.0000 0.0000
# 2 16.5947 17.2041 12.3995 0.0000 0.0000 0.0000
# 3 53.4878 12.3995 51.5222 0.0000 0.0000 0.0000
# 4 0.0000 0.0000 0.0000 22.4344 0.0000 0.0000
# 5 0.0000 0.0000 0.0000 0.0000 29.0252 0.0000
# 6 0.0000 0.0000 0.0000 0.0000 0.0000 5.7273
#
#
#
# Elastic Compliance Matrix: (Units=1/GPa)
#
#
# Indices 1 2 3 4 5 6 
#
# 1 0.022822 -0.005974 -0.022255 0.000000 0.000000 0.000000
# 2 -0.005974 0.071887 -0.011099 0.000000 0.000000 0.000000
# 3 -0.022255 -0.011099 0.045184 0.000000 0.000000 0.000000
# 4 0.000000 0.000000 0.000000 0.044574 0.000000 0.000000
# 5 0.000000 0.000000 0.000000 0.000000 0.034453 0.000000
# 6 0.000000 0.000000 0.000000 0.000000 0.000000 0.174602
#
#
# Mechanical properties :
#
#
# Convention : Reuss Voigt Hill
#
# Bulk Modulus (GPa) = 16.32970 37.11229 26.72100
# Shear Modulus (GPa) = 10.15043 17.20837 13.67940
#
# Velocity S-wave (km/s) = 2.44970 3.18963 2.84383
# Velocity P-wave (km/s) = 4.20186 5.95870 5.15566
#
# Compressibility (1/GPa) = 0.06123810
#
# Stress axis : x y z
#
# Youngs Moduli (GPa) = 43.81774 13.91064 22.13172
#
# Poissons Ratio (x) = 0.08310 0.49254
# Poissons Ratio (y) = 0.26175 0.24564
# Poissons Ratio (z) = 0.97515 0.15440
#
# Static dielectric constant tensor:
#      x y z
#    x 1.592240 0.000000 0.000000 
#    y 0.000000 1.563310 0.000000 
#    z 0.000000 0.000000 1.562160 
# 
# From -- ./inp_files/9568.got.cif
#   From: 2010.05.17/outbox.cif.g08.bks.cpg/sg57_5_cif.got.tgz:9568.got - 2010.06.03 13:58:18.
