data_PCOD9436657
_publ_section_title
;
Structure prediction by ZEFSAII (Michael W. Deem and Ramdas Pophale) SiO2 
 PCOD9436657
Probable space group: P B C M
;
_chemical_formula_sum "Si O2"
_cell_formula_units_Z 64
_cell_length_a 20.644380
_cell_length_b 20.668380
_cell_length_c 8.423890
_cell_angle_alpha 90.000000
_cell_angle_beta 90.000000
_cell_angle_gamma 90.000000
_cell_volume 3594.355008
_symmetry_space_group_name_H-M "P B C M"
_symmetry_group_IT_number 57
_symmetry_cell_setting 'orthorhombic'
loop_
_space_group_symop_operation_xyz
x,y,z
-x,-y,1/2+z
x,1/2-y,-z
-x,1/2+y,1/2-z
-x,-y,-z
x,y,1/2-z
-x,1/2+y,z
x,1/2-y,1/2+z
loop_
_atom_site_type_symbol
_atom_site_label
_atom_site_fract_x
_atom_site_fract_y
_atom_site_fract_z
Si Si1 0.946425 0.678525 0.941848
Si Si2 0.671465 0.456762 0.558659
Si Si3 0.187870 0.937011 0.060237
Si Si4 0.432259 0.321249 0.440130
Si Si5 0.692858 0.894251 0.057464
Si Si6 0.471918 0.568303 0.440619
Si Si7 0.164239 0.418820 0.442066
Si Si8 0.904829 0.321409 0.441811
O O1 0.945711 0.678667 0.750000
O O2 0.896381 0.623767 0.997197
O O3 0.020687 0.666746 0.993537
O O4 0.927470 0.750000 0.000000
O O5 0.675676 0.453813 0.750000
O O6 0.737459 0.427929 0.490049
O O7 0.670980 0.532951 0.514464
O O8 0.603284 0.426502 0.508128
O O9 0.184414 0.939332 0.250000
O O10 0.142601 0.878353 0.003004
O O11 0.164812 0.006707 0.995771
O O12 0.447479 0.250000 0.500000
O O13 0.431313 0.321562 0.250000
O O14 0.361074 0.344179 0.499202
O O15 0.484085 0.373855 0.496695
O O16 0.693398 0.891320 0.250000
O O17 0.767152 0.887773 0.004297
O O18 0.500000 0.500000 0.500000
O O19 0.473131 0.567869 0.250000
O O20 0.164148 0.418925 0.250000
O O21 0.885843 0.250000 0.500000
O O22 0.904151 0.320991 0.250000
#
# Coordination Sequence:
#
# PCOD9436657 Si02
#       8
#     8   8   8   8   8   8   8   8
#     4   9  18  33  52  73 101 139 179 219 262 314
#     4   9  18  35  56  78 104 135 173 213 260 318
#     4  10  20  33  51  79 109 134 171 224 267 309
#     4  11  22  37  53  77 111 145 181 225 269 315
#     4   8  15  31  51  71 100 136 171 209 253 306
#     4  11  21  36  59  84 107 139 179 221 267 322
#     4   9  18  33  52  75 106 142 175 211 262 317
#     4   9  19  35  53  75 103 135 176 222 268 317
#
# _framework density 17.805699000000001
#
# number of rings (size 3 to 8) (size 9 to 14) (size 15 to 20)
#    0.000    2.500    1.250    1.875    0.000    3.500 
#    0.000    1.250    0.000    1.500    0.000    0.000 
#    0.000    0.000    0.000    0.000    0.000    0.000 
#
# Total GULP energy -356911.453612 kJ/mol
# GULP energy per Si atom -5576.741463 kJ/mol
# Density = 1.776517 g / cm^3
# Si number density = 17.805699 Si / 1000 Ang^3
#
#
#
# Elastic Constant Matrix: (Units=GPa)
#
#
# Indices 1 2 3 4 5 6 
#
# 1 144.5980 108.4410 25.4931 0.0000 0.0000 0.0000
# 2 108.4410 138.3501 22.3081 0.0000 0.0000 0.0000
# 3 25.4931 22.3081 21.0574 0.0000 0.0000 0.0000
# 4 0.0000 0.0000 0.0000 27.2624 0.0000 0.0000
# 5 0.0000 0.0000 0.0000 0.0000 21.7567 0.0000
# 6 0.0000 0.0000 0.0000 0.0000 0.0000 27.3417
#
#
#
# Elastic Compliance Matrix: (Units=1/GPa)
#
#
# Indices 1 2 3 4 5 6 
#
# 1 0.017880 -0.012693 -0.008200 0.000000 0.000000 0.000000
# 2 -0.012693 0.017727 -0.003414 0.000000 0.000000 0.000000
# 3 -0.008200 -0.003414 0.061033 0.000000 0.000000 0.000000
# 4 0.000000 0.000000 0.000000 0.036681 0.000000 0.000000
# 5 0.000000 0.000000 0.000000 0.000000 0.045963 0.000000
# 6 0.000000 0.000000 0.000000 0.000000 0.000000 0.036574
#
#
# Mechanical properties :
#
#
# Convention : Reuss Voigt Hill
#
# Bulk Modulus (GPa) = 20.82137 68.49887 44.66012
# Shear Modulus (GPa) = 17.82653 25.12303 21.47478
#
# Velocity S-wave (km/s) = 3.16756 3.76034 3.47661
# Velocity P-wave (km/s) = 5.00969 7.57676 6.42278
#
# Compressibility (1/GPa) = 0.04802758
#
# Stress axis : x y z
#
# Youngs Moduli (GPa) = 55.92771 56.41081 16.38447
#
# Poissons Ratio (x) = 0.71600 0.13436
# Poissons Ratio (y) = 0.70987 0.05593
# Poissons Ratio (z) = 0.45862 0.19257
#
# Static dielectric constant tensor:
#      x y z
#    x 1.627810 0.000000 0.000000 
#    y 0.000000 1.572360 0.000000 
#    z 0.000000 0.000000 1.609190 
# 
# From -- ./inp_files/7253.got.cif
#   From: 2010.05.17/outbox.cif.g08.bks.cpg/sg57_4_cif.got.tgz:7253.got - 2010.06.03 13:58:18.
