data_PCOD9436859
_publ_section_title
;
Structure prediction by ZEFSAII (Michael W. Deem and Ramdas Pophale) SiO2 
 PCOD9436859
Probable space group: P B C M
;
_chemical_formula_sum "Si O2"
_cell_formula_units_Z 56
_cell_length_a 24.537739
_cell_length_b 14.738523
_cell_length_c 8.603608
_cell_angle_alpha 90.000000
_cell_angle_beta 90.000000
_cell_angle_gamma 90.000000
_cell_volume 3111.495097
_symmetry_space_group_name_H-M "P B C M"
_symmetry_group_IT_number 57
_symmetry_cell_setting 'orthorhombic'
loop_
_space_group_symop_operation_xyz
x,y,z
-x,-y,1/2+z
x,1/2-y,-z
-x,1/2+y,1/2-z
-x,-y,-z
x,y,1/2-z
-x,1/2+y,z
x,1/2-y,1/2+z
loop_
_atom_site_type_symbol
_atom_site_label
_atom_site_fract_x
_atom_site_fract_y
_atom_site_fract_z
Si Si1 0.560765 0.499369 0.063218
Si Si2 0.058329 0.148896 0.562615
Si Si3 0.936676 0.148622 0.563771
Si Si4 0.143323 0.999601 0.562386
Si Si5 0.351512 0.147982 0.063073
Si Si6 0.350555 0.852202 0.062975
Si Si7 0.731036 0.501005 0.562780
O O1 0.558770 0.499026 0.250000
O O2 0.595450 0.588398 0.015959
O O3 0.595953 0.410843 0.015576
O O4 0.500000 0.500000 0.000000
O O5 0.065068 0.250000 0.500000
O O6 0.059306 0.151329 0.750000
O O7 0.106793 0.084386 0.507899
O O8 0.997613 0.116105 0.516166
O O9 0.931607 0.250000 0.500000
O O10 0.934023 0.148663 0.750000
O O11 0.889124 0.087603 0.495754
O O12 0.143229 0.999792 0.750000
O O13 0.206002 0.002306 0.512320
O O14 0.349174 0.149701 0.250000
O O15 0.352641 0.250000 0.000000
O O16 0.300889 0.089087 0.999934
O O17 0.348346 0.850436 0.250000
O O18 0.351052 0.750000 0.000000
O O19 0.300182 0.912196 0.000575
O O20 0.728503 0.500613 0.750000
#
# Coordination Sequence:
#
# PCOD9436859 Si02
#       7
#     8   8   8   8   8   8   8
#     4   9  20  36  55  82 114 144 178 220 263 310
#     4   9  19  35  53  76 105 136 171 214 262 317
#     4  10  20  34  54  77 103 137 174 213 263 318
#     4  10  21  36  54  78 107 136 173 219 267 317
#     4  10  21  38  58  81 110 146 184 222 265 314
#     4  10  21  38  58  81 109 144 183 222 266 316
#     4  10  21  37  56  79 107 141 179 224 272 318
#
# _framework density 17.997779000000001
#
# number of rings (size 3 to 8) (size 9 to 14) (size 15 to 20)
#    0.000    2.286    0.000    3.000    0.000    7.429 
#    0.000    4.286    0.000    0.000    0.000    0.000 
#    0.000    0.000    0.000    0.000    0.000    0.000 
#
# Total GULP energy -312514.287784 kJ/mol
# GULP energy per Si atom -5580.612282 kJ/mol
# Density = 1.795681 g / cm^3
# Si number density = 17.997779 Si / 1000 Ang^3
#
#
#
# Elastic Constant Matrix: (Units=GPa)
#
#
# Indices 1 2 3 4 5 6 
#
# 1 204.9510 106.8755 42.0570 0.0000 0.0000 0.0000
# 2 106.8755 165.9117 34.7606 0.0000 0.0000 0.0000
# 3 42.0570 34.7606 30.3268 0.0000 0.0000 0.0000
# 4 0.0000 0.0000 0.0000 30.7961 0.0000 0.0000
# 5 0.0000 0.0000 0.0000 0.0000 31.5209 0.0000
# 6 0.0000 0.0000 0.0000 0.0000 0.0000 15.5457
#
#
#
# Elastic Compliance Matrix: (Units=1/GPa)
#
#
# Indices 1 2 3 4 5 6 
#
# 1 0.008381 -0.003900 -0.007152 0.000000 0.000000 0.000000
# 2 -0.003900 0.009747 -0.005764 0.000000 0.000000 0.000000
# 3 -0.007152 -0.005764 0.049499 0.000000 0.000000 0.000000
# 4 0.000000 0.000000 0.000000 0.032472 0.000000 0.000000
# 5 0.000000 0.000000 0.000000 0.000000 0.031725 0.000000
# 6 0.000000 0.000000 0.000000 0.000000 0.000000 0.064326
#
#
# Mechanical properties :
#
#
# Convention : Reuss Voigt Hill
#
# Bulk Modulus (GPa) = 29.41588 85.39730 57.40659
# Shear Modulus (GPa) = 20.73722 30.07229 25.40475
#
# Velocity S-wave (km/s) = 3.39810 4.09209 3.76114
# Velocity P-wave (km/s) = 5.63700 8.35935 7.12932
#
# Compressibility (1/GPa) = 0.03399525
#
# Stress axis : x y z
#
# Youngs Moduli (GPa) = 119.32305 102.59352 20.20261
#
# Poissons Ratio (x) = 0.40013 0.14449
# Poissons Ratio (y) = 0.46538 0.11644
# Poissons Ratio (z) = 0.85338 0.59131
#
# Static dielectric constant tensor:
#      x y z
#    x 1.610390 0.000000 0.000000 
#    y 0.000000 1.583930 0.000000 
#    z 0.000000 0.000000 1.606790 
# 
# From -- ./inp_files/8067.got.cif
#   From: 2010.05.17/outbox.cif.g08.bks.cpg/sg57_5_cif.got.tgz:8067.got - 2010.06.03 13:58:18.
