data_PCOD9436532
_publ_section_title
;
Structure prediction by ZEFSAII (Michael W. Deem and Ramdas Pophale) SiO2 
 PCOD9436532
Probable space group: P B C M
;
_chemical_formula_sum "Si O2"
_cell_formula_units_Z 48
_cell_length_a 14.255598
_cell_length_b 21.653472
_cell_length_c 8.885540
_cell_angle_alpha 90.000000
_cell_angle_beta 90.000000
_cell_angle_gamma 90.000000
_cell_volume 2742.816851
_symmetry_space_group_name_H-M "P B C M"
_symmetry_group_IT_number 57
_symmetry_cell_setting 'orthorhombic'
loop_
_space_group_symop_operation_xyz
x,y,z
-x,-y,1/2+z
x,1/2-y,-z
-x,1/2+y,1/2-z
-x,-y,-z
x,y,1/2-z
-x,1/2+y,z
x,1/2-y,1/2+z
loop_
_atom_site_type_symbol
_atom_site_label
_atom_site_fract_x
_atom_site_fract_y
_atom_site_fract_z
Si Si1 0.041299 0.937091 0.571020
Si Si2 0.708567 0.810932 0.075315
Si Si3 0.227166 0.960920 0.422162
Si Si4 0.842824 0.897916 0.581584
Si Si5 0.429053 0.552228 0.431398
Si Si6 0.492069 0.816594 0.067019
O O1 0.053822 0.945621 0.750000
O O2 0.141059 0.922921 0.495587
O O3 0.953402 0.891292 0.549268
O O4 0.000000 0.000000 0.500000
O O5 0.701759 0.800351 0.250000
O O6 0.602171 0.821276 0.022086
O O7 0.748050 0.750000 0.000000
O O8 0.776301 0.866191 0.036695
O O9 0.246207 0.941207 0.250000
O O10 0.322474 0.961725 0.517130
O O11 0.186581 0.030424 0.416301
O O12 0.823996 0.873338 0.750000
O O13 0.500000 0.500000 0.500000
O O14 0.438033 0.551764 0.250000
O O15 0.448892 0.620925 0.497595
O O16 0.482969 0.816568 0.250000
O O17 0.458974 0.750000 0.000000
#
# Coordination Sequence:
#
# PCOD9436532 Si02
#       6
#     8   8   8   8   8   8
#     4   9  17  30  48  72 101 134 168 205 251 308
#     4  10  20  32  50  73  99 131 168 209 254 305
#     4  10  20  34  52  76 105 137 172 215 263 313
#     4   9  18  31  49  73 103 134 166 206 254 305
#     4  12  24  37  55  81 112 145 181 227 276 323
#     4  10  21  38  57  79 107 143 184 224 268 324
#
# _framework density 17.500257000000001
#
# number of rings (size 3 to 8) (size 9 to 14) (size 15 to 20)
#    0.000    2.000    0.000    5.500    0.000    8.667 
#    0.000    0.000    0.000    1.000    0.000    2.333 
#    0.000    0.000    0.000    0.000    0.000    0.000 
#
# Total GULP energy -267386.044287 kJ/mol
# GULP energy per Si atom -5570.542589 kJ/mol
# Density = 1.746043 g / cm^3
# Si number density = 17.500257 Si / 1000 Ang^3
#
#
#
# Elastic Constant Matrix: (Units=GPa)
#
#
# Indices 1 2 3 4 5 6 
#
# 1 97.2012 31.0578 41.8920 0.0000 0.0000 0.0000
# 2 31.0578 63.3582 34.2342 0.0000 0.0000 0.0000
# 3 41.8920 34.2342 88.1761 0.0000 0.0000 0.0000
# 4 0.0000 0.0000 0.0000 28.3741 0.0000 0.0000
# 5 0.0000 0.0000 0.0000 0.0000 20.3989 0.0000
# 6 0.0000 0.0000 0.0000 0.0000 0.0000 0.8011
#
#
#
# Elastic Compliance Matrix: (Units=1/GPa)
#
#
# Indices 1 2 3 4 5 6 
#
# 1 0.013712 -0.004052 -0.004942 0.000000 0.000000 0.000000
# 2 -0.004052 0.021170 -0.006295 0.000000 0.000000 0.000000
# 3 -0.004942 -0.006295 0.016132 0.000000 0.000000 0.000000
# 4 0.000000 0.000000 0.000000 0.035243 0.000000 0.000000
# 5 0.000000 0.000000 0.000000 0.000000 0.049022 0.000000
# 6 0.000000 0.000000 0.000000 0.000000 0.000000 1.248264
#
#
# Mechanical properties :
#
#
# Convention : Reuss Voigt Hill
#
# Bulk Modulus (GPa) = 48.92408 51.45593 50.19001
# Shear Modulus (GPa) = 3.51881 19.35159 11.43520
#
# Velocity S-wave (km/s) = 1.41954 3.32895 2.55900
# Velocity P-wave (km/s) = 5.54109 6.65151 6.12153
#
# Compressibility (1/GPa) = 0.02043983
#
# Stress axis : x y z
#
# Youngs Moduli (GPa) = 72.92754 47.23568 61.98667
#
# Poissons Ratio (x) = 0.19138 0.30631
# Poissons Ratio (y) = 0.29547 0.39018
# Poissons Ratio (z) = 0.36038 0.29733
#
# Static dielectric constant tensor:
#      x y z
#    x 1.610290 0.000000 0.000000 
#    y 0.000000 1.624820 0.000000 
#    z 0.000000 0.000000 1.610320 
# 
# From -- ./inp_files/4903.got.cif
#   From: 2010.05.17/outbox.cif.g08.bks.cpg/sg57_3_cif.got.tgz:4903.got - 2010.06.03 13:58:18.
