data_PCOD9436471
_publ_section_title
;
Structure prediction by ZEFSAII (Michael W. Deem and Ramdas Pophale) SiO2 
 PCOD9436471
Probable space group: P B C M
;
_chemical_formula_sum "Si O2"
_cell_formula_units_Z 40
_cell_length_a 8.778134
_cell_length_b 15.079642
_cell_length_c 14.677072
_cell_angle_alpha 90.000000
_cell_angle_beta 90.000000
_cell_angle_gamma 90.000000
_cell_volume 1942.820432
_symmetry_space_group_name_H-M "P B C M"
_symmetry_group_IT_number 57
_symmetry_cell_setting 'orthorhombic'
loop_
_space_group_symop_operation_xyz
x,y,z
-x,-y,1/2+z
x,1/2-y,-z
-x,1/2+y,1/2-z
-x,-y,-z
x,y,1/2-z
-x,1/2+y,z
x,1/2-y,1/2+z
loop_
_atom_site_type_symbol
_atom_site_label
_atom_site_fract_x
_atom_site_fract_y
_atom_site_fract_z
Si Si1 0.430957 0.996337 0.750000
Si Si2 0.219211 0.456644 0.750000
Si Si3 0.820469 0.391622 0.106373
Si Si4 0.407025 0.815406 0.250000
Si Si5 0.333993 0.508346 0.047307
Si Si6 0.291483 0.237490 0.250000
Si Si7 0.840734 0.827817 0.427140
O O1 0.478531 0.100219 0.750000
O O2 0.348824 0.974863 0.844661
O O3 0.598048 0.955192 0.750000
O O4 0.170217 0.515804 0.663589
O O5 0.190038 0.352556 0.750000
O O6 0.703029 0.329959 0.163061
O O7 0.986882 0.351568 0.099221
O O8 0.754268 0.416132 0.008010
O O9 0.522600 0.733347 0.250000
O O10 0.244425 0.415683 0.037487
O O11 0.500000 0.500000 0.000000
O O12 0.245167 0.291022 0.160685
O O13 0.839236 0.750000 0.500000
#
# Coordination Sequence:
#
# PCOD9436471 Si02
#       7
#     4   4   8   4   8   4   8
#     4  10  20  37  64  98 115 169 215 270 329 374
#     4  10  21  39  72  94 123 171 222 265 328 397
#     4  10  22  43  65  93 137 174 216 267 333 404
#     4  10  19  41  70  93 126 170 217 282 336 379
#     4  12  20  41  69  93 129 176 228 272 319 401
#     4  12  22  43  66  97 128 166 226 279 331 386
#     4  12  26  42  66  99 137 177 215 273 344 391
#
# _framework density 20.588623999999999
#
# number of rings (size 3 to 8) (size 9 to 14) (size 15 to 20)
#    0.000    1.200    6.000    3.000    0.000    0.000 
#    3.600    2.000    0.000    0.000    0.000    0.000 
#    0.000    0.000    0.000    0.000    0.000    0.000 
#
# Total GULP energy -223442.348798 kJ/mol
# GULP energy per Si atom -5586.058720 kJ/mol
# Density = 2.054176 g / cm^3
# Si number density = 20.588624 Si / 1000 Ang^3
#
#
#
# Elastic Constant Matrix: (Units=GPa)
#
#
# Indices 1 2 3 4 5 6 
#
# 1 129.5288 44.0859 70.3249 0.0000 0.0000 0.0000
# 2 44.0859 45.2243 44.6675 0.0000 0.0000 0.0000
# 3 70.3249 44.6675 149.1764 0.0000 0.0000 0.0000
# 4 0.0000 0.0000 0.0000 -62.4495 0.0000 0.0000
# 5 0.0000 0.0000 0.0000 0.0000 44.0628 0.0000
# 6 0.0000 0.0000 0.0000 0.0000 0.0000 25.2652
#
#
#
# Elastic Compliance Matrix: (Units=1/GPa)
#
#
# Indices 1 2 3 4 5 6 
#
# 1 0.012543 -0.009069 -0.003198 0.000000 0.000000 0.000000
# 2 -0.009069 0.037955 -0.007089 0.000000 0.000000 0.000000
# 3 -0.003198 -0.007089 0.010334 0.000000 0.000000 0.000000
# 4 0.000000 0.000000 0.000000 -0.016013 0.000000 0.000000
# 5 0.000000 0.000000 0.000000 0.000000 0.022695 0.000000
# 6 0.000000 0.000000 0.000000 0.000000 0.000000 0.039580
#
#
# Mechanical properties :
#
#
# Convention : Reuss Voigt Hill
#
# Bulk Modulus (GPa) = 45.20891 71.34289 58.27590
# Shear Modulus (GPa) = 32.64158 12.36577 22.50368
#
# Velocity S-wave (km/s) = 3.98605 2.45340 3.30966
# Velocity P-wave (km/s) = 6.57196 6.53853 6.55527
#
# Compressibility (1/GPa) = 0.02211953
#
# Stress axis : x y z
#
# Youngs Moduli (GPa) = 79.72546 26.34706 96.77184
#
# Poissons Ratio (x) = 0.23895 0.30943
# Poissons Ratio (y) = 0.72304 0.68605
# Poissons Ratio (z) = 0.25492 0.18678
#
# Static dielectric constant tensor:
#      x y z
#    x 1.705380 0.000000 0.000000 
#    y 0.000000 1.588570 0.000000 
#    z 0.000000 0.000000 1.660670 
# 
# From -- ./inp_files/16181.got.cif
#   From: 2010.05.17/outbox.cif.g08.bks.cpg/sg57_9_cif.got.tgz:16181.got - 2010.06.03 13:58:18.
