data_PCOD9436857
_publ_section_title
;
Structure prediction by ZEFSAII (Michael W. Deem and Ramdas Pophale) SiO2 
 PCOD9436857
Probable space group: P B C M
;
_chemical_formula_sum "Si O2"
_cell_formula_units_Z 60
_cell_length_a 8.635755
_cell_length_b 28.806742
_cell_length_c 12.571302
_cell_angle_alpha 90.000000
_cell_angle_beta 90.000000
_cell_angle_gamma 90.000000
_cell_volume 3127.337232
_symmetry_space_group_name_H-M "P B C M"
_symmetry_group_IT_number 57
_symmetry_cell_setting 'orthorhombic'
loop_
_space_group_symop_operation_xyz
x,y,z
-x,-y,1/2+z
x,1/2-y,-z
-x,1/2+y,1/2-z
-x,-y,-z
x,y,1/2-z
-x,1/2+y,z
x,1/2-y,1/2+z
loop_
_atom_site_type_symbol
_atom_site_label
_atom_site_fract_x
_atom_site_fract_y
_atom_site_fract_z
Si Si1 0.244975 0.491317 0.965215
Si Si2 0.533601 0.328376 0.877814
Si Si3 0.361140 0.393796 0.041267
Si Si4 0.948301 0.446614 0.629363
Si Si5 0.121402 0.179849 0.878157
Si Si6 0.337020 0.580738 0.866090
Si Si7 0.344779 0.250000 0.000000
Si Si8 0.857277 0.355427 0.522249
O O1 0.351512 0.527818 0.904310
O O2 0.113926 0.470516 0.887779
O O3 0.322046 0.446379 0.014305
O O4 0.163611 0.522797 0.055254
O O5 0.521815 0.330128 0.750000
O O6 0.435634 0.369282 0.936730
O O7 0.453703 0.282958 0.928589
O O8 0.714212 0.332507 0.913558
O O9 0.215346 0.366778 0.089181
O O10 0.498784 0.394254 0.126321
O O11 0.896018 0.449438 0.750000
O O12 0.950400 0.392309 0.595556
O O13 0.094972 0.182384 0.750000
O O14 0.967907 0.177762 0.952658
O O15 0.234261 0.220357 0.921567
O O16 0.269328 0.580723 0.750000
O O17 0.224166 0.609975 0.939467
#
# Coordination Sequence:
#
# PCOD9436857 Si02
#       8
#     8   8   8   8   8   8   4   8
#     4  10  20  35  50  83 120 155 208 253 281 348
#     4  10  22  42  66  88 120 159 190 244 308 360
#     4  10  21  38  57  87 119 154 208 253 287 358
#     4  10  20  34  53  80 121 162 197 249 299 335
#     4  11  22  41  66  89 120 155 190 247 307 356
#     4  10  20  34  54  81 118 161 200 243 293 337
#     4  10  24  44  64  96 122 142 194 240 296 386
#     4  10  21  39  59  89 119 149 205 240 284 362
#
# _framework density 19.185649999999999
#
# number of rings (size 3 to 8) (size 9 to 14) (size 15 to 20)
#    0.000    1.867    1.333    2.400    0.000    2.667 
#    0.000    5.333    0.000    0.000    0.000    0.000 
#    0.000    0.000    0.000    0.000    0.000    0.000 
#
# Total GULP energy -334500.617077 kJ/mol
# GULP energy per Si atom -5575.010285 kJ/mol
# Density = 1.914198 g / cm^3
# Si number density = 19.185650 Si / 1000 Ang^3
#
#
#
# Elastic Constant Matrix: (Units=GPa)
#
#
# Indices 1 2 3 4 5 6 
#
# 1 63.6056 30.1778 24.6315 0.0000 0.0000 0.0000
# 2 30.1778 81.3892 34.9956 0.0000 0.0000 0.0000
# 3 24.6315 34.9956 112.5178 0.0000 0.0000 0.0000
# 4 0.0000 0.0000 0.0000 11.9142 0.0000 0.0000
# 5 0.0000 0.0000 0.0000 0.0000 -4.1662 0.0000
# 6 0.0000 0.0000 0.0000 0.0000 0.0000 -333.4516
#
#
#
# Elastic Compliance Matrix: (Units=1/GPa)
#
#
# Indices 1 2 3 4 5 6 
#
# 1 0.019599 -0.006259 -0.002344 0.000000 0.000000 0.000000
# 2 -0.006259 0.016182 -0.003663 0.000000 0.000000 0.000000
# 3 -0.002344 -0.003663 0.010540 0.000000 0.000000 0.000000
# 4 0.000000 0.000000 0.000000 0.083934 0.000000 0.000000
# 5 0.000000 0.000000 0.000000 0.000000 -0.240028 0.000000
# 6 0.000000 0.000000 0.000000 0.000000 0.000000 -0.002999
#
#
# Mechanical properties :
#
#
# Convention : Reuss Voigt Hill
#
# Bulk Modulus (GPa) = 45.89336 48.56916 47.23126
# Shear Modulus (GPa) = -61.74631 -53.96021 -57.85326
#
# Velocity S-wave (km/s) = -5.67921 -5.30908 -5.49726
# Velocity P-wave (km/s) = 4.36257 3.49449 3.95244
#
# Compressibility (1/GPa) = 0.02178965
#
# Stress axis : x y z
#
# Youngs Moduli (GPa) = 51.02235 61.79524 94.87864
#
# Poissons Ratio (x) = 0.38680 0.22237
# Poissons Ratio (y) = 0.31937 0.34753
# Poissons Ratio (z) = 0.11958 0.22635
#
# Static dielectric constant tensor:
#      x y z
#    x 1.703750 0.000000 0.000000 
#    y 0.000000 1.664590 0.000000 
#    z 0.000000 0.000000 1.660540 
# 
# From -- ./inp_files/12179.got.cif
#   From: 2010.05.17/outbox.cif.g08.bks.cpg/sg57_7_cif.got.tgz:12179.got - 2010.06.03 13:58:18.
