data_PCOD9436470
_publ_section_title
;
Structure prediction by ZEFSAII (Michael W. Deem and Ramdas Pophale) SiO2 
 PCOD9436470
Probable space group: P B C M
;
_chemical_formula_sum "Si O2"
_cell_formula_units_Z 56
_cell_length_a 6.387244
_cell_length_b 13.706239
_cell_length_c 29.509375
_cell_angle_alpha 90.000000
_cell_angle_beta 90.000000
_cell_angle_gamma 90.000000
_cell_volume 2583.400973
_symmetry_space_group_name_H-M "P B C M"
_symmetry_group_IT_number 57
_symmetry_cell_setting 'orthorhombic'
loop_
_space_group_symop_operation_xyz
x,y,z
-x,-y,1/2+z
x,1/2-y,-z
-x,1/2+y,1/2-z
-x,-y,-z
x,y,1/2-z
-x,1/2+y,z
x,1/2-y,1/2+z
loop_
_atom_site_type_symbol
_atom_site_label
_atom_site_fract_x
_atom_site_fract_y
_atom_site_fract_z
Si Si1 0.190331 0.933304 0.980595
Si Si2 0.058965 0.824301 0.900294
Si Si3 0.583919 0.155346 0.166206
Si Si4 0.484955 0.915214 0.064515
Si Si5 0.293424 0.186737 0.637134
Si Si6 0.780100 0.509347 0.142243
Si Si7 0.156526 0.485237 0.199153
O O1 0.091268 0.842195 0.953424
O O2 0.343976 0.000583 0.948595
O O3 0.343006 0.899115 0.020755
O O4 0.000000 0.000000 0.000000
O O5 0.287318 0.822833 0.878981
O O6 0.923134 0.741226 0.875301
O O7 0.942756 0.923376 0.885038
O O8 0.444762 0.252815 0.171166
O O9 0.405445 0.075903 0.159939
O O10 0.756425 0.096979 0.196055
O O11 0.611468 0.827528 0.087018
O O12 0.324007 0.940627 0.105185
O O13 0.261316 0.083037 0.661137
O O14 0.913254 0.474664 0.185161
O O15 0.193668 0.450255 0.250000
#
# Coordination Sequence:
#
# PCOD9436470 Si02
#       7
#     8   8   8   8   8   8   8
#     4  11  22  38  69  97 132 175 239 285 326 402
#     4  10  21  40  65  96 133 181 224 281 336 400
#     4  10  22  44  71  96 133 181 223 277 348 415
#     4  11  22  39  68  98 129 185 229 275 346 412
#     4  11  25  41  71  99 144 184 228 282 360 419
#     4  10  19  41  70  90 129 178 221 272 350 409
#     4  11  25  44  72 105 132 175 234 289 350 424
#
# _framework density 21.676853000000001
#
# number of rings (size 3 to 8) (size 9 to 14) (size 15 to 20)
#    0.000    1.429    4.286    0.857    2.000    1.143 
#    0.000   10.000    0.000    0.000    0.000    0.000 
#    0.000    0.000    0.000    0.000    0.000    0.000 
#
# Total GULP energy -311890.633063 kJ/mol
# GULP energy per Si atom -5569.475590 kJ/mol
# Density = 2.162752 g / cm^3
# Si number density = 21.676853 Si / 1000 Ang^3
#
#
#
# Elastic Constant Matrix: (Units=GPa)
#
#
# Indices 1 2 3 4 5 6 
#
# 1 99.3737 17.7193 20.7804 0.0000 0.0000 0.0000
# 2 17.7193 49.5018 14.4452 0.0000 0.0000 0.0000
# 3 20.7804 14.4452 86.4225 0.0000 0.0000 0.0000
# 4 0.0000 0.0000 0.0000 14.8944 0.0000 0.0000
# 5 0.0000 0.0000 0.0000 0.0000 13.3097 0.0000
# 6 0.0000 0.0000 0.0000 0.0000 0.0000 22.7866
#
#
#
# Elastic Compliance Matrix: (Units=1/GPa)
#
#
# Indices 1 2 3 4 5 6 
#
# 1 0.011103 -0.003359 -0.002108 0.000000 0.000000 0.000000
# 2 -0.003359 0.022253 -0.002912 0.000000 0.000000 0.000000
# 3 -0.002108 -0.002912 0.012565 0.000000 0.000000 0.000000
# 4 0.000000 0.000000 0.000000 0.067139 0.000000 0.000000
# 5 0.000000 0.000000 0.000000 0.000000 0.075133 0.000000
# 6 0.000000 0.000000 0.000000 0.000000 0.000000 0.043885
#
#
# Mechanical properties :
#
#
# Convention : Reuss Voigt Hill
#
# Bulk Modulus (GPa) = 34.29055 37.90975 36.10015
# Shear Modulus (GPa) = 19.33802 22.35502 20.84652
#
# Velocity S-wave (km/s) = 2.99005 3.21485 3.10448
# Velocity P-wave (km/s) = 5.27009 5.59525 5.43510
#
# Compressibility (1/GPa) = 0.02916256
#
# Stress axis : x y z
#
# Youngs Moduli (GPa) = 90.06708 44.93694 79.58809
#
# Poissons Ratio (x) = 0.15095 0.16779
# Poissons Ratio (y) = 0.30254 0.23175
# Poissons Ratio (z) = 0.18988 0.13085
#
# Static dielectric constant tensor:
#      x y z
#    x 1.873240 0.000000 0.000000 
#    y 0.000000 1.853390 0.000000 
#    z 0.000000 0.000000 1.794010 
# 
# From -- ./inp_files/29145.got.cif
#   From: 2010.05.17/outbox.cif.g08.bks.cpg/sg57_15_cif.got.tgz:29145.got - 2010.06.03 13:58:18.
