data_PCOD9436468
_publ_section_title
;
Structure prediction by ZEFSAII (Michael W. Deem and Ramdas Pophale) SiO2 
 PCOD9436468
Probable space group: P B C M
;
_chemical_formula_sum "Si O2"
_cell_formula_units_Z 48
_cell_length_a 18.817139
_cell_length_b 8.051462
_cell_length_c 14.733943
_cell_angle_alpha 90.000000
_cell_angle_beta 90.000000
_cell_angle_gamma 90.000000
_cell_volume 2232.273101
_symmetry_space_group_name_H-M "P B C M"
_symmetry_group_IT_number 57
_symmetry_cell_setting 'orthorhombic'
loop_
_space_group_symop_operation_xyz
x,y,z
-x,-y,1/2+z
x,1/2-y,-z
-x,1/2+y,1/2-z
-x,-y,-z
x,y,1/2-z
-x,1/2+y,z
x,1/2-y,1/2+z
loop_
_atom_site_type_symbol
_atom_site_label
_atom_site_fract_x
_atom_site_fract_y
_atom_site_fract_z
Si Si1 0.245222 0.280325 0.139540
Si Si2 0.454579 0.241630 0.250000
Si Si3 0.616149 0.609418 0.427265
Si Si4 0.314625 0.610794 0.438899
Si Si5 0.908936 0.801856 0.355078
Si Si6 0.045004 0.878754 0.936072
Si Si7 0.392322 0.875412 0.750000
O O1 0.247635 0.301624 0.250000
O O2 0.304451 0.148887 0.110050
O O3 0.267911 0.450650 0.089514
O O4 0.165693 0.232070 0.109287
O O5 0.431532 0.138494 0.160642
O O6 0.539199 0.242173 0.250000
O O7 0.417945 0.426890 0.250000
O O8 0.595825 0.750000 0.500000
O O9 0.623559 0.448343 0.490222
O O10 0.276454 0.750000 0.500000
O O11 0.348278 0.659030 0.341842
O O12 0.907027 0.771104 0.250000
O O13 0.982291 0.721714 0.387125
O O14 0.910216 0.998930 0.374380
O O15 0.086006 0.750000 0.000000
O O16 0.000000 0.000000 0.000000
#
# Coordination Sequence:
#
# PCOD9436468 Si02
#       7
#     8   4   8   8   8   8   4
#     4  10  19  41  65  84 119 164 208 256 304 362
#     4  12  24  42  66  92 128 164 200 257 300 376
#     4  10  20  40  65  85 120 163 208 249 302 366
#     4  11  24  41  63  91 126 160 203 264 307 366
#     4  10  20  34  62  87 116 162 201 245 302 360
#     4   9  19  34  51  82 125 155 192 249 292 353
#     4  12  26  44  62  94 130 158 202 255 314 362
#
# _framework density 21.502745999999998
#
# number of rings (size 3 to 8) (size 9 to 14) (size 15 to 20)
#    0.000    1.667    5.000    0.500    2.333    8.000 
#    0.000    1.667    0.000    8.000    0.000    0.000 
#    0.000    0.000    0.000    0.000    0.000    0.000 
#
# Total GULP energy -267535.532546 kJ/mol
# GULP energy per Si atom -5573.656928 kJ/mol
# Density = 2.145380 g / cm^3
# Si number density = 21.502746 Si / 1000 Ang^3
#
#
#
# Elastic Constant Matrix: (Units=GPa)
#
#
# Indices 1 2 3 4 5 6 
#
# 1 61.3819 -8.2622 13.4382 0.0000 0.0000 0.0000
# 2 -8.2622 39.9633 18.0499 0.0000 0.0000 0.0000
# 3 13.4382 18.0499 139.5622 0.0000 0.0000 0.0000
# 4 0.0000 0.0000 0.0000 30.2825 0.0000 0.0000
# 5 0.0000 0.0000 0.0000 0.0000 -13.3843 0.0000
# 6 0.0000 0.0000 0.0000 0.0000 0.0000 61.1653
#
#
#
# Elastic Compliance Matrix: (Units=1/GPa)
#
#
# Indices 1 2 3 4 5 6 
#
# 1 0.017412 0.004627 -0.002275 0.000000 0.000000 0.000000
# 2 0.004627 0.027805 -0.004042 0.000000 0.000000 0.000000
# 3 -0.002275 -0.004042 0.007907 0.000000 0.000000 0.000000
# 4 0.000000 0.000000 0.000000 0.033022 0.000000 0.000000
# 5 0.000000 0.000000 0.000000 0.000000 -0.074714 0.000000
# 6 0.000000 0.000000 0.000000 0.000000 0.000000 0.016349
#
#
# Mechanical properties :
#
#
# Convention : Reuss Voigt Hill
#
# Bulk Modulus (GPa) = 20.10210 31.92879 26.01544
# Shear Modulus (GPa) = 104.72902 30.12480 67.42691
#
# Velocity S-wave (km/s) = 6.98646 3.74702 5.60584
# Velocity P-wave (km/s) = 8.62843 5.79665 7.35020
#
# Compressibility (1/GPa) = 0.04974604
#
# Stress axis : x y z
#
# Youngs Moduli (GPa) = 57.43038 35.96456 126.46947
#
# Poissons Ratio (x) = -0.16643 0.28773
# Poissons Ratio (y) = -0.26576 0.51115
# Poissons Ratio (z) = 0.13066 0.14536
#
# Static dielectric constant tensor:
#      x y z
#    x 1.674700 0.000000 0.000000 
#    y 0.000000 1.871090 0.000000 
#    z 0.000000 0.000000 1.775310 
# 
# From -- ./inp_files/18983.got.cif
#   From: 2010.05.17/outbox.cif.g08.bks.cpg/sg57_10_cif.got.tgz:18983.got - 2010.06.03 13:58:18.
