data_PCOD9436303
_publ_section_title
;
Structure prediction by ZEFSAII (Michael W. Deem and Ramdas Pophale) SiO2 
 PCOD9436303
Probable space group: P B C M
;
_chemical_formula_sum "Si O2"
_cell_formula_units_Z 48
_cell_length_a 9.127205
_cell_length_b 21.656641
_cell_length_c 13.892420
_cell_angle_alpha 90.000000
_cell_angle_beta 90.000000
_cell_angle_gamma 90.000000
_cell_volume 2746.039670
_symmetry_space_group_name_H-M "P B C M"
_symmetry_group_IT_number 57
_symmetry_cell_setting 'orthorhombic'
loop_
_space_group_symop_operation_xyz
x,y,z
-x,-y,1/2+z
x,1/2-y,-z
-x,1/2+y,1/2-z
-x,-y,-z
x,y,1/2-z
-x,1/2+y,z
x,1/2-y,1/2+z
loop_
_atom_site_type_symbol
_atom_site_label
_atom_site_fract_x
_atom_site_fract_y
_atom_site_fract_z
Si Si1 0.150716 0.317868 0.980497
Si Si2 0.326468 0.903955 0.862603
Si Si3 0.673672 0.581506 0.135669
Si Si4 0.934920 0.149393 0.635648
Si Si5 0.856877 0.213899 0.135562
Si Si6 0.158566 0.972215 0.471978
O O1 0.256327 0.361302 0.921260
O O2 0.001882 0.309696 0.918257
O O3 0.212984 0.250000 0.000000
O O4 0.091020 0.344410 0.081422
O O5 0.291145 0.914378 0.750000
O O6 0.498764 0.914829 0.875422
O O7 0.274276 0.833647 0.885750
O O8 0.237758 0.949803 0.931012
O O9 0.707379 0.583467 0.250000
O O10 0.745781 0.521703 0.086341
O O11 0.950978 0.145390 0.750000
O O12 0.846310 0.213081 0.612478
O O13 0.861381 0.088704 0.592920
O O14 0.882130 0.210830 0.250000
O O15 0.000000 0.000000 0.500000
#
# Coordination Sequence:
#
# PCOD9436303 Si02
#       6
#     8   8   8   8   8   8
#     4  10  19  36  58  88 112 150 192 244 290 338
#     4  10  22  39  61  87 118 156 197 240 294 354
#     4  11  23  40  59  85 123 159 192 236 293 361
#     4  10  20  34  57  87 116 145 195 250 289 332
#     4   9  17  34  60  85 111 147 194 246 294 342
#     4  12  22  38  60  86 117 158 200 240 286 345
#
# _framework density 17.479717999999998
#
# number of rings (size 3 to 8) (size 9 to 14) (size 15 to 20)
#    0.000    1.667    3.333    1.500    0.000    3.333 
#    3.000    0.000    0.000    1.000    0.000    0.000 
#    0.000    0.000    0.000    0.000    0.000    0.000 
#
# Total GULP energy -267785.480125 kJ/mol
# GULP energy per Si atom -5578.864169 kJ/mol
# Density = 1.743993 g / cm^3
# Si number density = 17.479718 Si / 1000 Ang^3
#
#
#
# Elastic Constant Matrix: (Units=GPa)
#
#
# Indices 1 2 3 4 5 6 
#
# 1 91.6760 78.0810 77.6031 0.0000 0.0000 0.0000
# 2 78.0810 136.1442 88.0666 0.0000 0.0000 0.0000
# 3 77.6031 88.0666 122.9004 0.0000 0.0000 0.0000
# 4 0.0000 0.0000 0.0000 35.4424 0.0000 0.0000
# 5 0.0000 0.0000 0.0000 0.0000 30.2040 0.0000
# 6 0.0000 0.0000 0.0000 0.0000 0.0000 18.9420
#
#
#
# Elastic Compliance Matrix: (Units=1/GPa)
#
#
# Indices 1 2 3 4 5 6 
#
# 1 0.027964 -0.008604 -0.011492 0.000000 0.000000 0.000000
# 2 -0.008604 0.016339 -0.006275 0.000000 0.000000 0.000000
# 3 -0.011492 -0.006275 0.019889 0.000000 0.000000 0.000000
# 4 0.000000 0.000000 0.000000 0.028215 0.000000 0.000000
# 5 0.000000 0.000000 0.000000 0.000000 0.033108 0.000000
# 6 0.000000 0.000000 0.000000 0.000000 0.000000 0.052793
#
#
# Mechanical properties :
#
#
# Convention : Reuss Voigt Hill
#
# Bulk Modulus (GPa) = 87.33409 93.13577 90.23493
# Shear Modulus (GPa) = 21.28871 24.04903 22.66887
#
# Velocity S-wave (km/s) = 3.49364 3.71324 3.60511
# Velocity P-wave (km/s) = 8.14528 8.47243 8.31046
#
# Compressibility (1/GPa) = 0.01145028
#
# Stress axis : x y z
#
# Youngs Moduli (GPa) = 35.76037 61.20401 50.27811
#
# Poissons Ratio (x) = 0.52661 0.57779
# Poissons Ratio (y) = 0.30769 0.31549
# Poissons Ratio (z) = 0.41095 0.38405
#
# Static dielectric constant tensor:
#      x y z
#    x 1.559760 0.000000 0.000000 
#    y 0.000000 1.619070 0.000000 
#    z 0.000000 0.000000 1.601750 
# 
# From -- ./inp_files/16565.got.cif
#   From: 2010.05.17/outbox.cif.g08.bks.cpg/sg57_9_cif.got.tgz:16565.got - 2010.06.03 13:58:18.
