data_PCOD9436867
_publ_section_title
;
Structure prediction by ZEFSAII (Michael W. Deem and Ramdas Pophale) SiO2 
 PCOD9436867
Probable space group: P B C M
;
_chemical_formula_sum "Si O2"
_cell_formula_units_Z 48
_cell_length_a 18.420685
_cell_length_b 15.338077
_cell_length_c 8.798424
_cell_angle_alpha 90.000000
_cell_angle_beta 90.000000
_cell_angle_gamma 90.000000
_cell_volume 2485.888108
_symmetry_space_group_name_H-M "P B C M"
_symmetry_group_IT_number 57
_symmetry_cell_setting 'orthorhombic'
loop_
_space_group_symop_operation_xyz
x,y,z
-x,-y,1/2+z
x,1/2-y,-z
-x,1/2+y,1/2-z
-x,-y,-z
x,y,1/2-z
-x,1/2+y,z
x,1/2-y,1/2+z
loop_
_atom_site_type_symbol
_atom_site_label
_atom_site_fract_x
_atom_site_fract_y
_atom_site_fract_z
Si Si1 0.023447 0.592959 0.932427
Si Si2 0.327747 0.518025 0.431527
Si Si3 0.447907 0.656553 0.432857
Si Si4 0.383420 0.343303 0.568190
Si Si5 0.823199 0.030847 0.567626
Si Si6 0.882297 0.661873 0.068420
O O1 0.015389 0.594510 0.750000
O O2 0.109183 0.594767 0.967719
O O3 0.000000 0.500000 0.000000
O O4 0.965075 0.655996 0.007804
O O5 0.330282 0.510963 0.250000
O O6 0.393586 0.580597 0.482695
O O7 0.337792 0.423193 0.504485
O O8 0.250631 0.554761 0.484848
O O9 0.426435 0.750000 0.500000
O O10 0.445420 0.661368 0.250000
O O11 0.531918 0.640717 0.476178
O O12 0.362175 0.250000 0.500000
O O13 0.378412 0.340278 0.750000
O O14 0.813346 0.031317 0.750000
O O15 0.845119 0.930576 0.525168
O O16 0.882071 0.666793 0.250000
O O17 0.848542 0.750000 0.000000
#
# Coordination Sequence:
#
# PCOD9436867 Si02
#       6
#     8   8   8   8   8   8
#     4   9  17  32  53  74  98 129 167 207 249 300
#     4  11  22  35  54  82 113 145 182 223 272 329
#     4   9  20  37  57  81 106 138 182 229 275 323
#     4  10  20  36  57  80 109 143 181 226 273 324
#     4   9  20  36  52  74 105 141 176 212 260 316
#     4  10  20  34  54  79 105 134 173 217 262 314
#
# _framework density 19.308994999999999
#
# number of rings (size 3 to 8) (size 9 to 14) (size 15 to 20)
#    0.000    2.333    0.000    3.500    0.000    6.667 
#    0.000    2.500    0.000    2.000    0.000    0.000 
#    0.000    0.000    0.000    0.000    0.000    0.000 
#
# Total GULP energy -267810.493702 kJ/mol
# GULP energy per Si atom -5579.385285 kJ/mol
# Density = 1.926505 g / cm^3
# Si number density = 19.308995 Si / 1000 Ang^3
#
#
#
# Elastic Constant Matrix: (Units=GPa)
#
#
# Indices 1 2 3 4 5 6 
#
# 1 51.4248 -0.5613 12.0732 0.0000 0.0000 0.0000
# 2 -0.5613 27.9340 -1.5813 0.0000 0.0000 0.0000
# 3 12.0732 -1.5813 24.9307 0.0000 0.0000 0.0000
# 4 0.0000 0.0000 0.0000 28.7775 0.0000 0.0000
# 5 0.0000 0.0000 0.0000 0.0000 29.6825 0.0000
# 6 0.0000 0.0000 0.0000 0.0000 0.0000 10.7565
#
#
#
# Elastic Compliance Matrix: (Units=1/GPa)
#
#
# Indices 1 2 3 4 5 6 
#
# 1 0.021941 -0.000161 -0.010636 0.000000 0.000000 0.000000
# 2 -0.000161 0.035929 0.002357 0.000000 0.000000 0.000000
# 3 -0.010636 0.002357 0.045411 0.000000 0.000000 0.000000
# 4 0.000000 0.000000 0.000000 0.034749 0.000000 0.000000
# 5 0.000000 0.000000 0.000000 0.000000 0.033690 0.000000
# 6 0.000000 0.000000 0.000000 0.000000 0.000000 0.092967
#
#
# Mechanical properties :
#
#
# Convention : Reuss Voigt Hill
#
# Bulk Modulus (GPa) = 11.57389 13.79453 12.68421
# Shear Modulus (GPa) = 16.10991 20.13390 18.12190
#
# Velocity S-wave (km/s) = 2.89160 3.23262 3.06685
# Velocity P-wave (km/s) = 4.14192 4.59268 4.37311
#
# Compressibility (1/GPa) = 0.08640137
#
# Stress axis : x y z
#
# Youngs Moduli (GPa) = 45.57655 27.83282 22.02095
#
# Poissons Ratio (x) = 0.00449 0.23421
# Poissons Ratio (y) = 0.00735 -0.05190
# Poissons Ratio (z) = 0.48474 -0.06560
#
# Static dielectric constant tensor:
#      x y z
#    x 1.704150 0.000000 0.000000 
#    y 0.000000 1.655630 0.000000 
#    z 0.000000 0.000000 1.645690 
# 
# From -- ./inp_files/6504.got.cif
#   From: 2010.05.17/outbox.cif.g08.bks.cpg/sg57_4_cif.got.tgz:6504.got - 2010.06.03 13:58:18.
