data_PCOD9436127
_publ_section_title
;
Structure prediction by ZEFSAII (Michael W. Deem and Ramdas Pophale) SiO2 
 PCOD9436127
Probable space group: P B C M
;
_chemical_formula_sum "Si O2"
_cell_formula_units_Z 28
_cell_length_a 14.346091
_cell_length_b 13.498080
_cell_length_c 5.575637
_cell_angle_alpha 90.000000
_cell_angle_beta 90.000000
_cell_angle_gamma 90.000000
_cell_volume 1079.692465
_symmetry_space_group_name_H-M "P B C M"
_symmetry_group_IT_number 57
_symmetry_cell_setting 'orthorhombic'
loop_
_space_group_symop_operation_xyz
x,y,z
-x,-y,1/2+z
x,1/2-y,-z
-x,1/2+y,1/2-z
-x,-y,-z
x,y,1/2-z
-x,1/2+y,z
x,1/2-y,1/2+z
loop_
_atom_site_type_symbol
_atom_site_label
_atom_site_fract_x
_atom_site_fract_y
_atom_site_fract_z
Si Si1 0.940279 0.508016 0.750000
Si Si2 0.347603 0.635013 0.250000
Si Si3 0.594297 0.082140 0.750000
Si Si4 0.869551 0.725097 0.750000
Si Si5 0.617292 0.916397 0.250000
Si Si6 0.314203 0.371687 0.750000
Si Si7 0.147583 0.702906 0.250000
O O1 0.873042 0.605227 0.750000
O O2 0.880329 0.410140 0.750000
O O3 0.000000 0.500000 0.500000
O O4 0.398150 0.642368 0.504752
O O5 0.322467 0.516731 0.250000
O O6 0.259032 0.704339 0.250000
O O7 0.488332 0.043390 0.750000
O O8 0.672807 0.994419 0.750000
O O9 0.917156 0.750000 0.500000
O O10 0.779887 0.802877 0.750000
O O11 0.638315 0.856210 0.491003
O O12 0.116543 0.750000 0.500000
#
# Coordination Sequence:
#
# PCOD9436127 Si02
#       7
#     4   4   4   4   4   4   4
#     4  12  30  55  84 117 153 199 250 315 409 492
#     4  10  20  36  66 103 138 190 263 305 361 431
#     4  10  19  34  68 104 155 206 250 316 375 436
#     4  12  28  46  77 118 160 194 251 320 402 488
#     4  10  19  36  66 104 156 208 249 315 375 440
#     4  10  20  35  62 100 154 188 256 296 379 454
#     4  12  28  50  81 110 148 195 261 323 375 457
#
# _framework density 25.933312999999998
#
# number of rings (size 3 to 8) (size 9 to 14) (size 15 to 20)
#    0.000    1.143    0.000    7.714    8.000    3.429 
#    0.000    0.000    0.000   29.143    0.000    0.000 
#    0.000    0.000    0.000    0.000    0.000    0.000 
#
# Total GULP energy -156153.770012 kJ/mol
# GULP energy per Si atom -5576.920358 kJ/mol
# Density = 2.587429 g / cm^3
# Si number density = 25.933313 Si / 1000 Ang^3
#
#
#
# Elastic Constant Matrix: (Units=GPa)
#
#
# Indices 1 2 3 4 5 6 
#
# 1 127.4248 32.8413 57.0896 0.0000 0.0000 0.0000
# 2 32.8413 183.0753 52.6202 0.0000 0.0000 0.0000
# 3 57.0896 52.6202 327.3053 0.0000 0.0000 0.0000
# 4 0.0000 0.0000 0.0000 22.1836 0.0000 0.0000
# 5 0.0000 0.0000 0.0000 0.0000 63.6758 0.0000
# 6 0.0000 0.0000 0.0000 0.0000 0.0000 5.1740
#
#
#
# Elastic Compliance Matrix: (Units=1/GPa)
#
#
# Indices 1 2 3 4 5 6 
#
# 1 0.008752 -0.001186 -0.001336 0.000000 0.000000 0.000000
# 2 -0.001186 0.005888 -0.000740 0.000000 0.000000 0.000000
# 3 -0.001336 -0.000740 0.003407 0.000000 0.000000 0.000000
# 4 0.000000 0.000000 0.000000 0.045078 0.000000 0.000000
# 5 0.000000 0.000000 0.000000 0.000000 0.015705 0.000000
# 6 0.000000 0.000000 0.000000 0.000000 0.000000 0.193274
#
#
# Mechanical properties :
#
#
# Convention : Reuss Voigt Hill
#
# Bulk Modulus (GPa) = 86.77851 102.54529 94.66190
# Shear Modulus (GPa) = 17.70111 51.22363 34.46237
#
# Velocity S-wave (km/s) = 2.61542 4.44915 3.64934
# Velocity P-wave (km/s) = 6.53111 8.12533 7.37145
#
# Compressibility (1/GPa) = 0.01152359
#
# Stress axis : x y z
#
# Youngs Moduli (GPa) = 114.26039 169.84883 293.49855
#
# Poissons Ratio (x) = 0.20144 0.39207
# Poissons Ratio (y) = 0.13552 0.21709
# Poissons Ratio (z) = 0.15264 0.12563
#
# Static dielectric constant tensor:
#      x y z
#    x 2.049560 0.000000 0.000000 
#    y 0.000000 2.064370 0.000000 
#    z 0.000000 0.000000 2.136930 
# 
# From -- ./inp_files/440.got.cif
#   From: 2010.05.17/outbox.cif.g08.bks.cpg/sg57_1_cif.got.tgz:440.got - 2010.06.03 13:58:18.
