data_PCOD9436185
_publ_section_title
;
Structure prediction by ZEFSAII (Michael W. Deem and Ramdas Pophale) SiO2 
 PCOD9436185
Probable space group: P B C M
;
_chemical_formula_sum "Si O2"
_cell_formula_units_Z 64
_cell_length_a 12.323825
_cell_length_b 11.486638
_cell_length_c 25.707216
_cell_angle_alpha 90.000000
_cell_angle_beta 90.000000
_cell_angle_gamma 90.000000
_cell_volume 3639.095927
_symmetry_space_group_name_H-M "P B C M"
_symmetry_group_IT_number 57
_symmetry_cell_setting 'orthorhombic'
loop_
_space_group_symop_operation_xyz
x,y,z
-x,-y,1/2+z
x,1/2-y,-z
-x,1/2+y,1/2-z
-x,-y,-z
x,y,1/2-z
-x,1/2+y,z
x,1/2-y,1/2+z
loop_
_atom_site_type_symbol
_atom_site_label
_atom_site_fract_x
_atom_site_fract_y
_atom_site_fract_z
Si Si1 0.657532 0.265224 0.645010
Si Si2 0.927250 0.618330 0.811865
Si Si3 0.279582 0.993625 0.809322
Si Si4 0.581163 0.681331 0.865700
Si Si5 0.760743 0.675610 0.189255
Si Si6 0.374791 0.633157 0.468704
Si Si7 0.386271 0.372757 0.014137
Si Si8 0.173119 0.591640 0.687556
O O1 0.690617 0.360669 0.686951
O O2 0.538124 0.214225 0.652543
O O3 0.654702 0.335167 0.590365
O O4 0.745011 0.164526 0.652131
O O5 0.939740 0.599033 0.750000
O O6 0.840222 0.522872 0.831435
O O7 0.863826 0.739549 0.819494
O O8 0.049710 0.613008 0.831045
O O9 0.278335 0.033448 0.750000
O O10 0.369530 0.068879 0.838000
O O11 0.665145 0.783069 0.849112
O O12 0.577764 0.649807 0.926427
O O13 0.726643 0.690972 0.250000
O O14 0.796469 0.543571 0.182698
O O15 0.340651 0.750000 0.500000
O O16 0.505653 0.624003 0.477980
O O17 0.335242 0.503381 0.486241
O O18 0.326538 0.250000 0.000000
O O19 0.182727 0.621241 0.750000
#
# Coordination Sequence:
#
# PCOD9436185 Si02
#       8
#     8   8   8   8   8   8   8   8
#     4  12  23  34  55  87 116 151 189 237 290 353
#     4   8  17  37  58  76 106 151 203 246 277 323
#     4  10  22  37  55  80 117 161 192 225 284 343
#     4  11  21  36  55  80 118 156 187 227 287 361
#     4   9  20  36  54  79 116 160 194 234 291 339
#     4  10  20  36  55  80 113 144 191 245 294 337
#     4  10  19  35  58  79 107 150 196 239 282 340
#     4  10  22  35  55  85 114 151 201 246 281 333
#
# _framework density 17.586786
#
# number of rings (size 3 to 8) (size 9 to 14) (size 15 to 20)
#    0.000    2.000    3.750    1.500    3.500    3.000 
#    0.000    0.000    0.000    0.000    0.000    4.375 
#    0.000    0.000    0.000    0.000    0.000    0.000 
#
# Total GULP energy -356340.437988 kJ/mol
# GULP energy per Si atom -5567.819344 kJ/mol
# Density = 1.754676 g / cm^3
# Si number density = 17.586786 Si / 1000 Ang^3
#
#
#
# Elastic Constant Matrix: (Units=GPa)
#
#
# Indices 1 2 3 4 5 6 
#
# 1 103.0880 53.9197 17.0549 0.0000 0.0000 0.0000
# 2 53.9197 111.5179 20.6065 0.0000 0.0000 0.0000
# 3 17.0549 20.6065 41.4321 0.0000 0.0000 0.0000
# 4 0.0000 0.0000 0.0000 30.1938 0.0000 0.0000
# 5 0.0000 0.0000 0.0000 0.0000 -11.0341 0.0000
# 6 0.0000 0.0000 0.0000 0.0000 0.0000 5.3793
#
#
#
# Elastic Compliance Matrix: (Units=1/GPa)
#
#
# Indices 1 2 3 4 5 6 
#
# 1 0.013213 -0.005929 -0.002491 0.000000 0.000000 0.000000
# 2 -0.005929 0.012535 -0.003794 0.000000 0.000000 0.000000
# 3 -0.002491 -0.003794 0.027048 0.000000 0.000000 0.000000
# 4 0.000000 0.000000 0.000000 0.033119 0.000000 0.000000
# 5 0.000000 0.000000 0.000000 0.000000 -0.090628 0.000000
# 6 0.000000 0.000000 0.000000 0.000000 0.000000 0.185899
#
#
# Mechanical properties :
#
#
# Convention : Reuss Voigt Hill
#
# Bulk Modulus (GPa) = 35.24813 48.80004 42.02409
# Shear Modulus (GPa) = 23.24839 15.87157 19.55998
#
# Velocity S-wave (km/s) = 3.63977 3.00738 3.33858
# Velocity P-wave (km/s) = 6.14409 6.31407 6.22966
#
# Compressibility (1/GPa) = 0.02837030
#
# Stress axis : x y z
#
# Youngs Moduli (GPa) = 75.68078 79.77855 36.97140
#
# Poissons Ratio (x) = 0.47297 0.09208
# Poissons Ratio (y) = 0.44868 0.14026
# Poissons Ratio (z) = 0.18848 0.30266
#
# Static dielectric constant tensor:
#      x y z
#    x 1.584780 0.000000 0.000000 
#    y 0.000000 1.651840 0.000000 
#    z 0.000000 0.000000 1.611520 
# 
# From -- ./inp_files/27274.got.cif
#   From: 2010.05.17/outbox.cif.g08.bks.cpg/sg57_14_cif.got.tgz:27274.got - 2010.06.03 13:58:18.
