data_PCOD9436454
_publ_section_title
;
Structure prediction by ZEFSAII (Michael W. Deem and Ramdas Pophale) SiO2 
 PCOD9436454
Probable space group: P B C M
;
_chemical_formula_sum "Si O2"
_cell_formula_units_Z 48
_cell_length_a 9.621052
_cell_length_b 29.639990
_cell_length_c 8.321764
_cell_angle_alpha 90.000000
_cell_angle_beta 90.000000
_cell_angle_gamma 90.000000
_cell_volume 2373.099840
_symmetry_space_group_name_H-M "P B C M"
_symmetry_group_IT_number 57
_symmetry_cell_setting 'orthorhombic'
loop_
_space_group_symop_operation_xyz
x,y,z
-x,-y,1/2+z
x,1/2-y,-z
-x,1/2+y,1/2-z
-x,-y,-z
x,y,1/2-z
-x,1/2+y,z
x,1/2-y,1/2+z
loop_
_atom_site_type_symbol
_atom_site_label
_atom_site_fract_x
_atom_site_fract_y
_atom_site_fract_z
Si Si1 0.795336 0.732051 0.250000
Si Si2 0.712759 0.339390 0.250000
Si Si3 0.031015 0.325145 0.250000
Si Si4 0.630913 0.560561 0.069523
Si Si5 0.233351 0.154289 0.497575
Si Si6 0.430605 0.199021 0.750000
Si Si7 0.669416 0.404867 0.555591
Si Si8 0.153674 0.985950 0.054004
O O1 0.895551 0.775483 0.250000
O O2 0.808143 0.697741 0.395178
O O3 0.640628 0.752487 0.250000
O O4 0.594004 0.301619 0.250000
O O5 0.690685 0.367004 0.417309
O O6 0.868492 0.321568 0.250000
O O7 0.096167 0.352686 0.397466
O O8 0.604514 0.544393 0.250000
O O9 0.477104 0.571112 0.005806
O O10 0.733606 0.523591 0.996776
O O11 0.714610 0.607822 0.075154
O O12 0.363709 0.171807 0.601930
O O13 0.660955 0.392678 0.750000
O O14 0.794233 0.439851 0.526594
O O15 0.156547 0.982279 0.250000
O O16 0.000000 0.000000 0.000000
#
# Coordination Sequence:
#
# PCOD9436454 Si02
#       8
#     4   4   4   8   8   4   8   8
#     4  10  20  42  69  96 130 168 218 273 320 398
#     4  12  24  44  67  92 140 170 219 276 325 393
#     4  10  24  38  60  94 129 169 212 254 333 392
#     4  10  21  38  66  96 122 165 223 267 326 383
#     4  10  19  39  65  93 124 167 212 266 319 389
#     4  10  20  38  64  94 121 167 213 263 330 385
#     4  11  24  45  65  96 132 171 221 274 332 381
#     4  11  24  42  63  93 136 176 217 272 324 392
#
# _framework density 20.226709
#
# number of rings (size 3 to 8) (size 9 to 14) (size 15 to 20)
#    0.000    1.667    3.333    3.000    2.333    0.000 
#    9.000    3.333    0.000    0.000    0.000    0.000 
#    0.000    0.000    0.000    0.000    0.000    0.000 
#
# Total GULP energy -267400.085115 kJ/mol
# GULP energy per Si atom -5570.835107 kJ/mol
# Density = 2.018067 g / cm^3
# Si number density = 20.226709 Si / 1000 Ang^3
#
#
#
# Elastic Constant Matrix: (Units=GPa)
#
#
# Indices 1 2 3 4 5 6 
#
# 1 154.1598 9.6042 25.5438 0.0000 0.0000 0.0000
# 2 9.6042 37.2234 14.5842 0.0000 0.0000 0.0000
# 3 25.5438 14.5842 86.6886 0.0000 0.0000 0.0000
# 4 0.0000 0.0000 0.0000 12.0522 0.0000 0.0000
# 5 0.0000 0.0000 0.0000 0.0000 8.2685 0.0000
# 6 0.0000 0.0000 0.0000 0.0000 0.0000 18.9682
#
#
#
# Elastic Compliance Matrix: (Units=1/GPa)
#
#
# Indices 1 2 3 4 5 6 
#
# 1 0.006858 -0.001047 -0.001845 0.000000 0.000000 0.000000
# 2 -0.001047 0.028920 -0.004557 0.000000 0.000000 0.000000
# 3 -0.001845 -0.004557 0.012846 0.000000 0.000000 0.000000
# 4 0.000000 0.000000 0.000000 0.082972 0.000000 0.000000
# 5 0.000000 0.000000 0.000000 0.000000 0.120941 0.000000
# 6 0.000000 0.000000 0.000000 0.000000 0.000000 0.052720
#
#
# Mechanical properties :
#
#
# Convention : Reuss Voigt Hill
#
# Bulk Modulus (GPa) = 29.64974 41.94847 35.79910
# Shear Modulus (GPa) = 15.08770 23.08042 19.08406
#
# Velocity S-wave (km/s) = 2.73413 3.38166 3.07499
# Velocity P-wave (km/s) = 4.96567 6.00264 5.50861
#
# Compressibility (1/GPa) = 0.03372711
#
# Stress axis : x y z
#
# Youngs Moduli (GPa) = 145.82308 34.57774 77.84687
#
# Poissons Ratio (x) = 0.03619 0.14360
# Poissons Ratio (y) = 0.15263 0.35475
# Poissons Ratio (z) = 0.26898 0.15757
#
# Static dielectric constant tensor:
#      x y z
#    x 1.693670 0.000000 0.000000 
#    y 0.000000 1.701840 0.000000 
#    z 0.000000 0.000000 2.020540 
# 
# From -- ./inp_files/2209.got.cif
#   From: 2010.05.17/outbox.cif.g08.bks.cpg/sg57_2_cif.got.tgz:2209.got - 2010.06.03 13:58:18.
