data_PCOD9436480
_publ_section_title
;
Structure prediction by ZEFSAII (Michael W. Deem and Ramdas Pophale) SiO2 
 PCOD9436480
Probable space group: P B C M
;
_chemical_formula_sum "Si O2"
_cell_formula_units_Z 60
_cell_length_a 6.727200
_cell_length_b 23.325633
_cell_length_c 21.442793
_cell_angle_alpha 90.000000
_cell_angle_beta 90.000000
_cell_angle_gamma 90.000000
_cell_volume 3364.721559
_symmetry_space_group_name_H-M "P B C M"
_symmetry_group_IT_number 57
_symmetry_cell_setting 'orthorhombic'
loop_
_space_group_symop_operation_xyz
x,y,z
-x,-y,1/2+z
x,1/2-y,-z
-x,1/2+y,1/2-z
-x,-y,-z
x,y,1/2-z
-x,1/2+y,z
x,1/2-y,1/2+z
loop_
_atom_site_type_symbol
_atom_site_label
_atom_site_fract_x
_atom_site_fract_y
_atom_site_fract_z
Si Si1 0.573609 0.048808 0.587535
Si Si2 0.674367 0.869868 0.177749
Si Si3 0.525726 0.580856 0.444670
Si Si4 0.116037 0.344579 0.519858
Si Si5 0.728567 0.187238 0.406273
Si Si6 0.343513 0.716128 0.822209
Si Si7 0.565207 0.750000 0.500000
Si Si8 0.080401 0.875986 0.390943
O O1 0.434394 0.084575 0.633558
O O2 0.539215 0.072209 0.517058
O O3 0.794764 0.065547 0.609221
O O4 0.530434 0.981601 0.585916
O O5 0.651290 0.885417 0.250000
O O6 0.569447 0.807416 0.170269
O O7 0.899566 0.871678 0.156318
O O8 0.372785 0.624940 0.412623
O O9 0.746581 0.608459 0.446010
O O10 0.951339 0.315942 0.565295
O O11 0.996429 0.368401 0.461092
O O12 0.281134 0.301922 0.490582
O O13 0.708289 0.218811 0.340173
O O14 0.583997 0.228168 0.447190
O O15 0.289747 0.704917 0.750000
O O16 0.223504 0.675483 0.869674
#
# Coordination Sequence:
#
# PCOD9436480 Si02
#       8
#     8   8   8   8   8   8   4   8
#     4  10  21  38  57  82 117 147 188 237 288 333
#     4  10  21  38  60  85 113 151 191 232 285 341
#     4  10  22  37  55  84 114 148 187 234 286 350
#     4  11  20  32  54  86 112 147 183 231 292 343
#     4  11  21  35  54  80 115 148 189 231 285 344
#     4  10  22  37  55  79 113 151 190 233 280 342
#     4  10  20  30  50  78 114 140 178 228 282 344
#     4  11  19  33  57  86 111 143 183 237 287 341
#
# _framework density 17.832084999999999
#
# number of rings (size 3 to 8) (size 9 to 14) (size 15 to 20)
#    0.000    1.600    2.667    3.200    3.733    3.200 
#    0.000    0.667    0.000    0.800    0.000    0.000 
#    0.000    0.000    0.000    0.000    0.000    0.000 
#
# Total GULP energy -334491.963145 kJ/mol
# GULP energy per Si atom -5574.866052 kJ/mol
# Density = 1.779150 g / cm^3
# Si number density = 17.832085 Si / 1000 Ang^3
#
#
#
# Elastic Constant Matrix: (Units=GPa)
#
#
# Indices 1 2 3 4 5 6 
#
# 1 80.9568 21.9363 -1.9225 0.0000 0.0000 0.0000
# 2 21.9363 93.6060 16.0027 0.0000 0.0000 0.0000
# 3 -1.9225 16.0027 23.7923 0.0000 0.0000 0.0000
# 4 0.0000 0.0000 0.0000 22.5150 0.0000 0.0000
# 5 0.0000 0.0000 0.0000 0.0000 21.5767 0.0000
# 6 0.0000 0.0000 0.0000 0.0000 0.0000 13.9458
#
#
#
# Elastic Compliance Matrix: (Units=1/GPa)
#
#
# Indices 1 2 3 4 5 6 
#
# 1 0.013461 -0.003775 0.003626 0.000000 0.000000 0.000000
# 2 -0.003775 0.013129 -0.009136 0.000000 0.000000 0.000000
# 3 0.003626 -0.009136 0.048468 0.000000 0.000000 0.000000
# 4 0.000000 0.000000 0.000000 0.044415 0.000000 0.000000
# 5 0.000000 0.000000 0.000000 0.000000 0.046346 0.000000
# 6 0.000000 0.000000 0.000000 0.000000 0.000000 0.071706
#
#
# Mechanical properties :
#
#
# Convention : Reuss Voigt Hill
#
# Bulk Modulus (GPa) = 17.70198 30.04314 23.87256
# Shear Modulus (GPa) = 18.18683 22.43008 20.30846
#
# Velocity S-wave (km/s) = 3.19704 3.55046 3.37838
# Velocity P-wave (km/s) = 4.85558 5.80449 5.35111
#
# Compressibility (1/GPa) = 0.05649086
#
# Stress axis : x y z
#
# Youngs Moduli (GPa) = 74.28782 76.16441 20.63210
#
# Poissons Ratio (x) = 0.28749 -0.07482
# Poissons Ratio (y) = 0.28040 0.18849
# Poissons Ratio (z) = -0.26940 0.69583
#
# Static dielectric constant tensor:
#      x y z
#    x 1.637880 0.000000 0.000000 
#    y 0.000000 1.626190 0.000000 
#    z 0.000000 0.000000 1.623310 
# 
# From -- ./inp_files/23818.got.cif
#   From: 2010.05.17/outbox.cif.g08.bks.cpg/sg57_12_cif.got.tgz:23818.got - 2010.06.03 13:58:18.
