data_PCOD9436037
_publ_section_title
;
Structure prediction by ZEFSAII (Michael W. Deem and Ramdas Pophale) SiO2 
 PCOD9436037
Probable space group: P B C M
;
_chemical_formula_sum "Si O2"
_cell_formula_units_Z 48
_cell_length_a 8.951182
_cell_length_b 16.119525
_cell_length_c 18.841048
_cell_angle_alpha 90.000000
_cell_angle_beta 90.000000
_cell_angle_gamma 90.000000
_cell_volume 2718.552245
_symmetry_space_group_name_H-M "P B C M"
_symmetry_group_IT_number 57
_symmetry_cell_setting 'orthorhombic'
loop_
_space_group_symop_operation_xyz
x,y,z
-x,-y,1/2+z
x,1/2-y,-z
-x,1/2+y,1/2-z
-x,-y,-z
x,y,1/2-z
-x,1/2+y,z
x,1/2-y,1/2+z
loop_
_atom_site_type_symbol
_atom_site_label
_atom_site_fract_x
_atom_site_fract_y
_atom_site_fract_z
Si Si1 0.209271 0.272859 0.575942
Si Si2 0.127476 0.956684 0.095011
Si Si3 0.649272 0.577435 0.334026
Si Si4 0.293813 0.935289 0.668336
Si Si5 0.147533 0.114008 0.668601
Si Si6 0.925826 0.383462 0.553065
O O1 0.280350 0.250000 0.500000
O O2 0.292285 0.342834 0.622262
O O3 0.197216 0.188274 0.619009
O O4 0.043915 0.309425 0.559441
O O5 0.023470 0.908823 0.150698
O O6 0.272948 0.996708 0.130665
O O7 0.142870 0.900338 0.024726
O O8 0.027764 0.035928 0.071048
O O9 0.689660 0.582703 0.250000
O O10 0.470802 0.572602 0.339332
O O11 0.252341 0.915114 0.750000
O O12 0.202208 0.880792 0.612339
O O13 0.243264 0.030549 0.655935
O O14 0.164164 0.138044 0.750000
#
# Coordination Sequence:
#
# PCOD9436037 Si02
#       6
#     8   8   8   8   8   8
#     4  11  21  36  55  82 114 146 185 234 279 331
#     4   9  17  32  55  80 104 135 180 226 266 321
#     4  10  21  37  57  83 113 147 186 228 276 334
#     4   9  20  37  56  80 111 147 187 228 275 335
#     4  10  19  34  57  80 106 144 186 231 280 327
#     4   9  18  33  54  77 107 140 178 223 271 321
#
# _framework density 17.656455999999999
#
# number of rings (size 3 to 8) (size 9 to 14) (size 15 to 20)
#    0.000    2.333    1.667    1.000    2.333    5.333 
#    0.000    2.500    0.000    2.000    0.000    0.000 
#    0.000    0.000    0.000    0.000    0.000    0.000 
#
# Total GULP energy -267566.048437 kJ/mol
# GULP energy per Si atom -5574.292676 kJ/mol
# Density = 1.761627 g / cm^3
# Si number density = 17.656456 Si / 1000 Ang^3
#
#
#
# Elastic Constant Matrix: (Units=GPa)
#
#
# Indices 1 2 3 4 5 6 
#
# 1 72.4755 16.1939 48.8695 0.0000 0.0000 0.0000
# 2 16.1939 32.5521 45.7550 0.0000 0.0000 0.0000
# 3 48.8695 45.7550 123.4042 0.0000 0.0000 0.0000
# 4 0.0000 0.0000 0.0000 30.2594 0.0000 0.0000
# 5 0.0000 0.0000 0.0000 0.0000 15.4596 0.0000
# 6 0.0000 0.0000 0.0000 0.0000 0.0000 12.3471
#
#
#
# Elastic Compliance Matrix: (Units=1/GPa)
#
#
# Indices 1 2 3 4 5 6 
#
# 1 0.018909 0.002336 -0.008354 0.000000 0.000000 0.000000
# 2 0.002336 0.064443 -0.024819 0.000000 0.000000 0.000000
# 3 -0.008354 -0.024819 0.020614 0.000000 0.000000 0.000000
# 4 0.000000 0.000000 0.000000 0.033048 0.000000 0.000000
# 5 0.000000 0.000000 0.000000 0.000000 0.064685 0.000000
# 6 0.000000 0.000000 0.000000 0.000000 0.000000 0.080991
#
#
# Mechanical properties :
#
#
# Convention : Reuss Voigt Hill
#
# Bulk Modulus (GPa) = 23.64525 50.00761 36.82643
# Shear Modulus (GPa) = 13.94852 19.45411 16.70131
#
# Velocity S-wave (km/s) = 2.81373 3.32296 3.07889
# Velocity P-wave (km/s) = 4.89664 6.56558 5.79154
#
# Compressibility (1/GPa) = 0.04229179
#
# Stress axis : x y z
#
# Youngs Moduli (GPa) = 52.88468 15.51757 48.51061
#
# Poissons Ratio (x) = -0.03625 0.40527
# Poissons Ratio (y) = -0.12354 1.20398
# Poissons Ratio (z) = 0.44182 0.38513
#
# Static dielectric constant tensor:
#      x y z
#    x 1.579180 0.000000 0.000000 
#    y 0.000000 1.598540 0.000000 
#    z 0.000000 0.000000 1.623330 
# 
# From -- ./inp_files/20896.got.cif
#   From: 2010.05.17/outbox.cif.g08.bks.cpg/sg57_11_cif.got.tgz:20896.got - 2010.06.03 13:58:18.
