data_PCOD9436015
_publ_section_title
;
Structure prediction by ZEFSAII (Michael W. Deem and Ramdas Pophale) SiO2 
 PCOD9436015
Probable space group: P B C M
;
_chemical_formula_sum "Si O2"
_cell_formula_units_Z 64
_cell_length_a 12.366191
_cell_length_b 31.681781
_cell_length_c 7.736474
_cell_angle_alpha 90.000000
_cell_angle_beta 90.000000
_cell_angle_gamma 90.000000
_cell_volume 3031.018646
_symmetry_space_group_name_H-M "P B C M"
_symmetry_group_IT_number 57
_symmetry_cell_setting 'orthorhombic'
loop_
_space_group_symop_operation_xyz
x,y,z
-x,-y,1/2+z
x,1/2-y,-z
-x,1/2+y,1/2-z
-x,-y,-z
x,y,1/2-z
-x,1/2+y,z
x,1/2-y,1/2+z
loop_
_atom_site_type_symbol
_atom_site_label
_atom_site_fract_x
_atom_site_fract_y
_atom_site_fract_z
Si Si1 0.016426 0.796225 0.958072
Si Si2 0.009243 0.951379 0.447100
Si Si3 0.470708 0.952335 0.957568
Si Si4 0.510684 0.296171 0.957325
Si Si5 0.129361 0.373101 0.951091
Si Si6 0.252653 0.818656 0.959928
Si Si7 0.626107 0.622674 0.037555
Si Si8 0.242086 0.582262 0.458980
O O1 0.022496 0.800406 0.750000
O O2 0.140087 0.799352 0.024618
O O3 0.944685 0.835307 0.025065
O O4 0.971780 0.750000 0.000000
O O5 0.975104 0.948023 0.250000
O O6 0.133084 0.937325 0.468283
O O7 0.934866 0.917179 0.542660
O O8 0.000000 0.000000 0.500000
O O9 0.467254 0.948071 0.750000
O O10 0.558845 0.918374 0.019873
O O11 0.351043 0.940320 0.020582
O O12 0.500000 0.000000 0.000000
O O13 0.515993 0.300040 0.750000
O O14 0.634100 0.300004 0.024793
O O15 0.437698 0.335185 0.017406
O O16 0.466796 0.250000 0.000000
O O17 0.144409 0.361999 0.750000
O O18 0.250102 0.377112 0.023862
O O19 0.253397 0.814771 0.750000
O O20 0.250079 0.868315 0.000300
O O21 0.626410 0.621869 0.250000
O O22 0.235338 0.578924 0.250000
#
# Coordination Sequence:
#
# PCOD9436015 Si02
#       8
#     8   8   8   8   8   8   8   8
#     4  10  20  34  55  81 112 151 192 239 289 342
#     4  12  26  42  62  89 119 152 193 243 295 355
#     4  10  21  37  60  88 118 151 190 240 288 343
#     4  10  19  34  56  83 114 152 194 237 286 343
#     4  10  21  40  62  84 115 156 200 243 291 347
#     4   9  16  32  57  81 112 151 190 233 287 343
#     4   9  19  37  60  83 112 154 196 232 283 347
#     4  10  19  38  64  87 116 155 196 239 292 348
#
# _framework density 21.115013999999999
#
# number of rings (size 3 to 8) (size 9 to 14) (size 15 to 20)
#    0.000    2.000    2.500    1.500    1.750    1.500 
#    0.000    1.875    0.000    0.000    0.000    0.000 
#    0.000    0.000    0.000    0.000    0.000    0.000 
#
# Total GULP energy -357491.792807 kJ/mol
# GULP energy per Si atom -5585.809263 kJ/mol
# Density = 2.106696 g / cm^3
# Si number density = 21.115014 Si / 1000 Ang^3
#
#
#
# Elastic Constant Matrix: (Units=GPa)
#
#
# Indices 1 2 3 4 5 6 
#
# 1 162.4417 79.8965 -0.4759 0.0000 0.0000 0.0000
# 2 79.8965 166.9417 -10.2202 0.0000 0.0000 0.0000
# 3 -0.4759 -10.2202 28.5532 0.0000 0.0000 0.0000
# 4 0.0000 0.0000 0.0000 25.2902 0.0000 0.0000
# 5 0.0000 0.0000 0.0000 0.0000 -10.1356 0.0000
# 6 0.0000 0.0000 0.0000 0.0000 0.0000 61.8972
#
#
#
# Elastic Compliance Matrix: (Units=1/GPa)
#
#
# Indices 1 2 3 4 5 6 
#
# 1 0.008097 -0.003953 -0.001280 0.000000 0.000000 0.000000
# 2 -0.003953 0.008055 0.002817 0.000000 0.000000 0.000000
# 3 -0.001280 0.002817 0.036009 0.000000 0.000000 0.000000
# 4 0.000000 0.000000 0.000000 0.039541 0.000000 0.000000
# 5 0.000000 0.000000 0.000000 0.000000 -0.098662 0.000000
# 6 0.000000 0.000000 0.000000 0.000000 0.000000 0.016156
#
#
# Mechanical properties :
#
#
# Convention : Reuss Voigt Hill
#
# Bulk Modulus (GPa) = 21.12915 55.14862 38.13888
# Shear Modulus (GPa) = 167.76082 34.65944 101.21013
#
# Velocity S-wave (km/s) = 8.92320 4.05589 6.93086
# Velocity P-wave (km/s) = 10.77929 6.93603 9.06371
#
# Compressibility (1/GPa) = 0.04732799
#
# Stress axis : x y z
#
# Youngs Moduli (GPa) = 123.50602 124.15210 27.77060
#
# Poissons Ratio (x) = 0.49082 0.03555
# Poissons Ratio (y) = 0.48827 -0.07823
# Poissons Ratio (z) = 0.15810 -0.34975
#
# Static dielectric constant tensor:
#      x y z
#    x 1.743290 0.000000 0.000000 
#    y 0.000000 1.568680 0.000000 
#    z 0.000000 0.000000 1.780120 
# 
# From -- ./inp_files/3822.got.cif
#   From: 2010.05.17/outbox.cif.g08.bks.cpg/sg57_2_cif.got.tgz:3822.got - 2010.06.03 13:58:18.
