data_PCOD9436429
_publ_section_title
;
Structure prediction by ZEFSAII (Michael W. Deem and Ramdas Pophale) SiO2 
 PCOD9436429
Probable space group: P B C M
;
_chemical_formula_sum "Si O2"
_cell_formula_units_Z 64
_cell_length_a 12.482915
_cell_length_b 14.241630
_cell_length_c 17.489937
_cell_angle_alpha 90.000000
_cell_angle_beta 90.000000
_cell_angle_gamma 90.000000
_cell_volume 3109.309523
_symmetry_space_group_name_H-M "P B C M"
_symmetry_group_IT_number 57
_symmetry_cell_setting 'orthorhombic'
loop_
_space_group_symop_operation_xyz
x,y,z
-x,-y,1/2+z
x,1/2-y,-z
-x,1/2+y,1/2-z
-x,-y,-z
x,y,1/2-z
-x,1/2+y,z
x,1/2-y,1/2+z
loop_
_atom_site_type_symbol
_atom_site_label
_atom_site_fract_x
_atom_site_fract_y
_atom_site_fract_z
Si Si1 0.250034 0.280860 0.583780
Si Si2 0.637393 0.966528 0.928960
Si Si3 0.678802 0.157068 0.660672
Si Si4 0.917249 0.846614 0.160283
Si Si5 0.882048 0.244391 0.090243
Si Si6 0.440599 0.305744 0.164174
Si Si7 0.170062 0.554149 0.341170
Si Si8 0.597468 0.011103 0.393087
O O1 0.212120 0.250000 0.500000
O O2 0.270600 0.391115 0.587465
O O3 0.173504 0.231237 0.644282
O O4 0.367277 0.239056 0.600033
O O5 0.669203 0.064485 0.890773
O O6 0.519028 0.939543 0.896247
O O7 0.622564 0.979743 0.019752
O O8 0.688579 0.131716 0.750000
O O9 0.777875 0.217940 0.633856
O O10 0.565915 0.210320 0.651829
O O11 0.943138 0.850183 0.250000
O O12 0.019626 0.810604 0.114172
O O13 0.871350 0.949288 0.138006
O O14 0.894808 0.136501 0.116831
O O15 0.865537 0.250000 0.000000
O O16 0.411004 0.274392 0.250000
O O17 0.420296 0.417468 0.157096
O O18 0.159231 0.564951 0.250000
O O19 0.296025 0.561224 0.362963
#
# Coordination Sequence:
#
# PCOD9436429 Si02
#       8
#     8   8   8   8   8   8   8   8
#     4  12  22  37  62  97 132 172 217 267 323 388
#     4  10  22  36  60  95 133 176 215 267 331 385
#     4  10  23  42  60  89 133 169 212 272 326 382
#     4  11  25  45  67  93 130 169 218 276 325 385
#     4  12  27  45  70  98 127 169 220 272 331 392
#     4  10  20  36  59  88 127 170 212 267 321 376
#     4  11  23  42  68  95 126 171 217 264 323 394
#     4  10  19  38  60  91 132 173 222 263 318 389
#
# _framework density 20.583348999999998
#
# number of rings (size 3 to 8) (size 9 to 14) (size 15 to 20)
#    0.000    1.250    2.500    3.000    1.750    3.500 
#    0.000    0.000    0.000    0.000    0.000    0.000 
#    0.000    0.000    0.000    0.000    0.000    0.000 
#
# Total GULP energy -357657.097752 kJ/mol
# GULP energy per Si atom -5588.392152 kJ/mol
# Density = 2.053650 g / cm^3
# Si number density = 20.583349 Si / 1000 Ang^3
#
#
#
# Elastic Constant Matrix: (Units=GPa)
#
#
# Indices 1 2 3 4 5 6 
#
# 1 65.0096 16.8968 8.4073 0.0000 0.0000 0.0000
# 2 16.8968 48.4008 1.5020 0.0000 0.0000 0.0000
# 3 8.4073 1.5020 40.2322 0.0000 0.0000 0.0000
# 4 0.0000 0.0000 0.0000 22.2074 0.0000 0.0000
# 5 0.0000 0.0000 0.0000 0.0000 80.4476 0.0000
# 6 0.0000 0.0000 0.0000 0.0000 0.0000 16.4545
#
#
#
# Elastic Compliance Matrix: (Units=1/GPa)
#
#
# Indices 1 2 3 4 5 6 
#
# 1 0.017372 -0.005959 -0.003408 0.000000 0.000000 0.000000
# 2 -0.005959 0.022729 0.000397 0.000000 0.000000 0.000000
# 3 -0.003408 0.000397 0.025553 0.000000 0.000000 0.000000
# 4 0.000000 0.000000 0.000000 0.045030 0.000000 0.000000
# 5 0.000000 0.000000 0.000000 0.000000 0.012430 0.000000
# 6 0.000000 0.000000 0.000000 0.000000 0.000000 0.060773
#
#
# Mechanical properties :
#
#
# Convention : Reuss Voigt Hill
#
# Bulk Modulus (GPa) = 20.95823 23.02829 21.99326
# Shear Modulus (GPa) = 22.96404 32.27768 27.62086
#
# Velocity S-wave (km/s) = 3.34377 3.96428 3.66717
# Velocity P-wave (km/s) = 5.01119 5.67152 5.35155
#
# Compressibility (1/GPa) = 0.04771395
#
# Stress axis : x y z
#
# Youngs Moduli (GPa) = 57.56456 43.99716 39.13430
#
# Poissons Ratio (x) = 0.26217 0.13336
# Poissons Ratio (y) = 0.34301 -0.01552
# Poissons Ratio (z) = 0.19616 -0.01745
#
# Static dielectric constant tensor:
#      x y z
#    x 1.736800 0.000000 0.000000 
#    y 0.000000 1.750500 0.000000 
#    z 0.000000 0.000000 1.684620 
# 
# From -- ./inp_files/22034.got.cif
#   From: 2010.05.17/outbox.cif.g08.bks.cpg/sg57_12_cif.got.tgz:22034.got - 2010.06.03 13:58:18.
