data_PCOD9436662
_publ_section_title
;
Structure prediction by ZEFSAII (Michael W. Deem and Ramdas Pophale) SiO2 
 PCOD9436662
Probable space group: P B C M
;
_chemical_formula_sum "Si O2"
_cell_formula_units_Z 64
_cell_length_a 25.496169
_cell_length_b 14.888211
_cell_length_c 9.079986
_cell_angle_alpha 90.000000
_cell_angle_beta 90.000000
_cell_angle_gamma 90.000000
_cell_volume 3446.693167
_symmetry_space_group_name_H-M "P B C M"
_symmetry_group_IT_number 57
_symmetry_cell_setting 'orthorhombic'
loop_
_space_group_symop_operation_xyz
x,y,z
-x,-y,1/2+z
x,1/2-y,-z
-x,1/2+y,1/2-z
-x,-y,-z
x,y,1/2-z
-x,1/2+y,z
x,1/2-y,1/2+z
loop_
_atom_site_type_symbol
_atom_site_label
_atom_site_fract_x
_atom_site_fract_y
_atom_site_fract_z
Si Si1 0.652032 0.094819 0.918549
Si Si2 0.190463 0.011570 0.072311
Si Si3 0.705874 0.602966 0.084778
Si Si4 0.014754 0.650311 0.573257
Si Si5 0.920467 0.509583 0.925720
Si Si6 0.246373 0.841090 0.573759
Si Si7 0.554621 0.019474 0.080071
Si Si8 0.388775 0.327765 0.086656
O O1 0.649732 0.129125 0.750000
O O2 0.678685 0.995813 0.910111
O O3 0.693318 0.146989 0.020257
O O4 0.594803 0.083412 0.990997
O O5 0.189087 0.999947 0.250000
O O6 0.234213 0.087398 0.040099
O O7 0.134003 0.031084 0.005517
O O8 0.213162 0.922519 0.994620
O O9 0.704448 0.639509 0.250000
O O10 0.668812 0.656842 0.977824
O O11 0.013743 0.750000 0.500000
O O12 0.024095 0.658211 0.750000
O O13 0.960986 0.592579 0.552980
O O14 0.056664 0.582415 0.497590
O O15 0.913960 0.496751 0.750000
O O16 0.226392 0.750000 0.500000
O O17 0.243386 0.839953 0.750000
O O18 0.547655 0.048998 0.250000
O O19 0.582889 0.922705 0.082587
O O20 0.500000 0.000000 0.000000
O O21 0.384695 0.294792 0.250000
O O22 0.418091 0.250000 0.000000
#
# Coordination Sequence:
#
# PCOD9436662 Si02
#       8
#     8   8   8   8   8   8   8   8
#     4   9  17  32  52  73  98 131 169 208 253 310
#     4  10  20  35  55  80 109 141 177 219 267 318
#     4   8  16  31  51  73  99 131 164 200 247 301
#     4  10  21  38  60  84 112 148 191 236 282 335
#     4  10  21  37  58  85 115 149 188 232 282 333
#     4  11  21  34  52  76 107 141 178 220 266 320
#     4  10  20  34  53  77 101 132 172 215 262 314
#     4  10  20  33  52  76 102 131 167 209 255 305
#
# _framework density 18.568522000000002
#
# number of rings (size 3 to 8) (size 9 to 14) (size 15 to 20)
#    0.000    2.250    0.000    4.125    0.000    7.000 
#    0.000    3.750    0.000    3.000    0.000    0.000 
#    0.000    0.000    0.000    0.000    0.000    0.000 
#
# Total GULP energy -356758.166837 kJ/mol
# GULP energy per Si atom -5574.346357 kJ/mol
# Density = 1.852626 g / cm^3
# Si number density = 18.568522 Si / 1000 Ang^3
#
#
#
# Elastic Constant Matrix: (Units=GPa)
#
#
# Indices 1 2 3 4 5 6 
#
# 1 106.8574 -2.4879 42.1980 0.0000 0.0000 0.0000
# 2 -2.4879 51.8774 23.6687 0.0000 0.0000 0.0000
# 3 42.1980 23.6687 126.3609 0.0000 0.0000 0.0000
# 4 0.0000 0.0000 0.0000 27.3192 0.0000 0.0000
# 5 0.0000 0.0000 0.0000 0.0000 26.6119 0.0000
# 6 0.0000 0.0000 0.0000 0.0000 0.0000 8.5447
#
#
#
# Elastic Compliance Matrix: (Units=1/GPa)
#
#
# Indices 1 2 3 4 5 6 
#
# 1 0.011051 0.002421 -0.004144 0.000000 0.000000 0.000000
# 2 0.002421 0.021608 -0.004856 0.000000 0.000000 0.000000
# 3 -0.004144 -0.004856 0.010207 0.000000 0.000000 0.000000
# 4 0.000000 0.000000 0.000000 0.036604 0.000000 0.000000
# 5 0.000000 0.000000 0.000000 0.000000 0.037577 0.000000
# 6 0.000000 0.000000 0.000000 0.000000 0.000000 0.117032
#
#
# Mechanical properties :
#
#
# Convention : Reuss Voigt Hill
#
# Bulk Modulus (GPa) = 33.66101 45.76148 39.71125
# Shear Modulus (GPa) = 19.44469 27.27628 23.36049
#
# Velocity S-wave (km/s) = 3.23954 3.83685 3.55078
# Velocity P-wave (km/s) = 5.67099 6.65783 6.18413
#
# Compressibility (1/GPa) = 0.02970796
#
# Stress axis : x y z
#
# Youngs Moduli (GPa) = 90.48920 46.27986 97.97011
#
# Poissons Ratio (x) = -0.11202 0.40598
# Poissons Ratio (y) = -0.21904 0.47571
# Poissons Ratio (z) = 0.37498 0.22472
#
# Static dielectric constant tensor:
#      x y z
#    x 1.637300 0.000000 0.000000 
#    y 0.000000 1.661630 0.000000 
#    z 0.000000 0.000000 1.671140 
# 
# From -- ./inp_files/9275.got.cif
#   From: 2010.05.17/outbox.cif.g08.bks.cpg/sg57_5_cif.got.tgz:9275.got - 2010.06.03 13:58:18.
