data_PCOD9436371
_publ_section_title
;
Structure prediction by ZEFSAII (Michael W. Deem and Ramdas Pophale) SiO2 
 PCOD9436371
Probable space group: P B C M
;
_chemical_formula_sum "Si O2"
_cell_formula_units_Z 32
_cell_length_a 9.715294
_cell_length_b 10.677747
_cell_length_c 13.964707
_cell_angle_alpha 90.000000
_cell_angle_beta 90.000000
_cell_angle_gamma 90.000000
_cell_volume 1448.663113
_symmetry_space_group_name_H-M "P B C M"
_symmetry_group_IT_number 57
_symmetry_cell_setting 'orthorhombic'
loop_
_space_group_symop_operation_xyz
x,y,z
-x,-y,1/2+z
x,1/2-y,-z
-x,1/2+y,1/2-z
-x,-y,-z
x,y,1/2-z
-x,1/2+y,z
x,1/2-y,1/2+z
loop_
_atom_site_type_symbol
_atom_site_label
_atom_site_fract_x
_atom_site_fract_y
_atom_site_fract_z
Si Si1 0.565049 0.505836 0.106112
Si Si2 0.106528 0.914572 0.861375
Si Si3 0.171083 0.386341 0.523963
Si Si4 0.381762 0.733242 0.115058
O O1 0.478780 0.620062 0.148237
O O2 0.564827 0.367771 0.149218
O O3 0.500000 0.500000 0.000000
O O4 0.723447 0.542363 0.092285
O O5 0.078721 0.946392 0.750000
O O6 0.226312 0.809762 0.862375
O O7 0.154964 0.032616 0.926689
O O8 0.971797 0.869812 0.919217
O O9 0.229334 0.250000 0.500000
O O10 0.385128 0.750000 0.000000
#
# Coordination Sequence:
#
# PCOD9436371 Si02
#       4
#     8   8   8   8
#     4  10  19  36  71  95 125 171 224 266 332 398
#     4  11  25  42  63  94 134 176 226 281 341 404
#     4  11  23  41  68  94 130 180 224 278 339 403
#     4  10  19  39  66  96 125 173 218 272 328 396
#
# _framework density 22.089334000000001
#
# number of rings (size 3 to 8) (size 9 to 14) (size 15 to 20)
#    0.000    1.500    5.000    3.000    3.500    1.000 
#    0.000    2.500    0.000    0.000    0.000    0.000 
#    0.000    0.000    0.000    0.000    0.000    0.000 
#
# Total GULP energy -178680.846455 kJ/mol
# GULP energy per Si atom -5583.776452 kJ/mol
# Density = 2.203906 g / cm^3
# Si number density = 22.089334 Si / 1000 Ang^3
#
#
#
# Elastic Constant Matrix: (Units=GPa)
#
#
# Indices 1 2 3 4 5 6 
#
# 1 89.6822 63.3166 34.1904 0.0000 0.0000 0.0000
# 2 63.3166 171.5242 25.4146 0.0000 0.0000 0.0000
# 3 34.1904 25.4146 140.8051 0.0000 0.0000 0.0000
# 4 0.0000 0.0000 0.0000 46.1979 0.0000 0.0000
# 5 0.0000 0.0000 0.0000 0.0000 -388.9134 0.0000
# 6 0.0000 0.0000 0.0000 0.0000 0.0000 19.1114
#
#
#
# Elastic Compliance Matrix: (Units=1/GPa)
#
#
# Indices 1 2 3 4 5 6 
#
# 1 0.016176 -0.005537 -0.002928 0.000000 0.000000 0.000000
# 2 -0.005537 0.007886 -0.000079 0.000000 0.000000 0.000000
# 3 -0.002928 -0.000079 0.007827 0.000000 0.000000 0.000000
# 4 0.000000 0.000000 0.000000 0.021646 0.000000 0.000000
# 5 0.000000 0.000000 0.000000 0.000000 -0.002571 0.000000
# 6 0.000000 0.000000 0.000000 0.000000 0.000000 0.052325
#
#
# Mechanical properties :
#
#
# Convention : Reuss Voigt Hill
#
# Bulk Modulus (GPa) = 67.56659 71.98387 69.77523
# Shear Modulus (GPa) = 39.90039 -46.11484 -3.10723
#
# Velocity S-wave (km/s) = 4.25469 -4.57404 -1.18732
# Velocity P-wave (km/s) = 7.40208 2.18233 5.45680
#
# Compressibility (1/GPa) = 0.01480021
#
# Stress axis : x y z
#
# Youngs Moduli (GPa) = 61.81815 126.80920 127.75755
#
# Poissons Ratio (x) = 0.70220 0.37414
# Poissons Ratio (y) = 0.34232 0.01006
# Poissons Ratio (z) = 0.18103 0.00999
#
# Static dielectric constant tensor:
#      x y z
#    x 1.817530 0.000000 0.000000 
#    y 0.000000 1.851810 0.000000 
#    z 0.000000 0.000000 1.775520 
# 
# From -- ./inp_files/15515.got.cif
#   From: 2010.05.17/outbox.cif.g08.bks.cpg/sg57_8_cif.got.tgz:15515.got - 2010.06.03 13:58:18.
