data_PCOD9436200
_publ_section_title
;
Structure prediction by ZEFSAII (Michael W. Deem and Ramdas Pophale) SiO2 
 PCOD9436200
Probable space group: P B C M
;
_chemical_formula_sum "Si O2"
_cell_formula_units_Z 64
_cell_length_a 20.680033
_cell_length_b 20.288980
_cell_length_c 8.628367
_cell_angle_alpha 90.000000
_cell_angle_beta 90.000000
_cell_angle_gamma 90.000000
_cell_volume 3620.262407
_symmetry_space_group_name_H-M "P B C M"
_symmetry_group_IT_number 57
_symmetry_cell_setting 'orthorhombic'
loop_
_space_group_symop_operation_xyz
x,y,z
-x,-y,1/2+z
x,1/2-y,-z
-x,1/2+y,1/2-z
-x,-y,-z
x,y,1/2-z
-x,1/2+y,z
x,1/2-y,1/2+z
loop_
_atom_site_type_symbol
_atom_site_label
_atom_site_fract_x
_atom_site_fract_y
_atom_site_fract_z
Si Si1 0.698052 0.592053 0.934772
Si Si2 0.834578 0.559306 0.064068
Si Si3 0.662854 0.448540 0.062835
Si Si4 0.918578 0.177310 0.562732
Si Si5 0.416142 0.177008 0.434814
Si Si6 0.199184 0.908803 0.437574
Si Si7 0.025391 0.069766 0.563960
Si Si8 0.517996 0.427859 0.063992
O O1 0.697062 0.595011 0.750000
O O2 0.771448 0.594899 0.996363
O O3 0.670278 0.521097 0.990080
O O4 0.651598 0.647533 0.004215
O O5 0.833691 0.563664 0.250000
O O6 0.826790 0.481714 0.021422
O O7 0.902864 0.582812 0.998989
O O8 0.665715 0.457036 0.250000
O O9 0.725946 0.407099 0.013518
O O10 0.593674 0.417758 0.025241
O O11 0.928674 0.250000 0.500000
O O12 0.917377 0.179280 0.750000
O O13 0.850498 0.146190 0.506438
O O14 0.975340 0.126878 0.517327
O O15 0.426627 0.250000 0.500000
O O16 0.415702 0.178130 0.250000
O O17 0.471568 0.127064 0.493045
O O18 0.198639 0.905713 0.250000
O O19 0.026475 0.066255 0.750000
O O20 0.000000 0.000000 0.500000
O O21 0.510653 0.427864 0.250000
O O22 0.500000 0.500000 0.000000
#
# Coordination Sequence:
#
# PCOD9436200 Si02
#       8
#     8   8   8   8   8   8   8   8
#     4  11  21  35  57  87 118 148 189 238 289 352
#     4  10  19  35  58  84 114 147 187 238 293 341
#     4   9  18  33  57  84 114 151 191 235 291 341
#     4  10  21  37  55  79 113 152 190 234 286 347
#     4  12  25  42  61  84 117 159 201 247 303 363
#     4   8  15  32  54  78 109 145 183 229 281 336
#     4  11  21  35  56  85 116 149 192 243 295 348
#     4  11  21  35  58  89 121 157 198 245 294 349
#
# _framework density 17.678276
#
# number of rings (size 3 to 8) (size 9 to 14) (size 15 to 20)
#    0.000    1.750    2.500    4.125    0.000    1.500 
#    0.000    1.875    0.000    3.000    0.000    0.000 
#    0.000    0.000    0.000    0.000    0.000    0.000 
#
# Total GULP energy -357320.863100 kJ/mol
# GULP energy per Si atom -5583.138486 kJ/mol
# Density = 1.763804 g / cm^3
# Si number density = 17.678276 Si / 1000 Ang^3
#
#
#
# Elastic Constant Matrix: (Units=GPa)
#
#
# Indices 1 2 3 4 5 6 
#
# 1 173.6291 90.7660 58.7817 0.0000 0.0000 0.0000
# 2 90.7660 130.3766 42.6546 0.0000 0.0000 0.0000
# 3 58.7817 42.6546 73.0124 0.0000 0.0000 0.0000
# 4 0.0000 0.0000 0.0000 26.4906 0.0000 0.0000
# 5 0.0000 0.0000 0.0000 0.0000 29.4182 0.0000
# 6 0.0000 0.0000 0.0000 0.0000 0.0000 26.7838
#
#
#
# Elastic Compliance Matrix: (Units=1/GPa)
#
#
# Indices 1 2 3 4 5 6 
#
# 1 0.010404 -0.005567 -0.005124 0.000000 0.000000 0.000000
# 2 -0.005567 0.012461 -0.002798 0.000000 0.000000 0.000000
# 3 -0.005124 -0.002798 0.019456 0.000000 0.000000 0.000000
# 4 0.000000 0.000000 0.000000 0.037749 0.000000 0.000000
# 5 0.000000 0.000000 0.000000 0.000000 0.033993 0.000000
# 6 0.000000 0.000000 0.000000 0.000000 0.000000 0.037336
#
#
# Mechanical properties :
#
#
# Convention : Reuss Voigt Hill
#
# Bulk Modulus (GPa) = 65.17394 84.60253 74.88823
# Shear Modulus (GPa) = 27.24910 28.85958 28.05434
#
# Velocity S-wave (km/s) = 3.93031 4.04479 3.98796
# Velocity P-wave (km/s) = 7.58572 8.35311 7.97865
#
# Compressibility (1/GPa) = 0.01534356
#
# Stress axis : x y z
#
# Youngs Moduli (GPa) = 96.11401 80.24998 51.39684
#
# Poissons Ratio (x) = 0.44674 0.26337
# Poissons Ratio (y) = 0.53505 0.14381
# Poissons Ratio (z) = 0.49251 0.22454
#
# Static dielectric constant tensor:
#      x y z
#    x 1.623270 0.000000 0.000000 
#    y 0.000000 1.565700 0.000000 
#    z 0.000000 0.000000 1.596670 
# 
# From -- ./inp_files/8532.got.cif
#   From: 2010.05.17/outbox.cif.g08.bks.cpg/sg57_5_cif.got.tgz:8532.got - 2010.06.03 13:58:18.
