data_PCOD9436948
_publ_section_title
;
Structure prediction by ZEFSAII (Michael W. Deem and Ramdas Pophale) SiO2 
 PCOD9436948
Probable space group: P B C M
;
_chemical_formula_sum "Si O2"
_cell_formula_units_Z 60
_cell_length_a 27.899465
_cell_length_b 11.541802
_cell_length_c 9.049371
_cell_angle_alpha 90.000000
_cell_angle_beta 90.000000
_cell_angle_gamma 90.000000
_cell_volume 2913.988869
_symmetry_space_group_name_H-M "P B C M"
_symmetry_group_IT_number 57
_symmetry_cell_setting 'orthorhombic'
loop_
_space_group_symop_operation_xyz
x,y,z
-x,-y,1/2+z
x,1/2-y,-z
-x,1/2+y,1/2-z
-x,-y,-z
x,y,1/2-z
-x,1/2+y,z
x,1/2-y,1/2+z
loop_
_atom_site_type_symbol
_atom_site_label
_atom_site_fract_x
_atom_site_fract_y
_atom_site_fract_z
Si Si1 0.566492 0.897382 0.581263
Si Si2 0.533416 0.349199 0.416688
Si Si3 0.108601 0.750000 0.500000
Si Si4 0.334591 0.368270 0.425666
Si Si5 0.806227 0.416412 0.581455
Si Si6 0.865567 0.874376 0.071009
Si Si7 0.298896 0.869183 0.929286
Si Si8 0.948923 0.480180 0.076849
O O1 0.572300 0.854238 0.750000
O O2 0.514999 0.867220 0.511392
O O3 0.609866 0.866696 0.475224
O O4 0.563775 0.035622 0.587571
O O5 0.561609 0.250000 0.500000
O O6 0.520635 0.317576 0.250000
O O7 0.148203 0.670363 0.415854
O O8 0.073593 0.650531 0.565760
O O9 0.313222 0.250000 0.500000
O O10 0.329077 0.357549 0.250000
O O11 0.317199 0.499519 0.466834
O O12 0.793615 0.441546 0.750000
O O13 0.824437 0.537220 0.517071
O O14 0.756818 0.372444 0.515792
O O15 0.866557 0.869799 0.250000
O O16 0.859583 0.750000 0.000000
O O17 0.913486 0.934061 0.009670
O O18 0.302905 0.857770 0.750000
O O19 0.319448 0.750000 0.000000
O O20 0.951581 0.509536 0.250000
O O21 0.000000 0.500000 0.000000
#
# Coordination Sequence:
#
# PCOD9436948 Si02
#       8
#     8   8   4   8   8   8   8   8
#     4  10  21  37  57  81 114 156 203 252 305 369
#     4  10  20  34  55  83 114 152 199 253 309 365
#     4  10  20  38  64  88 118 154 202 248 296 356
#     4  11  24  41  62  88 124 166 209 255 310 377
#     4   9  18  36  62  89 117 150 192 245 300 356
#     4  10  21  38  59  85 120 156 194 241 292 348
#     4  10  22  41  65  94 125 159 201 255 315 374
#     4  11  24  39  59  86 118 158 200 242 293 348
#
# _framework density 20.590330999999999
#
# number of rings (size 3 to 8) (size 9 to 14) (size 15 to 20)
#    0.000    1.867    0.667    2.800    0.933    5.333 
#    0.000    3.333    0.000    0.000    0.000    0.000 
#    0.000    0.000    0.000    0.000    0.000    0.000 
#
# Total GULP energy -334122.389064 kJ/mol
# GULP energy per Si atom -5568.706484 kJ/mol
# Density = 2.054347 g / cm^3
# Si number density = 20.590331 Si / 1000 Ang^3
#
#
#
# Elastic Constant Matrix: (Units=GPa)
#
#
# Indices 1 2 3 4 5 6 
#
# 1 71.8250 38.0379 10.1930 0.0000 0.0000 0.0000
# 2 38.0379 185.5980 49.1830 0.0000 0.0000 0.0000
# 3 10.1930 49.1830 86.1105 0.0000 0.0000 0.0000
# 4 0.0000 0.0000 0.0000 29.7735 0.0000 0.0000
# 5 0.0000 0.0000 0.0000 0.0000 20.5010 0.0000
# 6 0.0000 0.0000 0.0000 0.0000 0.0000 71.4284
#
#
#
# Elastic Compliance Matrix: (Units=1/GPa)
#
#
# Indices 1 2 3 4 5 6 
#
# 1 0.015618 -0.003194 -0.000024 0.000000 0.000000 0.000000
# 2 -0.003194 0.007002 -0.003621 0.000000 0.000000 0.000000
# 3 -0.000024 -0.003621 0.013684 0.000000 0.000000 0.000000
# 4 0.000000 0.000000 0.000000 0.033587 0.000000 0.000000
# 5 0.000000 0.000000 0.000000 0.000000 0.048778 0.000000
# 6 0.000000 0.000000 0.000000 0.000000 0.000000 0.014000
#
#
# Mechanical properties :
#
#
# Convention : Reuss Voigt Hill
#
# Bulk Modulus (GPa) = 44.19973 59.81792 52.00883
# Shear Modulus (GPa) = 32.49053 40.74854 36.61954
#
# Velocity S-wave (km/s) = 3.97665 4.45344 4.22178
# Velocity P-wave (km/s) = 6.52670 7.45377 7.00559
#
# Compressibility (1/GPa) = 0.02262457
#
# Stress axis : x y z
#
# Youngs Moduli (GPa) = 64.02899 142.80963 73.07690
#
# Poissons Ratio (x) = 0.45620 0.00177
# Poissons Ratio (y) = 0.20454 0.26464
# Poissons Ratio (z) = 0.00155 0.51716
#
# Static dielectric constant tensor:
#      x y z
#    x 1.765520 0.000000 0.000000 
#    y 0.000000 1.861410 0.000000 
#    z 0.000000 0.000000 1.721330 
# 
# From -- ./inp_files/9764.got.cif
#   From: 2010.05.17/outbox.cif.g08.bks.cpg/sg57_5_cif.got.tgz:9764.got - 2010.06.03 13:58:18.
