data_PCOD9436918
_publ_section_title
;
Structure prediction by ZEFSAII (Michael W. Deem and Ramdas Pophale) SiO2 
 PCOD9436918
Probable space group: P B C M
;
_chemical_formula_sum "Si O2"
_cell_formula_units_Z 56
_cell_length_a 13.939827
_cell_length_b 24.905407
_cell_length_c 8.812867
_cell_angle_alpha 90.000000
_cell_angle_beta 90.000000
_cell_angle_gamma 90.000000
_cell_volume 3059.625299
_symmetry_space_group_name_H-M "P B C M"
_symmetry_group_IT_number 57
_symmetry_cell_setting 'orthorhombic'
loop_
_space_group_symop_operation_xyz
x,y,z
-x,-y,1/2+z
x,1/2-y,-z
-x,1/2+y,1/2-z
-x,-y,-z
x,y,1/2-z
-x,1/2+y,z
x,1/2-y,1/2+z
loop_
_atom_site_type_symbol
_atom_site_label
_atom_site_fract_x
_atom_site_fract_y
_atom_site_fract_z
Si Si1 0.544966 0.910933 0.565775
Si Si2 0.235928 0.692667 0.568391
Si Si3 0.270238 0.020990 0.066682
Si Si4 0.672746 0.413459 0.567827
Si Si5 0.151485 0.376505 0.567518
Si Si6 0.660368 0.691438 0.432458
Si Si7 0.010150 0.692834 0.569572
O O1 0.545738 0.911849 0.750000
O O2 0.628308 0.951986 0.517899
O O3 0.437453 0.922893 0.515857
O O4 0.579483 0.851430 0.519537
O O5 0.266347 0.750000 0.500000
O O6 0.246652 0.693301 0.750000
O O7 0.291974 0.643068 0.496790
O O8 0.122522 0.685870 0.532256
O O9 0.270606 0.016742 0.250000
O O10 0.188239 0.064070 0.024574
O O11 0.264339 0.962680 0.994095
O O12 0.675196 0.412449 0.750000
O O13 0.142865 0.375397 0.750000
O O14 0.237862 0.335674 0.525566
O O15 0.054985 0.354729 0.494290
O O16 0.648897 0.750000 0.500000
O O17 0.658149 0.694804 0.250000
O O18 0.978566 0.750000 0.500000
O O19 0.000495 0.695667 0.750000
#
# Coordination Sequence:
#
# PCOD9436918 Si02
#       7
#     8   8   8   8   8   8   8
#     4   8  17  33  51  72 102 138 176 214 254 301
#     4  10  22  40  58  78 104 135 171 213 259 307
#     4   9  18  35  55  76 106 141 173 210 255 306
#     4  11  21  34  55  80 104 135 174 217 259 302
#     4   9  18  32  52  76 104 137 170 207 255 305
#     4   9  17  30  46  69 102 136 167 204 251 304
#     4  10  20  34  55  79 104 134 170 211 256 307
#
# _framework density 18.302894999999999
#
# number of rings (size 3 to 8) (size 9 to 14) (size 15 to 20)
#    0.000    2.571    0.000    3.857    0.000    4.571 
#    0.000    6.429    0.000    0.000    0.000    0.000 
#    0.000    0.000    0.000    0.000    0.000    0.000 
#
# Total GULP energy -312434.178544 kJ/mol
# GULP energy per Si atom -5579.181760 kJ/mol
# Density = 1.826124 g / cm^3
# Si number density = 18.302895 Si / 1000 Ang^3
#
#
#
# Elastic Constant Matrix: (Units=GPa)
#
#
# Indices 1 2 3 4 5 6 
#
# 1 34.3143 21.8338 16.6445 0.0000 0.0000 0.0000
# 2 21.8338 126.7207 26.8889 0.0000 0.0000 0.0000
# 3 16.6445 26.8889 20.8581 0.0000 0.0000 0.0000
# 4 0.0000 0.0000 0.0000 34.6276 0.0000 0.0000
# 5 0.0000 0.0000 0.0000 0.0000 21.1879 0.0000
# 6 0.0000 0.0000 0.0000 0.0000 0.0000 20.9053
#
#
#
# Elastic Compliance Matrix: (Units=1/GPa)
#
#
# Indices 1 2 3 4 5 6 
#
# 1 0.047550 -0.000195 -0.037693 0.000000 0.000000 0.000000
# 2 -0.000195 0.010864 -0.013849 0.000000 0.000000 0.000000
# 3 -0.037693 -0.013849 0.095876 0.000000 0.000000 0.000000
# 4 0.000000 0.000000 0.000000 0.028879 0.000000 0.000000
# 5 0.000000 0.000000 0.000000 0.000000 0.047197 0.000000
# 6 0.000000 0.000000 0.000000 0.000000 0.000000 0.047835
#
#
# Mechanical properties :
#
#
# Convention : Reuss Voigt Hill
#
# Bulk Modulus (GPa) = 19.67947 34.73638 27.20793
# Shear Modulus (GPa) = 12.54353 23.11253 17.82803
#
# Velocity S-wave (km/s) = 2.62072 3.55742 3.12437
# Velocity P-wave (km/s) = 4.46464 5.99111 5.28330
#
# Compressibility (1/GPa) = 0.05081438
#
# Stress axis : x y z
#
# Youngs Moduli (GPa) = 21.03063 92.05059 10.43019
#
# Poissons Ratio (x) = 0.01791 0.39315
# Poissons Ratio (y) = 0.00409 0.14445
# Poissons Ratio (z) = 0.79271 1.27484
#
# Static dielectric constant tensor:
#      x y z
#    x 1.637790 0.000000 0.000000 
#    y 0.000000 1.615470 0.000000 
#    z 0.000000 0.000000 1.612470 
# 
# From -- ./inp_files/5193.got.cif
#   From: 2010.05.17/outbox.cif.g08.bks.cpg/sg57_3_cif.got.tgz:5193.got - 2010.06.03 13:58:18.
