data_PCOD9436689
_publ_section_title
;
Structure prediction by ZEFSAII (Michael W. Deem and Ramdas Pophale) SiO2 
 PCOD9436689
Probable space group: P B C M
;
_chemical_formula_sum "Si O2"
_cell_formula_units_Z 48
_cell_length_a 7.775505
_cell_length_b 36.070754
_cell_length_c 7.690979
_cell_angle_alpha 90.000000
_cell_angle_beta 90.000000
_cell_angle_gamma 90.000000
_cell_volume 2157.076021
_symmetry_space_group_name_H-M "P B C M"
_symmetry_group_IT_number 57
_symmetry_cell_setting 'orthorhombic'
loop_
_space_group_symop_operation_xyz
x,y,z
-x,-y,1/2+z
x,1/2-y,-z
-x,1/2+y,1/2-z
-x,-y,-z
x,y,1/2-z
-x,1/2+y,z
x,1/2-y,1/2+z
loop_
_atom_site_type_symbol
_atom_site_label
_atom_site_fract_x
_atom_site_fract_y
_atom_site_fract_z
Si Si1 0.377689 0.334309 0.536824
Si Si2 0.944220 0.791979 0.541676
Si Si3 0.193474 0.490677 0.546955
Si Si4 0.701325 0.587008 0.446845
Si Si5 0.232194 0.850032 0.963994
Si Si6 0.703049 0.070413 0.442708
O O1 0.382169 0.335396 0.750000
O O2 0.284653 0.372282 0.474967
O O3 0.577528 0.335374 0.483233
O O4 0.249689 0.301737 0.481566
O O5 0.992026 0.750000 0.500000
O O6 0.943243 0.795636 0.750000
O O7 0.083999 0.821989 0.478767
O O8 0.217909 0.484345 0.750000
O O9 0.235592 0.450733 0.464595
O O10 0.293492 0.528692 0.511391
O O11 0.000000 0.500000 0.500000
O O12 0.774812 0.590034 0.250000
O O13 0.495982 0.581554 0.432643
O O14 0.232132 0.851724 0.750000
O O15 0.210330 0.892978 0.024910
O O16 0.779418 0.066817 0.250000
#
# Coordination Sequence:
#
# PCOD9436689 Si02
#       6
#     8   8   8   8   8   8
#     4   8  15  30  52  76  99 127 171 213 244 293
#     4  10  20  33  53  77 102 132 164 205 254 304
#     4  11  22  32  46  73 106 138 171 208 253 300
#     4   8  16  31  52  74  96 128 171 214 250 293
#     4   8  16  31  53  78  99 130 172 208 248 303
#     4   9  17  33  55  75  96 127 171 217 255 296
#
# _framework density 22.252343
#
# number of rings (size 3 to 8) (size 9 to 14) (size 15 to 20)
#    0.000    3.000    0.000    3.000    2.333    0.667 
#    0.000    1.667    0.000    4.000    0.000    0.000 
#    0.000    0.000    0.000    0.000    0.000    0.000 
#
# Total GULP energy -267364.688300 kJ/mol
# GULP energy per Si atom -5570.097673 kJ/mol
# Density = 2.220170 g / cm^3
# Si number density = 22.252343 Si / 1000 Ang^3
#
#
#
# Elastic Constant Matrix: (Units=GPa)
#
#
# Indices 1 2 3 4 5 6 
#
# 1 44.0461 13.8717 -2.8990 0.0000 0.0000 0.0000
# 2 13.8717 79.4102 0.2428 0.0000 0.0000 0.0000
# 3 -2.8990 0.2428 30.9034 0.0000 0.0000 0.0000
# 4 0.0000 0.0000 0.0000 16.7776 0.0000 0.0000
# 5 0.0000 0.0000 0.0000 0.0000 3.2611 0.0000
# 6 0.0000 0.0000 0.0000 0.0000 0.0000 43.9893
#
#
#
# Elastic Compliance Matrix: (Units=1/GPa)
#
#
# Indices 1 2 3 4 5 6 
#
# 1 0.024188 -0.004232 0.002302 0.000000 0.000000 0.000000
# 2 -0.004232 0.013334 -0.000502 0.000000 0.000000 0.000000
# 3 0.002302 -0.000502 0.032579 0.000000 0.000000 0.000000
# 4 0.000000 0.000000 0.000000 0.059603 0.000000 0.000000
# 5 0.000000 0.000000 0.000000 0.000000 0.306648 0.000000
# 6 0.000000 0.000000 0.000000 0.000000 0.000000 0.022733
#
#
# Mechanical properties :
#
#
# Convention : Reuss Voigt Hill
#
# Bulk Modulus (GPa) = 15.32875 19.64341 17.48608
# Shear Modulus (GPa) = 10.29456 22.34853 16.32154
#
# Velocity S-wave (km/s) = 2.15321 3.17254 2.71121
# Velocity P-wave (km/s) = 3.61736 4.71877 4.20429
#
# Compressibility (1/GPa) = 0.06523687
#
# Stress axis : x y z
#
# Youngs Moduli (GPa) = 41.34292 74.99798 30.69475
#
# Poissons Ratio (x) = 0.31741 -0.07067
# Poissons Ratio (y) = 0.17498 0.01540
# Poissons Ratio (z) = -0.09518 0.03763
#
# Static dielectric constant tensor:
#      x y z
#    x 1.817360 0.000000 0.000000 
#    y 0.000000 1.916640 0.000000 
#    z 0.000000 0.000000 1.866490 
# 
# From -- ./inp_files/2128.got.cif
#   From: 2010.05.17/outbox.cif.g08.bks.cpg/sg57_2_cif.got.tgz:2128.got - 2010.06.03 13:58:18.
