data_PCOD9436751
_publ_section_title
;
Structure prediction by ZEFSAII (Michael W. Deem and Ramdas Pophale) SiO2 
 PCOD9436751
Probable space group: P B C M
;
_chemical_formula_sum "Si O2"
_cell_formula_units_Z 48
_cell_length_a 16.948720
_cell_length_b 18.337045
_cell_length_c 9.051363
_cell_angle_alpha 90.000000
_cell_angle_beta 90.000000
_cell_angle_gamma 90.000000
_cell_volume 2813.068050
_symmetry_space_group_name_H-M "P B C M"
_symmetry_group_IT_number 57
_symmetry_cell_setting 'orthorhombic'
loop_
_space_group_symop_operation_xyz
x,y,z
-x,-y,1/2+z
x,1/2-y,-z
-x,1/2+y,1/2-z
-x,-y,-z
x,y,1/2-z
-x,1/2+y,z
x,1/2-y,1/2+z
loop_
_atom_site_type_symbol
_atom_site_label
_atom_site_fract_x
_atom_site_fract_y
_atom_site_fract_z
Si Si1 0.580497 0.027665 0.071170
Si Si2 0.360406 0.676379 0.925799
Si Si3 0.746578 0.530710 0.582570
Si Si4 0.101666 0.433501 0.581228
Si Si5 0.051688 0.605516 0.580753
Si Si6 0.203599 0.640183 0.417696
O O1 0.576713 0.032248 0.250000
O O2 0.655539 0.975520 0.034595
O O3 0.600460 0.106189 0.001834
O O4 0.500000 0.000000 0.000000
O O5 0.369941 0.675657 0.750000
O O6 0.392044 0.750000 0.000000
O O7 0.268053 0.671619 0.970691
O O8 0.750357 0.559152 0.750000
O O9 0.809837 0.570934 0.480965
O O10 0.775517 0.446238 0.588287
O O11 0.096924 0.409167 0.750000
O O12 0.077481 0.519665 0.578854
O O13 0.036378 0.393127 0.483110
O O14 0.055449 0.630105 0.750000
O O15 0.115505 0.646334 0.479607
O O16 0.212649 0.668361 0.250000
#
# Coordination Sequence:
#
# PCOD9436751 Si02
#       6
#     8   8   8   8   8   8
#     4  10  20  34  51  72  97 127 162 202 251 305
#     4  11  21  34  51  71  96 127 162 200 243 293
#     4   8  15  26  39  56  82 114 147 184 228 279
#     4   9  15  21  32  51  76 108 145 182 219 260
#     4   9  15  22  33  51  77 110 145 179 217 260
#     4   9  16  27  41  59  84 114 149 187 226 271
#
# _framework density 17.063220999999999
#
# number of rings (size 3 to 8) (size 9 to 14) (size 15 to 20)
#    0.000    2.667    0.000    4.500    0.000    8.667 
#    0.000    0.000    0.000    0.000    0.000    0.000 
#    0.000    1.333    0.000    7.333    0.000   16.667 
#
# Total GULP energy -267476.621310 kJ/mol
# GULP energy per Si atom -5572.429611 kJ/mol
# Density = 1.702438 g / cm^3
# Si number density = 17.063221 Si / 1000 Ang^3
#
#
#
# Elastic Constant Matrix: (Units=GPa)
#
#
# Indices 1 2 3 4 5 6 
#
# 1 139.8805 20.8738 60.8762 0.0000 0.0000 0.0000
# 2 20.8738 23.8235 14.8711 0.0000 0.0000 0.0000
# 3 60.8762 14.8711 110.5769 0.0000 0.0000 0.0000
# 4 0.0000 0.0000 0.0000 13.9308 0.0000 0.0000
# 5 0.0000 0.0000 0.0000 0.0000 30.8954 0.0000
# 6 0.0000 0.0000 0.0000 0.0000 0.0000 4.7292
#
#
#
# Elastic Compliance Matrix: (Units=1/GPa)
#
#
# Indices 1 2 3 4 5 6 
#
# 1 0.010102 -0.005873 -0.004772 0.000000 0.000000 0.000000
# 2 -0.005873 0.049236 -0.003389 0.000000 0.000000 0.000000
# 3 -0.004772 -0.003389 0.012126 0.000000 0.000000 0.000000
# 4 0.000000 0.000000 0.000000 0.071783 0.000000 0.000000
# 5 0.000000 0.000000 0.000000 0.000000 0.032367 0.000000
# 6 0.000000 0.000000 0.000000 0.000000 0.000000 0.211452
#
#
# Mechanical properties :
#
#
# Convention : Reuss Voigt Hill
#
# Bulk Modulus (GPa) = 23.04225 51.94703 37.49464
# Shear Modulus (GPa) = 11.63879 21.75507 16.69693
#
# Velocity S-wave (km/s) = 2.61453 3.57454 3.13155
# Velocity P-wave (km/s) = 4.75897 6.89539 5.92428
#
# Compressibility (1/GPa) = 0.04339853
#
# Stress axis : x y z
#
# Youngs Moduli (GPa) = 98.99087 20.31032 82.46645
#
# Poissons Ratio (x) = 0.11927 0.39350
# Poissons Ratio (y) = 0.58133 0.27944
# Poissons Ratio (z) = 0.47235 0.06882
#
# Static dielectric constant tensor:
#      x y z
#    x 1.584690 0.000000 0.000000 
#    y 0.000000 1.589760 0.000000 
#    z 0.000000 0.000000 1.573980 
# 
# From -- ./inp_files/6695.got.cif
#   From: 2010.05.17/outbox.cif.g08.bks.cpg/sg57_4_cif.got.tgz:6695.got - 2010.06.03 13:58:18.
