data_PCOD9436953
_publ_section_title
;
Structure prediction by ZEFSAII (Michael W. Deem and Ramdas Pophale) SiO2 
 PCOD9436953
Probable space group: P B C M
;
_chemical_formula_sum "Si O2"
_cell_formula_units_Z 48
_cell_length_a 11.181439
_cell_length_b 19.674946
_cell_length_c 9.483100
_cell_angle_alpha 90.000000
_cell_angle_beta 90.000000
_cell_angle_gamma 90.000000
_cell_volume 2086.227079
_symmetry_space_group_name_H-M "P B C M"
_symmetry_group_IT_number 57
_symmetry_cell_setting 'orthorhombic'
loop_
_space_group_symop_operation_xyz
x,y,z
-x,-y,1/2+z
x,1/2-y,-z
-x,1/2+y,1/2-z
-x,-y,-z
x,y,1/2-z
-x,1/2+y,z
x,1/2-y,1/2+z
loop_
_atom_site_type_symbol
_atom_site_label
_atom_site_fract_x
_atom_site_fract_y
_atom_site_fract_z
Si Si1 0.649484 0.564774 0.909749
Si Si2 0.986593 0.569385 0.416283
Si Si3 0.393711 0.691231 0.093474
Si Si4 0.368661 0.557714 0.908183
Si Si5 0.883317 0.194133 0.097627
Si Si6 0.768308 0.822998 0.921252
O O1 0.701175 0.569015 0.750000
O O2 0.510848 0.544639 0.890411
O O3 0.695136 0.503788 0.009821
O O4 0.663946 0.634460 0.997568
O O5 0.984171 0.553319 0.250000
O O6 0.878120 0.622916 0.444932
O O7 0.000000 0.500000 0.500000
O O8 0.100343 0.617411 0.451100
O O9 0.446139 0.682236 0.250000
O O10 0.254952 0.712224 0.114005
O O11 0.453093 0.750000 0.000000
O O12 0.376356 0.623593 0.004922
O O13 0.319360 0.568278 0.750000
O O14 0.942780 0.198029 0.250000
O O15 0.940435 0.250000 0.000000
O O16 0.752369 0.815921 0.750000
O O17 0.781087 0.750000 0.000000
#
# Coordination Sequence:
#
# PCOD9436953 Si02
#       6
#     8   8   8   8   8   8
#     4  10  22  40  62  87 117 158 199 245 304 359
#     4  10  23  40  59  88 120 154 198 245 298 357
#     4  10  20  34  55  84 116 153 193 237 290 348
#     4  10  21  38  60  87 120 155 198 249 300 359
#     4   9  19  36  56  81 113 149 190 233 284 345
#     4  11  24  42  64  92 124 162 208 256 306 364
#
# _framework density 23.008040999999999
#
# number of rings (size 3 to 8) (size 9 to 14) (size 15 to 20)
#    0.000    2.000    0.000    2.500    2.333    5.333 
#    0.000    0.000    0.000    0.000    0.000    0.000 
#    0.000    0.000    0.000    0.000    0.000    0.000 
#
# Total GULP energy -267540.678844 kJ/mol
# GULP energy per Si atom -5573.764143 kJ/mol
# Density = 2.295567 g / cm^3
# Si number density = 23.008041 Si / 1000 Ang^3
#
#
#
# Elastic Constant Matrix: (Units=GPa)
#
#
# Indices 1 2 3 4 5 6 
#
# 1 39.0591 1.1460 5.5233 0.0000 0.0000 0.0000
# 2 1.1460 211.6295 132.8878 0.0000 0.0000 0.0000
# 3 5.5233 132.8878 218.0979 0.0000 0.0000 0.0000
# 4 0.0000 0.0000 0.0000 46.0292 0.0000 0.0000
# 5 0.0000 0.0000 0.0000 0.0000 13.8797 0.0000
# 6 0.0000 0.0000 0.0000 0.0000 0.0000 31.4569
#
#
#
# Elastic Compliance Matrix: (Units=1/GPa)
#
#
# Indices 1 2 3 4 5 6 
#
# 1 0.025719 0.000437 -0.000918 0.000000 0.000000 0.000000
# 2 0.000437 0.007661 -0.004679 0.000000 0.000000 0.000000
# 3 -0.000918 -0.004679 0.007459 0.000000 0.000000 0.000000
# 4 0.000000 0.000000 0.000000 0.021725 0.000000 0.000000
# 5 0.000000 0.000000 0.000000 0.000000 0.072048 0.000000
# 6 0.000000 0.000000 0.000000 0.000000 0.000000 0.031790
#
#
# Mechanical properties :
#
#
# Convention : Reuss Voigt Hill
#
# Bulk Modulus (GPa) = 32.76524 83.10011 57.93267
# Shear Modulus (GPa) = 26.75313 40.22178 33.48745
#
# Velocity S-wave (km/s) = 3.41364 4.18564 3.81920
# Velocity P-wave (km/s) = 5.45976 7.71723 6.68448
#
# Compressibility (1/GPa) = 0.03052015
#
# Stress axis : x y z
#
# Youngs Moduli (GPa) = 38.88154 130.53391 134.06317
#
# Poissons Ratio (x) = -0.05702 0.12300
# Poissons Ratio (y) = -0.01699 0.62726
# Poissons Ratio (z) = 0.03567 0.61075
#
# Static dielectric constant tensor:
#      x y z
#    x 2.032450 0.000000 0.000000 
#    y 0.000000 1.858750 0.000000 
#    z 0.000000 0.000000 1.960480 
# 
# From -- ./inp_files/4586.got.cif
#   From: 2010.05.17/outbox.cif.g08.bks.cpg/sg57_3_cif.got.tgz:4586.got - 2010.06.03 13:58:18.
