data_PCOD9436665
_publ_section_title
;
Structure prediction by ZEFSAII (Michael W. Deem and Ramdas Pophale) SiO2 
 PCOD9436665
Probable space group: P B C M
;
_chemical_formula_sum "Si O2"
_cell_formula_units_Z 48
_cell_length_a 9.078629
_cell_length_b 29.101351
_cell_length_c 9.048354
_cell_angle_alpha 90.000000
_cell_angle_beta 90.000000
_cell_angle_gamma 90.000000
_cell_volume 2390.578467
_symmetry_space_group_name_H-M "P B C M"
_symmetry_group_IT_number 57
_symmetry_cell_setting 'orthorhombic'
loop_
_space_group_symop_operation_xyz
x,y,z
-x,-y,1/2+z
x,1/2-y,-z
-x,1/2+y,1/2-z
-x,-y,-z
x,y,1/2-z
-x,1/2+y,z
x,1/2-y,1/2+z
loop_
_atom_site_type_symbol
_atom_site_label
_atom_site_fract_x
_atom_site_fract_y
_atom_site_fract_z
Si Si1 0.740693 0.337830 0.919911
Si Si2 0.105533 0.939248 0.918123
Si Si3 0.016774 0.202142 0.927155
Si Si4 0.368185 0.976049 0.087047
Si Si5 0.828156 0.885845 0.571288
Si Si6 0.478681 0.377877 0.416912
O O1 0.736309 0.321591 0.750000
O O2 0.813446 0.389096 0.915386
O O3 0.849572 0.307961 0.019988
O O4 0.580325 0.342647 0.992356
O O5 0.097691 0.955987 0.750000
O O6 0.942347 0.926294 0.972253
O O7 0.209417 0.972675 0.010741
O O8 0.027537 0.202602 0.750000
O O9 0.063960 0.250000 0.000000
O O10 0.110168 0.160810 0.998479
O O11 0.355192 0.996765 0.250000
O O12 0.423310 0.923583 0.098160
O O13 0.500000 0.000000 0.000000
O O14 0.830634 0.882611 0.750000
O O15 0.665877 0.891596 0.507549
O O16 0.442342 0.362091 0.250000
#
# Coordination Sequence:
#
# PCOD9436665 Si02
#       6
#     8   8   8   8   8   8
#     4   9  17  32  53  76 101 133 171 210 251 301
#     4   8  16  31  51  73  99 131 170 209 250 303
#     4  11  21  35  55  79 107 138 173 214 256 304
#     4  10  20  33  52  76 103 134 173 217 263 310
#     4  10  20  35  55  79 106 140 176 213 260 316
#     4  10  20  34  53  79 106 136 173 215 260 310
#
# _framework density 20.078821000000001
#
# number of rings (size 3 to 8) (size 9 to 14) (size 15 to 20)
#    0.000    2.333    0.000    4.500    0.000    6.667 
#    0.000    1.667    0.000    0.000    0.000    0.000 
#    0.000    0.000    0.000    0.000    0.000    0.000 
#
# Total GULP energy -267844.489917 kJ/mol
# GULP energy per Si atom -5580.093540 kJ/mol
# Density = 2.003312 g / cm^3
# Si number density = 20.078821 Si / 1000 Ang^3
#
#
#
# Elastic Constant Matrix: (Units=GPa)
#
#
# Indices 1 2 3 4 5 6 
#
# 1 105.5117 7.6945 36.3765 0.0000 0.0000 0.0000
# 2 7.6945 42.1523 21.0481 0.0000 0.0000 0.0000
# 3 36.3765 21.0481 125.3312 0.0000 0.0000 0.0000
# 4 0.0000 0.0000 0.0000 22.9665 0.0000 0.0000
# 5 0.0000 0.0000 0.0000 0.0000 33.0052 0.0000
# 6 0.0000 0.0000 0.0000 0.0000 0.0000 20.1464
#
#
#
# Elastic Compliance Matrix: (Units=1/GPa)
#
#
# Indices 1 2 3 4 5 6 
#
# 1 0.010539 -0.000433 -0.002986 0.000000 0.000000 0.000000
# 2 -0.000433 0.025913 -0.004226 0.000000 0.000000 0.000000
# 3 -0.002986 -0.004226 0.009555 0.000000 0.000000 0.000000
# 4 0.000000 0.000000 0.000000 0.043542 0.000000 0.000000
# 5 0.000000 0.000000 0.000000 0.000000 0.030298 0.000000
# 6 0.000000 0.000000 0.000000 0.000000 0.000000 0.049637
#
#
# Mechanical properties :
#
#
# Convention : Reuss Voigt Hill
#
# Bulk Modulus (GPa) = 32.55552 44.80372 38.67962
# Shear Modulus (GPa) = 25.63940 29.08202 27.36071
#
# Velocity S-wave (km/s) = 3.57730 3.80990 3.69543
# Velocity P-wave (km/s) = 5.77164 6.45881 6.12487
#
# Compressibility (1/GPa) = 0.03071676
#
# Stress axis : x y z
#
# Youngs Moduli (GPa) = 94.88859 38.59102 104.65390
#
# Poissons Ratio (x) = 0.01670 0.31251
# Poissons Ratio (y) = 0.04106 0.44229
# Poissons Ratio (z) = 0.28335 0.16309
#
# Static dielectric constant tensor:
#      x y z
#    x 1.716710 0.000000 0.000000 
#    y 0.000000 1.731920 0.000000 
#    z 0.000000 0.000000 1.703680 
# 
# From -- ./inp_files/1981.got.cif
#   From: 2010.05.17/outbox.cif.g08.bks.cpg/sg57_1_cif.got.tgz:1981.got - 2010.06.03 13:58:18.
