data_PCOD9436135
_publ_section_title
;
Structure prediction by ZEFSAII (Michael W. Deem and Ramdas Pophale) SiO2 
 PCOD9436135
Probable space group: P B C M
;
_chemical_formula_sum "Si O2"
_cell_formula_units_Z 64
_cell_length_a 20.524513
_cell_length_b 7.981459
_cell_length_c 16.289148
_cell_angle_alpha 90.000000
_cell_angle_beta 90.000000
_cell_angle_gamma 90.000000
_cell_volume 2668.415885
_symmetry_space_group_name_H-M "P B C M"
_symmetry_group_IT_number 57
_symmetry_cell_setting 'orthorhombic'
loop_
_space_group_symop_operation_xyz
x,y,z
-x,-y,1/2+z
x,1/2-y,-z
-x,1/2+y,1/2-z
-x,-y,-z
x,y,1/2-z
-x,1/2+y,z
x,1/2-y,1/2+z
loop_
_atom_site_type_symbol
_atom_site_label
_atom_site_fract_x
_atom_site_fract_y
_atom_site_fract_z
Si Si1 0.223167 0.606209 0.345063
Si Si2 0.701925 0.846768 0.584429
Si Si3 0.594236 0.478961 0.155523
Si Si4 0.962566 0.823595 0.090951
Si Si5 0.170613 0.219839 0.157228
Si Si6 0.642994 0.976356 0.346527
Si Si7 0.087164 0.674300 0.348439
Si Si8 0.529377 0.163504 0.088742
O O1 0.233079 0.653044 0.250000
O O2 0.194086 0.415361 0.347271
O O3 0.296161 0.590104 0.378604
O O4 0.161402 0.712663 0.375531
O O5 0.693204 0.750000 0.500000
O O6 0.658398 0.007912 0.599864
O O7 0.778067 0.874198 0.599927
O O8 0.671380 0.711306 0.647782
O O9 0.608818 0.512480 0.250000
O O10 0.560878 0.299393 0.148485
O O11 0.540725 0.605262 0.118716
O O12 0.904618 0.717658 0.133477
O O13 0.032064 0.810336 0.135078
O O14 0.938278 0.013686 0.100674
O O15 0.967917 0.750000 0.000000
O O16 0.179319 0.161217 0.250000
O O17 0.629232 0.008556 0.250000
O O18 0.579732 0.008729 0.401893
O O19 0.088869 0.635786 0.250000
O O20 0.527790 0.250000 0.000000
#
# Coordination Sequence:
#
# PCOD9436135 Si02
#       8
#     8   8   8   8   8   8   8   8
#     4   7  14  29  53  77 101 138 187 227 265 325
#     4  11  21  36  59  89 118 147 184 235 285 328
#     4  12  24  40  60  85 115 152 191 230 277 338
#     4  11  21  34  53  82 114 146 187 241 290 333
#     4   9  17  33  55  80 109 148 190 229 275 339
#     4  10  19  37  61  83 108 149 195 231 272 338
#     4  10  19  35  55  77 107 149 193 233 279 342
#     4  12  25  42  61  87 118 149 186 236 286 329
#
# _framework density 23.984266000000002
#
# number of rings (size 3 to 8) (size 9 to 14) (size 15 to 20)
#    0.000    1.750    0.000    7.875    0.000    0.000 
#    0.000    1.875    0.000    1.500    0.000    0.000 
#    0.000    0.000    0.000    0.000    0.000    0.000 
#
# Total GULP energy -357721.974912 kJ/mol
# GULP energy per Si atom -5589.405858 kJ/mol
# Density = 2.392968 g / cm^3
# Si number density = 23.984266 Si / 1000 Ang^3
#
#
#
# Elastic Constant Matrix: (Units=GPa)
#
#
# Indices 1 2 3 4 5 6 
#
# 1 84.0774 -5.5946 -9.8998 0.0000 0.0000 0.0000
# 2 -5.5946 43.0217 -3.5261 0.0000 0.0000 0.0000
# 3 -9.8998 -3.5261 88.6943 0.0000 0.0000 0.0000
# 4 0.0000 0.0000 0.0000 13.4449 0.0000 0.0000
# 5 0.0000 0.0000 0.0000 0.0000 -7.9539 0.0000
# 6 0.0000 0.0000 0.0000 0.0000 0.0000 22.1636
#
#
#
# Elastic Compliance Matrix: (Units=1/GPa)
#
#
# Indices 1 2 3 4 5 6 
#
# 1 0.012175 0.001700 0.001427 0.000000 0.000000 0.000000
# 2 0.001700 0.023557 0.001126 0.000000 0.000000 0.000000
# 3 0.001427 0.001126 0.011479 0.000000 0.000000 0.000000
# 4 0.000000 0.000000 0.000000 0.074378 0.000000 0.000000
# 5 0.000000 0.000000 0.000000 0.000000 -0.125724 0.000000
# 6 0.000000 0.000000 0.000000 0.000000 0.000000 0.045119
#
#
# Mechanical properties :
#
#
# Convention : Reuss Voigt Hill
#
# Bulk Modulus (GPa) = 17.94785 19.75028 18.84907
# Shear Modulus (GPa) = 97.94336 21.18517 59.56426
#
# Velocity S-wave (km/s) = 6.39728 2.97525 4.98885
# Velocity P-wave (km/s) = 7.87822 4.47832 6.40787
#
# Compressibility (1/GPa) = 0.05571697
#
# Stress axis : x y z
#
# Youngs Moduli (GPa) = 82.13616 42.44940 87.11804
#
# Poissons Ratio (x) = -0.07217 -0.12428
# Poissons Ratio (y) = -0.13964 -0.09812
# Poissons Ratio (z) = -0.11717 -0.04781
#
# Static dielectric constant tensor:
#      x y z
#    x 1.963310 0.000000 0.000000 
#    y 0.000000 2.021610 0.000000 
#    z 0.000000 0.000000 1.882180 
# 
# From -- ./inp_files/19532.got.cif
#   From: 2010.05.17/outbox.cif.g08.bks.cpg/sg57_10_cif.got.tgz:19532.got - 2010.06.03 13:58:18.
