data_PCOD9436673
_publ_section_title
;
Structure prediction by ZEFSAII (Michael W. Deem and Ramdas Pophale) SiO2 
 PCOD9436673
Probable space group: P B C M
;
_chemical_formula_sum "Si O2"
_cell_formula_units_Z 64
_cell_length_a 23.184489
_cell_length_b 17.884088
_cell_length_c 8.854772
_cell_angle_alpha 90.000000
_cell_angle_beta 90.000000
_cell_angle_gamma 90.000000
_cell_volume 3671.484588
_symmetry_space_group_name_H-M "P B C M"
_symmetry_group_IT_number 57
_symmetry_cell_setting 'orthorhombic'
loop_
_space_group_symop_operation_xyz
x,y,z
-x,-y,1/2+z
x,1/2-y,-z
-x,1/2+y,1/2-z
-x,-y,-z
x,y,1/2-z
-x,1/2+y,z
x,1/2-y,1/2+z
loop_
_atom_site_type_symbol
_atom_site_label
_atom_site_fract_x
_atom_site_fract_y
_atom_site_fract_z
Si Si1 0.045078 0.171009 0.931363
Si Si2 0.915488 0.128525 0.928546
Si Si3 0.121469 0.040393 0.071077
Si Si4 0.442081 0.169418 0.431055
Si Si5 0.241285 0.991499 0.931611
Si Si6 0.795994 0.326263 0.570647
Si Si7 0.541173 0.064022 0.068416
Si Si8 0.637464 0.527615 0.068539
O O1 0.047828 0.171995 0.750000
O O2 0.978320 0.156342 0.975752
O O3 0.063332 0.250000 0.000000
O O4 0.084638 0.105350 0.995486
O O5 0.907604 0.144390 0.750000
O O6 0.910664 0.039192 0.949143
O O7 0.862243 0.163816 0.017651
O O8 0.127801 0.053292 0.250000
O O9 0.183918 0.030746 0.995013
O O10 0.429867 0.250000 0.500000
O O11 0.439192 0.174599 0.250000
O O12 0.506608 0.139734 0.470283
O O13 0.397247 0.103484 0.475999
O O14 0.242597 0.996440 0.750000
O O15 0.235508 0.903414 0.974357
O O16 0.298557 0.025812 0.003057
O O17 0.772482 0.250000 0.500000
O O18 0.794195 0.320611 0.750000
O O19 0.543621 0.057971 0.250000
O O20 0.500000 0.000000 0.000000
O O21 0.602605 0.043554 0.998067
O O22 0.637409 0.523818 0.250000
#
# Coordination Sequence:
#
# PCOD9436673 Si02
#       8
#     8   8   8   8   8   8   8   8
#     4  11  22  35  51  75 105 136 171 214 264 319
#     4   9  19  34  54  78 103 132 168 210 262 321
#     4  10  20  36  56  77 102 135 173 216 264 317
#     4   9  19  33  52  80 111 139 172 212 256 302
#     4  10  21  37  56  78 103 138 180 220 260 309
#     4  10  20  33  52  77 105 134 169 213 263 316
#     4   9  17  31  51  77 106 136 169 206 249 301
#     4  10  20  35  55  80 106 138 180 221 259 307
#
# _framework density 17.431639000000001
#
# number of rings (size 3 to 8) (size 9 to 14) (size 15 to 20)
#    0.000    2.250    0.000    3.750    0.000    7.000 
#    0.000    1.250    0.000    1.500    0.000    0.000 
#    0.000    0.000    0.000    0.000    0.000    0.000 
#
# Total GULP energy -357041.411860 kJ/mol
# GULP energy per Si atom -5578.772060 kJ/mol
# Density = 1.739196 g / cm^3
# Si number density = 17.431639 Si / 1000 Ang^3
#
#
#
# Elastic Constant Matrix: (Units=GPa)
#
#
# Indices 1 2 3 4 5 6 
#
# 1 69.6410 38.0184 24.7999 0.0000 0.0000 0.0000
# 2 38.0184 93.7287 37.0814 0.0000 0.0000 0.0000
# 3 24.7999 37.0814 51.9883 0.0000 0.0000 0.0000
# 4 0.0000 0.0000 0.0000 29.1555 0.0000 0.0000
# 5 0.0000 0.0000 0.0000 0.0000 30.9208 0.0000
# 6 0.0000 0.0000 0.0000 0.0000 0.0000 14.4343
#
#
#
# Elastic Compliance Matrix: (Units=1/GPa)
#
#
# Indices 1 2 3 4 5 6 
#
# 1 0.019354 -0.005848 -0.005061 0.000000 0.000000 0.000000
# 2 -0.005848 0.016630 -0.009072 0.000000 0.000000 0.000000
# 3 -0.005061 -0.009072 0.028120 0.000000 0.000000 0.000000
# 4 0.000000 0.000000 0.000000 0.034299 0.000000 0.000000
# 5 0.000000 0.000000 0.000000 0.000000 0.032341 0.000000
# 6 0.000000 0.000000 0.000000 0.000000 0.000000 0.069280
#
#
# Mechanical properties :
#
#
# Convention : Reuss Voigt Hill
#
# Bulk Modulus (GPa) = 41.42177 46.12860 43.77518
# Shear Modulus (GPa) = 20.15848 22.59935 21.37892
#
# Velocity S-wave (km/s) = 3.40432 3.60454 3.50586
# Velocity P-wave (km/s) = 6.26630 6.62145 6.44632
#
# Compressibility (1/GPa) = 0.02414189
#
# Stress axis : x y z
#
# Youngs Moduli (GPa) = 51.66790 60.13087 35.56144
#
# Poissons Ratio (x) = 0.35166 0.17999
# Poissons Ratio (y) = 0.30216 0.32262
# Poissons Ratio (z) = 0.26151 0.54552
#
# Static dielectric constant tensor:
#      x y z
#    x 1.629140 0.000000 0.000000 
#    y 0.000000 1.601010 0.000000 
#    z 0.000000 0.000000 1.584500 
# 
# From -- ./inp_files/8552.got.cif
#   From: 2010.05.17/outbox.cif.g08.bks.cpg/sg57_5_cif.got.tgz:8552.got - 2010.06.03 13:58:18.
