data_PCOD9436629
_publ_section_title
;
Structure prediction by ZEFSAII (Michael W. Deem and Ramdas Pophale) SiO2 
 PCOD9436629
Probable space group: P B C M
;
_chemical_formula_sum "Si O2"
_cell_formula_units_Z 64
_cell_length_a 29.619508
_cell_length_b 14.320919
_cell_length_c 8.582561
_cell_angle_alpha 90.000000
_cell_angle_beta 90.000000
_cell_angle_gamma 90.000000
_cell_volume 3640.538494
_symmetry_space_group_name_H-M "P B C M"
_symmetry_group_IT_number 57
_symmetry_cell_setting 'orthorhombic'
loop_
_space_group_symop_operation_xyz
x,y,z
-x,-y,1/2+z
x,1/2-y,-z
-x,1/2+y,1/2-z
-x,-y,-z
x,y,1/2-z
-x,1/2+y,z
x,1/2-y,1/2+z
loop_
_atom_site_type_symbol
_atom_site_label
_atom_site_fract_x
_atom_site_fract_y
_atom_site_fract_z
Si Si1 0.650003 0.352622 0.936670
Si Si2 0.754269 0.352261 0.563575
Si Si3 0.019105 0.356380 0.061788
Si Si4 0.921155 0.355873 0.438746
Si Si5 0.881707 0.645193 0.937017
Si Si6 0.569509 0.028370 0.936569
Si Si7 0.834317 0.473819 0.063530
Si Si8 0.481049 0.145552 0.563438
O O1 0.647586 0.350952 0.750000
O O2 0.702171 0.369694 0.983265
O O3 0.637261 0.250000 0.000000
O O4 0.615966 0.429364 0.001655
O O5 0.767108 0.250000 0.500000
O O6 0.756353 0.350431 0.750000
O O7 0.788932 0.427741 0.499356
O O8 0.019306 0.356450 0.250000
O O9 0.068336 0.391793 0.010752
O O10 0.970420 0.396004 0.010648
O O11 0.018262 0.250000 0.000000
O O12 0.917913 0.250000 0.500000
O O13 0.920762 0.354047 0.250000
O O14 0.877593 0.413005 0.491909
O O15 0.880444 0.646043 0.750000
O O16 0.877149 0.750000 0.000000
O O17 0.843905 0.577328 0.003255
O O18 0.570081 0.024470 0.750000
O O19 0.529003 0.099137 0.984930
O O20 0.556411 0.926921 0.001980
O O21 0.833724 0.472607 0.250000
O O22 0.476576 0.250000 0.500000
O O23 0.479663 0.147719 0.750000
#
# Coordination Sequence:
#
# PCOD9436629 Si02
#       8
#     8   8   8   8   8   8   8   8
#     4  10  20  34  54  79 107 139 175 216 260 307
#     4  10  21  37  56  79 107 137 169 208 256 308
#     4   8  15  29  47  67  93 125 159 196 239 287
#     4   9  18  31  47  70 100 131 162 196 238 291
#     4  10  20  35  54  73  95 125 163 206 250 297
#     4  10  20  33  52  78 108 144 185 226 266 311
#     4  11  22  34  51  75 102 132 166 205 250 302
#     4  10  20  33  50  75 110 149 187 226 267 311
#
# _framework density 17.579818
#
# number of rings (size 3 to 8) (size 9 to 14) (size 15 to 20)
#    0.000    2.250    0.000    3.000    0.000    7.000 
#    0.000    0.000    0.000    0.750    0.000    0.000 
#    0.000    0.000    0.000    0.000    0.000    0.000 
#
# Total GULP energy -357134.354345 kJ/mol
# GULP energy per Si atom -5580.224287 kJ/mol
# Density = 1.753981 g / cm^3
# Si number density = 17.579818 Si / 1000 Ang^3
#
#
#
# Elastic Constant Matrix: (Units=GPa)
#
#
# Indices 1 2 3 4 5 6 
#
# 1 90.6701 68.0100 28.9260 0.0000 0.0000 0.0000
# 2 68.0100 122.9314 29.0325 0.0000 0.0000 0.0000
# 3 28.9260 29.0325 35.4794 0.0000 0.0000 0.0000
# 4 0.0000 0.0000 0.0000 27.8654 0.0000 0.0000
# 5 0.0000 0.0000 0.0000 0.0000 19.0409 0.0000
# 6 0.0000 0.0000 0.0000 0.0000 0.0000 31.1851
#
#
#
# Elastic Compliance Matrix: (Units=1/GPa)
#
#
# Indices 1 2 3 4 5 6 
#
# 1 0.021158 -0.009460 -0.009509 0.000000 0.000000 0.000000
# 2 -0.009460 0.014313 -0.004000 0.000000 0.000000 0.000000
# 3 -0.009509 -0.004000 0.039211 0.000000 0.000000 0.000000
# 4 0.000000 0.000000 0.000000 0.035887 0.000000 0.000000
# 5 0.000000 0.000000 0.000000 0.000000 0.052519 0.000000
# 6 0.000000 0.000000 0.000000 0.000000 0.000000 0.032067
#
#
# Mechanical properties :
#
#
# Convention : Reuss Voigt Hill
#
# Bulk Modulus (GPa) = 34.78888 55.66866 45.22877
# Shear Modulus (GPa) = 19.94636 23.82578 21.88607
#
# Velocity S-wave (km/s) = 3.37206 3.68542 3.53222
# Velocity P-wave (km/s) = 5.91550 7.06008 6.51298
#
# Compressibility (1/GPa) = 0.02874482
#
# Stress axis : x y z
#
# Youngs Moduli (GPa) = 47.26296 69.86851 25.50304
#
# Poissons Ratio (x) = 0.66093 0.24252
# Poissons Ratio (y) = 0.44709 0.10200
# Poissons Ratio (z) = 0.44944 0.27944
#
# Static dielectric constant tensor:
#      x y z
#    x 1.612490 0.000000 0.000000 
#    y 0.000000 1.617020 0.000000 
#    z 0.000000 0.000000 1.589210 
# 
# From -- ./inp_files/10291.got.cif
#   From: 2010.05.17/outbox.cif.g08.bks.cpg/sg57_6_cif.got.tgz:10291.got - 2010.06.03 13:58:18.
