data_PCOD9436678
_publ_section_title
;
Structure prediction by ZEFSAII (Michael W. Deem and Ramdas Pophale) SiO2 
 PCOD9436678
Probable space group: P B C M
;
_chemical_formula_sum "Si O2"
_cell_formula_units_Z 64
_cell_length_a 12.954490
_cell_length_b 29.994987
_cell_length_c 8.746938
_cell_angle_alpha 90.000000
_cell_angle_beta 90.000000
_cell_angle_gamma 90.000000
_cell_volume 3398.795592
_symmetry_space_group_name_H-M "P B C M"
_symmetry_group_IT_number 57
_symmetry_cell_setting 'orthorhombic'
loop_
_space_group_symop_operation_xyz
x,y,z
-x,-y,1/2+z
x,1/2-y,-z
-x,1/2+y,1/2-z
-x,-y,-z
x,y,1/2-z
-x,1/2+y,z
x,1/2-y,1/2+z
loop_
_atom_site_type_symbol
_atom_site_label
_atom_site_fract_x
_atom_site_fract_y
_atom_site_fract_z
Si Si1 0.121282 0.296658 0.433927
Si Si2 0.952123 0.607512 0.935018
Si Si3 0.211085 0.039097 0.432317
Si Si4 0.371896 0.890716 0.435161
Si Si5 0.837356 0.439631 0.436239
Si Si6 0.645114 0.819101 0.429035
Si Si7 0.407851 0.076701 0.571496
Si Si8 0.569218 0.296296 0.930112
O O1 0.083321 0.250000 0.500000
O O2 0.117971 0.294850 0.250000
O O3 0.061350 0.341165 0.483769
O O4 0.241685 0.303623 0.477357
O O5 0.949174 0.606912 0.750000
O O6 0.059026 0.585201 0.986906
O O7 0.857664 0.577833 0.994134
O O8 0.202526 0.041633 0.250000
O O9 0.330085 0.045707 0.479525
O O10 0.169355 0.991012 0.484990
O O11 0.375922 0.888633 0.250000
O O12 0.266324 0.914019 0.483480
O O13 0.473983 0.918475 0.482942
O O14 0.381706 0.840612 0.496983
O O15 0.837994 0.439557 0.250000
O O16 0.628339 0.807155 0.250000
O O17 0.636428 0.872734 0.437841
O O18 0.552388 0.799937 0.528543
O O19 0.407330 0.063710 0.750000
O O20 0.583491 0.296525 0.750000
O O21 0.608683 0.250000 0.000000
#
# Coordination Sequence:
#
# PCOD9436678 Si02
#       8
#     8   8   8   8   8   8   8   8
#     4  10  20  33  52  78 107 141 178 216 267 326
#     4  10  20  39  60  78 108 149 186 221 273 334
#     4  11  21  33  55  88 115 139 181 232 277 324
#     4   9  19  38  58  77 107 146 187 230 276 328
#     4   9  20  38  60  81 105 144 190 232 276 327
#     4   9  17  32  51  76 109 144 179 218 267 325
#     4   9  17  32  54  79 111 147 176 213 272 334
#     4  11  21  33  52  80 109 143 184 227 275 326
#
# _framework density 18.830200000000001
#
# number of rings (size 3 to 8) (size 9 to 14) (size 15 to 20)
#    0.000    2.250    1.250    3.000    0.000    4.500 
#    0.000    3.125    0.000    1.500    0.000    0.000 
#    0.000    0.000    0.000    0.000    0.000    0.000 
#
# Total GULP energy -357257.976216 kJ/mol
# GULP energy per Si atom -5582.155878 kJ/mol
# Density = 1.878734 g / cm^3
# Si number density = 18.830200 Si / 1000 Ang^3
#
#
#
# Elastic Constant Matrix: (Units=GPa)
#
#
# Indices 1 2 3 4 5 6 
#
# 1 83.7178 37.8159 15.8164 0.0000 0.0000 0.0000
# 2 37.8159 98.5085 19.2823 0.0000 0.0000 0.0000
# 3 15.8164 19.2823 20.4891 0.0000 0.0000 0.0000
# 4 0.0000 0.0000 0.0000 21.4204 0.0000 0.0000
# 5 0.0000 0.0000 0.0000 0.0000 14.5023 0.0000
# 6 0.0000 0.0000 0.0000 0.0000 0.0000 -11.7542
#
#
#
# Elastic Compliance Matrix: (Units=1/GPa)
#
#
# Indices 1 2 3 4 5 6 
#
# 1 0.015393 -0.004392 -0.007749 0.000000 0.000000 0.000000
# 2 -0.004392 0.013697 -0.009500 0.000000 0.000000 0.000000
# 3 -0.007749 -0.009500 0.063728 0.000000 0.000000 0.000000
# 4 0.000000 0.000000 0.000000 0.046685 0.000000 0.000000
# 5 0.000000 0.000000 0.000000 0.000000 0.068955 0.000000
# 6 0.000000 0.000000 0.000000 0.000000 0.000000 -0.085076
#
#
# Mechanical properties :
#
#
# Convention : Reuss Voigt Hill
#
# Bulk Modulus (GPa) = 20.18714 38.72720 29.45717
# Shear Modulus (GPa) = 27.29623 13.48707 20.39165
#
# Velocity S-wave (km/s) = 3.81149 2.67918 3.29435
# Velocity P-wave (km/s) = 5.48761 5.49380 5.49071
#
# Compressibility (1/GPa) = 0.04953649
#
# Stress axis : x y z
#
# Youngs Moduli (GPa) = 64.96510 73.00845 15.69164
#
# Poissons Ratio (x) = 0.32068 0.12159
# Poissons Ratio (y) = 0.28535 0.14907
# Poissons Ratio (z) = 0.50340 0.69356
#
# Static dielectric constant tensor:
#      x y z
#    x 1.645260 0.000000 0.000000 
#    y 0.000000 1.656930 0.000000 
#    z 0.000000 0.000000 1.637000 
# 
# From -- ./inp_files/3721.got.cif
#   From: 2010.05.17/outbox.cif.g08.bks.cpg/sg57_2_cif.got.tgz:3721.got - 2010.06.03 13:58:18.
