data_PCOD9436681
_publ_section_title
;
Structure prediction by ZEFSAII (Michael W. Deem and Ramdas Pophale) SiO2 
 PCOD9436681
Probable space group: P B C M
;
_chemical_formula_sum "Si O2"
_cell_formula_units_Z 64
_cell_length_a 8.501809
_cell_length_b 14.247921
_cell_length_c 18.521902
_cell_angle_alpha 90.000000
_cell_angle_beta 90.000000
_cell_angle_gamma 90.000000
_cell_volume 2243.615463
_symmetry_space_group_name_H-M "P B C M"
_symmetry_group_IT_number 57
_symmetry_cell_setting 'orthorhombic'
loop_
_space_group_symop_operation_xyz
x,y,z
-x,-y,1/2+z
x,1/2-y,-z
-x,1/2+y,1/2-z
-x,-y,-z
x,y,1/2-z
-x,1/2+y,z
x,1/2-y,1/2+z
loop_
_atom_site_type_symbol
_atom_site_label
_atom_site_fract_x
_atom_site_fract_y
_atom_site_fract_z
Si Si1 0.534194 0.039822 0.335329
Si Si2 0.904422 0.137780 0.016640
Si Si3 0.162893 0.703932 0.329559
Si Si4 0.794362 0.725433 0.329678
Si Si5 0.857913 0.573137 0.836066
Si Si6 0.426927 0.860787 0.519435
Si Si7 0.756126 0.640491 0.477818
Si Si8 0.774715 0.083135 0.663293
O O1 0.510617 0.060642 0.250000
O O2 0.706071 0.992724 0.342709
O O3 0.553918 0.124770 0.393449
O O4 0.386381 0.972283 0.355708
O O5 0.864974 0.138760 0.101271
O O6 0.737852 0.101005 0.987356
O O7 0.076263 0.097797 0.000557
O O8 0.915802 0.250000 0.000000
O O9 0.216891 0.670582 0.250000
O O10 0.980177 0.727277 0.319147
O O11 0.243027 0.803800 0.347461
O O12 0.721386 0.713635 0.250000
O O13 0.760569 0.648530 0.390105
O O14 0.777200 0.829215 0.361175
O O15 0.878748 0.582708 0.750000
O O16 0.042195 0.558776 0.861573
O O17 0.425557 0.750000 0.500000
O O18 0.593729 0.902084 0.494089
O O19 0.756473 0.750000 0.500000
O O20 0.783202 0.069669 0.750000
#
# Coordination Sequence:
#
# PCOD9436681 Si02
#       8
#     8   8   8   8   8   8   8   8
#     4  10  20  33  52  79 103 128 168 204 240 302
#     4   9  18  33  52  71  97 136 174 207 245 289
#     4   8  14  27  50  79 105 129 163 205 250 302
#     4   8  14  27  50  79 105 129 163 205 250 302
#     4   8  15  29  49  75 106 131 154 200 260 305
#     4  10  22  37  50  68 100 138 172 207 246 291
#     4   9  18  33  52  71  97 136 174 207 245 289
#     4   8  15  29  49  75 106 131 154 200 260 305
#
# _framework density 28.525386999999998
#
# number of rings (size 3 to 8) (size 9 to 14) (size 15 to 20)
#    0.000    3.250    0.000    1.500    0.000    3.000 
#    0.000    1.250    0.000   12.000    0.000   22.750 
#    0.000    0.000    0.000    0.000    0.000    0.500 
#
# Total GULP energy -356936.200816 kJ/mol
# GULP energy per Si atom -5577.128138 kJ/mol
# Density = 2.846046 g / cm^3
# Si number density = 28.525387 Si / 1000 Ang^3
#
#
#
# Elastic Constant Matrix: (Units=GPa)
#
#
# Indices 1 2 3 4 5 6 
#
# 1 286.0547 78.0354 33.6693 0.0000 0.0000 0.0000
# 2 78.0354 55.7624 -1.9880 0.0000 0.0000 0.0000
# 3 33.6693 -1.9880 134.1773 0.0000 0.0000 0.0000
# 4 0.0000 0.0000 0.0000 34.7380 0.0000 0.0000
# 5 0.0000 0.0000 0.0000 0.0000 32.9340 0.0000
# 6 0.0000 0.0000 0.0000 0.0000 0.0000 57.5630
#
#
#
# Elastic Compliance Matrix: (Units=1/GPa)
#
#
# Indices 1 2 3 4 5 6 
#
# 1 0.005990 -0.008441 -0.001628 0.000000 0.000000 0.000000
# 2 -0.008441 0.029837 0.002560 0.000000 0.000000 0.000000
# 3 -0.001628 0.002560 0.007899 0.000000 0.000000 0.000000
# 4 0.000000 0.000000 0.000000 0.028787 0.000000 0.000000
# 5 0.000000 0.000000 0.000000 0.000000 0.030364 0.000000
# 6 0.000000 0.000000 0.000000 0.000000 0.000000 0.017372
#
#
# Mechanical properties :
#
#
# Convention : Reuss Voigt Hill
#
# Bulk Modulus (GPa) = 34.83286 77.26976 56.05131
# Shear Modulus (GPa) = 34.52174 49.46550 41.99362
#
# Velocity S-wave (km/s) = 3.48258 4.16875 3.84102
# Velocity P-wave (km/s) = 5.33000 7.09353 6.27404
#
# Compressibility (1/GPa) = 0.02870852
#
# Stress axis : x y z
#
# Youngs Moduli (GPa) = 166.94212 33.51574 126.59329
#
# Poissons Ratio (x) = 0.28290 0.20611
# Poissons Ratio (y) = 1.40912 -0.32409
# Poissons Ratio (z) = 0.27181 -0.08580
#
# Static dielectric constant tensor:
#      x y z
#    x 2.261140 0.000000 0.000000 
#    y 0.000000 2.328920 0.000000 
#    z 0.000000 0.000000 2.383780 
# 
# From -- ./inp_files/24583.got.cif
#   From: 2010.05.17/outbox.cif.g08.bks.cpg/sg57_13_cif.got.tgz:24583.got - 2010.06.03 13:58:18.
