data_PCOD9436811
_publ_section_title
;
Structure prediction by ZEFSAII (Michael W. Deem and Ramdas Pophale) SiO2 
 PCOD9436811
Probable space group: P B C M
;
_chemical_formula_sum "Si O2"
_cell_formula_units_Z 56
_cell_length_a 20.331819
_cell_length_b 16.056104
_cell_length_c 8.835504
_cell_angle_alpha 90.000000
_cell_angle_beta 90.000000
_cell_angle_gamma 90.000000
_cell_volume 2884.348517
_symmetry_space_group_name_H-M "P B C M"
_symmetry_group_IT_number 57
_symmetry_cell_setting 'orthorhombic'
loop_
_space_group_symop_operation_xyz
x,y,z
-x,-y,1/2+z
x,1/2-y,-z
-x,1/2+y,1/2-z
-x,-y,-z
x,y,1/2-z
-x,1/2+y,z
x,1/2-y,1/2+z
loop_
_atom_site_type_symbol
_atom_site_label
_atom_site_fract_x
_atom_site_fract_y
_atom_site_fract_z
Si Si1 0.927358 0.509553 0.566476
Si Si2 0.600245 0.331055 0.422049
Si Si3 0.173348 0.342344 0.432606
Si Si4 0.252144 0.869768 0.415674
Si Si5 0.296484 0.062387 0.427685
Si Si6 0.572309 0.998673 0.072627
Si Si7 0.871621 0.333380 0.924470
O O1 0.930017 0.511209 0.750000
O O2 0.883478 0.590190 0.521803
O O3 0.893531 0.423264 0.515577
O O4 0.000000 0.500000 0.500000
O O5 0.570726 0.250000 0.500000
O O6 0.575503 0.347319 0.250000
O O7 0.678623 0.323923 0.407821
O O8 0.592985 0.407232 0.535760
O O9 0.162182 0.250000 0.500000
O O10 0.174134 0.338146 0.250000
O O11 0.243535 0.378641 0.490403
O O12 0.218943 0.859537 0.250000
O O13 0.206265 0.836494 0.546970
O O14 0.268373 0.967700 0.437247
O O15 0.300774 0.083582 0.250000
O O16 0.370202 0.057769 0.497274
O O17 0.569315 0.981171 0.250000
O O18 0.500000 0.000000 0.000000
O O19 0.888300 0.330015 0.750000
O O20 0.898843 0.250000 0.000000
#
# Coordination Sequence:
#
# PCOD9436811 Si02
#       7
#     8   8   8   8   8   8   8
#     4  10  24  43  63  87 121 162 207 258 317 381
#     4  10  20  34  52  81 115 150 194 238 290 354
#     4  11  23  42  66  96 127 165 216 270 325 386
#     4   9  18  32  54  83 115 150 187 230 284 345
#     4  10  20  37  62  91 121 159 205 255 310 370
#     4  11  22  38  60  86 120 163 205 254 310 373
#     4  11  22  36  55  84 118 153 193 239 293 358
#
# _framework density 19.415127999999999
#
# number of rings (size 3 to 8) (size 9 to 14) (size 15 to 20)
#    0.000    1.714    1.429    4.286    0.000    6.857 
#    0.000    3.571    0.000    0.000    0.000    0.000 
#    0.000    0.000    0.000    0.000    0.000    0.000 
#
# Total GULP energy -312147.376573 kJ/mol
# GULP energy per Si atom -5574.060296 kJ/mol
# Density = 1.937094 g / cm^3
# Si number density = 19.415128 Si / 1000 Ang^3
#
#
#
# Elastic Constant Matrix: (Units=GPa)
#
#
# Indices 1 2 3 4 5 6 
#
# 1 115.8334 48.0036 39.5143 0.0000 0.0000 0.0000
# 2 48.0036 120.2548 47.3811 0.0000 0.0000 0.0000
# 3 39.5143 47.3811 84.4199 0.0000 0.0000 0.0000
# 4 0.0000 0.0000 0.0000 30.8877 0.0000 0.0000
# 5 0.0000 0.0000 0.0000 0.0000 32.2784 0.0000
# 6 0.0000 0.0000 0.0000 0.0000 0.0000 4.2324
#
#
#
# Elastic Compliance Matrix: (Units=1/GPa)
#
#
# Indices 1 2 3 4 5 6 
#
# 1 0.011084 -0.003056 -0.003473 0.000000 0.000000 0.000000
# 2 -0.003056 0.011519 -0.005035 0.000000 0.000000 0.000000
# 3 -0.003473 -0.005035 0.016297 0.000000 0.000000 0.000000
# 4 0.000000 0.000000 0.000000 0.032375 0.000000 0.000000
# 5 0.000000 0.000000 0.000000 0.000000 0.030980 0.000000
# 6 0.000000 0.000000 0.000000 0.000000 0.000000 0.236274
#
#
# Mechanical properties :
#
#
# Convention : Reuss Voigt Hill
#
# Bulk Modulus (GPa) = 63.40047 65.58955 64.49501
# Shear Modulus (GPa) = 13.62708 25.85363 19.74036
#
# Velocity S-wave (km/s) = 2.65218 3.65310 3.19211
# Velocity P-wave (km/s) = 6.48882 7.18676 6.84669
#
# Compressibility (1/GPa) = 0.01577275
#
# Stress axis : x y z
#
# Youngs Moduli (GPa) = 90.21686 86.80974 61.36146
#
# Poissons Ratio (x) = 0.26532 0.21310
# Poissons Ratio (y) = 0.27574 0.30894
# Poissons Ratio (z) = 0.31331 0.43707
#
# Static dielectric constant tensor:
#      x y z
#    x 1.733140 0.000000 0.000000 
#    y 0.000000 1.776250 0.000000 
#    z 0.000000 0.000000 1.703060 
# 
# From -- ./inp_files/7988.got.cif
#   From: 2010.05.17/outbox.cif.g08.bks.cpg/sg57_4_cif.got.tgz:7988.got - 2010.06.03 13:58:18.
