data_PCOD9436177
_publ_section_title
;
Structure prediction by ZEFSAII (Michael W. Deem and Ramdas Pophale) SiO2 
 PCOD9436177
Probable space group: P B C M
;
_chemical_formula_sum "Si O2"
_cell_formula_units_Z 64
_cell_length_a 20.815647
_cell_length_b 19.910019
_cell_length_c 8.751793
_cell_angle_alpha 90.000000
_cell_angle_beta 90.000000
_cell_angle_gamma 90.000000
_cell_volume 3627.092454
_symmetry_space_group_name_H-M "P B C M"
_symmetry_group_IT_number 57
_symmetry_cell_setting 'orthorhombic'
loop_
_space_group_symop_operation_xyz
x,y,z
-x,-y,1/2+z
x,1/2-y,-z
-x,1/2+y,1/2-z
-x,-y,-z
x,y,1/2-z
-x,1/2+y,z
x,1/2-y,1/2+z
loop_
_atom_site_type_symbol
_atom_site_label
_atom_site_fract_x
_atom_site_fract_y
_atom_site_fract_z
Si Si1 0.808464 0.463935 0.934048
Si Si2 0.437117 0.534976 0.433207
Si Si3 0.613365 0.178250 0.065845
Si Si4 0.236855 0.679312 0.432993
Si Si5 0.314049 0.460563 0.567028
Si Si6 0.257150 0.321269 0.566587
Si Si7 0.107282 0.177391 0.433581
Si Si8 0.059752 0.040621 0.933028
O O1 0.798566 0.468760 0.750000
O O2 0.804669 0.385396 0.976258
O O3 0.875129 0.499772 0.971476
O O4 0.749831 0.500053 0.017659
O O5 0.500000 0.500000 0.500000
O O6 0.440148 0.534537 0.250000
O O7 0.426556 0.612713 0.482573
O O8 0.374890 0.493985 0.487779
O O9 0.611797 0.181637 0.250000
O O10 0.688413 0.168320 0.019683
O O11 0.592078 0.250000 0.000000
O O12 0.214899 0.750000 0.500000
O O13 0.236719 0.684247 0.250000
O O14 0.321682 0.463197 0.750000
O O15 0.301138 0.383531 0.519609
O O16 0.277497 0.250000 0.500000
O O17 0.257708 0.317807 0.750000
O O18 0.182526 0.333215 0.520822
O O19 0.088170 0.250000 0.500000
O O20 0.103758 0.178559 0.250000
O O21 0.067279 0.115135 0.498426
O O22 0.054842 0.044676 0.750000
O O23 0.000000 0.000000 0.000000
#
# Coordination Sequence:
#
# PCOD9436177 Si02
#       8
#     8   8   8   8   8   8   8   8
#     4  10  20  36  57  81 111 147 187 231 283 336
#     4  11  23  40  58  83 115 151 189 232 279 334
#     4   9  18  33  55  80 110 141 180 227 272 326
#     4   9  17  32  52  80 111 140 178 226 277 329
#     4  11  21  35  57  86 114 144 184 232 281 334
#     4   9  19  33  53  83 115 145 183 233 283 334
#     4  10  19  35  57  84 115 147 189 238 285 344
#     4  11  23  38  58  83 115 156 195 239 291 344
#
# _framework density 17.644987
#
# number of rings (size 3 to 8) (size 9 to 14) (size 15 to 20)
#    0.000    2.000    2.500    1.500    0.000    3.500 
#    0.000    1.250    0.000    1.500    0.000    0.000 
#    0.000    0.000    0.000    0.000    0.000    0.000 
#
# Total GULP energy -357195.752448 kJ/mol
# GULP energy per Si atom -5581.183632 kJ/mol
# Density = 1.760483 g / cm^3
# Si number density = 17.644987 Si / 1000 Ang^3
#
#
#
# Elastic Constant Matrix: (Units=GPa)
#
#
# Indices 1 2 3 4 5 6 
#
# 1 92.0042 74.1084 39.3802 0.0000 0.0000 0.0000
# 2 74.1084 194.1545 49.5589 0.0000 0.0000 0.0000
# 3 39.3802 49.5589 36.3539 0.0000 0.0000 0.0000
# 4 0.0000 0.0000 0.0000 33.8911 0.0000 0.0000
# 5 0.0000 0.0000 0.0000 0.0000 24.4423 0.0000
# 6 0.0000 0.0000 0.0000 0.0000 0.0000 27.5196
#
#
#
# Elastic Compliance Matrix: (Units=1/GPa)
#
#
# Indices 1 2 3 4 5 6 
#
# 1 0.021715 -0.003503 -0.018747 0.000000 0.000000 0.000000
# 2 -0.003503 0.008464 -0.007744 0.000000 0.000000 0.000000
# 3 -0.018747 -0.007744 0.058372 0.000000 0.000000 0.000000
# 4 0.000000 0.000000 0.000000 0.029506 0.000000 0.000000
# 5 0.000000 0.000000 0.000000 0.000000 0.040913 0.000000
# 6 0.000000 0.000000 0.000000 0.000000 0.000000 0.036338
#
#
# Mechanical properties :
#
#
# Convention : Reuss Voigt Hill
#
# Bulk Modulus (GPa) = 35.01056 72.06750 53.53903
# Shear Modulus (GPa) = 18.88087 27.80161 23.34124
#
# Velocity S-wave (km/s) = 3.27470 3.97370 3.64101
# Velocity P-wave (km/s) = 5.84662 7.87308 6.93428
#
# Compressibility (1/GPa) = 0.02856281
#
# Stress axis : x y z
#
# Youngs Moduli (GPa) = 46.05061 118.14077 17.13150
#
# Poissons Ratio (x) = 0.41389 0.32116
# Poissons Ratio (y) = 0.16133 0.13267
# Poissons Ratio (z) = 0.86331 0.91489
#
# Static dielectric constant tensor:
#      x y z
#    x 1.574550 0.000000 0.000000 
#    y 0.000000 1.607160 0.000000 
#    z 0.000000 0.000000 1.591990 
# 
# From -- ./inp_files/8602.got.cif
#   From: 2010.05.17/outbox.cif.g08.bks.cpg/sg57_5_cif.got.tgz:8602.got - 2010.06.03 13:58:18.
