data_PCOD9436138
_publ_section_title
;
Structure prediction by ZEFSAII (Michael W. Deem and Ramdas Pophale) SiO2 
 PCOD9436138
Probable space group: P B C M
;
_chemical_formula_sum "Si O2"
_cell_formula_units_Z 64
_cell_length_a 9.456923
_cell_length_b 28.135630
_cell_length_c 11.803494
_cell_angle_alpha 90.000000
_cell_angle_beta 90.000000
_cell_angle_gamma 90.000000
_cell_volume 3140.632212
_symmetry_space_group_name_H-M "P B C M"
_symmetry_group_IT_number 57
_symmetry_cell_setting 'orthorhombic'
loop_
_space_group_symop_operation_xyz
x,y,z
-x,-y,1/2+z
x,1/2-y,-z
-x,1/2+y,1/2-z
-x,-y,-z
x,y,1/2-z
-x,1/2+y,z
x,1/2-y,1/2+z
loop_
_atom_site_type_symbol
_atom_site_label
_atom_site_fract_x
_atom_site_fract_y
_atom_site_fract_z
Si Si1 0.305443 0.134072 0.441652
Si Si2 0.865726 0.198289 0.037153
Si Si3 0.941675 0.633139 0.618388
Si Si4 0.625806 0.374107 0.613780
Si Si5 0.961539 0.475034 0.378338
Si Si6 0.638823 0.019665 0.375543
Si Si7 0.158209 0.226582 0.373372
Si Si8 0.308238 0.029495 0.410437
O O1 0.208446 0.135984 0.553884
O O2 0.475745 0.133729 0.448855
O O3 0.256754 0.180289 0.374783
O O4 0.267971 0.083418 0.384045
O O5 0.742598 0.164881 0.084270
O O6 0.994994 0.209769 0.121919
O O7 0.809934 0.250000 0.000000
O O8 0.948335 0.170183 0.937364
O O9 0.925130 0.642708 0.750000
O O10 0.004417 0.580176 0.605415
O O11 0.598801 0.374597 0.750000
O O12 0.679304 0.427360 0.583633
O O13 0.017404 0.488203 0.250000
O O14 0.798138 0.490087 0.368660
O O15 0.000000 0.500000 0.500000
O O16 0.689662 0.013491 0.250000
O O17 0.468586 0.020198 0.375335
O O18 0.690165 0.977565 0.454151
O O19 0.180834 0.250000 0.500000
O O20 0.181511 0.251227 0.250000
#
# Coordination Sequence:
#
# PCOD9436138 Si02
#       8
#     8   8   8   8   8   8   8   8
#     4  10  21  37  60  88 121 159 203 255 309 369
#     4  10  22  39  63  89 117 158 206 257 314 381
#     4  10  22  41  61  88 129 169 207 258 318 376
#     4  10  20  37  59  86 119 154 200 261 314 369
#     4  11  22  37  58  87 122 161 203 251 300 358
#     4   9  19  33  54  81 116 158 196 241 300 363
#     4  10  22  40  63  90 119 158 203 251 312 378
#     4  10  19  35  55  83 118 156 201 246 297 360
#
# _framework density 20.378063000000001
#
# number of rings (size 3 to 8) (size 9 to 14) (size 15 to 20)
#    0.000    2.000    1.250    1.875    0.000    8.000 
#    0.000    1.250    0.000    0.000    0.000    0.000 
#    0.000    0.000    0.000    0.000    0.000    0.000 
#
# Total GULP energy -356612.975234 kJ/mol
# GULP energy per Si atom -5572.077738 kJ/mol
# Density = 2.033168 g / cm^3
# Si number density = 20.378063 Si / 1000 Ang^3
#
#
#
# Elastic Constant Matrix: (Units=GPa)
#
#
# Indices 1 2 3 4 5 6 
#
# 1 66.5296 36.3346 27.3645 0.0000 0.0000 0.0000
# 2 36.3346 104.0046 62.3386 0.0000 0.0000 0.0000
# 3 27.3645 62.3386 149.6311 0.0000 0.0000 0.0000
# 4 0.0000 0.0000 0.0000 15.7020 0.0000 0.0000
# 5 0.0000 0.0000 0.0000 0.0000 -49.5113 0.0000
# 6 0.0000 0.0000 0.0000 0.0000 0.0000 39.0550
#
#
#
# Elastic Compliance Matrix: (Units=1/GPa)
#
#
# Indices 1 2 3 4 5 6 
#
# 1 0.018671 -0.005966 -0.000929 0.000000 0.000000 0.000000
# 2 -0.005966 0.014721 -0.005042 0.000000 0.000000 0.000000
# 3 -0.000929 -0.005042 0.008954 0.000000 0.000000 0.000000
# 4 0.000000 0.000000 0.000000 0.063686 0.000000 0.000000
# 5 0.000000 0.000000 0.000000 0.000000 -0.020197 0.000000
# 6 0.000000 0.000000 0.000000 0.000000 0.000000 0.025605
#
#
# Mechanical properties :
#
#
# Convention : Reuss Voigt Hill
#
# Bulk Modulus (GPa) = 54.13619 63.58229 58.85924
# Shear Modulus (GPa) = 35.34278 13.99100 24.66689
#
# Velocity S-wave (km/s) = 4.16908 2.62309 3.48295
# Velocity P-wave (km/s) = 7.05681 6.35950 6.71721
#
# Compressibility (1/GPa) = 0.01847193
#
# Stress axis : x y z
#
# Youngs Moduli (GPa) = 53.55790 67.92841 111.68680
#
# Poissons Ratio (x) = 0.40527 0.10376
# Poissons Ratio (y) = 0.31953 0.56313
# Poissons Ratio (z) = 0.04976 0.34250
#
# Static dielectric constant tensor:
#      x y z
#    x 1.721480 0.000000 0.000000 
#    y 0.000000 1.742260 0.000000 
#    z 0.000000 0.000000 1.785080 
# 
# From -- ./inp_files/12295.got.cif
#   From: 2010.05.17/outbox.cif.g08.bks.cpg/sg57_7_cif.got.tgz:12295.got - 2010.06.03 13:58:18.
