data_PCOD9436647
_publ_section_title
;
Structure prediction by ZEFSAII (Michael W. Deem and Ramdas Pophale) SiO2 
 PCOD9436647
Probable space group: P B C M
;
_chemical_formula_sum "Si O2"
_cell_formula_units_Z 56
_cell_length_a 20.543847
_cell_length_b 15.119010
_cell_length_c 8.657907
_cell_angle_alpha 90.000000
_cell_angle_beta 90.000000
_cell_angle_gamma 90.000000
_cell_volume 2689.168669
_symmetry_space_group_name_H-M "P B C M"
_symmetry_group_IT_number 57
_symmetry_cell_setting 'orthorhombic'
loop_
_space_group_symop_operation_xyz
x,y,z
-x,-y,1/2+z
x,1/2-y,-z
-x,1/2+y,1/2-z
-x,-y,-z
x,y,1/2-z
-x,1/2+y,z
x,1/2-y,1/2+z
loop_
_atom_site_type_symbol
_atom_site_label
_atom_site_fract_x
_atom_site_fract_y
_atom_site_fract_z
Si Si1 0.726595 0.031112 0.934209
Si Si2 0.869241 0.440764 0.073614
Si Si3 0.529768 0.850521 0.435039
Si Si4 0.886892 0.615645 0.923904
Si Si5 0.742227 0.661626 0.924750
Si Si6 0.020675 0.665054 0.069598
Si Si7 0.410105 0.961885 0.934166
O O1 0.721053 0.038110 0.750000
O O2 0.795209 0.077355 0.978979
O O3 0.730769 0.927967 0.982180
O O4 0.662312 0.065139 0.017113
O O5 0.878928 0.411304 0.250000
O O6 0.874239 0.546117 0.059597
O O7 0.928241 0.411056 0.966535
O O8 0.539531 0.750000 0.500000
O O9 0.532046 0.843143 0.250000
O O10 0.577277 0.934042 0.480528
O O11 0.461220 0.894532 0.488167
O O12 0.892374 0.576831 0.750000
O O13 0.820874 0.671453 0.916199
O O14 0.955479 0.657250 0.968241
O O15 0.717709 0.649980 0.750000
O O16 0.714358 0.750000 0.000000
O O17 0.005963 0.671255 0.250000
O O18 0.056475 0.750000 0.000000
O O19 0.418783 0.957791 0.750000
#
# Coordination Sequence:
#
# PCOD9436647 Si02
#       7
#     8   8   8   8   8   8   8
#     4  10  21  37  58  81 110 148 188 229 274 329
#     4  10  21  38  57  78 105 139 179 222 270 325
#     4  10  21  38  62  92 124 158 195 236 282 331
#     4  10  20  35  55  78 104 137 177 223 276 335
#     4  10  20  33  51  76 108 144 184 230 282 338
#     4  12  24  37  54  76 103 135 174 225 280 332
#     4  10  21  38  61  89 123 159 195 237 283 335
#
# _framework density 20.824278
#
# number of rings (size 3 to 8) (size 9 to 14) (size 15 to 20)
#    0.000    1.714    0.000    4.714    0.000    6.857 
#    0.000    2.143    0.000    3.429    0.000    0.000 
#    0.000    0.000    0.000    0.000    0.000    0.000 
#
# Total GULP energy -312144.685486 kJ/mol
# GULP energy per Si atom -5574.012241 kJ/mol
# Density = 2.077688 g / cm^3
# Si number density = 20.824278 Si / 1000 Ang^3
#
#
#
# Elastic Constant Matrix: (Units=GPa)
#
#
# Indices 1 2 3 4 5 6 
#
# 1 83.1148 -0.0198 15.2944 0.0000 0.0000 0.0000
# 2 -0.0198 34.3055 8.1245 0.0000 0.0000 0.0000
# 3 15.2944 8.1245 67.1182 0.0000 0.0000 0.0000
# 4 0.0000 0.0000 0.0000 30.7608 0.0000 0.0000
# 5 0.0000 0.0000 0.0000 0.0000 19.3571 0.0000
# 6 0.0000 0.0000 0.0000 0.0000 0.0000 2.0242
#
#
#
# Elastic Compliance Matrix: (Units=1/GPa)
#
#
# Indices 1 2 3 4 5 6 
#
# 1 0.012575 0.000706 -0.002951 0.000000 0.000000 0.000000
# 2 0.000706 0.030050 -0.003798 0.000000 0.000000 0.000000
# 3 -0.002951 -0.003798 0.016031 0.000000 0.000000 0.000000
# 4 0.000000 0.000000 0.000000 0.032509 0.000000 0.000000
# 5 0.000000 0.000000 0.000000 0.000000 0.051661 0.000000
# 6 0.000000 0.000000 0.000000 0.000000 0.000000 0.494022
#
#
# Mechanical properties :
#
#
# Convention : Reuss Voigt Hill
#
# Bulk Modulus (GPa) = 21.47328 25.70408 23.58868
# Shear Modulus (GPa) = 7.52494 21.17106 14.34800
#
# Velocity S-wave (km/s) = 1.90299 3.19196 2.62774
# Velocity P-wave (km/s) = 3.89391 5.09460 4.53417
#
# Compressibility (1/GPa) = 0.04656950
#
# Stress axis : x y z
#
# Youngs Moduli (GPa) = 79.52459 33.27813 62.37801
#
# Poissons Ratio (x) = -0.02350 0.18407
# Poissons Ratio (y) = -0.05615 0.23693
# Poissons Ratio (z) = 0.23467 0.12640
#
# Static dielectric constant tensor:
#      x y z
#    x 1.795710 0.000000 0.000000 
#    y 0.000000 2.010690 0.000000 
#    z 0.000000 0.000000 1.712080 
# 
# From -- ./inp_files/8147.got.cif
#   From: 2010.05.17/outbox.cif.g08.bks.cpg/sg57_5_cif.got.tgz:8147.got - 2010.06.03 13:58:18.
