data_PCOD9436413
_publ_section_title
;
Structure prediction by ZEFSAII (Michael W. Deem and Ramdas Pophale) SiO2 
 PCOD9436413
Probable space group: P B C M
;
_chemical_formula_sum "Si O2"
_cell_formula_units_Z 48
_cell_length_a 11.896209
_cell_length_b 11.919992
_cell_length_c 17.133528
_cell_angle_alpha 90.000000
_cell_angle_beta 90.000000
_cell_angle_gamma 90.000000
_cell_volume 2429.580807
_symmetry_space_group_name_H-M "P B C M"
_symmetry_group_IT_number 57
_symmetry_cell_setting 'orthorhombic'
loop_
_space_group_symop_operation_xyz
x,y,z
-x,-y,1/2+z
x,1/2-y,-z
-x,1/2+y,1/2-z
-x,-y,-z
x,y,1/2-z
-x,1/2+y,z
x,1/2-y,1/2+z
loop_
_atom_site_type_symbol
_atom_site_label
_atom_site_fract_x
_atom_site_fract_y
_atom_site_fract_z
Si Si1 0.204497 0.171735 0.660546
Si Si2 0.945294 0.887170 0.838030
Si Si3 0.253774 0.528431 0.599368
Si Si4 0.400110 0.191571 0.085455
Si Si5 0.834859 0.443867 0.573065
Si Si6 0.346745 0.764110 0.905480
O O1 0.203034 0.133919 0.750000
O O2 0.106719 0.263906 0.650040
O O3 0.319266 0.236036 0.640612
O O4 0.188513 0.068075 0.603856
O O5 0.991282 0.895871 0.750000
O O6 0.040446 0.911170 0.901111
O O7 0.840792 0.972609 0.846623
O O8 0.348045 0.433424 0.582383
O O9 0.189140 0.557120 0.518892
O O10 0.311394 0.643014 0.627691
O O11 0.528051 0.196018 0.114662
O O12 0.394993 0.250000 0.000000
O O13 0.747104 0.356838 0.611356
O O14 0.348714 0.750000 0.000000
#
# Coordination Sequence:
#
# PCOD9436413 Si02
#       6
#     8   8   8   8   8   8
#     4  10  22  39  59  86 119 156 200 242 295 358
#     4  10  23  40  59  83 119 158 195 247 305 351
#     4  10  21  39  61  92 120 152 201 251 294 352
#     4  10  19  37  64  88 118 158 195 243 303 350
#     4  11  21  38  61  89 117 156 203 242 294 357
#     4   9  22  35  60  93 119 150 197 246 294 350
#
# _framework density 19.756495999999999
#
# number of rings (size 3 to 8) (size 9 to 14) (size 15 to 20)
#    0.000    2.000    1.667    1.000    4.667    2.000 
#    3.000    3.333    0.000    0.000    0.000    0.000 
#    0.000    0.000    0.000    0.000    0.000    0.000 
#
# Total GULP energy -268058.179283 kJ/mol
# GULP energy per Si atom -5584.545402 kJ/mol
# Density = 1.971153 g / cm^3
# Si number density = 19.756496 Si / 1000 Ang^3
#
#
#
# Elastic Constant Matrix: (Units=GPa)
#
#
# Indices 1 2 3 4 5 6 
#
# 1 111.1627 28.7222 12.5382 0.0000 0.0000 0.0000
# 2 28.7222 74.8149 9.6661 0.0000 0.0000 0.0000
# 3 12.5382 9.6661 28.1626 0.0000 0.0000 0.0000
# 4 0.0000 0.0000 0.0000 5.4602 0.0000 0.0000
# 5 0.0000 0.0000 0.0000 0.0000 -8.2697 0.0000
# 6 0.0000 0.0000 0.0000 0.0000 0.0000 20.1913
#
#
#
# Elastic Compliance Matrix: (Units=1/GPa)
#
#
# Indices 1 2 3 4 5 6 
#
# 1 0.010284 -0.003512 -0.003373 0.000000 0.000000 0.000000
# 2 -0.003512 0.015186 -0.003649 0.000000 0.000000 0.000000
# 3 -0.003373 -0.003649 0.038262 0.000000 0.000000 0.000000
# 4 0.000000 0.000000 0.000000 0.183144 0.000000 0.000000
# 5 0.000000 0.000000 0.000000 0.000000 -0.120923 0.000000
# 6 0.000000 0.000000 0.000000 0.000000 0.000000 0.049526
#
#
# Mechanical properties :
#
#
# Convention : Reuss Voigt Hill
#
# Bulk Modulus (GPa) = 23.43872 35.11034 29.27453
# Shear Modulus (GPa) = 23.72281 14.35728 19.04004
#
# Velocity S-wave (km/s) = 3.46896 2.69868 3.10778
# Velocity P-wave (km/s) = 5.28530 5.24601 5.26570
#
# Compressibility (1/GPa) = 0.04266444
#
# Stress axis : x y z
#
# Youngs Moduli (GPa) = 97.24081 65.84965 26.13559
#
# Poissons Ratio (x) = 0.23128 0.08815
# Poissons Ratio (y) = 0.34154 0.09536
# Poissons Ratio (z) = 0.32798 0.24026
#
# Static dielectric constant tensor:
#      x y z
#    x 1.686010 0.000000 0.000000 
#    y 0.000000 1.686830 0.000000 
#    z 0.000000 0.000000 1.686400 
# 
# From -- ./inp_files/21812.got.cif
#   From: 2010.05.17/outbox.cif.g08.bks.cpg/sg57_11_cif.got.tgz:21812.got - 2010.06.03 13:58:18.
