data_PCOD9436952
_publ_section_title
;
Structure prediction by ZEFSAII (Michael W. Deem and Ramdas Pophale) SiO2 
 PCOD9436952
Probable space group: P B C M
;
_chemical_formula_sum "Si O2"
_cell_formula_units_Z 56
_cell_length_a 21.391968
_cell_length_b 15.845477
_cell_length_c 8.830384
_cell_angle_alpha 90.000000
_cell_angle_beta 90.000000
_cell_angle_gamma 90.000000
_cell_volume 2993.199386
_symmetry_space_group_name_H-M "P B C M"
_symmetry_group_IT_number 57
_symmetry_cell_setting 'orthorhombic'
loop_
_space_group_symop_operation_xyz
x,y,z
-x,-y,1/2+z
x,1/2-y,-z
-x,1/2+y,1/2-z
-x,-y,-z
x,y,1/2-z
-x,1/2+y,z
x,1/2-y,1/2+z
loop_
_atom_site_type_symbol
_atom_site_label
_atom_site_fract_x
_atom_site_fract_y
_atom_site_fract_z
Si Si1 0.027076 0.086535 0.068371
Si Si2 0.290091 0.012799 0.568943
Si Si3 0.845070 0.987009 0.568448
Si Si4 0.373445 0.338654 0.931231
Si Si5 0.507566 0.406802 0.567621
Si Si6 0.643224 0.160044 0.067592
Si Si7 0.088965 0.834785 0.069439
O O1 0.021027 0.086556 0.250000
O O2 0.100680 0.081240 0.031874
O O3 0.980949 0.154719 0.997426
O O4 0.000000 0.000000 0.000000
O O5 0.295716 0.018770 0.750000
O O6 0.219279 0.026386 0.516748
O O7 0.333934 0.083191 0.494261
O O8 0.313432 0.919107 0.523209
O O9 0.835241 0.984821 0.750000
O O10 0.872772 0.080123 0.530994
O O11 0.368905 0.336448 0.750000
O O12 0.445951 0.354424 0.974214
O O13 0.352031 0.250000 0.000000
O O14 0.500000 0.500000 0.500000
O O15 0.509555 0.414040 0.750000
O O16 0.572414 0.363945 0.518711
O O17 0.643983 0.166073 0.250000
O O18 0.661730 0.250000 0.000000
O O19 0.085746 0.829143 0.250000
O O20 0.117401 0.750000 0.000000
#
# Coordination Sequence:
#
# PCOD9436952 Si02
#       7
#     8   8   8   8   8   8   8
#     4   9  17  32  54  79 107 139 176 221 268 321
#     4  11  23  39  59  83 116 155 197 244 287 343
#     4   9  20  37  56  79 110 148 189 228 275 335
#     4  11  23  39  62  87 113 150 191 240 297 350
#     4  10  20  36  59  86 115 147 186 236 293 348
#     4  10  22  38  56  83 116 150 191 236 286 344
#     4  10  20  34  55  84 116 148 184 230 278 332
#
# _framework density 18.709078999999999
#
# number of rings (size 3 to 8) (size 9 to 14) (size 15 to 20)
#    0.000    2.000    1.429    3.000    0.000    6.286 
#    0.000    3.571    0.000    3.429    0.000    0.000 
#    0.000    0.000    0.000    0.000    0.000    0.000 
#
# Total GULP energy -312546.467878 kJ/mol
# GULP energy per Si atom -5581.186926 kJ/mol
# Density = 1.866650 g / cm^3
# Si number density = 18.709079 Si / 1000 Ang^3
#
#
#
# Elastic Constant Matrix: (Units=GPa)
#
#
# Indices 1 2 3 4 5 6 
#
# 1 80.8499 0.6119 23.3764 0.0000 0.0000 0.0000
# 2 0.6119 71.8642 13.8434 0.0000 0.0000 0.0000
# 3 23.3764 13.8434 29.5495 0.0000 0.0000 0.0000
# 4 0.0000 0.0000 0.0000 34.2386 0.0000 0.0000
# 5 0.0000 0.0000 0.0000 0.0000 23.8363 0.0000
# 6 0.0000 0.0000 0.0000 0.0000 0.0000 9.6625
#
#
#
# Elastic Compliance Matrix: (Units=1/GPa)
#
#
# Indices 1 2 3 4 5 6 
#
# 1 0.016469 0.002604 -0.014248 0.000000 0.000000 0.000000
# 2 0.002604 0.015707 -0.009419 0.000000 0.000000 0.000000
# 3 -0.014248 -0.009419 0.049526 0.000000 0.000000 0.000000
# 4 0.000000 0.000000 0.000000 0.029207 0.000000 0.000000
# 5 0.000000 0.000000 0.000000 0.000000 0.041953 0.000000
# 6 0.000000 0.000000 0.000000 0.000000 0.000000 0.103493
#
#
# Mechanical properties :
#
#
# Convention : Reuss Voigt Hill
#
# Bulk Modulus (GPa) = 25.26773 28.65856 26.96315
# Shear Modulus (GPa) = 16.04250 23.17627 19.60939
#
# Velocity S-wave (km/s) = 2.93144 3.52344 3.24098
# Velocity P-wave (km/s) = 4.99927 5.64837 5.33370
#
# Compressibility (1/GPa) = 0.03957616
#
# Stress axis : x y z
#
# Youngs Moduli (GPa) = 60.72177 63.66446 20.19144
#
# Poissons Ratio (x) = -0.16581 0.28769
# Poissons Ratio (y) = -0.15815 0.19018
# Poissons Ratio (z) = 0.86518 0.59965
#
# Static dielectric constant tensor:
#      x y z
#    x 1.654000 0.000000 0.000000 
#    y 0.000000 1.639020 0.000000 
#    z 0.000000 0.000000 1.620750 
# 
# From -- ./inp_files/8174.got.cif
#   From: 2010.05.17/outbox.cif.g08.bks.cpg/sg57_5_cif.got.tgz:8174.got - 2010.06.03 13:58:18.
