data_PCOD9436226
_publ_section_title
;
Structure prediction by ZEFSAII (Michael W. Deem and Ramdas Pophale) SiO2 
 PCOD9436226
Probable space group: P B C M
;
_chemical_formula_sum "Si O2"
_cell_formula_units_Z 48
_cell_length_a 14.930892
_cell_length_b 20.991410
_cell_length_c 8.465884
_cell_angle_alpha 90.000000
_cell_angle_beta 90.000000
_cell_angle_gamma 90.000000
_cell_volume 2653.381390
_symmetry_space_group_name_H-M "P B C M"
_symmetry_group_IT_number 57
_symmetry_cell_setting 'orthorhombic'
loop_
_space_group_symop_operation_xyz
x,y,z
-x,-y,1/2+z
x,1/2-y,-z
-x,1/2+y,1/2-z
-x,-y,-z
x,y,1/2-z
-x,1/2+y,z
x,1/2-y,1/2+z
loop_
_atom_site_type_symbol
_atom_site_label
_atom_site_fract_x
_atom_site_fract_y
_atom_site_fract_z
Si Si1 0.555087 0.438861 0.939812
Si Si2 0.750137 0.480278 0.557711
Si Si3 0.442657 0.320084 0.439326
Si Si4 0.944568 0.439165 0.941269
Si Si5 0.750932 0.628639 0.940951
Si Si6 0.061288 0.180523 0.061121
O O1 0.553349 0.439317 0.750000
O O2 0.658001 0.447420 0.993291
O O3 0.500000 0.500000 0.000000
O O4 0.509000 0.374764 0.000474
O O5 0.749944 0.480233 0.750000
O O6 0.841794 0.446812 0.505723
O O7 0.750865 0.554494 0.509081
O O8 0.465745 0.250000 0.500000
O O9 0.443387 0.320582 0.250000
O O10 0.341665 0.338610 0.492199
O O11 0.945304 0.439867 0.750000
O O12 0.994162 0.375047 0.994941
O O13 0.000000 0.500000 0.000000
O O14 0.754076 0.630128 0.750000
O O15 0.838840 0.662949 0.004922
O O16 0.060456 0.180975 0.250000
O O17 0.036126 0.250000 0.000000
#
# Coordination Sequence:
#
# PCOD9436226 Si02
#       6
#     8   8   8   8   8   8
#     4  11  21  37  60  85 114 151 190 234 281 334
#     4   9  18  35  58  84 113 146 181 227 282 331
#     4  11  23  39  57  84 116 152 191 231 285 341
#     4  10  20  36  58  82 110 144 186 228 274 330
#     4  10  19  35  59  84 115 149 182 227 282 338
#     4  11  23  36  54  83 114 149 187 228 277 332
#
# _framework density 18.090125
#
# number of rings (size 3 to 8) (size 9 to 14) (size 15 to 20)
#    0.000    1.667    3.333    2.000    0.000    3.333 
#    0.000    2.500    0.000    2.000    0.000    0.000 
#    0.000    0.000    0.000    0.000    0.000    0.000 
#
# Total GULP energy -268119.177921 kJ/mol
# GULP energy per Si atom -5585.816207 kJ/mol
# Density = 1.804895 g / cm^3
# Si number density = 18.090125 Si / 1000 Ang^3
#
#
#
# Elastic Constant Matrix: (Units=GPa)
#
#
# Indices 1 2 3 4 5 6 
#
# 1 163.3893 97.2776 24.3587 0.0000 0.0000 0.0000
# 2 97.2776 184.6289 29.2321 0.0000 0.0000 0.0000
# 3 24.3587 29.2321 26.5518 0.0000 0.0000 0.0000
# 4 0.0000 0.0000 0.0000 29.3682 0.0000 0.0000
# 5 0.0000 0.0000 0.0000 0.0000 11.4283 0.0000
# 6 0.0000 0.0000 0.0000 0.0000 0.0000 22.9575
#
#
#
# Elastic Compliance Matrix: (Units=1/GPa)
#
#
# Indices 1 2 3 4 5 6 
#
# 1 0.009219 -0.004261 -0.003766 0.000000 0.000000 0.000000
# 2 -0.004261 0.008529 -0.005481 0.000000 0.000000 0.000000
# 3 -0.003766 -0.005481 0.047152 0.000000 0.000000 0.000000
# 4 0.000000 0.000000 0.000000 0.034050 0.000000 0.000000
# 5 0.000000 0.000000 0.000000 0.000000 0.087502 0.000000
# 6 0.000000 0.000000 0.000000 0.000000 0.000000 0.043559
#
#
# Mechanical properties :
#
#
# Convention : Reuss Voigt Hill
#
# Bulk Modulus (GPa) = 26.39705 75.14520 50.77112
# Shear Modulus (GPa) = 18.54221 27.66424 23.10322
#
# Velocity S-wave (km/s) = 3.20502 3.91480 3.57756
# Velocity P-wave (km/s) = 5.32164 7.87805 6.72248
#
# Compressibility (1/GPa) = 0.03788303
#
# Stress axis : x y z
#
# Youngs Moduli (GPa) = 108.47629 117.24654 21.20812
#
# Poissons Ratio (x) = 0.49957 0.07987
# Poissons Ratio (y) = 0.46220 0.11624
# Poissons Ratio (z) = 0.40855 0.64264
#
# Static dielectric constant tensor:
#      x y z
#    x 1.614510 0.000000 0.000000 
#    y 0.000000 1.591330 0.000000 
#    z 0.000000 0.000000 1.618800 
# 
# From -- ./inp_files/4560.got.cif
#   From: 2010.05.17/outbox.cif.g08.bks.cpg/sg57_3_cif.got.tgz:4560.got - 2010.06.03 13:58:18.
