data_PCOD9436393
_publ_section_title
;
Structure prediction by ZEFSAII (Michael W. Deem and Ramdas Pophale) SiO2 
 PCOD9436393
Probable space group: P B C M
;
_chemical_formula_sum "Si O2"
_cell_formula_units_Z 48
_cell_length_a 8.279859
_cell_length_b 16.683786
_cell_length_c 18.971164
_cell_angle_alpha 90.000000
_cell_angle_beta 90.000000
_cell_angle_gamma 90.000000
_cell_volume 2620.665130
_symmetry_space_group_name_H-M "P B C M"
_symmetry_group_IT_number 57
_symmetry_cell_setting 'orthorhombic'
loop_
_space_group_symop_operation_xyz
x,y,z
-x,-y,1/2+z
x,1/2-y,-z
-x,1/2+y,1/2-z
-x,-y,-z
x,y,1/2-z
-x,1/2+y,z
x,1/2-y,1/2+z
loop_
_atom_site_type_symbol
_atom_site_label
_atom_site_fract_x
_atom_site_fract_y
_atom_site_fract_z
Si Si1 0.119462 0.497657 0.623298
Si Si2 0.626658 0.496368 0.250000
Si Si3 0.840309 0.376753 0.890847
Si Si4 0.966710 0.250000 0.000000
Si Si5 0.696405 0.905925 0.250000
Si Si6 0.317626 0.487033 0.480474
Si Si7 0.314000 0.905399 0.750000
Si Si8 0.851268 0.863947 0.393042
O O1 0.255705 0.504357 0.682824
O O2 0.204614 0.495798 0.547849
O O3 0.012265 0.417070 0.629060
O O4 0.996458 0.572547 0.621655
O O5 0.496706 0.422976 0.250000
O O6 0.504845 0.573238 0.250000
O O7 0.864101 0.312616 0.953007
O O8 0.734768 0.447791 0.923705
O O9 0.748823 0.358106 0.818306
O O10 0.072104 0.206957 0.938965
O O11 0.762098 0.858982 0.318029
O O12 0.757214 0.001088 0.250000
O O13 0.500000 0.500000 0.500000
O O14 0.280418 0.403027 0.444637
#
# Coordination Sequence:
#
# PCOD9436393 Si02
#       8
#     8   4   8   4   4   8   4   8
#     4  11  17  34  60  89 111 154 217 255 298 349
#     4  10  20  34  66  98 118 144 206 294 308 338
#     4  11  21  38  61  92 120 164 207 255 298 373
#     4  12  24  40  58  88 140 168 206 232 308 384
#     4  10  19  37  61  92 120 148 208 269 313 341
#     4  11  19  34  62  89 114 152 211 264 305 342
#     4  10  19  37  61  92 120 148 208 269 313 341
#     4  11  21  38  61  92 120 164 207 255 298 373
#
# _framework density 18.315961000000001
#
# number of rings (size 3 to 8) (size 9 to 14) (size 15 to 20)
#    0.500    0.667    6.667    4.000    0.000    0.667 
#    0.000    0.833    0.000    2.000    0.000    0.000 
#    0.000    0.000    0.000    0.000    0.000    0.000 
#
# Total GULP energy -267420.053957 kJ/mol
# GULP energy per Si atom -5571.251124 kJ/mol
# Density = 1.827427 g / cm^3
# Si number density = 18.315961 Si / 1000 Ang^3
#
#
#
# Elastic Constant Matrix: (Units=GPa)
#
#
# Indices 1 2 3 4 5 6 
#
# 1 100.3511 -0.9870 33.4109 0.0000 0.0000 0.0000
# 2 -0.9870 27.7721 -7.5976 0.0000 0.0000 0.0000
# 3 33.4109 -7.5976 120.0038 0.0000 0.0000 0.0000
# 4 0.0000 0.0000 0.0000 10.6820 0.0000 0.0000
# 5 0.0000 0.0000 0.0000 0.0000 -81.0007 0.0000
# 6 0.0000 0.0000 0.0000 0.0000 0.0000 0.3079
#
#
#
# Elastic Compliance Matrix: (Units=1/GPa)
#
#
# Indices 1 2 3 4 5 6 
#
# 1 0.010989 -0.000454 -0.003088 0.000000 0.000000 0.000000
# 2 -0.000454 0.036661 0.002448 0.000000 0.000000 0.000000
# 3 -0.003088 0.002448 0.009348 0.000000 0.000000 0.000000
# 4 0.000000 0.000000 0.000000 0.093616 0.000000 0.000000
# 5 0.000000 0.000000 0.000000 0.000000 -0.012346 0.000000
# 6 0.000000 0.000000 0.000000 0.000000 0.000000 3.248115
#
#
# Mechanical properties :
#
#
# Convention : Reuss Voigt Hill
#
# Bulk Modulus (GPa) = 18.24569 33.08662 25.66615
# Shear Modulus (GPa) = 1.46764 0.88455 1.17609
#
# Velocity S-wave (km/s) = 0.89612 0.69569 0.80219
# Velocity P-wave (km/s) = 3.32475 4.33000 3.86024
#
# Compressibility (1/GPa) = 0.05480747
#
# Stress axis : x y z
#
# Youngs Moduli (GPa) = 91.00235 27.27708 106.97671
#
# Poissons Ratio (x) = 0.01239 0.33037
# Poissons Ratio (y) = 0.04134 -0.26183
# Poissons Ratio (z) = 0.28103 -0.06676
#
# Static dielectric constant tensor:
#      x y z
#    x 1.629580 0.000000 0.000000 
#    y 0.000000 1.694180 0.000000 
#    z 0.000000 0.000000 1.643290 
# 
# From -- ./inp_files/21172.got.cif
#   From: 2010.05.17/outbox.cif.g08.bks.cpg/sg57_11_cif.got.tgz:21172.got - 2010.06.03 13:58:18.
