data_PCOD9436717
_publ_section_title
;
Structure prediction by ZEFSAII (Michael W. Deem and Ramdas Pophale) SiO2 
 PCOD9436717
Probable space group: P B C M
;
_chemical_formula_sum "Si O2"
_cell_formula_units_Z 48
_cell_length_a 5.335117
_cell_length_b 21.794348
_cell_length_c 22.761923
_cell_angle_alpha 90.000000
_cell_angle_beta 90.000000
_cell_angle_gamma 90.000000
_cell_volume 2646.651622
_symmetry_space_group_name_H-M "P B C M"
_symmetry_group_IT_number 57
_symmetry_cell_setting 'orthorhombic'
loop_
_space_group_symop_operation_xyz
x,y,z
-x,-y,1/2+z
x,1/2-y,-z
-x,1/2+y,1/2-z
-x,-y,-z
x,y,1/2-z
-x,1/2+y,z
x,1/2-y,1/2+z
loop_
_atom_site_type_symbol
_atom_site_label
_atom_site_fract_x
_atom_site_fract_y
_atom_site_fract_z
Si Si1 0.163776 0.490847 0.250000
Si Si2 0.325817 0.600995 0.881651
Si Si3 0.668027 0.090659 0.750000
Si Si4 0.972450 0.971057 0.629693
Si Si5 0.304459 0.473056 0.454030
Si Si6 0.290761 0.677610 0.998715
Si Si7 0.808932 0.881197 0.544625
O O1 0.441431 0.460553 0.250000
O O2 0.947036 0.438507 0.250000
O O3 0.096860 0.530214 0.307119
O O4 0.351518 0.622996 0.814016
O O5 0.158947 0.538073 0.878720
O O6 0.585437 0.573673 0.906103
O O7 0.251908 0.649700 0.932277
O O8 0.801096 0.915640 0.607369
O O9 0.195250 0.972135 0.583015
O O10 0.500000 0.500000 0.500000
O O11 0.129013 0.433643 0.495875
O O12 0.540746 0.646005 0.025618
O O13 0.040352 0.664639 0.036633
O O14 0.335152 0.750000 0.000000
#
# Coordination Sequence:
#
# PCOD9436717 Si02
#       7
#     4   8   4   8   8   8   8
#     4  10  22  32  52  78 122 148 168 222 263 352
#     4  10  20  33  55  78 116 142 184 230 276 347
#     4  10  20  34  50  80 108 150 180 218 283 320
#     4  11  19  34  52  85 114 141 185 213 291 336
#     4  11  18  29  51  82 117 140 175 218 279 342
#     4  11  24  39  55  80 109 148 191 239 285 323
#     4  11  22  34  58  80 111 145 178 231 280 346
#
# _framework density 18.136123000000001
#
# number of rings (size 3 to 8) (size 9 to 14) (size 15 to 20)
#    0.000    1.333    5.000    3.000    0.000    0.000 
#    0.000    0.000    0.000    2.000    0.000    0.000 
#    0.000    0.000    0.000    0.000    0.000    0.000 
#
# Total GULP energy -267225.901769 kJ/mol
# GULP energy per Si atom -5567.206287 kJ/mol
# Density = 1.809484 g / cm^3
# Si number density = 18.136123 Si / 1000 Ang^3
#
#
#
# Elastic Constant Matrix: (Units=GPa)
#
#
# Indices 1 2 3 4 5 6 
#
# 1 63.5671 13.9805 27.7771 0.0000 0.0000 0.0000
# 2 13.9805 73.2044 32.3875 0.0000 0.0000 0.0000
# 3 27.7771 32.3875 105.8952 0.0000 0.0000 0.0000
# 4 0.0000 0.0000 0.0000 13.9971 0.0000 0.0000
# 5 0.0000 0.0000 0.0000 0.0000 22.1926 0.0000
# 6 0.0000 0.0000 0.0000 0.0000 0.0000 23.0030
#
#
#
# Elastic Compliance Matrix: (Units=1/GPa)
#
#
# Indices 1 2 3 4 5 6 
#
# 1 0.017919 -0.001553 -0.004225 0.000000 0.000000 0.000000
# 2 -0.001553 0.015933 -0.004466 0.000000 0.000000 0.000000
# 3 -0.004225 -0.004466 0.011917 0.000000 0.000000 0.000000
# 4 0.000000 0.000000 0.000000 0.071443 0.000000 0.000000
# 5 0.000000 0.000000 0.000000 0.000000 0.045060 0.000000
# 6 0.000000 0.000000 0.000000 0.000000 0.000000 0.043473
#
#
# Mechanical properties :
#
#
# Convention : Reuss Voigt Hill
#
# Bulk Modulus (GPa) = 39.55425 43.43965 41.49695
# Shear Modulus (GPa) = 21.30738 23.07331 22.19035
#
# Velocity S-wave (km/s) = 3.43134 3.57070 3.50171
# Velocity P-wave (km/s) = 6.12828 6.40343 6.26736
#
# Compressibility (1/GPa) = 0.02528173
#
# Stress axis : x y z
#
# Youngs Moduli (GPa) = 55.80569 62.76428 83.91054
#
# Poissons Ratio (x) = 0.09746 0.35456
# Poissons Ratio (y) = 0.08665 0.37471
# Poissons Ratio (z) = 0.23580 0.28028
#
# Static dielectric constant tensor:
#      x y z
#    x 1.725370 0.000000 0.000000 
#    y 0.000000 1.645720 0.000000 
#    z 0.000000 0.000000 1.670780 
# 
# From -- ./inp_files/23701.got.cif
#   From: 2010.05.17/outbox.cif.g08.bks.cpg/sg57_12_cif.got.tgz:23701.got - 2010.06.03 13:58:18.
