data_PCOD9436526
_publ_section_title
;
Structure prediction by ZEFSAII (Michael W. Deem and Ramdas Pophale) SiO2 
 PCOD9436526
Probable space group: P B C M
;
_chemical_formula_sum "Si O2"
_cell_formula_units_Z 48
_cell_length_a 12.255773
_cell_length_b 27.013433
_cell_length_c 8.506719
_cell_angle_alpha 90.000000
_cell_angle_beta 90.000000
_cell_angle_gamma 90.000000
_cell_volume 2816.323736
_symmetry_space_group_name_H-M "P B C M"
_symmetry_group_IT_number 57
_symmetry_cell_setting 'orthorhombic'
loop_
_space_group_symop_operation_xyz
x,y,z
-x,-y,1/2+z
x,1/2-y,-z
-x,1/2+y,1/2-z
-x,-y,-z
x,y,1/2-z
-x,1/2+y,z
x,1/2-y,1/2+z
loop_
_atom_site_type_symbol
_atom_site_label
_atom_site_fract_x
_atom_site_fract_y
_atom_site_fract_z
Si Si1 0.223117 0.067240 0.440666
Si Si2 0.837153 0.305435 0.437980
Si Si3 0.534264 0.945586 0.439211
Si Si4 0.984700 0.620824 0.064779
Si Si5 0.334927 0.616831 0.565893
Si Si6 0.861923 0.039491 0.933528
O O1 0.229804 0.066531 0.250000
O O2 0.344031 0.068109 0.508663
O O3 0.139410 0.110655 0.487730
O O4 0.167636 0.015175 0.488503
O O5 0.840193 0.250000 0.500000
O O6 0.830295 0.305055 0.250000
O O7 0.945083 0.336516 0.482890
O O8 0.732135 0.336522 0.501121
O O9 0.527696 0.947050 0.250000
O O10 0.447304 0.904721 0.500208
O O11 0.500000 0.000000 0.500000
O O12 0.984364 0.630645 0.250000
O O13 0.050009 0.569796 0.031828
O O14 0.355040 0.628071 0.750000
O O15 0.248746 0.571712 0.559994
O O16 0.896410 0.038089 0.750000
#
# Coordination Sequence:
#
# PCOD9436526 Si02
#       6
#     8   8   8   8   8   8
#     4  10  20  33  47  69 106 144 176 212 251 296
#     4  10  20  37  59  79 101 128 163 213 270 319
#     4  11  20  32  50  73 104 143 182 214 252 304
#     4  10  20  32  49  75 104 133 172 215 257 308
#     4   8  16  31  50  72 102 135 166 208 259 300
#     4   9  16  30  48  67 102 141 172 210 254 296
#
# _framework density 17.043496000000001
#
# number of rings (size 3 to 8) (size 9 to 14) (size 15 to 20)
#    0.000    2.333    1.667    3.000    0.000    2.000 
#    0.000    2.500    0.000    1.000    0.000    4.667 
#    0.000    0.000    0.000    0.000    0.000    0.000 
#
# Total GULP energy -267554.413826 kJ/mol
# GULP energy per Si atom -5574.050288 kJ/mol
# Density = 1.700470 g / cm^3
# Si number density = 17.043496 Si / 1000 Ang^3
#
#
#
# Elastic Constant Matrix: (Units=GPa)
#
#
# Indices 1 2 3 4 5 6 
#
# 1 129.5134 74.8874 22.4591 0.0000 0.0000 0.0000
# 2 74.8874 113.6584 26.4452 0.0000 0.0000 0.0000
# 3 22.4591 26.4452 27.2630 0.0000 0.0000 0.0000
# 4 0.0000 0.0000 0.0000 18.7783 0.0000 0.0000
# 5 0.0000 0.0000 0.0000 0.0000 25.4422 0.0000
# 6 0.0000 0.0000 0.0000 0.0000 0.0000 7.1694
#
#
#
# Elastic Compliance Matrix: (Units=1/GPa)
#
#
# Indices 1 2 3 4 5 6 
#
# 1 0.012663 -0.007641 -0.003020 0.000000 0.000000 0.000000
# 2 -0.007641 0.015973 -0.009200 0.000000 0.000000 0.000000
# 3 -0.003020 -0.009200 0.048091 0.000000 0.000000 0.000000
# 4 0.000000 0.000000 0.000000 0.053253 0.000000 0.000000
# 5 0.000000 0.000000 0.000000 0.000000 0.039305 0.000000
# 6 0.000000 0.000000 0.000000 0.000000 0.000000 0.139482
#
#
# Mechanical properties :
#
#
# Convention : Reuss Voigt Hill
#
# Bulk Modulus (GPa) = 27.02231 57.55757 42.28994
# Shear Modulus (GPa) = 13.85720 20.05419 16.95570
#
# Velocity S-wave (km/s) = 2.85449 3.43395 3.15754
# Velocity P-wave (km/s) = 5.17238 7.04038 6.17740
#
# Compressibility (1/GPa) = 0.03700646
#
# Stress axis : x y z
#
# Youngs Moduli (GPa) = 78.97067 62.60540 20.79378
#
# Poissons Ratio (x) = 0.47835 0.06280
# Poissons Ratio (y) = 0.60339 0.19129
# Poissons Ratio (z) = 0.23851 0.57594
#
# Static dielectric constant tensor:
#      x y z
#    x 1.597850 0.000000 0.000000 
#    y 0.000000 1.565580 0.000000 
#    z 0.000000 0.000000 1.596190 
# 
# From -- ./inp_files/3325.got.cif
#   From: 2010.05.17/outbox.cif.g08.bks.cpg/sg57_2_cif.got.tgz:3325.got - 2010.06.03 13:58:18.
