data_PCOD9436196
_publ_section_title
;
Structure prediction by ZEFSAII (Michael W. Deem and Ramdas Pophale) SiO2 
 PCOD9436196
Probable space group: P B C M
;
_chemical_formula_sum "Si O2"
_cell_formula_units_Z 48
_cell_length_a 12.139096
_cell_length_b 25.993078
_cell_length_c 8.524564
_cell_angle_alpha 90.000000
_cell_angle_beta 90.000000
_cell_angle_gamma 90.000000
_cell_volume 2689.776728
_symmetry_space_group_name_H-M "P B C M"
_symmetry_group_IT_number 57
_symmetry_cell_setting 'orthorhombic'
loop_
_space_group_symop_operation_xyz
x,y,z
-x,-y,1/2+z
x,1/2-y,-z
-x,1/2+y,1/2-z
-x,-y,-z
x,y,1/2-z
-x,1/2+y,z
x,1/2-y,1/2+z
loop_
_atom_site_type_symbol
_atom_site_label
_atom_site_fract_x
_atom_site_fract_y
_atom_site_fract_z
Si Si1 0.235152 0.902539 0.440842
Si Si2 0.375984 0.002739 0.061271
Si Si3 0.619437 0.307192 0.438565
Si Si4 0.624009 0.693018 0.063261
Si Si5 0.999138 0.941518 0.439783
Si Si6 0.238119 0.400572 0.438234
O O1 0.234076 0.901342 0.250000
O O2 0.293193 0.849943 0.492837
O O3 0.110188 0.912705 0.492954
O O4 0.309275 0.951503 0.486468
O O5 0.375843 0.005625 0.250000
O O6 0.314085 0.052211 0.993328
O O7 0.500000 0.000000 0.000000
O O8 0.644048 0.250000 0.500000
O O9 0.617783 0.306137 0.250000
O O10 0.496791 0.321320 0.496589
O O11 0.617253 0.694568 0.250000
O O12 0.649446 0.750000 0.000000
O O13 0.712558 0.651444 0.008546
O O14 0.000328 0.943272 0.250000
O O15 0.886712 0.913448 0.488659
O O16 0.000000 0.000000 0.500000
O O17 0.241003 0.397285 0.250000
#
# Coordination Sequence:
#
# PCOD9436196 Si02
#       6
#     8   8   8   8   8   8
#     4   9  19  35  55  78 109 147 184 227 280 331
#     4  11  21  34  54  80 113 146 185 232 285 343
#     4  10  19  35  58  83 113 147 184 229 281 339
#     4  11  22  38  60  84 113 148 187 233 282 338
#     4  10  20  37  58  80 109 149 191 234 281 333
#     4  11  22  36  56  83 114 148 188 233 282 339
#
# _framework density 17.845347
#
# number of rings (size 3 to 8) (size 9 to 14) (size 15 to 20)
#    0.000    1.667    1.667    5.000    0.000    2.000 
#    0.000    5.000    0.000    2.000    0.000    0.000 
#    0.000    0.000    0.000    0.000    0.000    0.000 
#
# Total GULP energy -268146.263899 kJ/mol
# GULP energy per Si atom -5586.380498 kJ/mol
# Density = 1.780473 g / cm^3
# Si number density = 17.845347 Si / 1000 Ang^3
#
#
#
# Elastic Constant Matrix: (Units=GPa)
#
#
# Indices 1 2 3 4 5 6 
#
# 1 187.8367 110.6042 37.0736 0.0000 0.0000 0.0000
# 2 110.6042 133.6034 33.7751 0.0000 0.0000 0.0000
# 3 37.0736 33.7751 62.7020 0.0000 0.0000 0.0000
# 4 0.0000 0.0000 0.0000 32.2866 0.0000 0.0000
# 5 0.0000 0.0000 0.0000 0.0000 21.8513 0.0000
# 6 0.0000 0.0000 0.0000 0.0000 0.0000 35.5427
#
#
#
# Elastic Compliance Matrix: (Units=1/GPa)
#
#
# Indices 1 2 3 4 5 6 
#
# 1 0.010555 -0.008289 -0.001776 0.000000 0.000000 0.000000
# 2 -0.008289 0.015175 -0.003273 0.000000 0.000000 0.000000
# 3 -0.001776 -0.003273 0.018761 0.000000 0.000000 0.000000
# 4 0.000000 0.000000 0.000000 0.030973 0.000000 0.000000
# 5 0.000000 0.000000 0.000000 0.000000 0.045764 0.000000
# 6 0.000000 0.000000 0.000000 0.000000 0.000000 0.028135
#
#
# Mechanical properties :
#
#
# Convention : Reuss Voigt Hill
#
# Bulk Modulus (GPa) = 56.13129 83.00532 69.56831
# Shear Modulus (GPa) = 27.47598 31.44872 29.46235
#
# Velocity S-wave (km/s) = 3.92812 4.20252 4.06764
# Velocity P-wave (km/s) = 7.21776 8.37633 7.81854
#
# Compressibility (1/GPa) = 0.01781538
#
# Stress axis : x y z
#
# Youngs Moduli (GPa) = 94.73932 65.89998 53.30101
#
# Poissons Ratio (x) = 0.54626 0.09466
# Poissons Ratio (y) = 0.78532 0.17444
# Poissons Ratio (z) = 0.16825 0.21567
#
# Static dielectric constant tensor:
#      x y z
#    x 1.611730 0.000000 0.000000 
#    y 0.000000 1.583140 0.000000 
#    z 0.000000 0.000000 1.611080 
# 
# From -- ./inp_files/3088.got.cif
#   From: 2010.05.17/outbox.cif.g08.bks.cpg/sg57_2_cif.got.tgz:3088.got - 2010.06.03 13:58:18.
