data_PCOD9436694
_publ_section_title
;
Structure prediction by ZEFSAII (Michael W. Deem and Ramdas Pophale) SiO2 
 PCOD9436694
Probable space group: P B C M
;
_chemical_formula_sum "Si O2"
_cell_formula_units_Z 64
_cell_length_a 13.183617
_cell_length_b 28.439008
_cell_length_c 8.394657
_cell_angle_alpha 90.000000
_cell_angle_beta 90.000000
_cell_angle_gamma 90.000000
_cell_volume 3147.400265
_symmetry_space_group_name_H-M "P B C M"
_symmetry_group_IT_number 57
_symmetry_cell_setting 'orthorhombic'
loop_
_space_group_symop_operation_xyz
x,y,z
-x,-y,1/2+z
x,1/2-y,-z
-x,1/2+y,1/2-z
-x,-y,-z
x,y,1/2-z
-x,1/2+y,z
x,1/2-y,1/2+z
loop_
_atom_site_type_symbol
_atom_site_label
_atom_site_fract_x
_atom_site_fract_y
_atom_site_fract_z
Si Si1 0.374905 0.130194 0.942921
Si Si2 0.603061 0.523205 0.558978
Si Si3 0.020905 0.550667 0.571146
Si Si4 0.194249 0.301520 0.442203
Si Si5 0.013416 0.846323 0.057256
Si Si6 0.759282 0.163497 0.063622
Si Si7 0.451899 0.800537 0.941561
Si Si8 0.234535 0.555839 0.062964
O O1 0.373669 0.129439 0.750000
O O2 0.378346 0.076195 0.000603
O O3 0.274934 0.159023 0.995356
O O4 0.473577 0.158855 0.997897
O O5 0.500000 0.500000 0.500000
O O6 0.598728 0.525909 0.750000
O O7 0.690812 0.486040 0.520803
O O8 0.980971 0.550061 0.750000
O O9 0.987909 0.600548 0.496488
O O10 0.141444 0.554804 0.556918
O O11 0.000000 0.500000 0.500000
O O12 0.224442 0.250000 0.500000
O O13 0.194314 0.301775 0.250000
O O14 0.079216 0.313487 0.495213
O O15 0.013398 0.848364 0.250000
O O16 0.127685 0.832363 0.007935
O O17 0.770801 0.174896 0.250000
O O18 0.663992 0.192365 0.997576
O O19 0.724228 0.108830 0.052557
O O20 0.449982 0.801984 0.750000
O O21 0.489831 0.750000 0.000000
O O22 0.201910 0.549907 0.250000
#
# Coordination Sequence:
#
# PCOD9436694 Si02
#       8
#     8   8   8   8   8   8   8   8
#     4  10  22  39  60  85 115 153 195 238 289 347
#     4  10  21  36  58  85 116 155 191 233 285 343
#     4  10  20  33  53  80 110 146 185 229 275 329
#     4  10  22  40  60  83 113 151 196 242 292 343
#     4   9  20  37  58  82 112 151 191 233 282 340
#     4   9  19  36  57  83 115 149 185 232 284 337
#     4  11  23  39  60  85 113 146 187 238 294 348
#     4   9  18  34  55  78 109 148 184 222 274 329
#
# _framework density 20.334243000000001
#
# number of rings (size 3 to 8) (size 9 to 14) (size 15 to 20)
#    0.000    2.250    0.000    1.875    1.750    6.000 
#    0.000    5.000    0.000    0.000    0.000    0.000 
#    0.000    0.000    0.000    0.000    0.000    0.000 
#
# Total GULP energy -356901.987313 kJ/mol
# GULP energy per Si atom -5576.593552 kJ/mol
# Density = 2.028796 g / cm^3
# Si number density = 20.334243 Si / 1000 Ang^3
#
#
#
# Elastic Constant Matrix: (Units=GPa)
#
#
# Indices 1 2 3 4 5 6 
#
# 1 86.7306 49.6926 5.6171 0.0000 0.0000 0.0000
# 2 49.6926 103.2810 7.4157 0.0000 0.0000 0.0000
# 3 5.6171 7.4157 5.6337 0.0000 0.0000 0.0000
# 4 0.0000 0.0000 0.0000 21.7979 0.0000 0.0000
# 5 0.0000 0.0000 0.0000 0.0000 28.2389 0.0000
# 6 0.0000 0.0000 0.0000 0.0000 0.0000 36.6561
#
#
#
# Elastic Compliance Matrix: (Units=1/GPa)
#
#
# Indices 1 2 3 4 5 6 
#
# 1 0.016129 -0.007295 -0.006479 0.000000 0.000000 0.000000
# 2 -0.007295 0.013993 -0.011145 0.000000 0.000000 0.000000
# 3 -0.006479 -0.011145 0.198632 0.000000 0.000000 0.000000
# 4 0.000000 0.000000 0.000000 0.045876 0.000000 0.000000
# 5 0.000000 0.000000 0.000000 0.000000 0.035412 0.000000
# 6 0.000000 0.000000 0.000000 0.000000 0.000000 0.027281
#
#
# Mechanical properties :
#
#
# Convention : Reuss Voigt Hill
#
# Bulk Modulus (GPa) = 5.58923 35.67737 20.63330
# Shear Modulus (GPa) = 11.19072 26.19990 18.69531
#
# Velocity S-wave (km/s) = 2.34847 3.59341 3.03545
# Velocity P-wave (km/s) = 3.17937 5.89918 4.73861
#
# Compressibility (1/GPa) = 0.17891550
#
# Stress axis : x y z
#
# Youngs Moduli (GPa) = 61.99836 71.46637 5.03445
#
# Poissons Ratio (x) = 0.52137 0.03262
# Poissons Ratio (y) = 0.45230 0.05611
# Poissons Ratio (z) = 0.40169 0.79647
#
# Static dielectric constant tensor:
#      x y z
#    x 1.758970 0.000000 0.000000 
#    y 0.000000 1.783000 0.000000 
#    z 0.000000 0.000000 1.958000 
# 
# From -- ./inp_files/3871.got.cif
#   From: 2010.05.17/outbox.cif.g08.bks.cpg/sg57_2_cif.got.tgz:3871.got - 2010.06.03 13:58:18.
