data_PCOD9436563
_publ_section_title
;
Structure prediction by ZEFSAII (Michael W. Deem and Ramdas Pophale) SiO2 
 PCOD9436563
Probable space group: P B C M
;
_chemical_formula_sum "Si O2"
_cell_formula_units_Z 56
_cell_length_a 14.116829
_cell_length_b 29.534935
_cell_length_c 7.885244
_cell_angle_alpha 90.000000
_cell_angle_beta 90.000000
_cell_angle_gamma 90.000000
_cell_volume 3287.670692
_symmetry_space_group_name_H-M "P B C M"
_symmetry_group_IT_number 57
_symmetry_cell_setting 'orthorhombic'
loop_
_space_group_symop_operation_xyz
x,y,z
-x,-y,1/2+z
x,1/2-y,-z
-x,1/2+y,1/2-z
-x,-y,-z
x,y,1/2-z
-x,1/2+y,z
x,1/2-y,1/2+z
loop_
_atom_site_type_symbol
_atom_site_label
_atom_site_fract_x
_atom_site_fract_y
_atom_site_fract_z
Si Si1 0.485975 0.800428 0.954048
Si Si2 0.732507 0.199770 0.454236
Si Si3 0.609471 0.448473 0.954906
Si Si4 0.284841 0.464295 0.549936
Si Si5 0.424536 0.107204 0.458002
Si Si6 0.102823 0.982581 0.049373
Si Si7 0.798202 0.394164 0.953442
O O1 0.482258 0.803468 0.750000
O O2 0.376776 0.805380 0.015495
O O3 0.550888 0.841936 0.014201
O O4 0.518501 0.750000 0.000000
O O5 0.765590 0.250000 0.500000
O O6 0.729009 0.197324 0.250000
O O7 0.795190 0.157513 0.515929
O O8 0.608612 0.452192 0.750000
O O9 0.513275 0.424353 0.008509
O O10 0.697906 0.416592 0.003818
O O11 0.634239 0.497320 0.029184
O O12 0.268810 0.457383 0.750000
O O13 0.329126 0.417689 0.481795
O O14 0.188994 0.486512 0.475553
O O15 0.422762 0.107475 0.250000
O O16 0.110728 0.985765 0.250000
O O17 0.122712 0.930232 0.005163
O O18 0.000000 0.000000 0.000000
O O19 0.800158 0.392819 0.750000
#
# Coordination Sequence:
#
# PCOD9436563 Si02
#       7
#     8   8   8   8   8   8   8
#     4   9  16  27  41  59  85 120 155 181 207 243
#     4   9  16  26  41  62  89 121 153 180 207 247
#     4   9  15  25  41  60  86 119 147 169 202 249
#     4   9  18  29  42  63  86 109 142 180 214 256
#     4   9  15  26  43  60  85 119 148 173 207 250
#     4  10  20  33  48  66  87 111 144 186 231 275
#     4   9  16  28  45  65  89 119 150 177 213 261
#
# _framework density 17.033337
#
# number of rings (size 3 to 8) (size 9 to 14) (size 15 to 20)
#    0.000    2.857    1.429    0.857    0.000    1.143 
#    0.000    1.429    0.000    0.000    0.000    1.000 
#    0.000    2.286    0.000    0.000    0.000    0.000 
#
# Total GULP energy -311909.904708 kJ/mol
# GULP energy per Si atom -5569.819727 kJ/mol
# Density = 1.699457 g / cm^3
# Si number density = 17.033337 Si / 1000 Ang^3
#
#
#
# Elastic Constant Matrix: (Units=GPa)
#
#
# Indices 1 2 3 4 5 6 
#
# 1 66.7767 79.1247 4.2188 0.0000 0.0000 0.0000
# 2 79.1247 163.9223 9.4990 0.0000 0.0000 0.0000
# 3 4.2188 9.4990 13.1121 0.0000 0.0000 0.0000
# 4 0.0000 0.0000 0.0000 20.5659 0.0000 0.0000
# 5 0.0000 0.0000 0.0000 0.0000 9.2662 0.0000
# 6 0.0000 0.0000 0.0000 0.0000 0.0000 20.6715
#
#
#
# Elastic Compliance Matrix: (Units=1/GPa)
#
#
# Indices 1 2 3 4 5 6 
#
# 1 0.034998 -0.016953 0.001021 0.000000 0.000000 0.000000
# 2 -0.016953 0.014579 -0.005107 0.000000 0.000000 0.000000
# 3 0.001021 -0.005107 0.079637 0.000000 0.000000 0.000000
# 4 0.000000 0.000000 0.000000 0.048624 0.000000 0.000000
# 5 0.000000 0.000000 0.000000 0.000000 0.107919 0.000000
# 6 0.000000 0.000000 0.000000 0.000000 0.000000 0.048376
#
#
# Mechanical properties :
#
#
# Convention : Reuss Voigt Hill
#
# Bulk Modulus (GPa) = 11.47638 47.72179 29.59909
# Shear Modulus (GPa) = 12.33781 20.16529 16.25155
#
# Velocity S-wave (km/s) = 2.69426 3.44448 3.09221
# Velocity P-wave (km/s) = 4.05351 6.62546 5.49216
#
# Compressibility (1/GPa) = 0.08713549
#
# Stress axis : x y z
#
# Youngs Moduli (GPa) = 28.57281 68.58982 12.55699
#
# Poissons Ratio (x) = 1.16278 -0.01282
# Poissons Ratio (y) = 0.48439 0.06413
# Poissons Ratio (z) = -0.02916 0.35032
#
# Static dielectric constant tensor:
#      x y z
#    x 1.502820 0.000000 0.000000 
#    y 0.000000 1.612800 0.000000 
#    z 0.000000 0.000000 1.620440 
# 
# From -- ./inp_files/5879.got.cif
#   From: 2010.05.17/outbox.cif.g08.bks.cpg/sg57_3_cif.got.tgz:5879.got - 2010.06.03 13:58:18.
