data_PCOD9436722
_publ_section_title
;
Structure prediction by ZEFSAII (Michael W. Deem and Ramdas Pophale) SiO2 
 PCOD9436722
Probable space group: P B C M
;
_chemical_formula_sum "Si O2"
_cell_formula_units_Z 48
_cell_length_a 9.847169
_cell_length_b 18.632866
_cell_length_c 11.497188
_cell_angle_alpha 90.000000
_cell_angle_beta 90.000000
_cell_angle_gamma 90.000000
_cell_volume 2109.515327
_symmetry_space_group_name_H-M "P B C M"
_symmetry_group_IT_number 57
_symmetry_cell_setting 'orthorhombic'
loop_
_space_group_symop_operation_xyz
x,y,z
-x,-y,1/2+z
x,1/2-y,-z
-x,1/2+y,1/2-z
-x,-y,-z
x,y,1/2-z
-x,1/2+y,z
x,1/2-y,1/2+z
loop_
_atom_site_type_symbol
_atom_site_label
_atom_site_fract_x
_atom_site_fract_y
_atom_site_fract_z
Si Si1 0.410920 0.569183 0.871033
Si Si2 0.177246 0.861910 0.877684
Si Si3 0.842782 0.535134 0.881640
Si Si4 0.103664 0.873033 0.377159
Si Si5 0.707191 0.917245 0.877078
Si Si6 0.481980 0.825429 0.936797
O O1 0.475880 0.590023 0.750000
O O2 0.256631 0.597621 0.872498
O O3 0.397916 0.484429 0.876366
O O4 0.484407 0.611215 0.969336
O O5 0.119208 0.844368 0.750000
O O6 0.333608 0.834411 0.879033
O O7 0.177043 0.949198 0.888420
O O8 0.102346 0.835510 0.995686
O O9 0.791403 0.555298 0.750000
O O10 0.998604 0.561172 0.881410
O O11 0.784730 0.571261 0.000277
O O12 0.080208 0.836240 0.250000
O O13 0.781639 0.924234 0.750000
O O14 0.620492 0.844237 0.871985
O O15 0.485397 0.750000 0.000000
#
# Coordination Sequence:
#
# PCOD9436722 Si02
#       6
#     8   8   8   8   8   8
#     4   9  19  34  58  87 115 147 189 243 298 347
#     4  10  20  33  55  87 119 150 192 240 289 344
#     4  10  20  33  56  90 125 153 185 236 292 351
#     4   9  17  32  54  88 124 153 183 228 294 353
#     4  11  22  37  58  86 117 149 195 248 294 348
#     4  11  23  39  56  79 116 158 200 243 298 357
#
# _framework density 22.754041000000001
#
# number of rings (size 3 to 8) (size 9 to 14) (size 15 to 20)
#    0.000    2.000    3.333    1.500    0.000    2.667 
#    0.000    0.000    0.000    4.000    0.000    4.667 
#    0.000    0.000    0.000    0.000    0.000    0.000 
#
# Total GULP energy -267238.542356 kJ/mol
# GULP energy per Si atom -5567.469632 kJ/mol
# Density = 2.270225 g / cm^3
# Si number density = 22.754041 Si / 1000 Ang^3
#
#
#
# Elastic Constant Matrix: (Units=GPa)
#
#
# Indices 1 2 3 4 5 6 
#
# 1 44.2976 14.7795 30.5128 0.0000 0.0000 0.0000
# 2 14.7795 20.7373 12.1498 0.0000 0.0000 0.0000
# 3 30.5128 12.1498 248.2438 0.0000 0.0000 0.0000
# 4 0.0000 0.0000 0.0000 -12.6742 0.0000 0.0000
# 5 0.0000 0.0000 0.0000 0.0000 40.4908 0.0000
# 6 0.0000 0.0000 0.0000 0.0000 0.0000 10.4464
#
#
#
# Elastic Compliance Matrix: (Units=1/GPa)
#
#
# Indices 1 2 3 4 5 6 
#
# 1 0.031463 -0.020753 -0.002852 0.000000 0.000000 0.000000
# 2 -0.020753 0.063335 -0.000549 0.000000 0.000000 0.000000
# 3 -0.002852 -0.000549 0.004406 0.000000 0.000000 0.000000
# 4 0.000000 0.000000 0.000000 -0.078900 0.000000 0.000000
# 5 0.000000 0.000000 0.000000 0.000000 0.024697 0.000000
# 6 0.000000 0.000000 0.000000 0.000000 0.000000 0.095726
#
#
# Mechanical properties :
#
#
# Convention : Reuss Voigt Hill
#
# Bulk Modulus (GPa) = 19.64778 47.57365 33.61072
# Shear Modulus (GPa) = 24.27209 24.70838 24.49023
#
# Velocity S-wave (km/s) = 3.26960 3.29886 3.28426
# Velocity P-wave (km/s) = 4.78616 5.95509 5.40234
#
# Compressibility (1/GPa) = 0.05089633
#
# Stress axis : x y z
#
# Youngs Moduli (GPa) = 31.78368 15.78917 226.98082
#
# Poissons Ratio (x) = 0.32767 0.64724
# Poissons Ratio (y) = 0.65960 0.12460
# Poissons Ratio (z) = 0.09063 0.00867
#
# Static dielectric constant tensor:
#      x y z
#    x 1.844640 0.000000 0.000000 
#    y 0.000000 1.786420 0.000000 
#    z 0.000000 0.000000 5.315870 
# 
# From -- ./inp_files/12931.got.cif
#   From: 2010.05.17/outbox.cif.g08.bks.cpg/sg57_7_cif.got.tgz:12931.got - 2010.06.03 13:58:18.
