data_PCOD9436439
_publ_section_title
;
Structure prediction by ZEFSAII (Michael W. Deem and Ramdas Pophale) SiO2 
 PCOD9436439
Probable space group: P B C M
;
_chemical_formula_sum "Si O2"
_cell_formula_units_Z 48
_cell_length_a 13.916261
_cell_length_b 10.260257
_cell_length_c 15.836160
_cell_angle_alpha 90.000000
_cell_angle_beta 90.000000
_cell_angle_gamma 90.000000
_cell_volume 2261.156831
_symmetry_space_group_name_H-M "P B C M"
_symmetry_group_IT_number 57
_symmetry_cell_setting 'orthorhombic'
loop_
_space_group_symop_operation_xyz
x,y,z
-x,-y,1/2+z
x,1/2-y,-z
-x,1/2+y,1/2-z
-x,-y,-z
x,y,1/2-z
-x,1/2+y,z
x,1/2-y,1/2+z
loop_
_atom_site_type_symbol
_atom_site_label
_atom_site_fract_x
_atom_site_fract_y
_atom_site_fract_z
Si Si1 0.071375 0.952413 0.649987
Si Si2 0.212554 0.730313 0.899896
Si Si3 0.430207 0.427995 0.151512
Si Si4 0.147164 0.447498 0.647540
Si Si5 0.574268 0.208839 0.402629
Si Si6 0.778276 0.832180 0.146391
O O1 0.062526 0.975973 0.750000
O O2 0.126792 0.816563 0.637981
O O3 0.963221 0.950452 0.616137
O O4 0.139844 0.067337 0.616360
O O5 0.199533 0.578989 0.879595
O O6 0.316295 0.781121 0.869105
O O7 0.208543 0.750000 0.000000
O O8 0.419979 0.461128 0.250000
O O9 0.460562 0.560971 0.106393
O O10 0.505233 0.311435 0.142194
O O11 0.326373 0.380516 0.118922
O O12 0.145858 0.444841 0.750000
O O13 0.197894 0.314423 0.619285
O O14 0.576526 0.250000 0.500000
O O15 0.778205 0.833443 0.250000
#
# Coordination Sequence:
#
# PCOD9436439 Si02
#       6
#     8   8   8   8   8   8
#     4  10  19  38  64  88 121 162 204 254 307 356
#     4  11  24  40  60  88 127 166 204 246 304 369
#     4  11  23  41  66  95 122 160 210 263 310 363
#     4  10  21  37  63  93 120 159 207 254 302 360
#     4  11  25  44  64  89 129 168 206 254 316 380
#     4   9  19  36  58  90 123 151 197 256 307 353
#
# _framework density 21.228071
#
# number of rings (size 3 to 8) (size 9 to 14) (size 15 to 20)
#    0.000    1.667    1.667    2.500    2.333    5.333 
#    0.000    0.833    0.000    0.000    0.000    0.000 
#    0.000    0.000    0.000    0.000    0.000    0.000 
#
# Total GULP energy -268387.990321 kJ/mol
# GULP energy per Si atom -5591.416465 kJ/mol
# Density = 2.117976 g / cm^3
# Si number density = 21.228071 Si / 1000 Ang^3
#
#
#
# Elastic Constant Matrix: (Units=GPa)
#
#
# Indices 1 2 3 4 5 6 
#
# 1 61.7363 24.3378 5.7413 0.0000 0.0000 0.0000
# 2 24.3378 157.1702 4.4325 0.0000 0.0000 0.0000
# 3 5.7413 4.4325 17.8497 0.0000 0.0000 0.0000
# 4 0.0000 0.0000 0.0000 18.3647 0.0000 0.0000
# 5 0.0000 0.0000 0.0000 0.0000 121.6654 0.0000
# 6 0.0000 0.0000 0.0000 0.0000 0.0000 41.1079
#
#
#
# Elastic Compliance Matrix: (Units=1/GPa)
#
#
# Indices 1 2 3 4 5 6 
#
# 1 0.017691 -0.002597 -0.005045 0.000000 0.000000 0.000000
# 2 -0.002597 0.006789 -0.000850 0.000000 0.000000 0.000000
# 3 -0.005045 -0.000850 0.057857 0.000000 0.000000 0.000000
# 4 0.000000 0.000000 0.000000 0.054452 0.000000 0.000000
# 5 0.000000 0.000000 0.000000 0.000000 0.008219 0.000000
# 6 0.000000 0.000000 0.000000 0.000000 0.000000 0.024326
#
#
# Mechanical properties :
#
#
# Convention : Reuss Voigt Hill
#
# Bulk Modulus (GPa) = 15.30197 33.97550 24.63873
# Shear Modulus (GPa) = 24.02643 49.71056 36.86849
#
# Velocity S-wave (km/s) = 3.36791 4.84440 4.17199
# Velocity P-wave (km/s) = 4.72734 6.87973 5.90248
#
# Compressibility (1/GPa) = 0.06535108
#
# Stress axis : x y z
#
# Youngs Moduli (GPa) = 56.52602 147.30400 17.28394
#
# Poissons Ratio (x) = 0.38257 0.08720
# Poissons Ratio (y) = 0.14681 0.01470
# Poissons Ratio (z) = 0.28519 0.12527
#
# Static dielectric constant tensor:
#      x y z
#    x 1.758360 0.000000 0.000000 
#    y 0.000000 1.724140 0.000000 
#    z 0.000000 0.000000 1.995280 
# 
# From -- ./inp_files/22398.got.cif
#   From: 2010.05.17/outbox.cif.g08.bks.cpg/sg57_12_cif.got.tgz:22398.got - 2010.06.03 13:58:18.
