data_PCOD9436397
_publ_section_title
;
Structure prediction by ZEFSAII (Michael W. Deem and Ramdas Pophale) SiO2 
 PCOD9436397
Probable space group: P B C M
;
_chemical_formula_sum "Si O2"
_cell_formula_units_Z 64
_cell_length_a 5.261766
_cell_length_b 24.429880
_cell_length_c 22.040245
_cell_angle_alpha 90.000000
_cell_angle_beta 90.000000
_cell_angle_gamma 90.000000
_cell_volume 2833.148129
_symmetry_space_group_name_H-M "P B C M"
_symmetry_group_IT_number 57
_symmetry_cell_setting 'orthorhombic'
loop_
_space_group_symop_operation_xyz
x,y,z
-x,-y,1/2+z
x,1/2-y,-z
-x,1/2+y,1/2-z
-x,-y,-z
x,y,1/2-z
-x,1/2+y,z
x,1/2-y,1/2+z
loop_
_atom_site_type_symbol
_atom_site_label
_atom_site_fract_x
_atom_site_fract_y
_atom_site_fract_z
Si Si1 0.495768 0.417717 0.989054
Si Si2 0.526296 0.973176 0.317485
Si Si3 0.235872 0.705476 0.677158
Si Si4 0.186592 0.509930 0.563897
Si Si5 0.062191 0.814700 0.615040
Si Si6 0.741128 0.855169 0.176475
Si Si7 0.565012 0.695332 0.037378
Si Si8 0.210887 0.933979 0.628145
O O1 0.291635 0.466233 0.986748
O O2 0.388267 0.358592 0.003595
O O3 0.566000 0.416016 0.917659
O O4 0.737910 0.433994 0.029480
O O5 0.415789 0.963727 0.250000
O O6 0.334258 0.981866 0.372462
O O7 0.687119 0.029231 0.317606
O O8 0.686518 0.919039 0.334449
O O9 0.245239 0.701985 0.750000
O O10 0.507606 0.682947 0.654798
O O11 0.153932 0.766724 0.659647
O O12 0.011747 0.665827 0.653788
O O13 0.942687 0.478270 0.588388
O O14 0.780302 0.805127 0.589387
O O15 0.275743 0.809652 0.562004
O O16 0.072560 0.876772 0.641151
O O17 0.748394 0.849908 0.250000
O O18 0.591652 0.750000 0.000000
#
# Coordination Sequence:
#
# PCOD9436397 Si02
#       8
#     8   8   8   8   8   8   8   8
#     4   9  20  37  59  87 122 155 214 256 305 381
#     4  10  23  39  58  92 127 162 209 264 324 382
#     4  10  21  39  63  89 119 166 213 252 310 379
#     4  10  19  37  62  87 115 167 207 254 314 377
#     4  11  23  41  66  89 133 165 208 262 319 377
#     4   9  20  39  60  85 123 162 206 265 310 364
#     4  11  23  42  61  93 128 166 205 267 327 371
#     4  10  21  38  61  88 125 167 205 261 326 373
#
# _framework density 22.589711000000001
#
# number of rings (size 3 to 8) (size 9 to 14) (size 15 to 20)
#    0.000    2.000    1.250    1.500    1.750    3.000 
#    0.000    0.000    0.000    0.000    0.000    0.000 
#    0.000    0.000    0.000    0.000    0.000    0.000 
#
# Total GULP energy -356752.432385 kJ/mol
# GULP energy per Si atom -5574.256756 kJ/mol
# Density = 2.253830 g / cm^3
# Si number density = 22.589711 Si / 1000 Ang^3
#
#
#
# Elastic Constant Matrix: (Units=GPa)
#
#
# Indices 1 2 3 4 5 6 
#
# 1 45.0080 0.1580 2.2525 0.0000 0.0000 0.0000
# 2 0.1580 122.1070 24.2208 0.0000 0.0000 0.0000
# 3 2.2525 24.2208 52.2453 0.0000 0.0000 0.0000
# 4 0.0000 0.0000 0.0000 35.8681 0.0000 0.0000
# 5 0.0000 0.0000 0.0000 0.0000 22.5652 0.0000
# 6 0.0000 0.0000 0.0000 0.0000 0.0000 22.3436
#
#
#
# Elastic Compliance Matrix: (Units=1/GPa)
#
#
# Indices 1 2 3 4 5 6 
#
# 1 0.022270 0.000178 -0.001043 0.000000 0.000000 0.000000
# 2 0.000178 0.009020 -0.004189 0.000000 0.000000 0.000000
# 3 -0.001043 -0.004189 0.021128 0.000000 0.000000 0.000000
# 4 0.000000 0.000000 0.000000 0.027880 0.000000 0.000000
# 5 0.000000 0.000000 0.000000 0.000000 0.044316 0.000000
# 6 0.000000 0.000000 0.000000 0.000000 0.000000 0.044755
#
#
# Mechanical properties :
#
#
# Convention : Reuss Voigt Hill
#
# Bulk Modulus (GPa) = 23.63532 30.29143 26.96337
# Shear Modulus (GPa) = 25.82902 29.00398 27.41650
#
# Velocity S-wave (km/s) = 3.38508 3.58711 3.48756
# Velocity P-wave (km/s) = 5.07582 5.53127 5.30843
#
# Compressibility (1/GPa) = 0.04230956
#
# Stress axis : x y z
#
# Youngs Moduli (GPa) = 44.90380 110.86077 47.33126
#
# Poissons Ratio (x) = -0.01973 0.04935
# Poissons Ratio (y) = -0.00799 0.19829
# Poissons Ratio (z) = 0.04682 0.46445
#
# Static dielectric constant tensor:
#      x y z
#    x 1.918980 0.000000 0.000000 
#    y 0.000000 1.923790 0.000000 
#    z 0.000000 0.000000 1.842540 
# 
# From -- ./inp_files/26383.got.cif
#   From: 2010.05.17/outbox.cif.g08.bks.cpg/sg57_14_cif.got.tgz:26383.got - 2010.06.03 13:58:18.
