data_PCOD9436551
_publ_section_title
;
Structure prediction by ZEFSAII (Michael W. Deem and Ramdas Pophale) SiO2 
 PCOD9436551
Probable space group: P B C M
;
_chemical_formula_sum "Si O2"
_cell_formula_units_Z 44
_cell_length_a 15.388826
_cell_length_b 8.571129
_cell_length_c 14.198082
_cell_angle_alpha 90.000000
_cell_angle_beta 90.000000
_cell_angle_gamma 90.000000
_cell_volume 1872.721518
_symmetry_space_group_name_H-M "P B C M"
_symmetry_group_IT_number 57
_symmetry_cell_setting 'orthorhombic'
loop_
_space_group_symop_operation_xyz
x,y,z
-x,-y,1/2+z
x,1/2-y,-z
-x,1/2+y,1/2-z
-x,-y,-z
x,y,1/2-z
-x,1/2+y,z
x,1/2-y,1/2+z
loop_
_atom_site_type_symbol
_atom_site_label
_atom_site_fract_x
_atom_site_fract_y
_atom_site_fract_z
Si Si1 0.150301 0.250000 0.500000
Si Si2 0.981756 0.903817 0.860105
Si Si3 0.600826 0.470026 0.638633
Si Si4 0.729141 0.032290 0.984059
Si Si5 0.129895 0.706571 0.639735
Si Si6 0.590562 0.842071 0.638531
O O1 0.088845 0.194431 0.416307
O O2 0.211432 0.105916 0.525934
O O3 0.979040 0.863664 0.750000
O O4 0.079900 0.863885 0.891744
O O5 0.948132 0.079701 0.868585
O O6 0.618103 0.444780 0.750000
O O7 0.598443 0.656876 0.620740
O O8 0.506880 0.398240 0.616097
O O9 0.673193 0.399863 0.570121
O O10 0.660266 0.945448 0.916107
O O11 0.792304 0.140714 0.922411
O O12 0.155603 0.716755 0.750000
O O13 0.603449 0.865910 0.750000
#
# Coordination Sequence:
#
# PCOD9436551 Si02
#       6
#     4   8   8   8   8   8
#     4  10  20  32  58  84 108 142 194 234 274 328
#     4   9  19  35  56  82 112 147 187 232 283 333
#     4  10  21  36  59  84 113 151 187 228 281 334
#     4  11  19  33  56  87 113 143 189 234 274 334
#     4   9  19  36  61  84 110 147 190 236 282 332
#     4  10  20  36  59  83 112 149 187 229 279 337
#
# _framework density 23.495217
#
# number of rings (size 3 to 8) (size 9 to 14) (size 15 to 20)
#    0.000    2.182    1.818    1.091    0.000    4.364 
#    0.000    0.000   12.000    1.091    0.000    0.000 
#    0.000    0.000    0.000    0.000    0.000    0.000 
#
# Total GULP energy -246386.733001 kJ/mol
# GULP energy per Si atom -5599.698477 kJ/mol
# Density = 2.344174 g / cm^3
# Si number density = 23.495217 Si / 1000 Ang^3
#
#
#
# Elastic Constant Matrix: (Units=GPa)
#
#
# Indices 1 2 3 4 5 6 
#
# 1 137.5604 65.1013 68.3422 0.0000 0.0000 0.0000
# 2 65.1013 64.1053 43.6103 0.0000 0.0000 0.0000
# 3 68.3422 43.6103 84.8274 0.0000 0.0000 0.0000
# 4 0.0000 0.0000 0.0000 29.9457 0.0000 0.0000
# 5 0.0000 0.0000 0.0000 0.0000 37.1082 0.0000
# 6 0.0000 0.0000 0.0000 0.0000 0.0000 -6.5710
#
#
#
# Elastic Compliance Matrix: (Units=1/GPa)
#
#
# Indices 1 2 3 4 5 6 
#
# 1 0.016405 -0.011793 -0.007154 0.000000 0.000000 0.000000
# 2 -0.011793 0.032467 -0.007190 0.000000 0.000000 0.000000
# 3 -0.007154 -0.007190 0.021249 0.000000 0.000000 0.000000
# 4 0.000000 0.000000 0.000000 0.033394 0.000000 0.000000
# 5 0.000000 0.000000 0.000000 0.000000 0.026948 0.000000
# 6 0.000000 0.000000 0.000000 0.000000 0.000000 -0.152184
#
#
# Mechanical properties :
#
#
# Convention : Reuss Voigt Hill
#
# Bulk Modulus (GPa) = 56.03408 71.17787 63.60598
# Shear Modulus (GPa) = 136.97772 19.39253 78.18513
#
# Velocity S-wave (km/s) = 7.64374 2.87606 5.77488
# Velocity P-wave (km/s) = 10.08976 6.43346 8.46146
#
# Compressibility (1/GPa) = 0.01784628
#
# Stress axis : x y z
#
# Youngs Moduli (GPa) = 60.95791 30.80042 47.06126
#
# Poissons Ratio (x) = 0.36323 0.33667
# Poissons Ratio (y) = 0.71887 0.33839
# Poissons Ratio (z) = 0.43609 0.22147
#
# Static dielectric constant tensor:
#      x y z
#    x 1.848020 0.000000 0.000000 
#    y 0.000000 1.939830 0.000000 
#    z 0.000000 0.000000 1.868720 
# 
# From -- ./inp_files/22342.got.cif
#   From: 2010.05.17/outbox.cif.g08.bks.cpg/sg57_12_cif.got.tgz:22342.got - 2010.06.03 13:58:18.
