data_PCOD9436924
_publ_section_title
;
Structure prediction by ZEFSAII (Michael W. Deem and Ramdas Pophale) SiO2 
 PCOD9436924
Probable space group: P B C M
;
_chemical_formula_sum "Si O2"
_cell_formula_units_Z 64
_cell_length_a 11.914461
_cell_length_b 30.589807
_cell_length_c 9.219872
_cell_angle_alpha 90.000000
_cell_angle_beta 90.000000
_cell_angle_gamma 90.000000
_cell_volume 3360.284345
_symmetry_space_group_name_H-M "P B C M"
_symmetry_group_IT_number 57
_symmetry_cell_setting 'orthorhombic'
loop_
_space_group_symop_operation_xyz
x,y,z
-x,-y,1/2+z
x,1/2-y,-z
-x,1/2+y,1/2-z
-x,-y,-z
x,y,1/2-z
-x,1/2+y,z
x,1/2-y,1/2+z
loop_
_atom_site_type_symbol
_atom_site_label
_atom_site_fract_x
_atom_site_fract_y
_atom_site_fract_z
Si Si1 0.347929 0.650396 0.587202
Si Si2 0.594549 0.024962 0.086930
Si Si3 0.792954 0.884189 0.924890
Si Si4 0.115069 0.298152 0.075029
Si Si5 0.212125 0.560271 0.585576
Si Si6 0.538337 0.884099 0.588617
Si Si7 0.991934 0.951973 0.925292
Si Si8 0.140410 0.703861 0.924426
O O1 0.367562 0.666216 0.750000
O O2 0.291393 0.602521 0.596994
O O3 0.466339 0.648425 0.508550
O O4 0.247153 0.677650 0.517683
O O5 0.610449 0.008236 0.250000
O O6 0.540523 0.073270 0.097150
O O7 0.710895 0.025723 0.999638
O O8 0.500000 0.000000 0.000000
O O9 0.803083 0.878565 0.750000
O O10 0.663679 0.896447 0.959886
O O11 0.882584 0.922494 0.962709
O O12 0.815966 0.837928 0.004017
O O13 0.132019 0.294509 0.250000
O O14 0.985394 0.312848 0.048627
O O15 0.131331 0.250000 0.000000
O O16 0.183664 0.546190 0.750000
O O17 0.102323 0.570856 0.492721
O O18 0.549541 0.865625 0.750000
O O19 0.998339 0.955657 0.750000
O O20 0.000000 0.000000 0.000000
O O21 0.150037 0.706524 0.750000
O O22 0.143956 0.750000 0.000000
#
# Coordination Sequence:
#
# PCOD9436924 Si02
#       8
#     8   8   8   8   8   8   8   8
#     4   9  18  34  55  79 107 139 178 225 275 329
#     4  10  20  34  55  81 107 140 184 232 284 339
#     4  10  22  40  59  81 115 156 194 239 293 346
#     4  10  20  36  60  89 118 150 190 236 285 345
#     4  10  20  36  56  77 106 141 180 230 282 331
#     4   9  20  37  55  77 107 145 186 230 281 336
#     4  11  24  39  57  83 115 152 194 241 293 352
#     4   9  18  32  52  81 113 140 173 219 274 329
#
# _framework density 19.046006999999999
#
# number of rings (size 3 to 8) (size 9 to 14) (size 15 to 20)
#    0.000    2.250    0.000    2.250    1.750    4.500 
#    0.000    0.625    0.000    1.500    0.000    0.000 
#    0.000    0.000    0.000    0.000    0.000    0.000 
#
# Total GULP energy -356425.422904 kJ/mol
# GULP energy per Si atom -5569.147233 kJ/mol
# Density = 1.900266 g / cm^3
# Si number density = 19.046007 Si / 1000 Ang^3
#
#
#
# Elastic Constant Matrix: (Units=GPa)
#
#
# Indices 1 2 3 4 5 6 
#
# 1 103.6936 9.9235 38.2615 0.0000 0.0000 0.0000
# 2 9.9235 33.2786 16.1679 0.0000 0.0000 0.0000
# 3 38.2615 16.1679 65.2753 0.0000 0.0000 0.0000
# 4 0.0000 0.0000 0.0000 24.7100 0.0000 0.0000
# 5 0.0000 0.0000 0.0000 0.0000 45.3445 0.0000
# 6 0.0000 0.0000 0.0000 0.0000 0.0000 31.7474
#
#
#
# Elastic Compliance Matrix: (Units=1/GPa)
#
#
# Indices 1 2 3 4 5 6 
#
# 1 0.012306 -0.000188 -0.007167 0.000000 0.000000 0.000000
# 2 -0.000188 0.034163 -0.008352 0.000000 0.000000 0.000000
# 3 -0.007167 -0.008352 0.021589 0.000000 0.000000 0.000000
# 4 0.000000 0.000000 0.000000 0.040469 0.000000 0.000000
# 5 0.000000 0.000000 0.000000 0.000000 0.022053 0.000000
# 6 0.000000 0.000000 0.000000 0.000000 0.000000 0.031499
#
#
# Mechanical properties :
#
#
# Convention : Reuss Voigt Hill
#
# Bulk Modulus (GPa) = 27.28827 36.77258 32.03042
# Shear Modulus (GPa) = 24.30631 29.55334 26.92983
#
# Velocity S-wave (km/s) = 3.57625 3.94341 3.76431
# Velocity P-wave (km/s) = 5.60459 6.33113 5.97891
#
# Compressibility (1/GPa) = 0.03664579
#
# Stress axis : x y z
#
# Youngs Moduli (GPa) = 81.25955 29.27150 46.31930
#
# Poissons Ratio (x) = 0.00549 0.33197
# Poissons Ratio (y) = 0.01525 0.38685
# Poissons Ratio (z) = 0.58238 0.24447
#
# Static dielectric constant tensor:
#      x y z
#    x 1.708950 0.000000 0.000000 
#    y 0.000000 1.698870 0.000000 
#    z 0.000000 0.000000 1.685780 
# 
# From -- ./inp_files/3802.got.cif
#   From: 2010.05.17/outbox.cif.g08.bks.cpg/sg57_2_cif.got.tgz:3802.got - 2010.06.03 13:58:18.
