data_PCOD9436543
_publ_section_title
;
Structure prediction by ZEFSAII (Michael W. Deem and Ramdas Pophale) SiO2 
 PCOD9436543
Probable space group: P B C M
;
_chemical_formula_sum "Si O2"
_cell_formula_units_Z 60
_cell_length_a 12.483415
_cell_length_b 29.768876
_cell_length_c 9.135708
_cell_angle_alpha 90.000000
_cell_angle_beta 90.000000
_cell_angle_gamma 90.000000
_cell_volume 3394.986530
_symmetry_space_group_name_H-M "P B C M"
_symmetry_group_IT_number 57
_symmetry_cell_setting 'orthorhombic'
loop_
_space_group_symop_operation_xyz
x,y,z
-x,-y,1/2+z
x,1/2-y,-z
-x,1/2+y,1/2-z
-x,-y,-z
x,y,1/2-z
-x,1/2+y,z
x,1/2-y,1/2+z
loop_
_atom_site_type_symbol
_atom_site_label
_atom_site_fract_x
_atom_site_fract_y
_atom_site_fract_z
Si Si1 0.759484 0.048971 0.073327
Si Si2 0.533267 0.047438 0.926192
Si Si3 0.966060 0.266132 0.750000
Si Si4 0.838164 0.957571 0.576581
Si Si5 0.361516 0.391689 0.579172
Si Si6 0.023028 0.312960 0.476477
Si Si7 0.267116 0.296114 0.924954
Si Si8 0.961487 0.086201 0.581100
O O1 0.754505 0.049218 0.250000
O O2 0.646057 0.060400 0.999365
O O3 0.851941 0.080606 0.008346
O O4 0.790624 0.999685 0.011205
O O5 0.540867 0.042867 0.750000
O O6 0.444936 0.083918 0.973661
O O7 0.500000 0.000000 0.000000
O O8 0.957887 0.304385 0.623268
O O9 0.990086 0.226839 0.629229
O O10 0.851124 0.967429 0.750000
O O11 0.752244 0.917170 0.565649
O O12 0.948624 0.942811 0.502347
O O13 0.395245 0.396866 0.750000
O O14 0.341935 0.339150 0.548919
O O15 0.148897 0.307316 0.514653
O O16 0.000200 0.362459 0.419110
O O17 0.255918 0.289609 0.750000
O O18 0.303783 0.250000 0.000000
O O19 0.948644 0.071352 0.750000
#
# Coordination Sequence:
#
# PCOD9436543 Si02
#       8
#     8   8   4   8   8   8   8   8
#     4  12  26  43  63  86 116 160 205 251 303 356
#     4  12  24  42  66  90 118 153 202 252 300 355
#     4  10  20  32  54  82 116 158 200 244 292 352
#     4  11  22  39  61  86 126 162 200 243 294 359
#     4  10  22  37  60  91 121 160 201 247 300 351
#     4  11  19  34  54  84 120 157 198 242 294 359
#     4  11  20  34  55  86 123 159 195 243 297 354
#     4  12  25  38  57  88 126 164 201 244 299 365
#
# _framework density 17.673117999999999
#
# number of rings (size 3 to 8) (size 9 to 14) (size 15 to 20)
#    0.000    0.800    5.333    3.600    1.867    1.067 
#    0.000    0.000    0.000    0.000    3.467    0.000 
#    0.000    0.000    0.000    0.000    0.000    0.000 
#
# Total GULP energy -334030.949302 kJ/mol
# GULP energy per Si atom -5567.182488 kJ/mol
# Density = 1.763289 g / cm^3
# Si number density = 17.673118 Si / 1000 Ang^3
#
#
#
# Elastic Constant Matrix: (Units=GPa)
#
#
# Indices 1 2 3 4 5 6 
#
# 1 82.7743 20.9903 49.5140 0.0000 0.0000 0.0000
# 2 20.9903 89.1995 37.6896 0.0000 0.0000 0.0000
# 3 49.5140 37.6896 177.2641 0.0000 0.0000 0.0000
# 4 0.0000 0.0000 0.0000 31.3499 0.0000 0.0000
# 5 0.0000 0.0000 0.0000 0.0000 28.1077 0.0000
# 6 0.0000 0.0000 0.0000 0.0000 0.0000 12.9912
#
#
#
# Elastic Compliance Matrix: (Units=1/GPa)
#
#
# Indices 1 2 3 4 5 6 
#
# 1 0.014794 -0.001907 -0.003727 0.000000 0.000000 0.000000
# 2 -0.001907 0.012563 -0.002139 0.000000 0.000000 0.000000
# 3 -0.003727 -0.002139 0.007137 0.000000 0.000000 0.000000
# 4 0.000000 0.000000 0.000000 0.031898 0.000000 0.000000
# 5 0.000000 0.000000 0.000000 0.000000 0.035577 0.000000
# 6 0.000000 0.000000 0.000000 0.000000 0.000000 0.076975
#
#
# Mechanical properties :
#
#
# Convention : Reuss Voigt Hill
#
# Bulk Modulus (GPa) = 52.77076 62.84732 57.80904
# Shear Modulus (GPa) = 24.89970 30.55933 27.72952
#
# Velocity S-wave (km/s) = 3.75761 4.16281 3.96539
# Velocity P-wave (km/s) = 6.98214 7.66443 7.33123
#
# Compressibility (1/GPa) = 0.01894989
#
# Stress axis : x y z
#
# Youngs Moduli (GPa) = 67.59551 79.59817 140.11449
#
# Poissons Ratio (x) = 0.15176 0.52219
# Poissons Ratio (y) = 0.12887 0.29965
# Poissons Ratio (z) = 0.25192 0.17023
#
# Static dielectric constant tensor:
#      x y z
#    x 1.602320 0.000000 0.000000 
#    y 0.000000 1.606250 0.000000 
#    z 0.000000 0.000000 1.612850 
# 
# From -- ./inp_files/3665.got.cif
#   From: 2010.05.17/outbox.cif.g08.bks.cpg/sg57_2_cif.got.tgz:3665.got - 2010.06.03 13:58:18.
