data_PCOD9436450
_publ_section_title
;
Structure prediction by ZEFSAII (Michael W. Deem and Ramdas Pophale) SiO2 
 PCOD9436450
Probable space group: P B C M
;
_chemical_formula_sum "Si O2"
_cell_formula_units_Z 28
_cell_length_a 9.575323
_cell_length_b 13.311470
_cell_length_c 10.214830
_cell_angle_alpha 90.000000
_cell_angle_beta 90.000000
_cell_angle_gamma 90.000000
_cell_volume 1301.998829
_symmetry_space_group_name_H-M "P B C M"
_symmetry_group_IT_number 57
_symmetry_cell_setting 'orthorhombic'
loop_
_space_group_symop_operation_xyz
x,y,z
-x,-y,1/2+z
x,1/2-y,-z
-x,1/2+y,1/2-z
-x,-y,-z
x,y,1/2-z
-x,1/2+y,z
x,1/2-y,1/2+z
loop_
_atom_site_type_symbol
_atom_site_label
_atom_site_fract_x
_atom_site_fract_y
_atom_site_fract_z
Si Si1 0.752153 0.361802 0.250000
Si Si2 0.564975 0.960772 0.750000
Si Si3 0.219677 0.341991 0.902032
Si Si4 0.071301 0.627894 0.003726
Si Si5 0.258126 0.621603 0.250000
O O1 0.608995 0.423676 0.250000
O O2 0.847454 0.393690 0.371655
O O3 0.722418 0.243045 0.250000
O O4 0.644250 0.908870 0.626456
O O5 0.404392 0.934563 0.750000
O O6 0.177532 0.310892 0.750000
O O7 0.088730 0.099526 0.033517
O O8 0.250816 0.250000 0.000000
O O9 0.061168 0.750000 0.000000
O O10 0.167181 0.596930 0.123855
#
# Coordination Sequence:
#
# PCOD9436450 Si02
#       5
#     4   4   8   8   4
#     4  10  22  36  60  88 118 154 202 244 290 344
#     4  10  23  37  57  88 124 150 194 248 299 349
#     4   9  19  36  59  85 116 151 196 239 291 347
#     4   9  18  35  61  83 106 155 198 238 280 353
#     4  10  19  39  61  78 116 158 198 236 291 347
#
# _framework density 21.505395
#
# number of rings (size 3 to 8) (size 9 to 14) (size 15 to 20)
#    0.857    1.714    1.429    0.000    6.000    5.714 
#    0.000    0.000    3.143    0.000    0.000    0.000 
#    0.000    0.000    0.000    0.000    0.000    0.000 
#
# Total GULP energy -156224.007823 kJ/mol
# GULP energy per Si atom -5579.428851 kJ/mol
# Density = 2.145645 g / cm^3
# Si number density = 21.505395 Si / 1000 Ang^3
#
#
#
# Elastic Constant Matrix: (Units=GPa)
#
#
# Indices 1 2 3 4 5 6 
#
# 1 78.6502 13.6324 6.0969 0.0000 0.0000 0.0000
# 2 13.6324 72.3701 17.4131 0.0000 0.0000 0.0000
# 3 6.0969 17.4131 124.0912 0.0000 0.0000 0.0000
# 4 0.0000 0.0000 0.0000 -12.0730 0.0000 0.0000
# 5 0.0000 0.0000 0.0000 0.0000 -1.0993 0.0000
# 6 0.0000 0.0000 0.0000 0.0000 0.0000 34.8445
#
#
#
# Elastic Compliance Matrix: (Units=1/GPa)
#
#
# Indices 1 2 3 4 5 6 
#
# 1 0.013155 -0.002404 -0.000309 0.000000 0.000000 0.000000
# 2 -0.002404 0.014740 -0.001950 0.000000 0.000000 0.000000
# 3 -0.000309 -0.001950 0.008347 0.000000 0.000000 0.000000
# 4 0.000000 0.000000 0.000000 -0.082830 0.000000 0.000000
# 5 0.000000 0.000000 0.000000 0.000000 -0.909692 0.000000
# 6 0.000000 0.000000 0.000000 0.000000 0.000000 0.028699
#
#
# Mechanical properties :
#
#
# Convention : Reuss Voigt Hill
#
# Bulk Modulus (GPa) = 37.15198 38.82180 37.98689
# Shear Modulus (GPa) = -5.49884 20.19905 7.35010
#
# Velocity S-wave (km/s) = -1.60078 3.06805 1.85073
# Velocity P-wave (km/s) = 3.72780 5.53551 4.71902
#
# Compressibility (1/GPa) = 0.02691647
#
# Stress axis : x y z
#
# Youngs Moduli (GPa) = 76.01608 67.84301 119.79709
#
# Poissons Ratio (x) = 0.16307 0.03702
# Poissons Ratio (y) = 0.18272 0.23364
# Poissons Ratio (z) = 0.02349 0.13231
#
# Static dielectric constant tensor:
#      x y z
#    x 1.730500 0.000000 0.000000 
#    y 0.000000 1.866750 0.000000 
#    z 0.000000 0.000000 1.752830 
# 
# From -- ./inp_files/11270.got.cif
#   From: 2010.05.17/outbox.cif.g08.bks.cpg/sg57_6_cif.got.tgz:11270.got - 2010.06.03 13:58:18.
