data_PCOD9436205
_publ_section_title
;
Structure prediction by ZEFSAII (Michael W. Deem and Ramdas Pophale) SiO2 
 PCOD9436205
Probable space group: P B C M
;
_chemical_formula_sum "Si O2"
_cell_formula_units_Z 48
_cell_length_a 14.816796
_cell_length_b 20.929059
_cell_length_c 8.829997
_cell_angle_alpha 90.000000
_cell_angle_beta 90.000000
_cell_angle_gamma 90.000000
_cell_volume 2738.196177
_symmetry_space_group_name_H-M "P B C M"
_symmetry_group_IT_number 57
_symmetry_cell_setting 'orthorhombic'
loop_
_space_group_symop_operation_xyz
x,y,z
-x,-y,1/2+z
x,1/2-y,-z
-x,1/2+y,1/2-z
-x,-y,-z
x,y,1/2-z
-x,1/2+y,z
x,1/2-y,1/2+z
loop_
_atom_site_type_symbol
_atom_site_label
_atom_site_fract_x
_atom_site_fract_y
_atom_site_fract_z
Si Si1 0.942283 0.681571 0.567656
Si Si2 0.445050 0.940631 0.932606
Si Si3 0.754690 0.021608 0.067971
Si Si4 0.942980 0.058497 0.568369
Si Si5 0.745855 0.629505 0.932174
Si Si6 0.561389 0.818340 0.931381
O O1 0.965675 0.750000 0.500000
O O2 0.943602 0.685167 0.750000
O O3 0.840456 0.661561 0.522670
O O4 0.009700 0.624802 0.521657
O O5 0.448985 0.945255 0.750000
O O6 0.340348 0.946858 0.976570
O O7 0.492722 0.874659 0.978083
O O8 0.500000 0.000000 0.000000
O O9 0.765421 0.026687 0.250000
O O10 0.749751 0.945963 0.031949
O O11 0.841026 0.052048 0.988752
O O12 0.946691 0.054401 0.750000
O O13 0.000000 0.000000 0.500000
O O14 0.735912 0.635385 0.750000
O O15 0.660529 0.661665 0.010965
O O16 0.562013 0.814432 0.750000
O O17 0.536938 0.750000 0.000000
#
# Coordination Sequence:
#
# PCOD9436205 Si02
#       6
#     8   8   8   8   8   8
#     4  10  22  38  55  81 114 148 187 228 280 337
#     4  10  21  37  59  84 113 148 191 234 281 339
#     4  10  20  37  59  86 117 148 184 236 289 334
#     4  11  22  38  59  85 115 149 192 236 279 339
#     4  10  19  35  58  84 117 150 181 232 288 338
#     4  11  23  37  55  84 116 152 193 233 283 343
#
# _framework density 17.529786999999999
#
# number of rings (size 3 to 8) (size 9 to 14) (size 15 to 20)
#    0.000    1.667    3.333    1.500    0.000    5.333 
#    0.000    0.833    0.000    4.000    0.000    0.000 
#    0.000    0.000    0.000    0.000    0.000    0.000 
#
# Total GULP energy -268143.353148 kJ/mol
# GULP energy per Si atom -5586.319857 kJ/mol
# Density = 1.748989 g / cm^3
# Si number density = 17.529787 Si / 1000 Ang^3
#
#
#
# Elastic Constant Matrix: (Units=GPa)
#
#
# Indices 1 2 3 4 5 6 
#
# 1 156.1771 97.6142 41.3166 0.0000 0.0000 0.0000
# 2 97.6142 180.1052 48.0847 0.0000 0.0000 0.0000
# 3 41.3166 48.0847 25.6926 0.0000 0.0000 0.0000
# 4 0.0000 0.0000 0.0000 27.8729 0.0000 0.0000
# 5 0.0000 0.0000 0.0000 0.0000 26.4213 0.0000
# 6 0.0000 0.0000 0.0000 0.0000 0.0000 22.1973
#
#
#
# Elastic Compliance Matrix: (Units=1/GPa)
#
#
# Indices 1 2 3 4 5 6 
#
# 1 0.011742 -0.002644 -0.013934 0.000000 0.000000 0.000000
# 2 -0.002644 0.011692 -0.017632 0.000000 0.000000 0.000000
# 3 -0.013934 -0.017632 0.094328 0.000000 0.000000 0.000000
# 4 0.000000 0.000000 0.000000 0.035877 0.000000 0.000000
# 5 0.000000 0.000000 0.000000 0.000000 0.037848 0.000000
# 6 0.000000 0.000000 0.000000 0.000000 0.000000 0.045051
#
#
# Mechanical properties :
#
#
# Convention : Reuss Voigt Hill
#
# Bulk Modulus (GPa) = 20.26636 81.77845 51.02241
# Shear Modulus (GPa) = 15.55675 26.96226 21.25950
#
# Velocity S-wave (km/s) = 2.98224 3.92609 3.48625
# Velocity P-wave (km/s) = 4.84195 8.20394 6.73607
#
# Compressibility (1/GPa) = 0.04934284
#
# Stress axis : x y z
#
# Youngs Moduli (GPa) = 85.16744 85.52569 10.60134
#
# Poissons Ratio (x) = 0.22609 0.14772
# Poissons Ratio (y) = 0.22515 0.18692
# Poissons Ratio (z) = 1.18674 1.50796
#
# Static dielectric constant tensor:
#      x y z
#    x 1.578980 0.000000 0.000000 
#    y 0.000000 1.578120 0.000000 
#    z 0.000000 0.000000 1.591140 
# 
# From -- ./inp_files/4572.got.cif
#   From: 2010.05.17/outbox.cif.g08.bks.cpg/sg57_3_cif.got.tgz:4572.got - 2010.06.03 13:58:18.
