data_PCOD9436191
_publ_section_title
;
Structure prediction by ZEFSAII (Michael W. Deem and Ramdas Pophale) SiO2 
 PCOD9436191
Probable space group: P B C M
;
_chemical_formula_sum "Si O2"
_cell_formula_units_Z 64
_cell_length_a 22.180773
_cell_length_b 18.234503
_cell_length_c 8.622372
_cell_angle_alpha 90.000000
_cell_angle_beta 90.000000
_cell_angle_gamma 90.000000
_cell_volume 3487.364673
_symmetry_space_group_name_H-M "P B C M"
_symmetry_group_IT_number 57
_symmetry_cell_setting 'orthorhombic'
loop_
_space_group_symop_operation_xyz
x,y,z
-x,-y,1/2+z
x,1/2-y,-z
-x,1/2+y,1/2-z
-x,-y,-z
x,y,1/2-z
-x,1/2+y,z
x,1/2-y,1/2+z
loop_
_atom_site_type_symbol
_atom_site_label
_atom_site_fract_x
_atom_site_fract_y
_atom_site_fract_z
Si Si1 0.314554 0.544719 0.936367
Si Si2 0.995825 0.669821 0.563838
Si Si3 0.123203 0.403224 0.563788
Si Si4 0.108417 0.927715 0.438620
Si Si5 0.565276 0.519665 0.563661
Si Si6 0.776365 0.331947 0.063005
Si Si7 0.253116 0.101438 0.563686
Si Si8 0.376682 0.172550 0.935920
O O1 0.315139 0.539484 0.750000
O O2 0.282436 0.620664 0.981035
O O3 0.381533 0.532488 0.000703
O O4 0.273713 0.478260 0.001556
O O5 0.011380 0.750000 0.500000
O O6 0.995173 0.672002 0.750000
O O7 0.930998 0.644848 0.502197
O O8 0.046485 0.611164 0.512980
O O9 0.121952 0.401164 0.750000
O O10 0.114074 0.487997 0.511295
O O11 0.188578 0.378606 0.504850
O O12 0.109480 0.928701 0.250000
O O13 0.165058 0.878349 0.489343
O O14 0.500000 0.500000 0.500000
O O15 0.565623 0.516768 0.750000
O O16 0.584382 0.602155 0.514751
O O17 0.778460 0.328923 0.250000
O O18 0.776574 0.250000 0.000000
O O19 0.250370 0.099096 0.750000
O O20 0.307631 0.155316 0.516652
O O21 0.378054 0.174846 0.750000
O O22 0.397349 0.250000 0.000000
#
# Coordination Sequence:
#
# PCOD9436191 Si02
#       8
#     8   8   8   8   8   8   8   8
#     4  10  19  35  58  82 114 150 186 229 280 333
#     4  11  23  39  56  77 108 145 187 236 289 346
#     4  11  21  37  59  82 110 145 186 235 290 345
#     4   9  19  37  58  80 109 142 186 236 283 342
#     4  10  21  38  60  88 118 151 195 236 277 331
#     4  10  20  35  55  83 114 146 185 232 285 340
#     4  10  20  35  55  83 114 145 187 233 278 336
#     4   9  20  36  56  84 117 147 184 232 275 326
#
# _framework density 18.351966000000001
#
# number of rings (size 3 to 8) (size 9 to 14) (size 15 to 20)
#    0.000    2.000    1.250    3.375    0.000    4.500 
#    0.000    4.375    0.000    0.000    0.000    0.000 
#    0.000    0.000    0.000    0.000    0.000    0.000 
#
# Total GULP energy -357387.382878 kJ/mol
# GULP energy per Si atom -5584.177857 kJ/mol
# Density = 1.831020 g / cm^3
# Si number density = 18.351966 Si / 1000 Ang^3
#
#
#
# Elastic Constant Matrix: (Units=GPa)
#
#
# Indices 1 2 3 4 5 6 
#
# 1 114.1847 9.1192 23.2146 0.0000 0.0000 0.0000
# 2 9.1192 47.3288 8.9251 0.0000 0.0000 0.0000
# 3 23.2146 8.9251 41.5626 0.0000 0.0000 0.0000
# 4 0.0000 0.0000 0.0000 29.7531 0.0000 0.0000
# 5 0.0000 0.0000 0.0000 0.0000 24.0566 0.0000
# 6 0.0000 0.0000 0.0000 0.0000 0.0000 16.1041
#
#
#
# Elastic Compliance Matrix: (Units=1/GPa)
#
#
# Indices 1 2 3 4 5 6 
#
# 1 0.009917 -0.000903 -0.005345 0.000000 0.000000 0.000000
# 2 -0.000903 0.022103 -0.004242 0.000000 0.000000 0.000000
# 3 -0.005345 -0.004242 0.027956 0.000000 0.000000 0.000000
# 4 0.000000 0.000000 0.000000 0.033610 0.000000 0.000000
# 5 0.000000 0.000000 0.000000 0.000000 0.041569 0.000000
# 6 0.000000 0.000000 0.000000 0.000000 0.000000 0.062096
#
#
# Mechanical properties :
#
#
# Convention : Reuss Voigt Hill
#
# Bulk Modulus (GPa) = 25.64362 31.73265 28.68813
# Shear Modulus (GPa) = 21.62362 24.77057 23.19710
#
# Velocity S-wave (km/s) = 3.43632 3.67788 3.55915
# Velocity P-wave (km/s) = 5.45417 5.94680 5.70580
#
# Compressibility (1/GPa) = 0.03899605
#
# Stress axis : x y z
#
# Youngs Moduli (GPa) = 100.84198 45.24332 35.76991
#
# Poissons Ratio (x) = 0.04084 0.19119
# Poissons Ratio (y) = 0.09104 0.15174
# Poissons Ratio (z) = 0.53900 0.19193
#
# Static dielectric constant tensor:
#      x y z
#    x 1.617980 0.000000 0.000000 
#    y 0.000000 1.615310 0.000000 
#    z 0.000000 0.000000 1.625360 
# 
# From -- ./inp_files/8431.got.cif
#   From: 2010.05.17/outbox.cif.g08.bks.cpg/sg57_5_cif.got.tgz:8431.got - 2010.06.03 13:58:18.
