data_PCOD9436555
_publ_section_title
;
Structure prediction by ZEFSAII (Michael W. Deem and Ramdas Pophale) SiO2 
 PCOD9436555
Probable space group: P B C M
;
_chemical_formula_sum "Si O2"
_cell_formula_units_Z 40
_cell_length_a 9.307592
_cell_length_b 18.481177
_cell_length_c 10.264453
_cell_angle_alpha 90.000000
_cell_angle_beta 90.000000
_cell_angle_gamma 90.000000
_cell_volume 1765.642502
_symmetry_space_group_name_H-M "P B C M"
_symmetry_group_IT_number 57
_symmetry_cell_setting 'orthorhombic'
loop_
_space_group_symop_operation_xyz
x,y,z
-x,-y,1/2+z
x,1/2-y,-z
-x,1/2+y,1/2-z
-x,-y,-z
x,y,1/2-z
-x,1/2+y,z
x,1/2-y,1/2+z
loop_
_atom_site_type_symbol
_atom_site_label
_atom_site_fract_x
_atom_site_fract_y
_atom_site_fract_z
Si Si1 0.381993 0.598717 0.903040
Si Si2 0.008676 0.174920 0.750000
Si Si3 0.505534 0.250000 0.500000
Si Si4 0.696365 0.974156 0.098099
Si Si5 0.972452 0.915612 0.006182
Si Si6 0.700503 0.740456 0.250000
Si Si7 0.989641 0.665005 0.250000
O O1 0.334072 0.600252 0.750000
O O2 0.401653 0.678862 0.963218
O O3 0.540028 0.561644 0.898198
O O4 0.302914 0.545263 0.005545
O O5 0.966726 0.129048 0.625826
O O6 0.182301 0.193276 0.750000
O O7 0.944908 0.255065 0.750000
O O8 0.400645 0.260959 0.624284
O O9 0.740041 0.988175 0.250000
O O10 0.801345 0.916089 0.031080
O O11 0.024425 0.878066 0.877410
O O12 0.000000 0.000000 0.000000
O O13 0.815939 0.675696 0.250000
#
# Coordination Sequence:
#
# PCOD9436555 Si02
#       7
#     8   4   4   8   8   4   4
#     4  10  22  38  59  88 124 160 201 258 304 383
#     4  10  21  41  59  91 130 149 210 272 317 368
#     4  12  20  34  58  92 118 164 206 252 322 372
#     4  10  22  40  60  85 126 163 204 252 316 369
#     4  12  23  40  65  93 127 168 213 262 318 384
#     4  10  20  32  60  88 124 152 204 270 320 362
#     4  10  23  35  63  95 120 157 202 268 325 366
#
# _framework density 22.654644000000001
#
# number of rings (size 3 to 8) (size 9 to 14) (size 15 to 20)
#    0.600    0.800    2.000    4.800    2.800    0.000 
#    0.000    0.000    4.400    0.000    0.000    0.000 
#    0.000    0.000    0.000    0.000    0.000    0.000 
#
# Total GULP energy -223463.482369 kJ/mol
# GULP energy per Si atom -5586.587059 kJ/mol
# Density = 2.260308 g / cm^3
# Si number density = 22.654644 Si / 1000 Ang^3
#
#
#
# Elastic Constant Matrix: (Units=GPa)
#
#
# Indices 1 2 3 4 5 6 
#
# 1 43.1622 3.3012 13.5235 0.0000 0.0000 0.0000
# 2 3.3012 186.5353 104.5517 0.0000 0.0000 0.0000
# 3 13.5235 104.5517 224.0562 0.0000 0.0000 0.0000
# 4 0.0000 0.0000 0.0000 48.6033 0.0000 0.0000
# 5 0.0000 0.0000 0.0000 0.0000 28.4266 0.0000
# 6 0.0000 0.0000 0.0000 0.0000 0.0000 38.2217
#
#
#
# Elastic Compliance Matrix: (Units=1/GPa)
#
#
# Indices 1 2 3 4 5 6 
#
# 1 0.023652 0.000517 -0.001669 0.000000 0.000000 0.000000
# 2 0.000517 0.007271 -0.003424 0.000000 0.000000 0.000000
# 3 -0.001669 -0.003424 0.006162 0.000000 0.000000 0.000000
# 4 0.000000 0.000000 0.000000 0.020575 0.000000 0.000000
# 5 0.000000 0.000000 0.000000 0.000000 0.035178 0.000000
# 6 0.000000 0.000000 0.000000 0.000000 0.000000 0.026163
#
#
# Mechanical properties :
#
#
# Convention : Reuss Voigt Hill
#
# Bulk Modulus (GPa) = 35.80084 77.38960 56.59522
# Shear Modulus (GPa) = 36.37338 45.20882 40.79110
#
# Velocity S-wave (km/s) = 4.01129 4.47202 4.24791
# Velocity P-wave (km/s) = 6.10664 7.80385 7.00682
#
# Compressibility (1/GPa) = 0.02793231
#
# Stress axis : x y z
#
# Youngs Moduli (GPa) = 42.28019 137.53425 162.29435
#
# Poissons Ratio (x) = -0.07106 0.27082
# Poissons Ratio (y) = -0.02185 0.55570
# Poissons Ratio (z) = 0.07055 0.47092
#
# Static dielectric constant tensor:
#      x y z
#    x 1.908300 0.000000 0.000000 
#    y 0.000000 1.813920 0.000000 
#    z 0.000000 0.000000 1.797840 
# 
# From -- ./inp_files/2759.got.cif
#   From: 2010.05.17/outbox.cif.g08.bks.cpg/sg57_2_cif.got.tgz:2759.got - 2010.06.03 13:58:18.
