data_PCOD9436781
_publ_section_title
;
Structure prediction by ZEFSAII (Michael W. Deem and Ramdas Pophale) SiO2 
 PCOD9436781
Probable space group: P B C M
;
_chemical_formula_sum "Si O2"
_cell_formula_units_Z 56
_cell_length_a 24.470897
_cell_length_b 14.708183
_cell_length_c 8.704953
_cell_angle_alpha 90.000000
_cell_angle_beta 90.000000
_cell_angle_gamma 90.000000
_cell_volume 3133.107848
_symmetry_space_group_name_H-M "P B C M"
_symmetry_group_IT_number 57
_symmetry_cell_setting 'orthorhombic'
loop_
_space_group_symop_operation_xyz
x,y,z
-x,-y,1/2+z
x,1/2-y,-z
-x,1/2+y,1/2-z
-x,-y,-z
x,y,1/2-z
-x,1/2+y,z
x,1/2-y,1/2+z
loop_
_atom_site_type_symbol
_atom_site_label
_atom_site_fract_x
_atom_site_fract_y
_atom_site_fract_z
Si Si1 0.146737 0.148763 0.933760
Si Si2 0.769201 0.507238 0.064607
Si Si3 0.563464 0.149030 0.065938
Si Si4 0.854646 0.351586 0.434401
Si Si5 0.939365 0.493418 0.934389
Si Si6 0.643494 0.001706 0.935727
Si Si7 0.441398 0.149425 0.065072
O O1 0.149205 0.153837 0.750000
O O2 0.095482 0.083788 0.976341
O O3 0.142869 0.250000 0.000000
O O4 0.199128 0.093412 0.995401
O O5 0.770793 0.514787 0.250000
O O6 0.802928 0.415909 0.023034
O O7 0.706349 0.502672 0.014508
O O8 0.566513 0.150274 0.250000
O O9 0.502289 0.115876 0.020666
O O10 0.568187 0.250000 0.000000
O O11 0.611073 0.087930 0.998114
O O12 0.850891 0.250000 0.500000
O O13 0.857751 0.347357 0.250000
O O14 0.906761 0.406947 0.498466
O O15 0.940504 0.486720 0.750000
O O16 0.000000 0.500000 0.000000
O O17 0.643130 0.004300 0.750000
O O18 0.607165 0.915826 0.986786
O O19 0.440261 0.153549 0.250000
O O20 0.434711 0.250000 0.000000
#
# Coordination Sequence:
#
# PCOD9436781 Si02
#       7
#     8   8   8   8   8   8   8
#     4  10  21  37  58  81 108 144 182 219 263 311
#     4   9  20  37  55  77 107 140 177 221 267 314
#     4  10  20  34  52  75 102 136 174 215 264 319
#     4  10  20  36  57  79 106 143 181 220 266 315
#     4  10  21  37  57  84 115 145 179 220 262 310
#     4  10  20  35  54  78 106 136 172 218 268 317
#     4   9  19  34  52  74 103 136 172 215 264 318
#
# _framework density 17.873628
#
# number of rings (size 3 to 8) (size 9 to 14) (size 15 to 20)
#    0.000    2.286    0.000    2.143    0.000    5.714 
#    0.000    4.286    0.000    0.000    0.000    0.000 
#    0.000    0.000    0.000    0.000    0.000    0.000 
#
# Total GULP energy -312532.354725 kJ/mol
# GULP energy per Si atom -5580.934906 kJ/mol
# Density = 1.783295 g / cm^3
# Si number density = 17.873628 Si / 1000 Ang^3
#
#
#
# Elastic Constant Matrix: (Units=GPa)
#
#
# Indices 1 2 3 4 5 6 
#
# 1 188.7676 92.6560 44.2570 0.0000 0.0000 0.0000
# 2 92.6560 152.4453 38.7973 0.0000 0.0000 0.0000
# 3 44.2570 38.7973 28.1318 0.0000 0.0000 0.0000
# 4 0.0000 0.0000 0.0000 32.1668 0.0000 0.0000
# 5 0.0000 0.0000 0.0000 0.0000 26.7118 0.0000
# 6 0.0000 0.0000 0.0000 0.0000 0.0000 14.4691
#
#
#
# Elastic Compliance Matrix: (Units=1/GPa)
#
#
# Indices 1 2 3 4 5 6 
#
# 1 0.009171 -0.002931 -0.010386 0.000000 0.000000 0.000000
# 2 -0.002931 0.011044 -0.010620 0.000000 0.000000 0.000000
# 3 -0.010386 -0.010620 0.066532 0.000000 0.000000 0.000000
# 4 0.000000 0.000000 0.000000 0.031088 0.000000 0.000000
# 5 0.000000 0.000000 0.000000 0.000000 0.037437 0.000000
# 6 0.000000 0.000000 0.000000 0.000000 0.000000 0.069113
#
#
# Mechanical properties :
#
#
# Convention : Reuss Voigt Hill
#
# Bulk Modulus (GPa) = 25.72425 80.08503 52.90464
# Shear Modulus (GPa) = 17.53052 27.57848 22.55450
#
# Velocity S-wave (km/s) = 3.13518 3.93233 3.55616
# Velocity P-wave (km/s) = 5.24684 8.09451 6.82094
#
# Compressibility (1/GPa) = 0.03887383
#
# Stress axis : x y z
#
# Youngs Moduli (GPa) = 109.03685 90.54711 15.03028
#
# Poissons Ratio (x) = 0.26540 0.15610
# Poissons Ratio (y) = 0.31959 0.15962
# Poissons Ratio (z) = 1.13245 0.96160
#
# Static dielectric constant tensor:
#      x y z
#    x 1.603190 0.000000 0.000000 
#    y 0.000000 1.520650 0.000000 
#    z 0.000000 0.000000 1.593280 
# 
# From -- ./inp_files/8094.got.cif
#   From: 2010.05.17/outbox.cif.g08.bks.cpg/sg57_5_cif.got.tgz:8094.got - 2010.06.03 13:58:18.
