data_PCOD9436690
_publ_section_title
;
Structure prediction by ZEFSAII (Michael W. Deem and Ramdas Pophale) SiO2 
 PCOD9436690
Probable space group: P B C M
;
_chemical_formula_sum "Si O2"
_cell_formula_units_Z 64
_cell_length_a 15.509236
_cell_length_b 24.006966
_cell_length_c 8.720274
_cell_angle_alpha 90.000000
_cell_angle_beta 90.000000
_cell_angle_gamma 90.000000
_cell_volume 3246.817014
_symmetry_space_group_name_H-M "P B C M"
_symmetry_group_IT_number 57
_symmetry_cell_setting 'orthorhombic'
loop_
_space_group_symop_operation_xyz
x,y,z
-x,-y,1/2+z
x,1/2-y,-z
-x,1/2+y,1/2-z
-x,-y,-z
x,y,1/2-z
-x,1/2+y,z
x,1/2-y,1/2+z
loop_
_atom_site_type_symbol
_atom_site_label
_atom_site_fract_x
_atom_site_fract_y
_atom_site_fract_z
Si Si1 0.826036 0.115917 0.934086
Si Si2 0.904736 0.001692 0.931130
Si Si3 0.373350 0.476036 0.573667
Si Si4 0.218175 0.081490 0.925948
Si Si5 0.976463 0.310634 0.566947
Si Si6 0.344242 0.813596 0.064005
Si Si7 0.178780 0.190153 0.068037
Si Si8 0.445066 0.586808 0.430170
O O1 0.820536 0.114826 0.750000
O O2 0.742549 0.151726 0.984643
O O3 0.842910 0.052410 0.987678
O O4 0.912372 0.146865 0.987407
O O5 0.913333 0.007749 0.750000
O O6 0.857009 0.945143 0.972984
O O7 0.000000 0.000000 0.000000
O O8 0.341816 0.474890 0.750000
O O9 0.302618 0.454009 0.457954
O O10 0.396516 0.539095 0.527772
O O11 0.456449 0.435492 0.563053
O O12 0.192544 0.080700 0.750000
O O13 0.233440 0.143372 0.985061
O O14 0.955735 0.250000 0.500000
O O15 0.964512 0.311531 0.750000
O O16 0.077280 0.320901 0.534369
O O17 0.347296 0.811433 0.250000
O O18 0.343840 0.750000 0.000000
O O19 0.421327 0.852865 0.999294
O O20 0.190377 0.188967 0.250000
O O21 0.199153 0.250000 0.000000
O O22 0.420298 0.585583 0.250000
#
# Coordination Sequence:
#
# PCOD9436690 Si02
#       8
#     8   8   8   8   8   8   8   8
#     4  10  22  37  54  78 111 151 194 240 289 343
#     4  11  23  39  58  84 120 160 201 248 303 357
#     4  10  21  39  64  92 121 152 189 238 293 349
#     4  12  24  38  59  87 117 151 192 236 285 343
#     4  10  20  33  53  77 104 142 187 234 280 329
#     4  11  23  39  59  85 120 161 202 248 303 361
#     4  10  21  38  58  81 110 145 186 233 285 338
#     4  10  21  39  64  92 119 150 191 237 290 354
#
# _framework density 19.711613
#
# number of rings (size 3 to 8) (size 9 to 14) (size 15 to 20)
#    0.000    1.500    0.000    5.250    0.000    9.000 
#    0.000    0.625    0.000    3.000    0.000    0.000 
#    0.000    0.000    0.000    0.000    0.000    0.000 
#
# Total GULP energy -357487.345723 kJ/mol
# GULP energy per Si atom -5585.739777 kJ/mol
# Density = 1.966675 g / cm^3
# Si number density = 19.711613 Si / 1000 Ang^3
#
#
#
# Elastic Constant Matrix: (Units=GPa)
#
#
# Indices 1 2 3 4 5 6 
#
# 1 24.7189 25.6177 15.3696 0.0000 0.0000 0.0000
# 2 25.6177 130.3829 21.5359 0.0000 0.0000 0.0000
# 3 15.3696 21.5359 32.9261 0.0000 0.0000 0.0000
# 4 0.0000 0.0000 0.0000 30.7161 0.0000 0.0000
# 5 0.0000 0.0000 0.0000 0.0000 27.8314 0.0000
# 6 0.0000 0.0000 0.0000 0.0000 0.0000 31.8620
#
#
#
# Elastic Compliance Matrix: (Units=1/GPa)
#
#
# Indices 1 2 3 4 5 6 
#
# 1 0.064677 -0.008656 -0.024529 0.000000 0.000000 0.000000
# 2 -0.008656 0.009757 -0.002341 0.000000 0.000000 0.000000
# 3 -0.024529 -0.002341 0.043352 0.000000 0.000000 0.000000
# 4 0.000000 0.000000 0.000000 0.032556 0.000000 0.000000
# 5 0.000000 0.000000 0.000000 0.000000 0.035931 0.000000
# 6 0.000000 0.000000 0.000000 0.000000 0.000000 0.031385
#
#
# Mechanical properties :
#
#
# Convention : Reuss Voigt Hill
#
# Bulk Modulus (GPa) = 21.39777 34.78606 28.09192
# Shear Modulus (GPa) = 16.43170 26.44887 21.44029
#
# Velocity S-wave (km/s) = 2.89035 3.66702 3.30161
# Velocity P-wave (km/s) = 4.69232 5.96785 5.36810
#
# Compressibility (1/GPa) = 0.04673384
#
# Stress axis : x y z
#
# Youngs Moduli (GPa) = 15.46137 102.48823 23.06689
#
# Poissons Ratio (x) = 0.88717 0.56581
# Poissons Ratio (y) = 0.13384 0.05400
# Poissons Ratio (z) = 0.37925 0.23995
#
# Static dielectric constant tensor:
#      x y z
#    x 1.702100 0.000000 0.000000 
#    y 0.000000 1.685350 0.000000 
#    z 0.000000 0.000000 1.663780 
# 
# From -- ./inp_files/5747.got.cif
#   From: 2010.05.17/outbox.cif.g08.bks.cpg/sg57_3_cif.got.tgz:5747.got - 2010.06.03 13:58:18.
