data_PCOD9436104
_publ_section_title
;
Structure prediction by ZEFSAII (Michael W. Deem and Ramdas Pophale) SiO2 
 PCOD9436104
Probable space group: P B C M
;
_chemical_formula_sum "Si O2"
_cell_formula_units_Z 64
_cell_length_a 8.655219
_cell_length_b 16.690349
_cell_length_c 18.324260
_cell_angle_alpha 90.000000
_cell_angle_beta 90.000000
_cell_angle_gamma 90.000000
_cell_volume 2647.097418
_symmetry_space_group_name_H-M "P B C M"
_symmetry_group_IT_number 57
_symmetry_cell_setting 'orthorhombic'
loop_
_space_group_symop_operation_xyz
x,y,z
-x,-y,1/2+z
x,1/2-y,-z
-x,1/2+y,1/2-z
-x,-y,-z
x,y,1/2-z
-x,1/2+y,z
x,1/2-y,1/2+z
loop_
_atom_site_type_symbol
_atom_site_label
_atom_site_fract_x
_atom_site_fract_y
_atom_site_fract_z
Si Si1 0.615277 0.118231 0.091440
Si Si2 0.573519 0.950877 0.166476
Si Si3 0.855676 0.023870 0.665415
Si Si4 0.870546 0.902227 0.089654
Si Si5 0.180765 0.269553 0.621381
Si Si6 0.505420 0.221690 0.832046
Si Si7 0.689671 0.570309 0.048264
Si Si8 0.085607 0.627911 0.169480
O O1 0.573958 0.207738 0.118187
O O2 0.490126 0.091270 0.029379
O O3 0.800078 0.119931 0.100433
O O4 0.571658 0.044052 0.144256
O O5 0.532081 0.949085 0.250000
O O6 0.753900 0.927977 0.153813
O O7 0.488918 0.869165 0.137494
O O8 0.820427 0.045628 0.750000
O O9 0.717871 0.994455 0.612542
O O10 0.969795 0.947088 0.669518
O O11 0.957782 0.085090 0.618549
O O12 0.849007 0.808705 0.073637
O O13 0.797154 0.949588 0.020889
O O14 0.324212 0.244628 0.671635
O O15 0.242372 0.347210 0.579692
O O16 0.024042 0.295291 0.660833
O O17 0.570932 0.225007 0.750000
O O18 0.163271 0.629490 0.250000
#
# Coordination Sequence:
#
# PCOD9436104 Si02
#       8
#     8   8   8   8   8   8   8   8
#     4  11  21  37  59  87 125 171 210 260 326 383
#     4  10  20  35  59  90 123 164 214 263 320 389
#     4  10  21  38  60  89 118 155 209 261 314 379
#     4  11  20  38  64  88 121 160 214 266 323 377
#     4   9  20  36  59  86 116 159 207 262 316 382
#     4   9  18  33  56  85 119 161 212 261 318 382
#     4  10  23  39  61  87 123 167 212 255 319 393
#     4  10  19  34  58  89 123 158 203 258 319 376
#
# _framework density 24.177427000000002
#
# number of rings (size 3 to 8) (size 9 to 14) (size 15 to 20)
#    0.000    2.000    1.250    2.625    0.000    6.000 
#    2.250    0.000    0.000    9.000    0.000    0.000 
#    0.000    0.000    0.000    0.000    0.000    0.000 
#
# Total GULP energy -356385.319083 kJ/mol
# GULP energy per Si atom -5568.520611 kJ/mol
# Density = 2.412240 g / cm^3
# Si number density = 24.177427 Si / 1000 Ang^3
#
#
#
# Elastic Constant Matrix: (Units=GPa)
#
#
# Indices 1 2 3 4 5 6 
#
# 1 74.2302 -9.4596 6.8636 0.0000 0.0000 0.0000
# 2 -9.4596 114.4822 10.2723 0.0000 0.0000 0.0000
# 3 6.8636 10.2723 74.8706 0.0000 0.0000 0.0000
# 4 0.0000 0.0000 0.0000 23.4171 0.0000 0.0000
# 5 0.0000 0.0000 0.0000 0.0000 140.7034 0.0000
# 6 0.0000 0.0000 0.0000 0.0000 0.0000 36.8910
#
#
#
# Elastic Compliance Matrix: (Units=1/GPa)
#
#
# Indices 1 2 3 4 5 6 
#
# 1 0.013766 0.001266 -0.001436 0.000000 0.000000 0.000000
# 2 0.001266 0.008960 -0.001345 0.000000 0.000000 0.000000
# 3 -0.001436 -0.001345 0.013673 0.000000 0.000000 0.000000
# 4 0.000000 0.000000 0.000000 0.042704 0.000000 0.000000
# 5 0.000000 0.000000 0.000000 0.000000 0.007107 0.000000
# 6 0.000000 0.000000 0.000000 0.000000 0.000000 0.027107
#
#
# Mechanical properties :
#
#
# Convention : Reuss Voigt Hill
#
# Bulk Modulus (GPa) = 29.96797 30.99283 30.48040
# Shear Modulus (GPa) = 39.22518 57.26275 48.24396
#
# Velocity S-wave (km/s) = 4.03226 4.87194 4.47185
# Velocity P-wave (km/s) = 5.83958 6.67042 6.26878
#
# Compressibility (1/GPa) = 0.03336896
#
# Stress axis : x y z
#
# Youngs Moduli (GPa) = 72.64417 111.60292 73.13906
#
# Poissons Ratio (x) = -0.14132 0.10500
# Poissons Ratio (y) = -0.09199 0.09840
# Poissons Ratio (z) = 0.10429 0.15016
#
# Static dielectric constant tensor:
#      x y z
#    x 2.024930 0.000000 0.000000 
#    y 0.000000 1.923610 0.000000 
#    z 0.000000 0.000000 1.992700 
# 
# From -- ./inp_files/24598.got.cif
#   From: 2010.05.17/outbox.cif.g08.bks.cpg/sg57_13_cif.got.tgz:24598.got - 2010.06.03 13:58:18.
