data_PCOD9436060
_publ_section_title
;
Structure prediction by ZEFSAII (Michael W. Deem and Ramdas Pophale) SiO2 
 PCOD9436060
Probable space group: P B C M
;
_chemical_formula_sum "Si O2"
_cell_formula_units_Z 40
_cell_length_a 27.071786
_cell_length_b 9.283651
_cell_length_c 8.517912
_cell_angle_alpha 90.000000
_cell_angle_beta 90.000000
_cell_angle_gamma 90.000000
_cell_volume 2140.764346
_symmetry_space_group_name_H-M "P B C M"
_symmetry_group_IT_number 57
_symmetry_cell_setting 'orthorhombic'
loop_
_space_group_symop_operation_xyz
x,y,z
-x,-y,1/2+z
x,1/2-y,-z
-x,1/2+y,1/2-z
-x,-y,-z
x,y,1/2-z
-x,1/2+y,z
x,1/2-y,1/2+z
loop_
_atom_site_type_symbol
_atom_site_label
_atom_site_fract_x
_atom_site_fract_y
_atom_site_fract_z
Si Si1 0.953045 0.412183 0.062965
Si Si2 0.859319 0.914492 0.060817
Si Si3 0.546980 0.412125 0.938711
Si Si4 0.751097 0.913843 0.439123
Si Si5 0.356536 0.086160 0.560109
O O1 0.954536 0.410695 0.250000
O O2 0.954705 0.250000 0.000000
O O3 0.903339 0.490653 0.006122
O O4 0.000000 0.500000 0.000000
O O5 0.862115 0.912701 0.250000
O O6 0.804725 0.972731 0.012179
O O7 0.863749 0.750000 0.000000
O O8 0.546162 0.411763 0.750000
O O9 0.597439 0.490427 0.992402
O O10 0.545129 0.250000 0.000000
O O11 0.500000 0.500000 0.000000
O O12 0.750906 0.750000 0.500000
O O13 0.751197 0.913183 0.250000
O O14 0.697624 0.973364 0.489873
O O15 0.361596 0.250000 0.500000
O O16 0.357263 0.090710 0.750000
#
# Coordination Sequence:
#
# PCOD9436060 Si02
#       5
#     8   8   8   8   8
#     4  12  25  42  61  83 111 144 183 226 273 325
#     4  10  19  34  57  85 115 148 184 224 268 318
#     4  11  23  38  56  78 107 141 181 225 274 327
#     4   8  15  29  51  78 109 142 179 219 262 313
#     4   9  18  33  54  80 108 141 179 222 267 317
#
# _framework density 18.684913999999999
#
# number of rings (size 3 to 8) (size 9 to 14) (size 15 to 20)
#    0.000    2.000    0.000    4.200    0.000    4.000 
#    0.000    1.000    0.000    2.400    0.000    0.000 
#    0.000    0.000    0.000    0.000    0.000    0.000 
#
# Total GULP energy -223175.164685 kJ/mol
# GULP energy per Si atom -5579.379117 kJ/mol
# Density = 1.864239 g / cm^3
# Si number density = 18.684914 Si / 1000 Ang^3
#
#
#
# Elastic Constant Matrix: (Units=GPa)
#
#
# Indices 1 2 3 4 5 6 
#
# 1 247.2337 105.2890 56.1039 0.0000 0.0000 0.0000
# 2 105.2890 115.6144 34.9602 0.0000 0.0000 0.0000
# 3 56.1039 34.9602 72.7528 0.0000 0.0000 0.0000
# 4 0.0000 0.0000 0.0000 30.1460 0.0000 0.0000
# 5 0.0000 0.0000 0.0000 0.0000 25.2586 0.0000
# 6 0.0000 0.0000 0.0000 0.0000 0.0000 33.1010
#
#
#
# Elastic Compliance Matrix: (Units=1/GPa)
#
#
# Indices 1 2 3 4 5 6 
#
# 1 0.007048 -0.005587 -0.002751 0.000000 0.000000 0.000000
# 2 -0.005587 0.014549 -0.002683 0.000000 0.000000 0.000000
# 3 -0.002751 -0.002683 0.017155 0.000000 0.000000 0.000000
# 4 0.000000 0.000000 0.000000 0.033172 0.000000 0.000000
# 5 0.000000 0.000000 0.000000 0.000000 0.039590 0.000000
# 6 0.000000 0.000000 0.000000 0.000000 0.000000 0.030211
#
#
# Mechanical properties :
#
#
# Convention : Reuss Voigt Hill
#
# Bulk Modulus (GPa) = 59.83780 92.03413 75.93596
# Shear Modulus (GPa) = 29.52699 33.65097 31.58898
#
# Velocity S-wave (km/s) = 3.97956 4.24839 4.11617
# Velocity P-wave (km/s) = 7.29452 8.56900 7.95732
#
# Compressibility (1/GPa) = 0.01671185
#
# Stress axis : x y z
#
# Youngs Moduli (GPa) = 141.87832 68.73449 58.29067
#
# Poissons Ratio (x) = 0.38403 0.16033
# Poissons Ratio (y) = 0.79269 0.15637
# Poissons Ratio (z) = 0.39025 0.18439
#
# Static dielectric constant tensor:
#      x y z
#    x 1.694850 0.000000 0.000000 
#    y 0.000000 1.589090 0.000000 
#    z 0.000000 0.000000 1.637160 
# 
# From -- ./inp_files/8910.got.cif
#   From: 2010.05.17/outbox.cif.g08.bks.cpg/sg57_5_cif.got.tgz:8910.got - 2010.06.03 13:58:18.
