data_PCOD9436656
_publ_section_title
;
Structure prediction by ZEFSAII (Michael W. Deem and Ramdas Pophale) SiO2 
 PCOD9436656
Probable space group: P B C M
;
_chemical_formula_sum "Si O2"
_cell_formula_units_Z 56
_cell_length_a 15.467291
_cell_length_b 21.276042
_cell_length_c 8.586575
_cell_angle_alpha 90.000000
_cell_angle_beta 90.000000
_cell_angle_gamma 90.000000
_cell_volume 2825.693568
_symmetry_space_group_name_H-M "P B C M"
_symmetry_group_IT_number 57
_symmetry_cell_setting 'orthorhombic'
loop_
_space_group_symop_operation_xyz
x,y,z
-x,-y,1/2+z
x,1/2-y,-z
-x,1/2+y,1/2-z
-x,-y,-z
x,y,1/2-z
-x,1/2+y,z
x,1/2-y,1/2+z
loop_
_atom_site_type_symbol
_atom_site_label
_atom_site_fract_x
_atom_site_fract_y
_atom_site_fract_z
Si Si1 0.711669 0.624341 0.568892
Si Si2 0.534495 0.817621 0.062531
Si Si3 0.917990 0.457891 0.062832
Si Si4 0.278723 0.504708 0.564315
Si Si5 0.059020 0.682277 0.438388
Si Si6 0.558046 0.058497 0.436533
Si Si7 0.137241 0.312631 0.931932
O O1 0.730086 0.633173 0.750000
O O2 0.635528 0.670978 0.521568
O O3 0.683985 0.554163 0.531131
O O4 0.799399 0.632364 0.474383
O O5 0.527331 0.820714 0.250000
O O6 0.506269 0.750000 0.000000
O O7 0.485293 0.876027 0.986809
O O8 0.927292 0.456042 0.250000
O O9 0.822547 0.485682 0.026301
O O10 0.911677 0.386187 0.998288
O O11 0.000000 0.500000 0.000000
O O12 0.285626 0.494776 0.750000
O O13 0.345932 0.557906 0.511873
O O14 0.094765 0.750000 0.500000
O O15 0.063681 0.682988 0.250000
O O16 0.958901 0.681431 0.495629
O O17 0.562462 0.053705 0.250000
O O18 0.500000 0.000000 0.500000
O O19 0.129271 0.306288 0.750000
O O20 0.178514 0.250000 0.000000
#
# Coordination Sequence:
#
# PCOD9436656 Si02
#       7
#     8   8   8   8   8   8   8
#     4  11  22  35  56  86 121 160 203 251 312 378
#     4  11  24  41  62  92 128 167 211 261 319 377
#     4  11  24  41  63  94 130 169 213 268 323 378
#     4  11  24  41  63  91 124 163 211 261 315 378
#     4  10  21  38  60  85 117 162 210 263 322 382
#     4  12  24  42  68  95 125 165 211 260 312 372
#     4  10  20  33  51  78 114 155 201 250 308 374
#
# _framework density 19.818144
#
# number of rings (size 3 to 8) (size 9 to 14) (size 15 to 20)
#    0.000    1.143    1.429    5.143    0.000   10.286 
#    0.000    0.714    0.000    3.429    0.000    0.000 
#    0.000    0.000    0.000    0.000    0.000    0.000 
#
# Total GULP energy -312418.604005 kJ/mol
# GULP energy per Si atom -5578.903643 kJ/mol
# Density = 1.977304 g / cm^3
# Si number density = 19.818144 Si / 1000 Ang^3
#
#
#
# Elastic Constant Matrix: (Units=GPa)
#
#
# Indices 1 2 3 4 5 6 
#
# 1 80.3958 27.4312 23.5206 0.0000 0.0000 0.0000
# 2 27.4312 120.6448 20.0963 0.0000 0.0000 0.0000
# 3 23.5206 20.0963 47.9803 0.0000 0.0000 0.0000
# 4 0.0000 0.0000 0.0000 37.5730 0.0000 0.0000
# 5 0.0000 0.0000 0.0000 0.0000 18.8151 0.0000
# 6 0.0000 0.0000 0.0000 0.0000 0.0000 35.2805
#
#
#
# Elastic Compliance Matrix: (Units=1/GPa)
#
#
# Indices 1 2 3 4 5 6 
#
# 1 0.015126 -0.002369 -0.006423 0.000000 0.000000 0.000000
# 2 -0.002369 0.009282 -0.002726 0.000000 0.000000 0.000000
# 3 -0.006423 -0.002726 0.025132 0.000000 0.000000 0.000000
# 4 0.000000 0.000000 0.000000 0.026615 0.000000 0.000000
# 5 0.000000 0.000000 0.000000 0.000000 0.053149 0.000000
# 6 0.000000 0.000000 0.000000 0.000000 0.000000 0.028344
#
#
# Mechanical properties :
#
#
# Convention : Reuss Voigt Hill
#
# Bulk Modulus (GPa) = 37.73061 43.45747 40.59404
# Shear Modulus (GPa) = 26.38272 30.19857 28.29064
#
# Velocity S-wave (km/s) = 3.65258 3.90780 3.78234
# Velocity P-wave (km/s) = 6.07192 6.50669 6.29306
#
# Compressibility (1/GPa) = 0.02650368
#
# Stress axis : x y z
#
# Youngs Moduli (GPa) = 66.11193 107.73992 39.78978
#
# Poissons Ratio (x) = 0.25528 0.25555
# Poissons Ratio (y) = 0.15664 0.10847
# Poissons Ratio (z) = 0.42461 0.29371
#
# Static dielectric constant tensor:
#      x y z
#    x 1.702580 0.000000 0.000000 
#    y 0.000000 1.805310 0.000000 
#    z 0.000000 0.000000 1.669800 
# 
# From -- ./inp_files/5190.got.cif
#   From: 2010.05.17/outbox.cif.g08.bks.cpg/sg57_3_cif.got.tgz:5190.got - 2010.06.03 13:58:18.
