data_PCOD9436287
_publ_section_title
;
Structure prediction by ZEFSAII (Michael W. Deem and Ramdas Pophale) SiO2 
 PCOD9436287
Probable space group: P B C M
;
_chemical_formula_sum "Si O2"
_cell_formula_units_Z 64
_cell_length_a 12.372770
_cell_length_b 11.764036
_cell_length_c 23.837684
_cell_angle_alpha 90.000000
_cell_angle_beta 90.000000
_cell_angle_gamma 90.000000
_cell_volume 3469.663385
_symmetry_space_group_name_H-M "P B C M"
_symmetry_group_IT_number 57
_symmetry_cell_setting 'orthorhombic'
loop_
_space_group_symop_operation_xyz
x,y,z
-x,-y,1/2+z
x,1/2-y,-z
-x,1/2+y,1/2-z
-x,-y,-z
x,y,1/2-z
-x,1/2+y,z
x,1/2-y,1/2+z
loop_
_atom_site_type_symbol
_atom_site_label
_atom_site_fract_x
_atom_site_fract_y
_atom_site_fract_z
Si Si1 0.929907 0.502631 0.312009
Si Si2 0.365609 0.195068 0.562897
Si Si3 0.153294 0.628066 0.313276
Si Si4 0.723822 0.448169 0.910860
Si Si5 0.173326 0.350720 0.901559
Si Si6 0.809391 0.072548 0.969938
Si Si7 0.390161 0.778720 0.065540
Si Si8 0.957380 0.297349 0.391307
O O1 0.895436 0.465685 0.250000
O O2 0.838732 0.569130 0.346736
O O3 0.977407 0.400502 0.348639
O O4 0.030815 0.586599 0.306752
O O5 0.363810 0.250000 0.500000
O O6 0.278428 0.271526 0.596166
O O7 0.488907 0.193871 0.584804
O O8 0.329444 0.064005 0.567136
O O9 0.194573 0.650700 0.250000
O O10 0.220646 0.538519 0.350382
O O11 0.136640 0.730275 0.357370
O O12 0.646689 0.338565 0.905893
O O13 0.801490 0.415846 0.963208
O O14 0.176398 0.441789 0.952144
O O15 0.064247 0.275167 0.903305
O O16 0.701925 0.123130 0.938279
O O17 0.907818 0.146354 0.946498
O O18 0.400927 0.750000 0.000000
#
# Coordination Sequence:
#
# PCOD9436287 Si02
#       8
#     8   8   8   8   8   8   8   8
#     4   9  19  36  57  81 114 157 200 241 284 340
#     4  11  22  37  57  89 121 156 197 240 301 357
#     4  10  20  35  56  81 112 151 199 238 281 350
#     4  11  21  38  59  86 117 153 195 244 299 350
#     4  10  21  36  55  87 123 154 193 240 299 355
#     4  10  20  38  58  85 120 155 195 240 297 364
#     4   9  21  35  61  84 112 157 199 245 289 355
#     4  10  19  36  56  87 118 156 191 239 301 357
#
# _framework density 18.445594
#
# number of rings (size 3 to 8) (size 9 to 14) (size 15 to 20)
#    0.000    2.000    2.500    1.125    1.750    2.000 
#    4.500    4.375    0.000    1.500    0.000    0.000 
#    0.000    0.000    0.000    0.000    0.000    0.000 
#
# Total GULP energy -356372.154965 kJ/mol
# GULP energy per Si atom -5568.314921 kJ/mol
# Density = 1.840361 g / cm^3
# Si number density = 18.445594 Si / 1000 Ang^3
#
#
#
# Elastic Constant Matrix: (Units=GPa)
#
#
# Indices 1 2 3 4 5 6 
#
# 1 76.8601 24.9291 30.1502 0.0000 0.0000 0.0000
# 2 24.9291 72.0756 15.9997 0.0000 0.0000 0.0000
# 3 30.1502 15.9997 84.7010 0.0000 0.0000 0.0000
# 4 0.0000 0.0000 0.0000 6.4052 0.0000 0.0000
# 5 0.0000 0.0000 0.0000 0.0000 9.5869 0.0000
# 6 0.0000 0.0000 0.0000 0.0000 0.0000 22.2076
#
#
#
# Elastic Compliance Matrix: (Units=1/GPa)
#
#
# Indices 1 2 3 4 5 6 
#
# 1 0.016455 -0.004583 -0.004992 0.000000 0.000000 0.000000
# 2 -0.004583 0.015758 -0.001345 0.000000 0.000000 0.000000
# 3 -0.004992 -0.001345 0.013837 0.000000 0.000000 0.000000
# 4 0.000000 0.000000 0.000000 0.156122 0.000000 0.000000
# 5 0.000000 0.000000 0.000000 0.000000 0.104309 0.000000
# 6 0.000000 0.000000 0.000000 0.000000 0.000000 0.045030
#
#
# Mechanical properties :
#
#
# Convention : Reuss Voigt Hill
#
# Bulk Modulus (GPa) = 41.30480 41.75498 41.52989
# Shear Modulus (GPa) = 13.10881 18.47711 15.79296
#
# Velocity S-wave (km/s) = 2.66874 3.16841 2.92925
# Velocity P-wave (km/s) = 5.65134 6.00592 5.83132
#
# Compressibility (1/GPa) = 0.02421026
#
# Stress axis : x y z
#
# Youngs Moduli (GPa) = 60.77051 63.45902 72.26912
#
# Poissons Ratio (x) = 0.29086 0.36074
# Poissons Ratio (y) = 0.27854 0.09721
# Poissons Ratio (z) = 0.30335 0.08536
#
# Static dielectric constant tensor:
#      x y z
#    x 1.675000 0.000000 0.000000 
#    y 0.000000 1.711190 0.000000 
#    z 0.000000 0.000000 1.685400 
# 
# From -- ./inp_files/27298.got.cif
#   From: 2010.05.17/outbox.cif.g08.bks.cpg/sg57_14_cif.got.tgz:27298.got - 2010.06.03 13:58:18.
