data_PCOD9436225
_publ_section_title
;
Structure prediction by ZEFSAII (Michael W. Deem and Ramdas Pophale) SiO2 
 PCOD9436225
Probable space group: P B C M
;
_chemical_formula_sum "Si O2"
_cell_formula_units_Z 40
_cell_length_a 12.378718
_cell_length_b 8.754673
_cell_length_c 14.278817
_cell_angle_alpha 90.000000
_cell_angle_beta 90.000000
_cell_angle_gamma 90.000000
_cell_volume 1547.418648
_symmetry_space_group_name_H-M "P B C M"
_symmetry_group_IT_number 57
_symmetry_cell_setting 'orthorhombic'
loop_
_space_group_symop_operation_xyz
x,y,z
-x,-y,1/2+z
x,1/2-y,-z
-x,1/2+y,1/2-z
-x,-y,-z
x,y,1/2-z
-x,1/2+y,z
x,1/2-y,1/2+z
loop_
_atom_site_type_symbol
_atom_site_label
_atom_site_fract_x
_atom_site_fract_y
_atom_site_fract_z
Si Si1 0.280398 0.214444 0.350844
Si Si2 0.634383 0.080416 0.559391
Si Si3 0.418742 0.991536 0.855522
Si Si4 0.050233 0.147486 0.091305
Si Si5 0.858164 0.331767 0.359698
O O1 0.320431 0.154747 0.250000
O O2 0.324806 0.097187 0.427991
O O3 0.323749 0.384208 0.358781
O O4 0.151572 0.209356 0.349805
O O5 0.596711 0.104304 0.451708
O O6 0.529852 0.083812 0.625876
O O7 0.739931 0.169240 0.595925
O O8 0.418468 0.923382 0.750000
O O9 0.930940 0.181795 0.129305
O O10 0.076349 0.968205 0.088858
O O11 0.061990 0.250000 0.000000
O O12 0.849747 0.368044 0.250000
#
# Coordination Sequence:
#
# PCOD9436225 Si02
#       5
#     8   8   8   8   8
#     4  10  19  35  59  84 112 151 196 240 296 363
#     4  10  20  37  59  83 115 155 195 242 301 359
#     4  10  20  34  56  85 113 146 194 244 293 356
#     4  11  22  38  61  89 123 164 206 252 305 364
#     4  11  22  40  64  91 124 163 207 254 308 368
#
# _framework density 25.849501
#
# number of rings (size 3 to 8) (size 9 to 14) (size 15 to 20)
#    0.000    1.600    0.000    8.400    0.000    0.000 
#    0.000    6.000    0.000    9.600    0.000    0.000 
#    0.000    0.000    0.000    0.000    0.000    0.000 
#
# Total GULP energy -223787.518860 kJ/mol
# GULP energy per Si atom -5594.687971 kJ/mol
# Density = 2.579067 g / cm^3
# Si number density = 25.849501 Si / 1000 Ang^3
#
#
#
# Elastic Constant Matrix: (Units=GPa)
#
#
# Indices 1 2 3 4 5 6 
#
# 1 115.9370 24.2598 5.9209 0.0000 0.0000 0.0000
# 2 24.2598 39.1849 13.0575 0.0000 0.0000 0.0000
# 3 5.9209 13.0575 196.8760 0.0000 0.0000 0.0000
# 4 0.0000 0.0000 0.0000 26.8483 0.0000 0.0000
# 5 0.0000 0.0000 0.0000 0.0000 43.4782 0.0000
# 6 0.0000 0.0000 0.0000 0.0000 0.0000 37.6009
#
#
#
# Elastic Compliance Matrix: (Units=1/GPa)
#
#
# Indices 1 2 3 4 5 6 
#
# 1 0.009911 -0.006173 0.000111 0.000000 0.000000 0.000000
# 2 -0.006173 0.029942 -0.001800 0.000000 0.000000 0.000000
# 3 0.000111 -0.001800 0.005195 0.000000 0.000000 0.000000
# 4 0.000000 0.000000 0.000000 0.037246 0.000000 0.000000
# 5 0.000000 0.000000 0.000000 0.000000 0.023000 0.000000
# 6 0.000000 0.000000 0.000000 0.000000 0.000000 0.026595
#
#
# Mechanical properties :
#
#
# Convention : Reuss Voigt Hill
#
# Bulk Modulus (GPa) = 34.10141 48.71936 41.41038
# Shear Modulus (GPa) = 31.76833 42.16947 36.96890
#
# Velocity S-wave (km/s) = 3.50947 4.04337 3.78585
# Velocity P-wave (km/s) = 5.44452 6.37861 5.92999
#
# Compressibility (1/GPa) = 0.02932430
#
# Stress axis : x y z
#
# Youngs Moduli (GPa) = 100.89315 33.39801 192.47858
#
# Poissons Ratio (x) = 0.20618 -0.02143
# Poissons Ratio (y) = 0.62285 0.34650
# Poissons Ratio (z) = -0.01124 0.06012
#
# Static dielectric constant tensor:
#      x y z
#    x 1.989090 0.000000 0.000000 
#    y 0.000000 2.084570 0.000000 
#    z 0.000000 0.000000 2.046100 
# 
# From -- ./inp_files/17388.got.cif
#   From: 2010.05.17/outbox.cif.g08.bks.cpg/sg57_9_cif.got.tgz:17388.got - 2010.06.03 13:58:18.
