data_PCOD9436960
_publ_section_title
;
Structure prediction by ZEFSAII (Michael W. Deem and Ramdas Pophale) SiO2 
 PCOD9436960
Probable space group: P B C M
;
_chemical_formula_sum "Si O2"
_cell_formula_units_Z 56
_cell_length_a 8.294772
_cell_length_b 24.096596
_cell_length_c 13.862949
_cell_angle_alpha 90.000000
_cell_angle_beta 90.000000
_cell_angle_gamma 90.000000
_cell_volume 2770.867603
_symmetry_space_group_name_H-M "P B C M"
_symmetry_group_IT_number 57
_symmetry_cell_setting 'orthorhombic'
loop_
_space_group_symop_operation_xyz
x,y,z
-x,-y,1/2+z
x,1/2-y,-z
-x,1/2+y,1/2-z
-x,-y,-z
x,y,1/2-z
-x,1/2+y,z
x,1/2-y,1/2+z
loop_
_atom_site_type_symbol
_atom_site_label
_atom_site_fract_x
_atom_site_fract_y
_atom_site_fract_z
Si Si1 0.688575 0.812855 0.538967
Si Si2 0.078162 0.602111 0.858277
Si Si3 0.763845 0.575032 0.549858
Si Si4 0.587122 0.024828 0.360326
Si Si5 0.634612 0.353940 0.863778
Si Si6 0.944680 0.312593 0.536130
Si Si7 0.794629 0.980859 0.857732
O O1 0.677154 0.750000 0.500000
O O2 0.687135 0.864278 0.463530
O O3 0.530984 0.825148 0.602131
O O4 0.873082 0.819326 0.578251
O O5 0.109837 0.623857 0.750000
O O6 0.182516 0.546555 0.872994
O O7 0.896479 0.579363 0.867617
O O8 0.084441 0.647277 0.943391
O O9 0.639097 0.527553 0.577660
O O10 0.851343 0.554391 0.450265
O O11 0.645605 0.017281 0.250000
O O12 0.648520 0.082984 0.402378
O O13 0.395261 0.031001 0.355413
O O14 0.623016 0.359293 0.750000
O O15 0.796953 0.323040 0.893053
O O16 0.937366 0.250000 0.500000
O O17 0.861317 0.967276 0.750000
#
# Coordination Sequence:
#
# PCOD9436960 Si02
#       7
#     8   8   8   8   8   8   8
#     4  10  23  42  62  90 123 166 212 261 309 368
#     4  10  22  38  59  90 125 162 211 266 317 385
#     4  11  20  36  62  85 121 167 206 259 324 376
#     4  10  21  36  56  90 126 158 203 257 318 387
#     4  11  23  41  65  94 127 163 210 260 313 382
#     4  10  23  43  66  90 127 169 215 264 319 374
#     4  10  20  34  55  85 121 161 201 248 316 382
#
# _framework density 20.210274999999999
#
# number of rings (size 3 to 8) (size 9 to 14) (size 15 to 20)
#    0.000    1.714    1.429    2.571    2.000    2.286 
#    0.000   11.429    0.000    0.000    0.000    0.000 
#    0.000    0.000    0.000    0.000    0.000    0.000 
#
# Total GULP energy -312229.342786 kJ/mol
# GULP energy per Si atom -5575.523978 kJ/mol
# Density = 2.016428 g / cm^3
# Si number density = 20.210275 Si / 1000 Ang^3
#
#
#
# Elastic Constant Matrix: (Units=GPa)
#
#
# Indices 1 2 3 4 5 6 
#
# 1 87.2165 31.9991 13.4066 0.0000 0.0000 0.0000
# 2 31.9991 109.1887 23.9137 0.0000 0.0000 0.0000
# 3 13.4066 23.9137 74.6462 0.0000 0.0000 0.0000
# 4 0.0000 0.0000 0.0000 16.8415 0.0000 0.0000
# 5 0.0000 0.0000 0.0000 0.0000 5.6531 0.0000
# 6 0.0000 0.0000 0.0000 0.0000 0.0000 32.1777
#
#
#
# Elastic Compliance Matrix: (Units=1/GPa)
#
#
# Indices 1 2 3 4 5 6 
#
# 1 0.012945 -0.003532 -0.001193 0.000000 0.000000 0.000000
# 2 -0.003532 0.010813 -0.002830 0.000000 0.000000 0.000000
# 3 -0.001193 -0.002830 0.014517 0.000000 0.000000 0.000000
# 4 0.000000 0.000000 0.000000 0.059377 0.000000 0.000000
# 5 0.000000 0.000000 0.000000 0.000000 0.176894 0.000000
# 6 0.000000 0.000000 0.000000 0.000000 0.000000 0.031077
#
#
# Mechanical properties :
#
#
# Convention : Reuss Voigt Hill
#
# Bulk Modulus (GPa) = 43.16857 45.52113 44.34485
# Shear Modulus (GPa) = 15.22268 24.38327 19.80298
#
# Velocity S-wave (km/s) = 2.74745 3.47721 3.13365
# Velocity P-wave (km/s) = 5.60988 6.22045 5.92304
#
# Compressibility (1/GPa) = 0.02316500
#
# Stress axis : x y z
#
# Youngs Moduli (GPa) = 77.24895 92.47769 68.88292
#
# Poissons Ratio (x) = 0.32667 0.08220
# Poissons Ratio (y) = 0.27287 0.19492
# Poissons Ratio (z) = 0.09218 0.26169
#
# Static dielectric constant tensor:
#      x y z
#    x 1.730450 0.000000 0.000000 
#    y 0.000000 1.705610 0.000000 
#    z 0.000000 0.000000 1.767090 
# 
# From -- ./inp_files/16697.got.cif
#   From: 2010.05.17/outbox.cif.g08.bks.cpg/sg57_9_cif.got.tgz:16697.got - 2010.06.03 13:58:18.
