data_PCOD9436680
_publ_section_title
;
Structure prediction by ZEFSAII (Michael W. Deem and Ramdas Pophale) SiO2 
 PCOD9436680
Probable space group: P B C M
;
_chemical_formula_sum "Si O2"
_cell_formula_units_Z 48
_cell_length_a 21.389785
_cell_length_b 8.148122
_cell_length_c 14.042464
_cell_angle_alpha 90.000000
_cell_angle_beta 90.000000
_cell_angle_gamma 90.000000
_cell_volume 2447.412994
_symmetry_space_group_name_H-M "P B C M"
_symmetry_group_IT_number 57
_symmetry_cell_setting 'orthorhombic'
loop_
_space_group_symop_operation_xyz
x,y,z
-x,-y,1/2+z
x,1/2-y,-z
-x,1/2+y,1/2-z
-x,-y,-z
x,y,1/2-z
-x,1/2+y,z
x,1/2-y,1/2+z
loop_
_atom_site_type_symbol
_atom_site_label
_atom_site_fract_x
_atom_site_fract_y
_atom_site_fract_z
Si Si1 0.333452 0.075691 0.144703
Si Si2 0.919316 0.005274 0.957447
Si Si3 0.222334 0.051003 0.485354
Si Si4 0.026763 0.172873 0.864668
Si Si5 0.678704 0.530493 0.855853
Si Si6 0.571040 0.056841 0.491132
O O1 0.345979 0.014567 0.250000
O O2 0.268035 0.015231 0.102616
O O3 0.325757 0.271903 0.145531
O O4 0.388443 0.027594 0.073903
O O5 0.845317 0.021223 0.965002
O O6 0.940304 0.843415 0.895759
O O7 0.940929 0.962466 0.065815
O O8 0.955880 0.152230 0.904519
O O9 0.214621 0.250000 0.500000
O O10 0.263217 0.988956 0.575193
O O11 0.030157 0.149704 0.750000
O O12 0.688934 0.467816 0.750000
O O13 0.611581 0.479304 0.897071
O O14 0.571670 0.250000 0.500000
O O15 0.500000 0.000000 0.500000
#
# Coordination Sequence:
#
# PCOD9436680 Si02
#       6
#     8   8   8   8   8   8
#     4   9  19  35  58  84 113 145 189 237 282 337
#     4  10  20  35  54  79 110 147 187 239 286 345
#     4   9  16  33  55  83 108 141 183 237 282 335
#     4  10  20  33  52  78 108 143 185 232 286 344
#     4   9  19  36  60  87 113 146 191 239 285 340
#     4  11  22  37  59  85 119 157 188 231 278 330
#
# _framework density 19.612545000000001
#
# number of rings (size 3 to 8) (size 9 to 14) (size 15 to 20)
#    0.000    2.333    1.667    3.000    0.000    3.333 
#    0.000    0.000   29.333    0.000    0.000    0.000 
#    0.000    0.000    0.000    0.000    0.000    0.000 
#
# Total GULP energy -267583.737935 kJ/mol
# GULP energy per Si atom -5574.661207 kJ/mol
# Density = 1.956791 g / cm^3
# Si number density = 19.612545 Si / 1000 Ang^3
#
#
#
# Elastic Constant Matrix: (Units=GPa)
#
#
# Indices 1 2 3 4 5 6 
#
# 1 162.7214 14.5573 30.2918 0.0000 0.0000 0.0000
# 2 14.5573 31.4882 22.7696 0.0000 0.0000 0.0000
# 3 30.2918 22.7696 114.6059 0.0000 0.0000 0.0000
# 4 0.0000 0.0000 0.0000 11.7297 0.0000 0.0000
# 5 0.0000 0.0000 0.0000 0.0000 2.6941 0.0000
# 6 0.0000 0.0000 0.0000 0.0000 0.0000 25.3578
#
#
#
# Elastic Compliance Matrix: (Units=1/GPa)
#
#
# Indices 1 2 3 4 5 6 
#
# 1 0.006578 -0.002083 -0.001325 0.000000 0.000000 0.000000
# 2 -0.002083 0.037746 -0.006949 0.000000 0.000000 0.000000
# 3 -0.001325 -0.006949 0.010456 0.000000 0.000000 0.000000
# 4 0.000000 0.000000 0.000000 0.085253 0.000000 0.000000
# 5 0.000000 0.000000 0.000000 0.000000 0.371179 0.000000
# 6 0.000000 0.000000 0.000000 0.000000 0.000000 0.039436
#
#
# Mechanical properties :
#
#
# Convention : Reuss Voigt Hill
#
# Bulk Modulus (GPa) = 29.35394 49.33920 39.34657
# Shear Modulus (GPa) = 8.58048 24.03612 16.30830
#
# Velocity S-wave (km/s) = 2.09392 3.50458 2.88674
# Velocity P-wave (km/s) = 4.56568 6.44885 5.58718
#
# Compressibility (1/GPa) = 0.03406698
#
# Stress axis : x y z
#
# Youngs Moduli (GPa) = 152.01081 26.49313 95.63650
#
# Poissons Ratio (x) = 0.05519 0.12671
# Poissons Ratio (y) = 0.31668 0.66454
# Poissons Ratio (z) = 0.20140 0.18409
#
# Static dielectric constant tensor:
#      x y z
#    x 1.638180 0.000000 0.000000 
#    y 0.000000 1.778500 0.000000 
#    z 0.000000 0.000000 1.699860 
# 
# From -- ./inp_files/19265.got.cif
#   From: 2010.05.17/outbox.cif.g08.bks.cpg/sg57_10_cif.got.tgz:19265.got - 2010.06.03 13:58:18.
