data_PCOD9436407
_publ_section_title
;
Structure prediction by ZEFSAII (Michael W. Deem and Ramdas Pophale) SiO2 
 PCOD9436407
Probable space group: P B C M
;
_chemical_formula_sum "Si O2"
_cell_formula_units_Z 64
_cell_length_a 10.907051
_cell_length_b 19.541368
_cell_length_c 14.111152
_cell_angle_alpha 90.000000
_cell_angle_beta 90.000000
_cell_angle_gamma 90.000000
_cell_volume 3007.632556
_symmetry_space_group_name_H-M "P B C M"
_symmetry_group_IT_number 57
_symmetry_cell_setting 'orthorhombic'
loop_
_space_group_symop_operation_xyz
x,y,z
-x,-y,1/2+z
x,1/2-y,-z
-x,1/2+y,1/2-z
-x,-y,-z
x,y,1/2-z
-x,1/2+y,z
x,1/2-y,1/2+z
loop_
_atom_site_type_symbol
_atom_site_label
_atom_site_fract_x
_atom_site_fract_y
_atom_site_fract_z
Si Si1 0.633306 0.532771 0.135814
Si Si2 0.966020 0.380515 0.357443
Si Si3 0.107384 0.092105 0.141884
Si Si4 0.877098 0.750589 0.387847
Si Si5 0.505897 0.151462 0.458851
Si Si6 0.730132 0.415433 0.482166
Si Si7 0.127820 0.992306 0.863544
Si Si8 0.596746 0.715378 0.856137
O O1 0.622997 0.532052 0.250000
O O2 0.761278 0.569512 0.103999
O O3 0.530416 0.580205 0.089835
O O4 0.645818 0.458000 0.091169
O O5 0.926781 0.397942 0.250000
O O6 0.852853 0.393365 0.426893
O O7 0.019156 0.304324 0.359879
O O8 0.081072 0.430489 0.379574
O O9 0.111829 0.068328 0.250000
O O10 0.094239 0.173140 0.140375
O O11 0.989474 0.053289 0.104192
O O12 0.868727 0.750000 0.500000
O O13 0.742852 0.772559 0.353062
O O14 0.650176 0.147786 0.480355
O O15 0.464348 0.212950 0.389951
O O16 0.436861 0.164073 0.558806
O O17 0.765111 0.464833 0.569913
O O18 0.151375 0.983612 0.750000
O O19 0.555987 0.696100 0.750000
#
# Coordination Sequence:
#
# PCOD9436407 Si02
#       8
#     8   8   8   8   8   8   8   8
#     4  11  22  41  70  96 129 176 225 276 331 402
#     4  11  24  42  66 101 138 174 216 274 343 405
#     4  10  19  37  63  93 123 166 221 269 330 399
#     4  12  22  38  68 101 130 165 221 284 338 394
#     4  11  25  44  63  97 130 173 232 276 327 396
#     4  12  25  42  66  94 138 180 222 269 336 409
#     4  10  23  41  64  97 136 176 219 273 340 405
#     4  11  23  44  70  93 129 175 221 282 342 393
#
# _framework density 21.279195000000001
#
# number of rings (size 3 to 8) (size 9 to 14) (size 15 to 20)
#    0.000    1.000    3.750    3.375    3.500    2.000 
#    6.750    0.000    0.000    0.000    0.000    0.000 
#    0.000    0.000    0.000    0.000    0.000    0.000 
#
# Total GULP energy -357673.129937 kJ/mol
# GULP energy per Si atom -5588.642655 kJ/mol
# Density = 2.123076 g / cm^3
# Si number density = 21.279195 Si / 1000 Ang^3
#
#
#
# Elastic Constant Matrix: (Units=GPa)
#
#
# Indices 1 2 3 4 5 6 
#
# 1 42.7891 18.3017 20.9569 0.0000 0.0000 0.0000
# 2 18.3017 62.2626 2.0448 0.0000 0.0000 0.0000
# 3 20.9569 2.0448 122.8597 0.0000 0.0000 0.0000
# 4 0.0000 0.0000 0.0000 16.1976 0.0000 0.0000
# 5 0.0000 0.0000 0.0000 0.0000 9.4977 0.0000
# 6 0.0000 0.0000 0.0000 0.0000 0.0000 12.5586
#
#
#
# Elastic Compliance Matrix: (Units=1/GPa)
#
#
# Indices 1 2 3 4 5 6 
#
# 1 0.029382 -0.008477 -0.004871 0.000000 0.000000 0.000000
# 2 -0.008477 0.018515 0.001138 0.000000 0.000000 0.000000
# 3 -0.004871 0.001138 0.008951 0.000000 0.000000 0.000000
# 4 0.000000 0.000000 0.000000 0.061738 0.000000 0.000000
# 5 0.000000 0.000000 0.000000 0.000000 0.105288 0.000000
# 6 0.000000 0.000000 0.000000 0.000000 0.000000 0.079627
#
#
# Mechanical properties :
#
#
# Convention : Reuss Voigt Hill
#
# Bulk Modulus (GPa) = 30.83655 34.50201 32.66928
# Shear Modulus (GPa) = 14.76103 20.09130 17.42617
#
# Velocity S-wave (km/s) = 2.63664 3.07608 2.86480
# Velocity P-wave (km/s) = 4.87771 5.37266 5.13116
#
# Compressibility (1/GPa) = 0.03242904
#
# Stress axis : x y z
#
# Youngs Moduli (GPa) = 34.03493 54.00945 111.71623
#
# Poissons Ratio (x) = 0.45781 0.54414
# Poissons Ratio (y) = 0.28850 -0.12710
# Poissons Ratio (z) = 0.16577 -0.06145
#
# Static dielectric constant tensor:
#      x y z
#    x 1.772370 0.000000 0.000000 
#    y 0.000000 1.770110 0.000000 
#    z 0.000000 0.000000 1.791490 
# 
# From -- ./inp_files/17948.got.cif
#   From: 2010.05.17/outbox.cif.g08.bks.cpg/sg57_9_cif.got.tgz:17948.got - 2010.06.03 13:58:18.
