data_PCOD9436628
_publ_section_title
;
Structure prediction by ZEFSAII (Michael W. Deem and Ramdas Pophale) SiO2 
 PCOD9436628
Probable space group: P B C M
;
_chemical_formula_sum "Si O2"
_cell_formula_units_Z 56
_cell_length_a 15.056800
_cell_length_b 21.092531
_cell_length_c 9.331258
_cell_angle_alpha 90.000000
_cell_angle_beta 90.000000
_cell_angle_gamma 90.000000
_cell_volume 2963.477097
_symmetry_space_group_name_H-M "P B C M"
_symmetry_group_IT_number 57
_symmetry_cell_setting 'orthorhombic'
loop_
_space_group_symop_operation_xyz
x,y,z
-x,-y,1/2+z
x,1/2-y,-z
-x,1/2+y,1/2-z
-x,-y,-z
x,y,1/2-z
-x,1/2+y,z
x,1/2-y,1/2+z
loop_
_atom_site_type_symbol
_atom_site_label
_atom_site_fract_x
_atom_site_fract_y
_atom_site_fract_z
Si Si1 0.728601 0.509601 0.586516
Si Si2 0.060479 0.313140 0.585265
Si Si3 0.150633 0.691260 0.092024
Si Si4 0.558943 0.184856 0.580004
Si Si5 0.737809 0.110357 0.915366
Si Si6 0.933842 0.551224 0.578429
Si Si7 0.542489 0.939914 0.419026
O O1 0.720547 0.484193 0.750000
O O2 0.705880 0.456900 0.470038
O O3 0.830445 0.530099 0.567837
O O4 0.649648 0.560265 0.570986
O O5 0.093918 0.250000 0.500000
O O6 0.095665 0.317802 0.750000
O O7 0.066206 0.379229 0.497101
O O8 0.954635 0.303526 0.600444
O O9 0.189613 0.692367 0.250000
O O10 0.183559 0.750000 0.000000
O O11 0.178097 0.628364 0.010542
O O12 0.542740 0.250000 0.500000
O O13 0.545246 0.193356 0.750000
O O14 0.659654 0.160496 0.559396
O O15 0.498206 0.126316 0.529589
O O16 0.761561 0.110134 0.750000
O O17 0.955831 0.555020 0.750000
O O18 0.000000 0.500000 0.500000
O O19 0.519502 0.946144 0.250000
O O20 0.500000 0.000000 0.500000
#
# Coordination Sequence:
#
# PCOD9436628 Si02
#       7
#     8   8   8   8   8   8   8
#     4  10  22  38  59  84 113 152 194 240 297 353
#     4  10  21  38  59  82 111 153 200 248 303 360
#     4  10  20  33  50  75 108 146 189 233 288 353
#     4  10  22  37  55  83 116 150 190 236 287 344
#     4  11  21  33  52  81 114 147 189 237 287 350
#     4  11  23  39  59  88 122 158 201 251 305 359
#     4  10  20  39  62  85 114 150 193 240 287 343
#
# _framework density 18.896720999999999
#
# number of rings (size 3 to 8) (size 9 to 14) (size 15 to 20)
#    0.000    1.714    1.429    3.000    0.000    9.143 
#    0.000    0.714    0.000    1.714    0.000    0.000 
#    0.000    0.000    0.000    0.000    0.000    0.000 
#
# Total GULP energy -312232.143267 kJ/mol
# GULP energy per Si atom -5575.573987 kJ/mol
# Density = 1.885371 g / cm^3
# Si number density = 18.896721 Si / 1000 Ang^3
#
#
#
# Elastic Constant Matrix: (Units=GPa)
#
#
# Indices 1 2 3 4 5 6 
#
# 1 51.3059 19.7880 43.7089 0.0000 0.0000 0.0000
# 2 19.7880 133.0361 75.0088 0.0000 0.0000 0.0000
# 3 43.7089 75.0088 105.5002 0.0000 0.0000 0.0000
# 4 0.0000 0.0000 0.0000 30.1206 0.0000 0.0000
# 5 0.0000 0.0000 0.0000 0.0000 11.6976 0.0000
# 6 0.0000 0.0000 0.0000 0.0000 0.0000 21.6608
#
#
#
# Elastic Compliance Matrix: (Units=1/GPa)
#
#
# Indices 1 2 3 4 5 6 
#
# 1 0.031647 0.004482 -0.016298 0.000000 0.000000 0.000000
# 2 0.004482 0.013181 -0.011228 0.000000 0.000000 0.000000
# 3 -0.016298 -0.011228 0.024214 0.000000 0.000000 0.000000
# 4 0.000000 0.000000 0.000000 0.033200 0.000000 0.000000
# 5 0.000000 0.000000 0.000000 0.000000 0.085487 0.000000
# 6 0.000000 0.000000 0.000000 0.000000 0.000000 0.046166
#
#
# Mechanical properties :
#
#
# Convention : Reuss Voigt Hill
#
# Bulk Modulus (GPa) = 43.56668 62.98373 53.27521
# Shear Modulus (GPa) = 17.38315 22.78492 20.08403
#
# Velocity S-wave (km/s) = 3.03628 3.47617 3.26365
# Velocity P-wave (km/s) = 5.94955 7.03666 6.51582
#
# Compressibility (1/GPa) = 0.02295332
#
# Stress axis : x y z
#
# Youngs Moduli (GPa) = 31.59858 75.86786 41.29848
#
# Poissons Ratio (x) = -0.34003 0.67308
# Poissons Ratio (y) = -0.14162 0.46371
# Poissons Ratio (z) = 0.51499 0.85186
#
# Static dielectric constant tensor:
#      x y z
#    x 1.674220 0.000000 0.000000 
#    y 0.000000 1.683710 0.000000 
#    z 0.000000 0.000000 1.664740 
# 
# From -- ./inp_files/5272.got.cif
#   From: 2010.05.17/outbox.cif.g08.bks.cpg/sg57_3_cif.got.tgz:5272.got - 2010.06.03 13:58:18.
