data_PCOD9436536
_publ_section_title
;
Structure prediction by ZEFSAII (Michael W. Deem and Ramdas Pophale) SiO2 
 PCOD9436536
Probable space group: P B C M
;
_chemical_formula_sum "Si O2"
_cell_formula_units_Z 64
_cell_length_a 23.427980
_cell_length_b 8.407887
_cell_length_c 13.659560
_cell_angle_alpha 90.000000
_cell_angle_beta 90.000000
_cell_angle_gamma 90.000000
_cell_volume 2690.657513
_symmetry_space_group_name_H-M "P B C M"
_symmetry_group_IT_number 57
_symmetry_cell_setting 'orthorhombic'
loop_
_space_group_symop_operation_xyz
x,y,z
-x,-y,1/2+z
x,1/2-y,-z
-x,1/2+y,1/2-z
-x,-y,-z
x,y,1/2-z
-x,1/2+y,z
x,1/2-y,1/2+z
loop_
_atom_site_type_symbol
_atom_site_label
_atom_site_fract_x
_atom_site_fract_y
_atom_site_fract_z
Si Si1 0.641582 0.177383 0.365899
Si Si2 0.134126 0.819816 0.634842
Si Si3 0.084597 0.183184 0.132719
Si Si4 0.181838 0.496721 0.545557
Si Si5 0.021226 0.644027 0.632213
Si Si6 0.583326 0.673591 0.368241
Si Si7 0.470946 0.512338 0.131908
Si Si8 0.314950 0.004816 0.039256
O O1 0.648463 0.161883 0.250000
O O2 0.673177 0.039968 0.426540
O O3 0.666246 0.344234 0.402554
O O4 0.574632 0.151123 0.390213
O O5 0.137335 0.858783 0.750000
O O6 0.166710 0.652794 0.612263
O O7 0.161147 0.948606 0.562353
O O8 0.068248 0.778849 0.607822
O O9 0.091877 0.192362 0.250000
O O10 0.043192 0.324533 0.099430
O O11 0.145054 0.148720 0.085827
O O12 0.047728 0.025136 0.108950
O O13 0.248519 0.464015 0.551130
O O14 0.018543 0.649842 0.750000
O O15 0.589608 0.664706 0.250000
O O16 0.557064 0.844577 0.393403
O O17 0.534871 0.547489 0.401878
O O18 0.643185 0.635956 0.417286
O O19 0.475563 0.510750 0.250000
#
# Coordination Sequence:
#
# PCOD9436536 Si02
#       8
#     8   8   8   8   8   8   8   8
#     4  10  21  38  58  82 113 146 188 239 282 329
#     4   9  17  31  51  75 105 137 175 229 276 316
#     4   9  17  31  52  78 109 140 176 227 274 322
#     4  10  20  32  50  79 108 142 187 220 264 332
#     4   8  15  28  49  76 102 134 174 217 274 325
#     4  10  20  36  60  90 121 149 185 233 278 332
#     4   9  19  37  62  90 118 150 187 232 288 333
#     4  11  23  35  56  87 114 151 192 226 278 338
#
# _framework density 23.786007000000001
#
# number of rings (size 3 to 8) (size 9 to 14) (size 15 to 20)
#    0.000    2.500    0.000    3.750    0.000    7.000 
#    0.000    0.000    0.000    6.000    0.000   15.750 
#    0.000    0.000    0.000    0.000    0.000    0.000 
#
# Total GULP energy -358333.089508 kJ/mol
# GULP energy per Si atom -5598.954524 kJ/mol
# Density = 2.373187 g / cm^3
# Si number density = 23.786007 Si / 1000 Ang^3
#
#
#
# Elastic Constant Matrix: (Units=GPa)
#
#
# Indices 1 2 3 4 5 6 
#
# 1 195.7764 51.0625 55.3569 0.0000 0.0000 0.0000
# 2 51.0625 62.7041 43.9617 0.0000 0.0000 0.0000
# 3 55.3569 43.9617 152.2651 0.0000 0.0000 0.0000
# 4 0.0000 0.0000 0.0000 27.7070 0.0000 0.0000
# 5 0.0000 0.0000 0.0000 0.0000 25.1231 0.0000
# 6 0.0000 0.0000 0.0000 0.0000 0.0000 21.7843
#
#
#
# Elastic Compliance Matrix: (Units=1/GPa)
#
#
# Indices 1 2 3 4 5 6 
#
# 1 0.006621 -0.004644 -0.001066 0.000000 0.000000 0.000000
# 2 -0.004644 0.023253 -0.005025 0.000000 0.000000 0.000000
# 3 -0.001066 -0.005025 0.008406 0.000000 0.000000 0.000000
# 4 0.000000 0.000000 0.000000 0.036092 0.000000 0.000000
# 5 0.000000 0.000000 0.000000 0.000000 0.039804 0.000000
# 6 0.000000 0.000000 0.000000 0.000000 0.000000 0.045905
#
#
# Mechanical properties :
#
#
# Convention : Reuss Voigt Hill
#
# Bulk Modulus (GPa) = 59.49261 79.05642 69.27452
# Shear Modulus (GPa) = 26.71606 32.28051 29.49829
#
# Velocity S-wave (km/s) = 3.35503 3.68791 3.52540
# Velocity P-wave (km/s) = 6.33042 7.17237 6.76451
#
# Compressibility (1/GPa) = 0.01680881
#
# Stress axis : x y z
#
# Youngs Moduli (GPa) = 151.04462 43.00560 118.96317
#
# Poissons Ratio (x) = 0.19971 0.12683
# Poissons Ratio (y) = 0.70144 0.59781
# Poissons Ratio (z) = 0.16104 0.21611
#
# Static dielectric constant tensor:
#      x y z
#    x 1.862150 0.000000 0.000000 
#    y 0.000000 1.963400 0.000000 
#    z 0.000000 0.000000 1.930500 
# 
# From -- ./inp_files/19544.got.cif
#   From: 2010.05.17/outbox.cif.g08.bks.cpg/sg57_10_cif.got.tgz:19544.got - 2010.06.03 13:58:18.
