data_PCOD9436113
_publ_section_title
;
Structure prediction by ZEFSAII (Michael W. Deem and Ramdas Pophale) SiO2 
 PCOD9436113
Probable space group: P B C M
;
_chemical_formula_sum "Si O2"
_cell_formula_units_Z 40
_cell_length_a 14.677690
_cell_length_b 15.660520
_cell_length_c 8.996961
_cell_angle_alpha 90.000000
_cell_angle_beta 90.000000
_cell_angle_gamma 90.000000
_cell_volume 2068.043775
_symmetry_space_group_name_H-M "P B C M"
_symmetry_group_IT_number 57
_symmetry_cell_setting 'orthorhombic'
loop_
_space_group_symop_operation_xyz
x,y,z
-x,-y,1/2+z
x,1/2-y,-z
-x,1/2+y,1/2-z
-x,-y,-z
x,y,1/2-z
-x,1/2+y,z
x,1/2-y,1/2+z
loop_
_atom_site_type_symbol
_atom_site_label
_atom_site_fract_x
_atom_site_fract_y
_atom_site_fract_z
Si Si1 0.900504 0.995349 0.071355
Si Si2 0.402225 0.896944 0.075503
Si Si3 0.588659 0.601813 0.424845
Si Si4 0.781836 0.163199 0.073444
Si Si5 0.790780 0.660857 0.071418
O O1 0.905640 0.986179 0.250000
O O2 0.844858 0.082024 0.037892
O O3 0.846439 0.916543 0.999935
O O4 0.000000 0.000000 0.000000
O O5 0.392459 0.879699 0.250000
O O6 0.398157 0.999769 0.052350
O O7 0.501393 0.869290 0.017929
O O8 0.319182 0.855334 0.988011
O O9 0.569725 0.614576 0.250000
O O10 0.683722 0.646038 0.463001
O O11 0.778346 0.173003 0.250000
O O12 0.816845 0.250000 0.000000
O O13 0.801112 0.660923 0.250000
O O14 0.820219 0.750000 0.000000
#
# Coordination Sequence:
#
# PCOD9436113 Si02
#       5
#     8   8   8   8   8
#     4  11  25  45  69  94 123 161 204 258 317 375
#     4  10  19  34  59  89 124 167 209 254 303 359
#     4   9  19  35  57  87 125 169 210 252 302 361
#     4  11  24  41  64  93 125 162 206 254 308 369
#     4  11  23  41  65  94 128 165 209 257 310 370
#
# _framework density 19.341951000000002
#
# number of rings (size 3 to 8) (size 9 to 14) (size 15 to 20)
#    0.000    1.600    2.000    2.400    0.000    6.400 
#    0.000    4.000    0.000    0.000    0.000    0.000 
#    0.000    0.000    0.000    0.000    0.000    0.000 
#
# Total GULP energy -223680.362533 kJ/mol
# GULP energy per Si atom -5592.009063 kJ/mol
# Density = 1.929793 g / cm^3
# Si number density = 19.341951 Si / 1000 Ang^3
#
#
#
# Elastic Constant Matrix: (Units=GPa)
#
#
# Indices 1 2 3 4 5 6 
#
# 1 128.5931 82.4079 73.9203 0.0000 0.0000 0.0000
# 2 82.4079 147.6085 87.7361 0.0000 0.0000 0.0000
# 3 73.9203 87.7361 83.6644 0.0000 0.0000 0.0000
# 4 0.0000 0.0000 0.0000 31.6968 0.0000 0.0000
# 5 0.0000 0.0000 0.0000 0.0000 34.2580 0.0000
# 6 0.0000 0.0000 0.0000 0.0000 0.0000 -8.3203
#
#
#
# Elastic Compliance Matrix: (Units=1/GPa)
#
#
# Indices 1 2 3 4 5 6 
#
# 1 0.015910 -0.001399 -0.012590 0.000000 0.000000 0.000000
# 2 -0.001399 0.018108 -0.017753 0.000000 0.000000 0.000000
# 3 -0.012590 -0.017753 0.041693 0.000000 0.000000 0.000000
# 4 0.000000 0.000000 0.000000 0.031549 0.000000 0.000000
# 5 0.000000 0.000000 0.000000 0.000000 0.029190 0.000000
# 6 0.000000 0.000000 0.000000 0.000000 0.000000 -0.120188
#
#
# Mechanical properties :
#
#
# Convention : Reuss Voigt Hill
#
# Bulk Modulus (GPa) = 81.78566 94.22161 88.00363
# Shear Modulus (GPa) = 59.64984 19.24702 39.44843
#
# Velocity S-wave (km/s) = 5.55937 3.15793 4.52101
# Velocity P-wave (km/s) = 9.14246 7.88137 8.53524
#
# Compressibility (1/GPa) = 0.01222708
#
# Stress axis : x y z
#
# Youngs Moduli (GPa) = 62.85198 55.22474 23.98488
#
# Poissons Ratio (x) = 0.07727 0.30197
# Poissons Ratio (y) = 0.08795 0.42580
# Poissons Ratio (z) = 0.79131 0.98039
#
# Static dielectric constant tensor:
#      x y z
#    x 1.640970 0.000000 0.000000 
#    y 0.000000 1.688970 0.000000 
#    z 0.000000 0.000000 1.641720 
# 
# From -- ./inp_files/4258.got.cif
#   From: 2010.05.17/outbox.cif.g08.bks.cpg/sg57_3_cif.got.tgz:4258.got - 2010.06.03 13:58:18.
