data_PCOD9436773
_publ_section_title
;
Structure prediction by ZEFSAII (Michael W. Deem and Ramdas Pophale) SiO2 
 PCOD9436773
Probable space group: P B C M
;
_chemical_formula_sum "Si O2"
_cell_formula_units_Z 48
_cell_length_a 19.272717
_cell_length_b 13.928404
_cell_length_c 8.501110
_cell_angle_alpha 90.000000
_cell_angle_beta 90.000000
_cell_angle_gamma 90.000000
_cell_volume 2282.022569
_symmetry_space_group_name_H-M "P B C M"
_symmetry_group_IT_number 57
_symmetry_cell_setting 'orthorhombic'
loop_
_space_group_symop_operation_xyz
x,y,z
-x,-y,1/2+z
x,1/2-y,-z
-x,1/2+y,1/2-z
-x,-y,-z
x,y,1/2-z
-x,1/2+y,z
x,1/2-y,1/2+z
loop_
_atom_site_type_symbol
_atom_site_label
_atom_site_fract_x
_atom_site_fract_y
_atom_site_fract_z
Si Si1 0.744206 0.042473 0.939945
Si Si2 0.458849 0.353090 0.437077
Si Si3 0.113052 0.641206 0.559762
Si Si4 0.184967 0.142982 0.062607
Si Si5 0.037559 0.360487 0.060642
Si Si6 0.403057 0.559296 0.437754
O O1 0.739753 0.048215 0.750000
O O2 0.815454 0.093041 0.991830
O O3 0.755604 0.931170 0.986253
O O4 0.674685 0.084151 0.012739
O O5 0.435018 0.250000 0.500000
O O6 0.454483 0.350517 0.250000
O O7 0.418580 0.449209 0.492375
O O8 0.538221 0.373455 0.488071
O O9 0.114523 0.750000 0.500000
O O10 0.112527 0.639234 0.750000
O O11 0.037696 0.599495 0.509065
O O12 0.182933 0.146653 0.250000
O O13 0.194728 0.250000 0.000000
O O14 0.110060 0.102675 0.007648
O O15 0.041643 0.362068 0.250000
O O16 0.036750 0.250000 0.000000
O O17 0.410486 0.562860 0.250000
#
# Coordination Sequence:
#
# PCOD9436773 Si02
#       6
#     8   8   8   8   8   8
#     4  10  22  38  54  76 111 149 180 218 271 326
#     4  10  21  39  64  90 115 145 181 220 265 319
#     4   9  19  35  53  75 103 138 180 224 273 325
#     4  10  20  34  52  74 103 141 183 227 276 326
#     4   9  16  29  50  73  99 132 176 229 276 321
#     4  10  22  39  59  86 117 146 181 224 267 318
#
# _framework density 21.033973
#
# number of rings (size 3 to 8) (size 9 to 14) (size 15 to 20)
#    0.000    2.333    0.000    3.000    0.000    6.667 
#    0.000    5.000    0.000    0.000    0.000    0.000 
#    0.000    0.000    0.000    0.000    0.000    0.000 
#
# Total GULP energy -267930.527896 kJ/mol
# GULP energy per Si atom -5581.885998 kJ/mol
# Density = 2.098610 g / cm^3
# Si number density = 21.033973 Si / 1000 Ang^3
#
#
#
# Elastic Constant Matrix: (Units=GPa)
#
#
# Indices 1 2 3 4 5 6 
#
# 1 65.1247 -15.3186 -6.9757 0.0000 0.0000 0.0000
# 2 -15.3186 38.5755 -4.3422 0.0000 0.0000 0.0000
# 3 -6.9757 -4.3422 22.7901 0.0000 0.0000 0.0000
# 4 0.0000 0.0000 0.0000 18.2632 0.0000 0.0000
# 5 0.0000 0.0000 0.0000 0.0000 16.0801 0.0000
# 6 0.0000 0.0000 0.0000 0.0000 0.0000 15.8810
#
#
#
# Elastic Compliance Matrix: (Units=1/GPa)
#
#
# Indices 1 2 3 4 5 6 
#
# 1 0.017970 0.007925 0.007010 0.000000 0.000000 0.000000
# 2 0.007925 0.029987 0.008139 0.000000 0.000000 0.000000
# 3 0.007010 0.008139 0.047575 0.000000 0.000000 0.000000
# 4 0.000000 0.000000 0.000000 0.054755 0.000000 0.000000
# 5 0.000000 0.000000 0.000000 0.000000 0.062189 0.000000
# 6 0.000000 0.000000 0.000000 0.000000 0.000000 0.062968
#
#
# Mechanical properties :
#
#
# Convention : Reuss Voigt Hill
#
# Bulk Modulus (GPa) = 7.05807 8.13523 7.59665
# Shear Modulus (GPa) = 18.08176 20.25330 19.16753
#
# Velocity S-wave (km/s) = 2.93515 3.10641 3.02199
# Velocity P-wave (km/s) = 3.85353 4.09175 3.97442
#
# Compressibility (1/GPa) = 0.14168187
#
# Stress axis : x y z
#
# Youngs Moduli (GPa) = 55.64754 33.34825 21.01932
#
# Poissons Ratio (x) = -0.26429 -0.14735
# Poissons Ratio (y) = -0.44102 -0.17108
# Poissons Ratio (z) = -0.39011 -0.27143
#
# Static dielectric constant tensor:
#      x y z
#    x 1.754830 0.000000 0.000000 
#    y 0.000000 1.792320 0.000000 
#    z 0.000000 0.000000 1.706950 
# 
# From -- ./inp_files/6544.got.cif
#   From: 2010.05.17/outbox.cif.g08.bks.cpg/sg57_4_cif.got.tgz:6544.got - 2010.06.03 13:58:18.
