data_PCOD9436607
_publ_section_title
;
Structure prediction by ZEFSAII (Michael W. Deem and Ramdas Pophale) SiO2 
 PCOD9436607
Probable space group: P B C M
;
_chemical_formula_sum "Si O2"
_cell_formula_units_Z 64
_cell_length_a 21.960803
_cell_length_b 19.568376
_cell_length_c 8.955707
_cell_angle_alpha 90.000000
_cell_angle_beta 90.000000
_cell_angle_gamma 90.000000
_cell_volume 3848.600901
_symmetry_space_group_name_H-M "P B C M"
_symmetry_group_IT_number 57
_symmetry_cell_setting 'orthorhombic'
loop_
_space_group_symop_operation_xyz
x,y,z
-x,-y,1/2+z
x,1/2-y,-z
-x,1/2+y,1/2-z
-x,-y,-z
x,y,1/2-z
-x,1/2+y,z
x,1/2-y,1/2+z
loop_
_atom_site_type_symbol
_atom_site_label
_atom_site_fract_x
_atom_site_fract_y
_atom_site_fract_z
Si Si1 0.294572 0.180280 0.920561
Si Si2 0.441913 0.317187 0.419417
Si Si3 0.305277 0.034823 0.070188
Si Si4 0.800114 0.452788 0.930722
Si Si5 0.446215 0.458029 0.573336
Si Si6 0.130161 0.676003 0.570996
Si Si7 0.981708 0.392576 0.580062
Si Si8 0.912942 0.960397 0.420420
O O1 0.271970 0.174900 0.750000
O O2 0.368219 0.187094 0.912740
O O3 0.272316 0.250000 0.000000
O O4 0.284776 0.109616 0.009459
O O5 0.465348 0.250000 0.500000
O O6 0.463921 0.324994 0.250000
O O7 0.456464 0.380997 0.521335
O O8 0.300191 0.033698 0.250000
O O9 0.376492 0.024821 0.028385
O O10 0.264163 0.976733 0.995024
O O11 0.800503 0.446936 0.750000
O O12 0.846939 0.514403 0.972095
O O13 0.826281 0.383081 0.002030
O O14 0.500000 0.500000 0.500000
O O15 0.449240 0.464814 0.750000
O O16 0.143499 0.750000 0.500000
O O17 0.135171 0.677393 0.750000
O O18 0.061747 0.653728 0.521689
O O19 0.981908 0.366923 0.750000
O O20 0.949967 0.467619 0.581849
O O21 0.048978 0.407258 0.518045
O O22 0.909498 0.935712 0.250000
#
# Coordination Sequence:
#
# PCOD9436607 Si02
#       8
#     8   8   8   8   8   8   8   8
#     4   9  16  27  45  69  96 125 156 193 237 288
#     4   9  16  27  45  69  96 124 155 192 237 289
#     4  10  20  33  50  74 102 133 170 211 256 308
#     4  10  20  34  52  75 102 133 172 214 257 308
#     4  10  20  33  50  73 101 132 168 210 257 309
#     4  11  21  34  52  74 102 135 175 221 264 304
#     4   9  16  27  45  70  97 124 157 196 240 288
#     4   8  15  27  44  68  96 124 154 191 236 286
#
# _framework density 16.62942
#
# number of rings (size 3 to 8) (size 9 to 14) (size 15 to 20)
#    0.000    2.500    0.000    4.125    0.000    8.000 
#    0.000    0.000    0.000    1.500    0.000    0.000 
#    0.000    0.000    0.000    0.000    0.000    0.000 
#
# Total GULP energy -356533.172663 kJ/mol
# GULP energy per Si atom -5570.830823 kJ/mol
# Density = 1.659157 g / cm^3
# Si number density = 16.629420 Si / 1000 Ang^3
#
#
#
# Elastic Constant Matrix: (Units=GPa)
#
#
# Indices 1 2 3 4 5 6 
#
# 1 80.0214 56.4387 46.9054 0.0000 0.0000 0.0000
# 2 56.4387 91.7493 49.7794 0.0000 0.0000 0.0000
# 3 46.9054 49.7794 98.7242 0.0000 0.0000 0.0000
# 4 0.0000 0.0000 0.0000 28.4105 0.0000 0.0000
# 5 0.0000 0.0000 0.0000 0.0000 21.4551 0.0000
# 6 0.0000 0.0000 0.0000 0.0000 0.0000 28.5937
#
#
#
# Elastic Compliance Matrix: (Units=1/GPa)
#
#
# Indices 1 2 3 4 5 6 
#
# 1 0.024035 -0.011824 -0.005457 0.000000 0.000000 0.000000
# 2 -0.011824 0.020821 -0.004881 0.000000 0.000000 0.000000
# 3 -0.005457 -0.004881 0.015183 0.000000 0.000000 0.000000
# 4 0.000000 0.000000 0.000000 0.035198 0.000000 0.000000
# 5 0.000000 0.000000 0.000000 0.000000 0.046609 0.000000
# 6 0.000000 0.000000 0.000000 0.000000 0.000000 0.034973
#
#
# Mechanical properties :
#
#
# Convention : Reuss Voigt Hill
#
# Bulk Modulus (GPa) = 63.63443 64.08244 63.85843
# Shear Modulus (GPa) = 22.08669 23.51662 22.80166
#
# Velocity S-wave (km/s) = 3.64836 3.76461 3.70694
# Velocity P-wave (km/s) = 7.48977 7.58390 7.53698
#
# Compressibility (1/GPa) = 0.01571476
#
# Stress axis : x y z
#
# Youngs Moduli (GPa) = 41.60618 48.02931 65.86279
#
# Poissons Ratio (x) = 0.56789 0.35944
# Poissons Ratio (y) = 0.49195 0.32145
# Poissons Ratio (z) = 0.22706 0.23441
#
# Static dielectric constant tensor:
#      x y z
#    x 1.574570 0.000000 0.000000 
#    y 0.000000 1.541820 0.000000 
#    z 0.000000 0.000000 1.564480 
# 
# From -- ./inp_files/8547.got.cif
#   From: 2010.05.17/outbox.cif.g08.bks.cpg/sg57_5_cif.got.tgz:8547.got - 2010.06.03 13:58:18.
