data_PCOD9436018
_publ_section_title
;
Structure prediction by ZEFSAII (Michael W. Deem and Ramdas Pophale) SiO2 
 PCOD9436018
Probable space group: P B C M
;
_chemical_formula_sum "Si O2"
_cell_formula_units_Z 64
_cell_length_a 21.237127
_cell_length_b 19.158757
_cell_length_c 8.750280
_cell_angle_alpha 90.000000
_cell_angle_beta 90.000000
_cell_angle_gamma 90.000000
_cell_volume 3560.287287
_symmetry_space_group_name_H-M "P B C M"
_symmetry_group_IT_number 57
_symmetry_cell_setting 'orthorhombic'
loop_
_space_group_symop_operation_xyz
x,y,z
-x,-y,1/2+z
x,1/2-y,-z
-x,1/2+y,1/2-z
-x,-y,-z
x,y,1/2-z
-x,1/2+y,z
x,1/2-y,1/2+z
loop_
_atom_site_type_symbol
_atom_site_label
_atom_site_fract_x
_atom_site_fract_y
_atom_site_fract_z
Si Si1 0.805649 0.029839 0.933775
Si Si2 0.505016 0.576925 0.067658
Si Si3 0.389641 0.677267 0.432007
Si Si4 0.250728 0.675807 0.933266
Si Si5 0.118451 0.326064 0.066500
Si Si6 0.061127 0.462652 0.933499
Si Si7 0.615423 0.672556 0.566077
Si Si8 0.748515 0.894214 0.433737
O O1 0.801085 0.027010 0.750000
O O2 0.788819 0.108158 0.982332
O O3 0.876075 0.006324 0.976673
O O4 0.758724 0.971659 0.000826
O O5 0.514213 0.574174 0.250000
O O6 0.439713 0.617223 0.037361
O O7 0.500000 0.500000 0.000000
O O8 0.561409 0.621091 0.993779
O O9 0.414666 0.750000 0.500000
O O10 0.381053 0.684385 0.250000
O O11 0.322125 0.664998 0.508866
O O12 0.250504 0.680101 0.750000
O O13 0.228795 0.750000 0.000000
O O14 0.114979 0.325176 0.250000
O O15 0.189628 0.349684 0.021209
O O16 0.105223 0.250000 0.000000
O O17 0.072644 0.385577 0.000849
O O18 0.057651 0.459270 0.750000
O O19 0.000000 0.500000 0.000000
O O20 0.606770 0.750000 0.500000
O O21 0.613503 0.675443 0.750000
O O22 0.683763 0.642237 0.518110
O O23 0.748208 0.898671 0.250000
#
# Coordination Sequence:
#
# PCOD9436018 Si02
#       8
#     8   8   8   8   8   8   8   8
#     4   9  20  36  56  82 112 145 183 228 276 327
#     4  11  25  41  57  79 108 144 185 232 282 333
#     4  10  21  37  57  79 103 137 179 225 275 328
#     4  10  20  35  56  83 109 140 179 225 278 329
#     4  10  19  34  56  84 115 149 188 230 277 329
#     4  10  20  37  58  82 114 151 190 231 275 327
#     4  11  23  39  58  83 113 147 185 228 279 335
#     4   9  20  35  55  83 114 146 183 227 276 332
#
# _framework density 17.976078000000001
#
# number of rings (size 3 to 8) (size 9 to 14) (size 15 to 20)
#    0.000    2.000    0.000    3.750    1.750    6.000 
#    0.000    0.625    0.000    1.500    0.000    0.000 
#    0.000    0.000    0.000    0.000    0.000    0.000 
#
# Total GULP energy -357434.155376 kJ/mol
# GULP energy per Si atom -5584.908678 kJ/mol
# Density = 1.793516 g / cm^3
# Si number density = 17.976078 Si / 1000 Ang^3
#
#
#
# Elastic Constant Matrix: (Units=GPa)
#
#
# Indices 1 2 3 4 5 6 
#
# 1 78.5887 88.0124 35.9587 0.0000 0.0000 0.0000
# 2 88.0124 203.3530 62.0765 0.0000 0.0000 0.0000
# 3 35.9587 62.0765 52.2681 0.0000 0.0000 0.0000
# 4 0.0000 0.0000 0.0000 34.3027 0.0000 0.0000
# 5 0.0000 0.0000 0.0000 0.0000 22.9590 0.0000
# 6 0.0000 0.0000 0.0000 0.0000 0.0000 26.9634
#
#
#
# Elastic Compliance Matrix: (Units=1/GPa)
#
#
# Indices 1 2 3 4 5 6 
#
# 1 0.026305 -0.009194 -0.007178 0.000000 0.000000 0.000000
# 2 -0.009194 0.010928 -0.006653 0.000000 0.000000 0.000000
# 3 -0.007178 -0.006653 0.031972 0.000000 0.000000 0.000000
# 4 0.000000 0.000000 0.000000 0.029152 0.000000 0.000000
# 5 0.000000 0.000000 0.000000 0.000000 0.043556 0.000000
# 6 0.000000 0.000000 0.000000 0.000000 0.000000 0.037087
#
#
# Mechanical properties :
#
#
# Convention : Reuss Voigt Hill
#
# Bulk Modulus (GPa) = 43.18757 78.47833 60.83295
# Shear Modulus (GPa) = 21.48057 26.72251 24.10154
#
# Velocity S-wave (km/s) = 3.46056 3.85978 3.66561
# Velocity P-wave (km/s) = 6.32807 7.97594 7.19931
#
# Compressibility (1/GPa) = 0.02315481
#
# Stress axis : x y z
#
# Youngs Moduli (GPa) = 38.01564 91.51044 31.27726
#
# Poissons Ratio (x) = 0.84133 0.22450
# Poissons Ratio (y) = 0.34951 0.20810
# Poissons Ratio (z) = 0.27287 0.60885
#
# Static dielectric constant tensor:
#      x y z
#    x 1.599750 0.000000 0.000000 
#    y 0.000000 1.598660 0.000000 
#    z 0.000000 0.000000 1.603440 
# 
# From -- ./inp_files/8565.got.cif
#   From: 2010.05.17/outbox.cif.g08.bks.cpg/sg57_5_cif.got.tgz:8565.got - 2010.06.03 13:58:18.
