data_PCOD9436794
_publ_section_title
;
Structure prediction by ZEFSAII (Michael W. Deem and Ramdas Pophale) SiO2 
 PCOD9436794
Probable space group: P B C M
;
_chemical_formula_sum "Si O2"
_cell_formula_units_Z 64
_cell_length_a 15.419447
_cell_length_b 22.702244
_cell_length_c 9.221546
_cell_angle_alpha 90.000000
_cell_angle_beta 90.000000
_cell_angle_gamma 90.000000
_cell_volume 3228.057950
_symmetry_space_group_name_H-M "P B C M"
_symmetry_group_IT_number 57
_symmetry_cell_setting 'orthorhombic'
loop_
_space_group_symop_operation_xyz
x,y,z
-x,-y,1/2+z
x,1/2-y,-z
-x,1/2+y,1/2-z
-x,-y,-z
x,y,1/2-z
-x,1/2+y,z
x,1/2-y,1/2+z
loop_
_atom_site_type_symbol
_atom_site_label
_atom_site_fract_x
_atom_site_fract_y
_atom_site_fract_z
Si Si1 0.471160 0.812201 0.576127
Si Si2 0.233154 0.188093 0.421398
Si Si3 0.281250 0.861527 0.919463
Si Si4 0.092644 0.999180 0.414913
Si Si5 0.616589 0.904667 0.923468
Si Si6 0.043228 0.187608 0.078722
Si Si7 0.270068 0.496878 0.078493
Si Si8 0.885627 0.360322 0.410001
O O1 0.493051 0.750000 0.500000
O O2 0.482549 0.804864 0.750000
O O3 0.372025 0.830506 0.546753
O O4 0.530577 0.868397 0.533692
O O5 0.245544 0.250000 0.500000
O O6 0.234306 0.199901 0.250000
O O7 0.307429 0.142262 0.453315
O O8 0.138210 0.162752 0.457121
O O9 0.260607 0.850928 0.750000
O O10 0.285520 0.932671 0.937373
O O11 0.203850 0.839245 0.020512
O O12 0.084773 0.024667 0.250000
O O13 0.178439 0.021065 0.501471
O O14 0.115815 0.930513 0.397972
O O15 0.000000 0.000000 0.500000
O O16 0.612766 0.916671 0.750000
O O17 0.649081 0.962262 0.007608
O O18 0.035869 0.194118 0.250000
O O19 0.039853 0.250000 0.000000
O O20 0.964662 0.151648 0.015851
O O21 0.263909 0.484323 0.250000
O O22 0.900215 0.334651 0.250000
#
# Coordination Sequence:
#
# PCOD9436794 Si02
#       8
#     8   8   8   8   8   8   8   8
#     4  10  22  40  63  89 117 150 192 241 296 353
#     4   9  19  34  52  76 107 146 185 228 283 341
#     4   9  20  40  60  81 115 154 192 240 294 347
#     4  10  21  36  55  81 114 151 193 238 284 335
#     4  10  21  37  57  85 119 151 187 237 294 350
#     4  10  20  34  52  76 107 146 188 231 280 338
#     4  10  21  37  57  84 115 154 201 240 288 348
#     4  10  21  36  55  81 110 144 186 235 284 338
#
# _framework density 19.826163000000001
#
# number of rings (size 3 to 8) (size 9 to 14) (size 15 to 20)
#    0.000    2.250    0.000    1.875    1.750    5.000 
#    0.000    1.250    0.000    0.000    0.000    0.000 
#    0.000    0.000    0.000    0.000    0.000    0.000 
#
# Total GULP energy -357034.145574 kJ/mol
# GULP energy per Si atom -5578.658525 kJ/mol
# Density = 1.978104 g / cm^3
# Si number density = 19.826163 Si / 1000 Ang^3
#
#
#
# Elastic Constant Matrix: (Units=GPa)
#
#
# Indices 1 2 3 4 5 6 
#
# 1 48.4021 -8.5227 23.4334 0.0000 0.0000 0.0000
# 2 -8.5227 18.8606 10.4270 0.0000 0.0000 0.0000
# 3 23.4334 10.4270 56.2663 0.0000 0.0000 0.0000
# 4 0.0000 0.0000 0.0000 28.5796 0.0000 0.0000
# 5 0.0000 0.0000 0.0000 0.0000 25.6015 0.0000
# 6 0.0000 0.0000 0.0000 0.0000 0.0000 34.1220
#
#
#
# Elastic Compliance Matrix: (Units=1/GPa)
#
#
# Indices 1 2 3 4 5 6 
#
# 1 0.034644 0.026329 -0.019307 0.000000 0.000000 0.000000
# 2 0.026329 0.079082 -0.025620 0.000000 0.000000 0.000000
# 3 -0.019307 -0.025620 0.030561 0.000000 0.000000 0.000000
# 4 0.000000 0.000000 0.000000 0.034990 0.000000 0.000000
# 5 0.000000 0.000000 0.000000 0.000000 0.039060 0.000000
# 6 0.000000 0.000000 0.000000 0.000000 0.000000 0.029307
#
#
# Mechanical properties :
#
#
# Convention : Reuss Voigt Hill
#
# Bulk Modulus (GPa) = 9.33798 19.35604 14.34701
# Shear Modulus (GPa) = 15.59875 24.20671 19.90273
#
# Velocity S-wave (km/s) = 2.80800 3.49800 3.17182
# Velocity P-wave (km/s) = 3.90298 5.10869 4.54599
#
# Compressibility (1/GPa) = 0.10708954
#
# Stress axis : x y z
#
# Youngs Moduli (GPa) = 28.86527 12.64507 32.72093
#
# Poissons Ratio (x) = -0.33293 0.63175
# Poissons Ratio (y) = -0.75999 0.83832
# Poissons Ratio (z) = 0.55731 0.32397
#
# Static dielectric constant tensor:
#      x y z
#    x 1.709950 0.000000 0.000000 
#    y 0.000000 1.729840 0.000000 
#    z 0.000000 0.000000 1.708870 
# 
# From -- ./inp_files/5756.got.cif
#   From: 2010.05.17/outbox.cif.g08.bks.cpg/sg57_3_cif.got.tgz:5756.got - 2010.06.03 13:58:18.
