data_PCOD9436019
_publ_section_title
;
Structure prediction by ZEFSAII (Michael W. Deem and Ramdas Pophale) SiO2 
 PCOD9436019
Probable space group: P B C M
;
_chemical_formula_sum "Si O2"
_cell_formula_units_Z 64
_cell_length_a 21.121753
_cell_length_b 19.221525
_cell_length_c 8.701824
_cell_angle_alpha 90.000000
_cell_angle_beta 90.000000
_cell_angle_gamma 90.000000
_cell_volume 3532.873569
_symmetry_space_group_name_H-M "P B C M"
_symmetry_group_IT_number 57
_symmetry_cell_setting 'orthorhombic'
loop_
_space_group_symop_operation_xyz
x,y,z
-x,-y,1/2+z
x,1/2-y,-z
-x,1/2+y,1/2-z
-x,-y,-z
x,y,1/2-z
-x,1/2+y,z
x,1/2-y,1/2+z
loop_
_atom_site_type_symbol
_atom_site_label
_atom_site_fract_x
_atom_site_fract_y
_atom_site_fract_z
Si Si1 0.118958 0.825935 0.434364
Si Si2 0.396291 0.175415 0.934084
Si Si3 0.499096 0.577377 0.433406
Si Si4 0.061401 0.537739 0.434332
Si Si5 0.747467 0.106358 0.565200
Si Si6 0.752781 0.676185 0.565936
Si Si7 0.613174 0.172469 0.935240
Si Si8 0.804625 0.970534 0.435248
O O1 0.105389 0.750000 0.500000
O O2 0.116128 0.825099 0.250000
O O3 0.072545 0.885270 0.498663
O O4 0.190366 0.849438 0.481464
O O5 0.404248 0.173912 0.750000
O O6 0.321836 0.168025 0.970375
O O7 0.417321 0.250000 0.000000
O O8 0.437521 0.116259 0.012147
O O9 0.500000 0.500000 0.500000
O O10 0.495195 0.575759 0.250000
O O11 0.440689 0.621611 0.500776
O O12 0.058168 0.541042 0.250000
O O13 0.124728 0.494660 0.477998
O O14 0.000000 0.500000 0.500000
O O15 0.747802 0.101939 0.750000
O O16 0.682255 0.142843 0.518357
O O17 0.757261 0.029207 0.498804
O O18 0.774772 0.750000 0.500000
O O19 0.758379 0.679479 0.750000
O O20 0.788334 0.607043 0.510671
O O21 0.609758 0.174195 0.750000
O O22 0.604770 0.250000 0.000000
O O23 0.800134 0.971369 0.250000
#
# Coordination Sequence:
#
# PCOD9436019 Si02
#       8
#     8   8   8   8   8   8   8   8
#     4  10  19  34  56  84 116 148 187 231 277 330
#     4  10  20  37  59  82 108 141 182 226 277 335
#     4  12  26  42  58  79 108 144 185 233 282 333
#     4  10  20  36  57  81 113 152 192 232 278 329
#     4   9  20  35  55  84 115 146 183 227 276 333
#     4   9  19  35  56  83 110 140 179 225 277 331
#     4  11  23  40  59  84 114 148 186 227 278 335
#     4   9  19  35  56  82 112 146 184 229 279 330
#
# _framework density 18.115565
#
# number of rings (size 3 to 8) (size 9 to 14) (size 15 to 20)
#    0.000    2.000    0.000    3.375    1.750    3.000 
#    0.000    0.625    0.000    1.500    0.000    0.000 
#    0.000    0.000    0.000    0.000    0.000    0.000 
#
# Total GULP energy -357465.854805 kJ/mol
# GULP energy per Si atom -5585.403981 kJ/mol
# Density = 1.807433 g / cm^3
# Si number density = 18.115565 Si / 1000 Ang^3
#
#
#
# Elastic Constant Matrix: (Units=GPa)
#
#
# Indices 1 2 3 4 5 6 
#
# 1 74.9735 80.9832 38.0826 0.0000 0.0000 0.0000
# 2 80.9832 208.6883 53.6888 0.0000 0.0000 0.0000
# 3 38.0826 53.6888 58.1002 0.0000 0.0000 0.0000
# 4 0.0000 0.0000 0.0000 36.5060 0.0000 0.0000
# 5 0.0000 0.0000 0.0000 0.0000 21.7596 0.0000
# 6 0.0000 0.0000 0.0000 0.0000 0.0000 28.3519
#
#
#
# Elastic Compliance Matrix: (Units=1/GPa)
#
#
# Indices 1 2 3 4 5 6 
#
# 1 0.027152 -0.007816 -0.010575 0.000000 0.000000 0.000000
# 2 -0.007816 0.008536 -0.002765 0.000000 0.000000 0.000000
# 3 -0.010575 -0.002765 0.026698 0.000000 0.000000 0.000000
# 4 0.000000 0.000000 0.000000 0.027393 0.000000 0.000000
# 5 0.000000 0.000000 0.000000 0.000000 0.045957 0.000000
# 6 0.000000 0.000000 0.000000 0.000000 0.000000 0.035271
#
#
# Mechanical properties :
#
#
# Convention : Reuss Voigt Hill
#
# Bulk Modulus (GPa) = 49.81323 76.36346 63.08835
# Shear Modulus (GPa) = 22.72630 28.59065 25.65847
#
# Velocity S-wave (km/s) = 3.54576 3.97701 3.76756
# Velocity P-wave (km/s) = 6.65736 7.95826 7.33670
#
# Compressibility (1/GPa) = 0.02007499
#
# Stress axis : x y z
#
# Youngs Moduli (GPa) = 36.82983 117.14746 37.45607
#
# Poissons Ratio (x) = 0.91563 0.39608
# Poissons Ratio (y) = 0.28786 0.10357
# Poissons Ratio (z) = 0.38946 0.32391
#
# Static dielectric constant tensor:
#      x y z
#    x 1.611610 0.000000 0.000000 
#    y 0.000000 1.601900 0.000000 
#    z 0.000000 0.000000 1.604600 
# 
# From -- ./inp_files/8566.got.cif
#   From: 2010.05.17/outbox.cif.g08.bks.cpg/sg57_5_cif.got.tgz:8566.got - 2010.06.03 13:58:18.
