data_PCOD9436058
_publ_section_title
;
Structure prediction by ZEFSAII (Michael W. Deem and Ramdas Pophale) SiO2 
 PCOD9436058
Probable space group: P B C M
;
_chemical_formula_sum "Si O2"
_cell_formula_units_Z 64
_cell_length_a 8.958186
_cell_length_b 20.941568
_cell_length_c 16.877758
_cell_angle_alpha 90.000000
_cell_angle_beta 90.000000
_cell_angle_gamma 90.000000
_cell_volume 3166.241431
_symmetry_space_group_name_H-M "P B C M"
_symmetry_group_IT_number 57
_symmetry_cell_setting 'orthorhombic'
loop_
_space_group_symop_operation_xyz
x,y,z
-x,-y,1/2+z
x,1/2-y,-z
-x,1/2+y,1/2-z
-x,-y,-z
x,y,1/2-z
-x,1/2+y,z
x,1/2-y,1/2+z
loop_
_atom_site_type_symbol
_atom_site_label
_atom_site_fract_x
_atom_site_fract_y
_atom_site_fract_z
Si Si1 0.296640 0.578310 0.564241
Si Si2 0.824346 0.800851 0.116613
Si Si3 0.594109 0.912372 0.339434
Si Si4 0.171317 0.824886 0.662558
Si Si5 0.924580 0.525384 0.082968
Si Si6 0.163810 0.684030 0.837594
Si Si7 0.251339 0.545134 0.380395
Si Si8 0.871917 0.667776 0.067426
O O1 0.461789 0.586250 0.597099
O O2 0.195451 0.526042 0.609504
O O3 0.214556 0.643493 0.587363
O O4 0.289684 0.556170 0.473250
O O5 0.705028 0.852290 0.147106
O O6 0.789233 0.724543 0.115749
O O7 0.984523 0.808943 0.158411
O O8 0.852194 0.817484 0.024604
O O9 0.535788 0.907757 0.250000
O O10 0.673878 0.981039 0.349538
O O11 0.098708 0.828122 0.750000
O O12 0.236624 0.754181 0.656687
O O13 0.280628 0.884997 0.655856
O O14 0.044492 0.828163 0.595392
O O15 0.839779 0.592799 0.076583
O O16 0.073601 0.534851 0.133761
O O17 0.000000 0.500000 0.000000
O O18 0.201389 0.657425 0.750000
#
# Coordination Sequence:
#
# PCOD9436058 Si02
#       8
#     8   8   8   8   8   8   8   8
#     4  11  22  37  57  82 115 151 194 245 293 354
#     4  10  19  35  59  84 113 153 198 239 282 345
#     4  12  25  40  57  82 119 159 199 244 298 357
#     4   9  18  33  56  88 119 145 184 244 304 352
#     4   9  17  33  59  87 111 139 184 243 297 346
#     4  10  19  34  57  84 114 149 190 238 294 351
#     4  10  20  37  62  85 109 148 195 243 300 363
#     4   9  18  33  57  87 116 146 192 243 288 341
#
# _framework density 20.213239999999999
#
# number of rings (size 3 to 8) (size 9 to 14) (size 15 to 20)
#    0.000    2.000    0.000    6.000    0.000    2.000 
#    0.000    9.375    0.000    1.500    0.000    0.000 
#    0.000    0.000    0.000    0.000    0.000    0.000 
#
# Total GULP energy -356451.012773 kJ/mol
# GULP energy per Si atom -5569.547075 kJ/mol
# Density = 2.016723 g / cm^3
# Si number density = 20.213240 Si / 1000 Ang^3
#
#
#
# Elastic Constant Matrix: (Units=GPa)
#
#
# Indices 1 2 3 4 5 6 
#
# 1 58.9937 43.9623 7.7138 0.0000 0.0000 0.0000
# 2 43.9623 150.5952 15.1772 0.0000 0.0000 0.0000
# 3 7.7138 15.1772 60.6437 0.0000 0.0000 0.0000
# 4 0.0000 0.0000 0.0000 21.2008 0.0000 0.0000
# 5 0.0000 0.0000 0.0000 0.0000 12.0879 0.0000
# 6 0.0000 0.0000 0.0000 0.0000 0.0000 -1.9544
#
#
#
# Elastic Compliance Matrix: (Units=1/GPa)
#
#
# Indices 1 2 3 4 5 6 
#
# 1 0.021750 -0.006228 -0.001208 0.000000 0.000000 0.000000
# 2 -0.006228 0.008595 -0.001359 0.000000 0.000000 0.000000
# 3 -0.001208 -0.001359 0.016984 0.000000 0.000000 0.000000
# 4 0.000000 0.000000 0.000000 0.047168 0.000000 0.000000
# 5 0.000000 0.000000 0.000000 0.000000 0.082728 0.000000
# 6 0.000000 0.000000 0.000000 0.000000 0.000000 -0.511669
#
#
# Mechanical properties :
#
#
# Convention : Reuss Voigt Hill
#
# Bulk Modulus (GPa) = 33.62532 44.88214 39.25373
# Shear Modulus (GPa) = -16.28968 19.82546 1.76789
#
# Velocity S-wave (km/s) = -2.84190 3.13520 0.93623
# Velocity P-wave (km/s) = 2.42958 5.94630 4.54210
#
# Compressibility (1/GPa) = 0.02973950
#
# Stress axis : x y z
#
# Youngs Moduli (GPa) = 45.97768 116.34352 58.88058
#
# Poissons Ratio (x) = 0.72453 0.07113
# Poissons Ratio (y) = 0.28633 0.08002
# Poissons Ratio (z) = 0.05554 0.15811
#
# Static dielectric constant tensor:
#      x y z
#    x 1.706680 0.000000 0.000000 
#    y 0.000000 1.817790 0.000000 
#    z 0.000000 0.000000 1.774250 
# 
# From -- ./inp_files/21411.got.cif
#   From: 2010.05.17/outbox.cif.g08.bks.cpg/sg57_11_cif.got.tgz:21411.got - 2010.06.03 13:58:18.
