data_PCOD9436181
_publ_section_title
;
Structure prediction by ZEFSAII (Michael W. Deem and Ramdas Pophale) SiO2 
 PCOD9436181
Probable space group: P B C M
;
_chemical_formula_sum "Si O2"
_cell_formula_units_Z 56
_cell_length_a 15.337201
_cell_length_b 9.155034
_cell_length_c 19.318064
_cell_angle_alpha 90.000000
_cell_angle_beta 90.000000
_cell_angle_gamma 90.000000
_cell_volume 2712.499528
_symmetry_space_group_name_H-M "P B C M"
_symmetry_group_IT_number 57
_symmetry_cell_setting 'orthorhombic'
loop_
_space_group_symop_operation_xyz
x,y,z
-x,-y,1/2+z
x,1/2-y,-z
-x,1/2+y,1/2-z
-x,-y,-z
x,y,1/2-z
-x,1/2+y,z
x,1/2-y,1/2+z
loop_
_atom_site_type_symbol
_atom_site_label
_atom_site_fract_x
_atom_site_fract_y
_atom_site_fract_z
Si Si1 0.470508 0.247261 0.332592
Si Si2 0.442216 0.524854 0.069739
Si Si3 0.079332 0.058141 0.545771
Si Si4 0.016758 0.797214 0.874314
Si Si5 0.124218 0.515682 0.672892
Si Si6 0.268174 0.109834 0.957202
Si Si7 0.727706 0.810091 0.831104
O O1 0.493678 0.258182 0.250000
O O2 0.455536 0.400309 0.371418
O O3 0.376174 0.165989 0.335675
O O4 0.535044 0.166656 0.385504
O O5 0.342276 0.510803 0.045511
O O6 0.500000 0.500000 0.000000
O O7 0.079694 0.928266 0.602135
O O8 0.174626 0.064327 0.513856
O O9 0.000000 0.000000 0.500000
O O10 0.049910 0.215732 0.573261
O O11 0.077290 0.659094 0.856291
O O12 0.947828 0.885329 0.827152
O O13 0.147778 0.558358 0.750000
O O14 0.212618 0.444448 0.643781
O O15 0.251470 0.172439 0.879887
O O16 0.302333 0.250000 0.000000
O O17 0.747995 0.781896 0.750000
#
# Coordination Sequence:
#
# PCOD9436181 Si02
#       7
#     8   8   8   8   8   8   8
#     4  10  21  40  66  92 127 169 214 263 328 394
#     4  11  22  41  64  96 127 165 213 271 327 389
#     4  11  22  39  57  86 118 161 205 258 306 371
#     4  10  21  35  56  82 120 150 206 246 310 352
#     4  10  19  35  57  84 118 159 202 248 304 368
#     4  11  22  39  65  91 123 167 208 259 315 381
#     4   9  19  37  61  88 118 164 210 250 306 382
#
# _framework density 20.645164000000001
#
# number of rings (size 3 to 8) (size 9 to 14) (size 15 to 20)
#    0.000    1.714    1.429    4.286    2.000    0.571 
#    2.571    2.143    0.000    0.000    0.000    0.000 
#    0.000    0.000    0.000    0.000    0.000    0.000 
#
# Total GULP energy -311787.103690 kJ/mol
# GULP energy per Si atom -5567.626852 kJ/mol
# Density = 2.059818 g / cm^3
# Si number density = 20.645164 Si / 1000 Ang^3
#
#
#
# Elastic Constant Matrix: (Units=GPa)
#
#
# Indices 1 2 3 4 5 6 
#
# 1 75.3494 2.7092 9.7510 0.0000 0.0000 0.0000
# 2 2.7092 51.6427 -0.4712 0.0000 0.0000 0.0000
# 3 9.7510 -0.4712 90.7301 0.0000 0.0000 0.0000
# 4 0.0000 0.0000 0.0000 23.7213 0.0000 0.0000
# 5 0.0000 0.0000 0.0000 0.0000 25.2008 0.0000
# 6 0.0000 0.0000 0.0000 0.0000 0.0000 33.8534
#
#
#
# Elastic Compliance Matrix: (Units=1/GPa)
#
#
# Indices 1 2 3 4 5 6 
#
# 1 0.013485 -0.000721 -0.001453 0.000000 0.000000 0.000000
# 2 -0.000721 0.019403 0.000178 0.000000 0.000000 0.000000
# 3 -0.001453 0.000178 0.011179 0.000000 0.000000 0.000000
# 4 0.000000 0.000000 0.000000 0.042156 0.000000 0.000000
# 5 0.000000 0.000000 0.000000 0.000000 0.039681 0.000000
# 6 0.000000 0.000000 0.000000 0.000000 0.000000 0.029539
#
#
# Mechanical properties :
#
#
# Convention : Reuss Voigt Hill
#
# Bulk Modulus (GPa) = 24.95235 26.85559 25.90397
# Shear Modulus (GPa) = 28.93617 30.27063 29.60340
#
# Velocity S-wave (km/s) = 3.74785 3.83330 3.79081
# Velocity P-wave (km/s) = 5.55347 5.71215 5.63337
#
# Compressibility (1/GPa) = 0.04007638
#
# Stress axis : x y z
#
# Youngs Moduli (GPa) = 74.15392 51.53776 89.45513
#
# Poissons Ratio (x) = 0.03714 0.12998
# Poissons Ratio (y) = 0.05344 -0.01594
# Poissons Ratio (z) = 0.10775 -0.00919
#
# Static dielectric constant tensor:
#      x y z
#    x 1.774540 0.000000 0.000000 
#    y 0.000000 1.767730 0.000000 
#    z 0.000000 0.000000 3.176600 
# 
# From -- ./inp_files/25404.got.cif
#   From: 2010.05.17/outbox.cif.g08.bks.cpg/sg57_13_cif.got.tgz:25404.got - 2010.06.03 13:58:18.
