data_PCOD9436919
_publ_section_title
;
Structure prediction by ZEFSAII (Michael W. Deem and Ramdas Pophale) SiO2 
 PCOD9436919
Probable space group: P B C M
;
_chemical_formula_sum "Si O2"
_cell_formula_units_Z 40
_cell_length_a 7.098526
_cell_length_b 16.809819
_cell_length_c 18.688634
_cell_angle_alpha 90.000000
_cell_angle_beta 90.000000
_cell_angle_gamma 90.000000
_cell_volume 2230.020079
_symmetry_space_group_name_H-M "P B C M"
_symmetry_group_IT_number 57
_symmetry_cell_setting 'orthorhombic'
loop_
_space_group_symop_operation_xyz
x,y,z
-x,-y,1/2+z
x,1/2-y,-z
-x,1/2+y,1/2-z
-x,-y,-z
x,y,1/2-z
-x,1/2+y,z
x,1/2-y,1/2+z
loop_
_atom_site_type_symbol
_atom_site_label
_atom_site_fract_x
_atom_site_fract_y
_atom_site_fract_z
Si Si1 0.568188 0.926197 0.952324
Si Si2 0.356753 0.542164 0.665504
Si Si3 0.056604 0.682940 0.834397
Si Si4 0.341180 0.344958 0.093077
Si Si5 0.669225 0.281333 0.922001
O O1 0.392690 0.872380 0.927200
O O2 0.668535 0.964366 0.883738
O O3 0.677893 0.872215 0.010222
O O4 0.500000 0.000000 0.000000
O O5 0.368962 0.525574 0.750000
O O6 0.188690 0.605373 0.652997
O O7 0.545745 0.587026 0.637463
O O8 0.029343 0.691190 0.750000
O O9 0.172866 0.757066 0.865875
O O10 0.858709 0.672574 0.873076
O O11 0.480371 0.269267 0.095317
O O12 0.732139 0.250000 0.000000
#
# Coordination Sequence:
#
# PCOD9436919 Si02
#       5
#     8   8   8   8   8
#     4   9  18  34  54  77 104 138 175 214 264 317
#     4   9  18  33  52  75 106 140 174 217 268 320
#     4  10  20  34  55  80 104 137 177 216 264 317
#     4   9  18  34  54  75 103 138 179 219 260 315
#     4   9  19  35  54  76 101 133 174 217 259 308
#
# _framework density 17.937059999999999
#
# number of rings (size 3 to 8) (size 9 to 14) (size 15 to 20)
#    0.000    2.800    0.000    1.800    0.000    4.800 
#    0.000    4.000    0.000    4.800    0.000    0.000 
#    0.000    0.000    0.000    0.000    0.000    0.000 
#
# Total GULP energy -222937.665063 kJ/mol
# GULP energy per Si atom -5573.441627 kJ/mol
# Density = 1.789623 g / cm^3
# Si number density = 17.937060 Si / 1000 Ang^3
#
#
#
# Elastic Constant Matrix: (Units=GPa)
#
#
# Indices 1 2 3 4 5 6 
#
# 1 101.3384 40.1560 68.3464 0.0000 0.0000 0.0000
# 2 40.1560 58.7734 22.0492 0.0000 0.0000 0.0000
# 3 68.3464 22.0492 93.5402 0.0000 0.0000 0.0000
# 4 0.0000 0.0000 0.0000 30.5685 0.0000 0.0000
# 5 0.0000 0.0000 0.0000 0.0000 28.7405 0.0000
# 6 0.0000 0.0000 0.0000 0.0000 0.0000 -18.1420
#
#
#
# Elastic Compliance Matrix: (Units=1/GPa)
#
#
# Indices 1 2 3 4 5 6 
#
# 1 0.024626 -0.011052 -0.015388 0.000000 0.000000 0.000000
# 2 -0.011052 0.023625 0.002506 0.000000 0.000000 0.000000
# 3 -0.015388 0.002506 0.021343 0.000000 0.000000 0.000000
# 4 0.000000 0.000000 0.000000 0.032713 0.000000 0.000000
# 5 0.000000 0.000000 0.000000 0.000000 0.034794 0.000000
# 6 0.000000 0.000000 0.000000 0.000000 0.000000 -0.055121
#
#
# Mechanical properties :
#
#
# Convention : Reuss Voigt Hill
#
# Bulk Modulus (GPa) = 46.02564 57.19502 51.61033
# Shear Modulus (GPa) = 36.47236 16.44008 26.45622
#
# Velocity S-wave (km/s) = 4.51416 3.03073 3.84467
# Velocity P-wave (km/s) = 7.27224 6.64852 6.96736
#
# Compressibility (1/GPa) = 0.02172702
#
# Stress axis : x y z
#
# Youngs Moduli (GPa) = 40.60831 42.32732 46.85371
#
# Poissons Ratio (x) = 0.46781 0.72097
# Poissons Ratio (y) = 0.44881 -0.11744
# Poissons Ratio (z) = 0.62487 -0.10609
#
# Static dielectric constant tensor:
#      x y z
#    x 1.580220 0.000000 0.000000 
#    y 0.000000 1.639090 0.000000 
#    z 0.000000 0.000000 1.627230 
# 
# From -- ./inp_files/19961.got.cif
#   From: 2010.05.17/outbox.cif.g08.bks.cpg/sg57_10_cif.got.tgz:19961.got - 2010.06.03 13:58:18.
