data_PCOD9436815
_publ_section_title
;
Structure prediction by ZEFSAII (Michael W. Deem and Ramdas Pophale) SiO2 
 PCOD9436815
Probable space group: P B C M
;
_chemical_formula_sum "Si O2"
_cell_formula_units_Z 64
_cell_length_a 27.566678
_cell_length_b 14.708149
_cell_length_c 8.329222
_cell_angle_alpha 90.000000
_cell_angle_beta 90.000000
_cell_angle_gamma 90.000000
_cell_volume 3377.123102
_symmetry_space_group_name_H-M "P B C M"
_symmetry_group_IT_number 57
_symmetry_cell_setting 'orthorhombic'
loop_
_space_group_symop_operation_xyz
x,y,z
-x,-y,1/2+z
x,1/2-y,-z
-x,1/2+y,1/2-z
-x,-y,-z
x,y,1/2-z
-x,1/2+y,z
x,1/2-y,1/2+z
loop_
_atom_site_type_symbol
_atom_site_label
_atom_site_fract_x
_atom_site_fract_y
_atom_site_fract_z
Si Si1 0.898306 0.853930 0.555492
Si Si2 0.109452 0.853808 0.942894
Si Si3 0.366488 0.853434 0.557883
Si Si4 0.819003 0.995785 0.943085
Si Si5 0.632050 0.853212 0.057740
Si Si6 0.003871 0.645220 0.056346
Si Si7 0.554978 0.001225 0.056542
Si Si8 0.291469 0.498261 0.942510
O O1 0.893645 0.750000 0.500000
O O2 0.898267 0.855239 0.750000
O O3 0.951442 0.890505 0.500641
O O4 0.853671 0.914563 0.496737
O O5 0.110805 0.856532 0.750000
O O6 0.056285 0.890537 0.998954
O O7 0.113190 0.750000 0.000000
O O8 0.152765 0.912944 0.012003
O O9 0.365929 0.750000 0.500000
O O10 0.366789 0.853444 0.750000
O O11 0.413843 0.910867 0.502099
O O12 0.320471 0.912957 0.502078
O O13 0.816969 0.988652 0.750000
O O14 0.763847 0.994639 0.002551
O O15 0.632690 0.854061 0.250000
O O16 0.585293 0.912231 0.003448
O O17 0.631253 0.750000 0.000000
O O18 0.678314 0.910243 0.997709
O O19 0.004082 0.641749 0.250000
O O20 0.003703 0.750000 0.000000
O O21 0.555111 0.001925 0.250000
O O22 0.500000 0.000000 0.000000
O O23 0.291150 0.500452 0.750000
#
# Coordination Sequence:
#
# PCOD9436815 Si02
#       8
#     8   8   8   8   8   8   8   8
#     4   9  18  34  53  74 103 135 168 211 260 314
#     4  10  20  34  53  76 102 134 172 213 260 316
#     4  10  21  38  59  84 111 145 187 227 270 320
#     4  10  22  37  53  77 107 137 172 216 269 323
#     4  10  21  38  59  84 112 147 189 228 269 318
#     4   8  15  29  49  72  98 130 167 206 253 310
#     4   9  20  36  55  83 119 152 184 223 265 311
#     4  10  21  38  57  78 106 141 181 228 277 323
#
# _framework density 18.951042999999999
#
# number of rings (size 3 to 8) (size 9 to 14) (size 15 to 20)
#    0.000    2.500    0.000    2.250    0.000    7.000 
#    0.000    3.750    0.000    0.000    0.000    0.000 
#    0.000    0.000    0.000    0.000    0.000    0.000 
#
# Total GULP energy -356954.520510 kJ/mol
# GULP energy per Si atom -5577.414383 kJ/mol
# Density = 1.890791 g / cm^3
# Si number density = 18.951043 Si / 1000 Ang^3
#
#
#
# Elastic Constant Matrix: (Units=GPa)
#
#
# Indices 1 2 3 4 5 6 
#
# 1 214.0686 91.3861 21.6045 0.0000 0.0000 0.0000
# 2 91.3861 145.9973 11.9986 0.0000 0.0000 0.0000
# 3 21.6045 11.9986 19.4171 0.0000 0.0000 0.0000
# 4 0.0000 0.0000 0.0000 24.1682 0.0000 0.0000
# 5 0.0000 0.0000 0.0000 0.0000 29.7913 0.0000
# 6 0.0000 0.0000 0.0000 0.0000 0.0000 14.3802
#
#
#
# Elastic Compliance Matrix: (Units=1/GPa)
#
#
# Indices 1 2 3 4 5 6 
#
# 1 0.006845 -0.003855 -0.005234 0.000000 0.000000 0.000000
# 2 -0.003855 0.009386 -0.001511 0.000000 0.000000 0.000000
# 3 -0.005234 -0.001511 0.058259 0.000000 0.000000 0.000000
# 4 0.000000 0.000000 0.000000 0.041377 0.000000 0.000000
# 5 0.000000 0.000000 0.000000 0.000000 0.033567 0.000000
# 6 0.000000 0.000000 0.000000 0.000000 0.000000 0.069540
#
#
# Mechanical properties :
#
#
# Convention : Reuss Voigt Hill
#
# Bulk Modulus (GPa) = 18.76528 69.94014 44.35271
# Shear Modulus (GPa) = 19.38447 30.63420 25.00933
#
# Velocity S-wave (km/s) = 3.20170 4.02492 3.63668
# Velocity P-wave (km/s) = 4.85709 7.65414 6.41004
#
# Compressibility (1/GPa) = 0.05328989
#
# Stress axis : x y z
#
# Youngs Moduli (GPa) = 146.08846 106.53757 17.16466
#
# Poissons Ratio (x) = 0.41065 0.08985
# Poissons Ratio (y) = 0.56310 0.02594
# Poissons Ratio (z) = 0.76469 0.16103
#
# Static dielectric constant tensor:
#      x y z
#    x 1.674060 0.000000 0.000000 
#    y 0.000000 1.619120 0.000000 
#    z 0.000000 0.000000 1.654030 
# 
# From -- ./inp_files/9467.got.cif
#   From: 2010.05.17/outbox.cif.g08.bks.cpg/sg57_5_cif.got.tgz:9467.got - 2010.06.03 13:58:18.
