data_PCOD9436034
_publ_section_title
;
Structure prediction by ZEFSAII (Michael W. Deem and Ramdas Pophale) SiO2 
 PCOD9436034
Probable space group: P B C M
;
_chemical_formula_sum "Si O2"
_cell_formula_units_Z 56
_cell_length_a 9.228953
_cell_length_b 19.040787
_cell_length_c 15.019290
_cell_angle_alpha 90.000000
_cell_angle_beta 90.000000
_cell_angle_gamma 90.000000
_cell_volume 2639.287689
_symmetry_space_group_name_H-M "P B C M"
_symmetry_group_IT_number 57
_symmetry_cell_setting 'orthorhombic'
loop_
_space_group_symop_operation_xyz
x,y,z
-x,-y,1/2+z
x,1/2-y,-z
-x,1/2+y,1/2-z
-x,-y,-z
x,y,1/2-z
-x,1/2+y,z
x,1/2-y,1/2+z
loop_
_atom_site_type_symbol
_atom_site_label
_atom_site_fract_x
_atom_site_fract_y
_atom_site_fract_z
Si Si1 0.477576 0.324155 0.646895
Si Si2 0.065037 0.685662 0.548243
Si Si3 0.228775 0.291816 0.353298
Si Si4 0.128537 0.953539 0.961615
Si Si5 0.665730 0.195119 0.849480
Si Si6 0.442762 0.916388 0.017358
Si Si7 0.323854 0.455477 0.350195
O O1 0.457503 0.347283 0.750000
O O2 0.348779 0.267988 0.625197
O O3 0.623928 0.276990 0.644307
O O4 0.495489 0.386442 0.576041
O O5 0.141511 0.750000 0.500000
O O6 0.064207 0.624262 0.475066
O O7 0.168471 0.673621 0.632948
O O8 0.909836 0.709135 0.583432
O O9 0.188945 0.278896 0.250000
O O10 0.278699 0.373518 0.357249
O O11 0.279564 0.946411 0.015249
O O12 0.190150 0.992488 0.873888
O O13 0.000000 0.000000 0.000000
O O14 0.619224 0.173455 0.750000
O O15 0.576717 0.154140 0.923550
O O16 0.550976 0.963346 0.075963
O O17 0.373501 0.469360 0.250000
#
# Coordination Sequence:
#
# PCOD9436034 Si02
#       7
#     8   8   8   8   8   8   8
#     4  10  21  37  62  96 134 171 218 280 344 406
#     4  11  23  38  63  93 127 171 219 275 342 407
#     4  10  21  37  61  94 127 167 219 274 335 403
#     4  11  24  44  64  95 133 178 229 281 348 417
#     4  10  19  34  56  89 127 166 215 271 329 401
#     4  11  22  38  66  94 130 176 230 282 344 408
#     4  11  23  42  66  94 130 181 232 284 342 410
#
# _framework density 21.217845000000001
#
# number of rings (size 3 to 8) (size 9 to 14) (size 15 to 20)
#    0.000    1.429    2.857    3.429    2.000    0.571 
#    0.000    2.143    0.000    2.571    0.000    0.000 
#    0.000    0.000    0.000    0.000    0.000    0.000 
#
# Total GULP energy -312052.193094 kJ/mol
# GULP energy per Si atom -5572.360591 kJ/mol
# Density = 2.116955 g / cm^3
# Si number density = 21.217845 Si / 1000 Ang^3
#
#
#
# Elastic Constant Matrix: (Units=GPa)
#
#
# Indices 1 2 3 4 5 6 
#
# 1 97.2603 28.8050 59.2179 0.0000 0.0000 0.0000
# 2 28.8050 103.2763 41.4230 0.0000 0.0000 0.0000
# 3 59.2179 41.4230 119.1594 0.0000 0.0000 0.0000
# 4 0.0000 0.0000 0.0000 27.2247 0.0000 0.0000
# 5 0.0000 0.0000 0.0000 0.0000 26.0846 0.0000
# 6 0.0000 0.0000 0.0000 0.0000 0.0000 27.1407
#
#
#
# Elastic Compliance Matrix: (Units=1/GPa)
#
#
# Indices 1 2 3 4 5 6 
#
# 1 0.014910 -0.001379 -0.006930 0.000000 0.000000 0.000000
# 2 -0.001379 0.011379 -0.003270 0.000000 0.000000 0.000000
# 3 -0.006930 -0.003270 0.012973 0.000000 0.000000 0.000000
# 4 0.000000 0.000000 0.000000 0.036731 0.000000 0.000000
# 5 0.000000 0.000000 0.000000 0.000000 0.038337 0.000000
# 6 0.000000 0.000000 0.000000 0.000000 0.000000 0.036845
#
#
# Mechanical properties :
#
#
# Convention : Reuss Voigt Hill
#
# Bulk Modulus (GPa) = 62.10111 64.28753 63.19432
# Shear Modulus (GPa) = 27.82393 28.77334 28.29863
#
# Velocity S-wave (km/s) = 3.62518 3.68651 3.65597
# Velocity P-wave (km/s) = 6.84503 6.96312 6.90433
#
# Compressibility (1/GPa) = 0.01610277
#
# Stress axis : x y z
#
# Youngs Moduli (GPa) = 67.07106 87.88058 77.08281
#
# Poissons Ratio (x) = 0.12117 0.53420
# Poissons Ratio (y) = 0.09248 0.25209
# Poissons Ratio (z) = 0.46482 0.28741
#
# Static dielectric constant tensor:
#      x y z
#    x 1.767720 0.000000 0.000000 
#    y 0.000000 1.829620 0.000000 
#    z 0.000000 0.000000 1.844540 
# 
# From -- ./inp_files/16748.got.cif
#   From: 2010.05.17/outbox.cif.g08.bks.cpg/sg57_9_cif.got.tgz:16748.got - 2010.06.03 13:58:18.
