data_PCOD9436317
_publ_section_title
;
Structure prediction by ZEFSAII (Michael W. Deem and Ramdas Pophale) SiO2 
 PCOD9436317
Probable space group: P B C M
;
_chemical_formula_sum "Si O2"
_cell_formula_units_Z 64
_cell_length_a 12.399573
_cell_length_b 31.505793
_cell_length_c 7.801330
_cell_angle_alpha 90.000000
_cell_angle_beta 90.000000
_cell_angle_gamma 90.000000
_cell_volume 3047.654941
_symmetry_space_group_name_H-M "P B C M"
_symmetry_group_IT_number 57
_symmetry_cell_setting 'orthorhombic'
loop_
_space_group_symop_operation_xyz
x,y,z
-x,-y,1/2+z
x,1/2-y,-z
-x,1/2+y,1/2-z
-x,-y,-z
x,y,1/2-z
-x,1/2+y,z
x,1/2-y,1/2+z
loop_
_atom_site_type_symbol
_atom_site_label
_atom_site_fract_x
_atom_site_fract_y
_atom_site_fract_z
Si Si1 0.483265 0.703160 0.956833
Si Si2 0.968386 0.047680 0.545305
Si Si3 0.370548 0.125425 0.546066
Si Si4 0.011189 0.796063 0.456155
Si Si5 0.477502 0.951479 0.954202
Si Si6 0.874506 0.877262 0.460172
Si Si7 0.745657 0.088848 0.048706
Si Si8 0.754104 0.184751 0.551643
O O1 0.477984 0.699040 0.750000
O O2 0.557569 0.664625 0.021965
O O3 0.360436 0.698730 0.024975
O O4 0.524744 0.750000 0.000000
O O5 0.960965 0.051496 0.750000
O O6 0.852733 0.061200 0.472722
O O7 0.058704 0.081289 0.485390
O O8 0.000000 0.000000 0.500000
O O9 0.361695 0.132206 0.750000
O O10 0.433250 0.081485 0.518933
O O11 0.248703 0.123433 0.478748
O O12 0.965823 0.750000 0.500000
O O13 0.017325 0.800005 0.250000
O O14 0.939200 0.835350 0.516202
O O15 0.133610 0.799302 0.526589
O O16 0.476786 0.948584 0.750000
O O17 0.360282 0.935595 0.016093
O O18 0.500000 0.000000 0.000000
O O19 0.873107 0.877580 0.250000
O O20 0.731137 0.098412 0.250000
O O21 0.758114 0.133734 0.955436
O O22 0.753169 0.198680 0.750000
#
# Coordination Sequence:
#
# PCOD9436317 Si02
#       8
#     8   8   8   8   8   8   8   8
#     4  10  21  35  57  86 117 154 197 242 297 357
#     4  11  23  41  63  89 123 159 198 246 297 355
#     4  10  21  40  63  86 116 157 201 244 295 354
#     4  10  20  36  57  84 117 154 195 240 293 350
#     4  11  25  42  62  90 121 156 197 246 298 355
#     4   9  20  39  61  83 116 157 194 239 295 348
#     4  11  23  39  62  91 121 154 197 246 298 352
#     4  10  19  36  59  85 117 156 197 241 300 356
#
# _framework density 20.999753999999999
#
# number of rings (size 3 to 8) (size 9 to 14) (size 15 to 20)
#    0.000    1.750    2.500    1.500    1.750    3.500 
#    0.000    1.250    0.000    0.000    0.000    0.000 
#    0.000    0.000    0.000    0.000    0.000    0.000 
#
# Total GULP energy -357651.204659 kJ/mol
# GULP energy per Si atom -5588.300073 kJ/mol
# Density = 2.095196 g / cm^3
# Si number density = 20.999754 Si / 1000 Ang^3
#
#
#
# Elastic Constant Matrix: (Units=GPa)
#
#
# Indices 1 2 3 4 5 6 
#
# 1 170.2484 84.9206 5.2822 0.0000 0.0000 0.0000
# 2 84.9206 173.1560 -13.8855 0.0000 0.0000 0.0000
# 3 5.2822 -13.8855 30.0881 0.0000 0.0000 0.0000
# 4 0.0000 0.0000 0.0000 28.9661 0.0000 0.0000
# 5 0.0000 0.0000 0.0000 0.0000 2.5268 0.0000
# 6 0.0000 0.0000 0.0000 0.0000 0.0000 -25.6271
#
#
#
# Elastic Compliance Matrix: (Units=1/GPa)
#
#
# Indices 1 2 3 4 5 6 
#
# 1 0.008094 -0.004240 -0.003378 0.000000 0.000000 0.000000
# 2 -0.004240 0.008218 0.004537 0.000000 0.000000 0.000000
# 3 -0.003378 0.004537 0.035923 0.000000 0.000000 0.000000
# 4 0.000000 0.000000 0.000000 0.034523 0.000000 0.000000
# 5 0.000000 0.000000 0.000000 0.000000 0.395751 0.000000
# 6 0.000000 0.000000 0.000000 0.000000 0.000000 -0.039021
#
#
# Mechanical properties :
#
#
# Convention : Reuss Voigt Hill
#
# Bulk Modulus (GPa) = 21.70455 58.45857 40.08156
# Shear Modulus (GPa) = 10.75252 20.98484 15.86868
#
# Velocity S-wave (km/s) = 2.26526 3.16458 2.75191
# Velocity P-wave (km/s) = 4.14728 6.42269 5.40606
#
# Compressibility (1/GPa) = 0.04607328
#
# Stress axis : x y z
#
# Youngs Moduli (GPa) = 123.55453 121.67694 27.83758
#
# Poissons Ratio (x) = 0.51593 0.09403
# Poissons Ratio (y) = 0.52389 -0.12630
# Poissons Ratio (z) = 0.41733 -0.55207
#
# Static dielectric constant tensor:
#      x y z
#    x 1.757090 0.000000 0.000000 
#    y 0.000000 1.760510 0.000000 
#    z 0.000000 0.000000 1.770630 
# 
# From -- ./inp_files/3921.got.cif
#   From: 2010.05.17/outbox.cif.g08.bks.cpg/sg57_2_cif.got.tgz:3921.got - 2010.06.03 13:58:18.
