data_PCOD9436055
_publ_section_title
;
Structure prediction by ZEFSAII (Michael W. Deem and Ramdas Pophale) SiO2 
 PCOD9436055
Probable space group: P B C M
;
_chemical_formula_sum "Si O2"
_cell_formula_units_Z 64
_cell_length_a 12.375974
_cell_length_b 31.580789
_cell_length_c 8.600789
_cell_angle_alpha 90.000000
_cell_angle_beta 90.000000
_cell_angle_gamma 90.000000
_cell_volume 3361.558378
_symmetry_space_group_name_H-M "P B C M"
_symmetry_group_IT_number 57
_symmetry_cell_setting 'orthorhombic'
loop_
_space_group_symop_operation_xyz
x,y,z
-x,-y,1/2+z
x,1/2-y,-z
-x,1/2+y,1/2-z
-x,-y,-z
x,y,1/2-z
-x,1/2+y,z
x,1/2-y,1/2+z
loop_
_atom_site_type_symbol
_atom_site_label
_atom_site_fract_x
_atom_site_fract_y
_atom_site_fract_z
Si Si1 0.003316 0.797989 0.936438
Si Si2 0.531302 0.797372 0.937963
Si Si3 0.494669 0.065743 0.925060
Si Si4 0.904553 0.470543 0.061687
Si Si5 0.136397 0.623953 0.934365
Si Si6 0.235828 0.202099 0.062554
Si Si7 0.631096 0.134530 0.068836
Si Si8 0.325686 0.008618 0.429241
O O1 0.006455 0.795157 0.750000
O O2 0.882471 0.813559 0.986612
O O3 0.021014 0.750000 0.000000
O O4 0.085778 0.833929 0.991409
O O5 0.529526 0.797263 0.750000
O O6 0.648276 0.816836 0.986651
O O7 0.426746 0.823030 0.989587
O O8 0.526848 0.750000 0.000000
O O9 0.492455 0.083173 0.750000
O O10 0.585514 0.028851 0.928317
O O11 0.538159 0.099678 0.046311
O O12 0.380503 0.045454 0.970855
O O13 0.905848 0.470307 0.250000
O O14 0.911347 0.421342 0.010125
O O15 0.788332 0.490161 0.014352
O O16 0.000000 0.500000 0.000000
O O17 0.120760 0.626428 0.750000
O O18 0.263461 0.622708 0.972982
O O19 0.235498 0.202441 0.250000
O O20 0.238553 0.250000 0.000000
O O21 0.660731 0.138204 0.250000
O O22 0.312589 0.022701 0.250000
#
# Coordination Sequence:
#
# PCOD9436055 Si02
#       8
#     8   8   8   8   8   8   8   8
#     4  10  20  36  60  89 117 153 198 240 289 345
#     4   9  19  35  55  81 112 147 185 228 277 333
#     4  10  19  34  57  84 112 142 183 230 281 335
#     4  10  22  41  62  84 115 153 193 241 296 350
#     4  11  23  41  60  82 117 154 195 245 292 346
#     4   8  15  31  54  77 105 138 177 223 274 329
#     4  11  22  36  56  82 115 152 192 235 287 348
#     4   9  18  36  58  82 110 143 183 228 281 336
#
# _framework density 19.038788
#
# number of rings (size 3 to 8) (size 9 to 14) (size 15 to 20)
#    0.000    2.250    1.250    1.500    0.000    4.000 
#    2.250    1.250    0.000    0.000    0.000    0.000 
#    0.000    0.000    0.000    0.000    0.000    0.000 
#
# Total GULP energy -356654.471296 kJ/mol
# GULP energy per Si atom -5572.726114 kJ/mol
# Density = 1.899545 g / cm^3
# Si number density = 19.038788 Si / 1000 Ang^3
#
#
#
# Elastic Constant Matrix: (Units=GPa)
#
#
# Indices 1 2 3 4 5 6 
#
# 1 78.9645 52.6455 18.0066 0.0000 0.0000 0.0000
# 2 52.6455 84.1625 16.6174 0.0000 0.0000 0.0000
# 3 18.0066 16.6174 22.0997 0.0000 0.0000 0.0000
# 4 0.0000 0.0000 0.0000 23.2245 0.0000 0.0000
# 5 0.0000 0.0000 0.0000 0.0000 22.4885 0.0000
# 6 0.0000 0.0000 0.0000 0.0000 0.0000 31.6219
#
#
#
# Elastic Compliance Matrix: (Units=1/GPa)
#
#
# Indices 1 2 3 4 5 6 
#
# 1 0.023280 -0.012703 -0.009417 0.000000 0.000000 0.000000
# 2 -0.012703 0.020885 -0.005354 0.000000 0.000000 0.000000
# 3 -0.009417 -0.005354 0.056948 0.000000 0.000000 0.000000
# 4 0.000000 0.000000 0.000000 0.043058 0.000000 0.000000
# 5 0.000000 0.000000 0.000000 0.000000 0.044467 0.000000
# 6 0.000000 0.000000 0.000000 0.000000 0.000000 0.031624
#
#
# Mechanical properties :
#
#
# Convention : Reuss Voigt Hill
#
# Bulk Modulus (GPa) = 21.66097 39.97396 30.81747
# Shear Modulus (GPa) = 17.20592 21.99743 19.60168
#
# Velocity S-wave (km/s) = 3.00947 3.40281 3.21217
# Velocity P-wave (km/s) = 4.84540 6.03990 5.47532
#
# Compressibility (1/GPa) = 0.04616597
#
# Stress axis : x y z
#
# Youngs Moduli (GPa) = 42.95452 47.88148 17.55998
#
# Poissons Ratio (x) = 0.60824 0.16536
# Poissons Ratio (y) = 0.54566 0.09401
# Poissons Ratio (z) = 0.40450 0.25634
#
# Static dielectric constant tensor:
#      x y z
#    x 1.683070 0.000000 0.000000 
#    y 0.000000 1.659210 0.000000 
#    z 0.000000 0.000000 1.642780 
# 
# From -- ./inp_files/3888.got.cif
#   From: 2010.05.17/outbox.cif.g08.bks.cpg/sg57_2_cif.got.tgz:3888.got - 2010.06.03 13:58:18.
