data_PCOD9436379
_publ_section_title
;
Structure prediction by ZEFSAII (Michael W. Deem and Ramdas Pophale) SiO2 
 PCOD9436379
Probable space group: P B C M
;
_chemical_formula_sum "Si O2"
_cell_formula_units_Z 28
_cell_length_a 9.518644
_cell_length_b 18.890480
_cell_length_c 7.715814
_cell_angle_alpha 90.000000
_cell_angle_beta 90.000000
_cell_angle_gamma 90.000000
_cell_volume 1387.394050
_symmetry_space_group_name_H-M "P B C M"
_symmetry_group_IT_number 57
_symmetry_cell_setting 'orthorhombic'
loop_
_space_group_symop_operation_xyz
x,y,z
-x,-y,1/2+z
x,1/2-y,-z
-x,1/2+y,1/2-z
-x,-y,-z
x,y,1/2-z
-x,1/2+y,z
x,1/2-y,1/2+z
loop_
_atom_site_type_symbol
_atom_site_label
_atom_site_fract_x
_atom_site_fract_y
_atom_site_fract_z
Si Si1 0.126289 0.101103 0.250000
Si Si2 0.567743 0.644470 0.250000
Si Si3 0.629066 0.350944 0.443759
Si Si4 0.047354 0.829557 0.455686
Si Si5 0.350114 0.988960 0.250000
O O1 0.264464 0.152346 0.250000
O O2 0.036760 0.117597 0.420602
O O3 0.194387 0.022974 0.250000
O O4 0.487866 0.670027 0.420127
O O5 0.554693 0.558206 0.250000
O O6 0.606298 0.320906 0.250000
O O7 0.627592 0.435852 0.409681
O O8 0.786766 0.332930 0.499824
O O9 0.999193 0.750000 0.500000
O O10 0.032922 0.843316 0.250000
#
# Coordination Sequence:
#
# PCOD9436379 Si02
#       5
#     4   4   8   8   4
#     4  10  23  36  57  91 118 151 183 240 300 345
#     4  10  19  37  59  86 121 148 183 238 293 348
#     4   9  20  37  60  88 109 155 199 233 280 346
#     4  11  22  41  63  79 114 157 201 242 284 339
#     4   8  20  37  56  89 123 149 186 232 303 343
#
# _framework density 20.181719000000001
#
# number of rings (size 3 to 8) (size 9 to 14) (size 15 to 20)
#    1.714    0.571    1.429    1.714    0.000    2.286 
#    2.571    1.429    0.000    0.000    0.000    0.000 
#    0.000    0.000    0.000    0.000    0.000    0.000 
#
# Total GULP energy -155973.044778 kJ/mol
# GULP energy per Si atom -5570.465885 kJ/mol
# Density = 2.013578 g / cm^3
# Si number density = 20.181719 Si / 1000 Ang^3
#
#
#
# Elastic Constant Matrix: (Units=GPa)
#
#
# Indices 1 2 3 4 5 6 
#
# 1 94.7502 -7.1421 62.1941 0.0000 0.0000 0.0000
# 2 -7.1421 57.0358 6.0081 0.0000 0.0000 0.0000
# 3 62.1941 6.0081 79.4635 0.0000 0.0000 0.0000
# 4 0.0000 0.0000 0.0000 16.2686 0.0000 0.0000
# 5 0.0000 0.0000 0.0000 0.0000 -28.0675 0.0000
# 6 0.0000 0.0000 0.0000 0.0000 0.0000 172.5362
#
#
#
# Elastic Compliance Matrix: (Units=1/GPa)
#
#
# Indices 1 2 3 4 5 6 
#
# 1 0.022939 0.004802 -0.018317 0.000000 0.000000 0.000000
# 2 0.004802 0.018679 -0.005171 0.000000 0.000000 0.000000
# 3 -0.018317 -0.005171 0.027312 0.000000 0.000000 0.000000
# 4 0.000000 0.000000 0.000000 0.061468 0.000000 0.000000
# 5 0.000000 0.000000 0.000000 0.000000 -0.035628 0.000000
# 6 0.000000 0.000000 0.000000 0.000000 0.000000 0.005796
#
#
# Mechanical properties :
#
#
# Convention : Reuss Voigt Hill
#
# Bulk Modulus (GPa) = 31.68741 39.26331 35.47536
# Shear Modulus (GPa) = 33.67981 43.49343 38.58662
#
# Velocity S-wave (km/s) = 4.08956 4.64733 4.37734
# Velocity P-wave (km/s) = 6.16721 6.94939 6.56995
#
# Compressibility (1/GPa) = 0.03155827
#
# Stress axis : x y z
#
# Youngs Moduli (GPa) = 43.59297 53.53655 36.61421
#
# Poissons Ratio (x) = -0.25708 0.67067
# Poissons Ratio (y) = -0.20933 0.18932
# Poissons Ratio (z) = 0.79850 0.27682
#
# Static dielectric constant tensor:
#      x y z
#    x 1.681490 0.000000 0.000000 
#    y 0.000000 1.772420 0.000000 
#    z 0.000000 0.000000 1.702580 
# 
# From -- ./inp_files/1203.got.cif
#   From: 2010.05.17/outbox.cif.g08.bks.cpg/sg57_1_cif.got.tgz:1203.got - 2010.06.03 13:58:18.
