data_PCOD9436405
_publ_section_title
;
Structure prediction by ZEFSAII (Michael W. Deem and Ramdas Pophale) SiO2 
 PCOD9436405
Probable space group: P B C M
;
_chemical_formula_sum "Si O2"
_cell_formula_units_Z 64
_cell_length_a 18.437955
_cell_length_b 10.180979
_cell_length_c 14.406497
_cell_angle_alpha 90.000000
_cell_angle_beta 90.000000
_cell_angle_gamma 90.000000
_cell_volume 2704.336224
_symmetry_space_group_name_H-M "P B C M"
_symmetry_group_IT_number 57
_symmetry_cell_setting 'orthorhombic'
loop_
_space_group_symop_operation_xyz
x,y,z
-x,-y,1/2+z
x,1/2-y,-z
-x,1/2+y,1/2-z
-x,-y,-z
x,y,1/2-z
-x,1/2+y,z
x,1/2-y,1/2+z
loop_
_atom_site_type_symbol
_atom_site_label
_atom_site_fract_x
_atom_site_fract_y
_atom_site_fract_z
Si Si1 0.043400 0.027765 0.637995
Si Si2 0.764291 0.842634 0.856049
Si Si3 0.926889 0.819961 0.864170
Si Si4 0.743202 0.363032 0.101198
Si Si5 0.673459 0.890539 0.355586
Si Si6 0.531884 0.040172 0.136322
Si Si7 0.420744 0.676414 0.863003
Si Si8 0.799243 0.405421 0.893948
O O1 0.038424 0.031339 0.750000
O O2 0.120435 0.960563 0.616617
O O3 0.977050 0.939259 0.603749
O O4 0.042712 0.178574 0.607145
O O5 0.772807 0.794963 0.750000
O O6 0.844326 0.831879 0.898212
O O7 0.704506 0.744565 0.896835
O O8 0.743156 0.994241 0.853071
O O9 0.926263 0.824421 0.750000
O O10 0.660238 0.317232 0.098816
O O11 0.788052 0.242162 0.144660
O O12 0.777117 0.390659 0.001020
O O13 0.650115 0.859866 0.250000
O O14 0.604439 0.964783 0.397224
O O15 0.740701 0.992059 0.354434
O O16 0.532529 0.041080 0.250000
O O17 0.463015 0.954418 0.108038
O O18 0.536138 0.192117 0.109262
O O19 0.414877 0.675917 0.750000
#
# Coordination Sequence:
#
# PCOD9436405 Si02
#       8
#     8   8   8   8   8   8   8   8
#     4  10  20  37  63  91 120 156 199 250 309 364
#     4  10  21  37  61  91 121 152 202 259 307 358
#     4   9  19  35  58  92 123 148 191 251 305 363
#     4  11  25  39  58  84 123 163 209 255 293 353
#     4  10  19  37  63  88 116 156 201 249 308 362
#     4   9  19  33  58  90 120 151 193 248 306 365
#     4  10  20  37  60  89 121 155 198 252 309 361
#     4  11  23  41  60  80 122 166 208 250 294 359
#
# _framework density 23.665697000000002
#
# number of rings (size 3 to 8) (size 9 to 14) (size 15 to 20)
#    0.000    2.000    2.500    0.750    3.500    2.000 
#    0.000    1.250    0.000    0.000    0.000    0.000 
#    0.000    0.000    0.000    0.000    0.000    0.000 
#
# Total GULP energy -357930.541985 kJ/mol
# GULP energy per Si atom -5592.664719 kJ/mol
# Density = 2.361183 g / cm^3
# Si number density = 23.665697 Si / 1000 Ang^3
#
#
#
# Elastic Constant Matrix: (Units=GPa)
#
#
# Indices 1 2 3 4 5 6 
#
# 1 30.8307 10.7393 0.2966 0.0000 0.0000 0.0000
# 2 10.7393 152.9202 11.3933 0.0000 0.0000 0.0000
# 3 0.2966 11.3933 65.3877 0.0000 0.0000 0.0000
# 4 0.0000 0.0000 0.0000 18.5700 0.0000 0.0000
# 5 0.0000 0.0000 0.0000 0.0000 45.3017 0.0000
# 6 0.0000 0.0000 0.0000 0.0000 0.0000 45.7837
#
#
#
# Elastic Compliance Matrix: (Units=1/GPa)
#
#
# Indices 1 2 3 4 5 6 
#
# 1 0.033253 -0.002355 0.000259 0.000000 0.000000 0.000000
# 2 -0.002355 0.006792 -0.001173 0.000000 0.000000 0.000000
# 3 0.000259 -0.001173 0.015497 0.000000 0.000000 0.000000
# 4 0.000000 0.000000 0.000000 0.053850 0.000000 0.000000
# 5 0.000000 0.000000 0.000000 0.000000 0.022074 0.000000
# 6 0.000000 0.000000 0.000000 0.000000 0.000000 0.021842
#
#
# Mechanical properties :
#
#
# Convention : Reuss Voigt Hill
#
# Bulk Modulus (GPa) = 20.40583 32.66634 26.53609
# Shear Modulus (GPa) = 28.38023 37.04505 32.71264
#
# Velocity S-wave (km/s) = 3.46672 3.96074 3.72194
# Velocity P-wave (km/s) = 4.96644 5.89490 5.45047
#
# Compressibility (1/GPa) = 0.04900560
#
# Stress axis : x y z
#
# Youngs Moduli (GPa) = 30.07258 147.22999 64.53046
#
# Poissons Ratio (x) = 0.34667 -0.01674
# Poissons Ratio (y) = 0.07081 0.07568
# Poissons Ratio (z) = -0.00780 0.17267
#
# Static dielectric constant tensor:
#      x y z
#    x 1.827800 0.000000 0.000000 
#    y 0.000000 1.889020 0.000000 
#    z 0.000000 0.000000 1.997460 
# 
# From -- ./inp_files/25622.got.cif
#   From: 2010.05.17/outbox.cif.g08.bks.cpg/sg57_13_cif.got.tgz:25622.got - 2010.06.03 13:58:18.
