data_PCOD9436677
_publ_section_title
;
Structure prediction by ZEFSAII (Michael W. Deem and Ramdas Pophale) SiO2 
 PCOD9436677
Probable space group: P B C M
;
_chemical_formula_sum "Si O2"
_cell_formula_units_Z 48
_cell_length_a 6.869970
_cell_length_b 23.904387
_cell_length_c 13.037532
_cell_angle_alpha 90.000000
_cell_angle_beta 90.000000
_cell_angle_gamma 90.000000
_cell_volume 2141.055076
_symmetry_space_group_name_H-M "P B C M"
_symmetry_group_IT_number 57
_symmetry_cell_setting 'orthorhombic'
loop_
_space_group_symop_operation_xyz
x,y,z
-x,-y,1/2+z
x,1/2-y,-z
-x,1/2+y,1/2-z
-x,-y,-z
x,y,1/2-z
-x,1/2+y,z
x,1/2-y,1/2+z
loop_
_atom_site_type_symbol
_atom_site_label
_atom_site_fract_x
_atom_site_fract_y
_atom_site_fract_z
Si Si1 0.648481 0.412880 0.630719
Si Si2 0.422627 0.711376 0.126986
Si Si3 0.071250 0.785706 0.135057
Si Si4 0.938064 0.515263 0.863504
Si Si5 0.238512 0.059880 0.437799
Si Si6 0.850589 0.681345 0.431318
O O1 0.583728 0.414493 0.750000
O O2 0.688086 0.347928 0.606589
O O3 0.821865 0.456720 0.622369
O O4 0.469557 0.434982 0.563472
O O5 0.460807 0.713112 0.250000
O O6 0.291775 0.766469 0.106801
O O7 0.627600 0.703188 0.070314
O O8 0.066382 0.810531 0.250000
O O9 0.955622 0.816138 0.043247
O O10 0.965117 0.725447 0.137218
O O11 0.907960 0.536821 0.750000
O O12 0.158817 0.495207 0.881327
O O13 0.853504 0.555124 0.949548
O O14 0.164022 0.118348 0.391008
#
# Coordination Sequence:
#
# PCOD9436677 Si02
#       6
#     8   8   8   8   8   8
#     4   9  17  31  54  80 104 134 175 220 263 310
#     4   9  18  34  56  81 107 137 178 225 270 319
#     4  10  21  36  55  79 107 140 181 228 273 320
#     4  10  20  33  52  78 107 140 177 217 261 312
#     4  10  20  34  52  78 110 141 174 216 265 318
#     4  10  21  35  55  80 108 143 180 222 273 326
#
# _framework density 22.418854
#
# number of rings (size 3 to 8) (size 9 to 14) (size 15 to 20)
#    0.000    2.333    0.000    2.500    0.000    6.667 
#    0.000    0.000    0.000    1.000    0.000   23.333 
#    0.000    0.000    0.000    0.000    0.000    0.000 
#
# Total GULP energy -267809.350173 kJ/mol
# GULP energy per Si atom -5579.361462 kJ/mol
# Density = 2.236783 g / cm^3
# Si number density = 22.418854 Si / 1000 Ang^3
#
#
#
# Elastic Constant Matrix: (Units=GPa)
#
#
# Indices 1 2 3 4 5 6 
#
# 1 79.1963 7.3406 6.5459 0.0000 0.0000 0.0000
# 2 7.3406 42.8342 2.9698 0.0000 0.0000 0.0000
# 3 6.5459 2.9698 96.1323 0.0000 0.0000 0.0000
# 4 0.0000 0.0000 0.0000 18.7495 0.0000 0.0000
# 5 0.0000 0.0000 0.0000 0.0000 18.3389 0.0000
# 6 0.0000 0.0000 0.0000 0.0000 0.0000 26.3011
#
#
#
# Elastic Compliance Matrix: (Units=1/GPa)
#
#
# Indices 1 2 3 4 5 6 
#
# 1 0.012894 -0.002153 -0.000811 0.000000 0.000000 0.000000
# 2 -0.002153 0.023756 -0.000587 0.000000 0.000000 0.000000
# 3 -0.000811 -0.000587 0.010476 0.000000 0.000000 0.000000
# 4 0.000000 0.000000 0.000000 0.053335 0.000000 0.000000
# 5 0.000000 0.000000 0.000000 0.000000 0.054529 0.000000
# 6 0.000000 0.000000 0.000000 0.000000 0.000000 0.038021
#
#
# Mechanical properties :
#
#
# Convention : Reuss Voigt Hill
#
# Bulk Modulus (GPa) = 24.98702 27.98616 26.48659
# Shear Modulus (GPa) = 23.42424 26.09833 24.76129
#
# Velocity S-wave (km/s) = 3.23591 3.41563 3.32698
# Velocity P-wave (km/s) = 5.01311 5.29771 5.15737
#
# Compressibility (1/GPa) = 0.04002078
#
# Stress axis : x y z
#
# Youngs Moduli (GPa) = 77.55845 42.09537 95.45877
#
# Poissons Ratio (x) = 0.09064 0.07746
# Poissons Ratio (y) = 0.16701 0.05606
# Poissons Ratio (z) = 0.06293 0.02472
#
# Static dielectric constant tensor:
#      x y z
#    x 1.896400 0.000000 0.000000 
#    y 0.000000 1.808100 0.000000 
#    z 0.000000 0.000000 1.859320 
# 
# From -- ./inp_files/15215.got.cif
#   From: 2010.05.17/outbox.cif.g08.bks.cpg/sg57_8_cif.got.tgz:15215.got - 2010.06.03 13:58:18.
