data_PCOD9436286
_publ_section_title
;
Structure prediction by ZEFSAII (Michael W. Deem and Ramdas Pophale) SiO2 
 PCOD9436286
Probable space group: P B C M
;
_chemical_formula_sum "Si O2"
_cell_formula_units_Z 40
_cell_length_a 13.211744
_cell_length_b 8.090972
_cell_length_c 15.087819
_cell_angle_alpha 90.000000
_cell_angle_beta 90.000000
_cell_angle_gamma 90.000000
_cell_volume 1612.825248
_symmetry_space_group_name_H-M "P B C M"
_symmetry_group_IT_number 57
_symmetry_cell_setting 'orthorhombic'
loop_
_space_group_symop_operation_xyz
x,y,z
-x,-y,1/2+z
x,1/2-y,-z
-x,1/2+y,1/2-z
-x,-y,-z
x,y,1/2-z
-x,1/2+y,z
x,1/2-y,1/2+z
loop_
_atom_site_type_symbol
_atom_site_label
_atom_site_fract_x
_atom_site_fract_y
_atom_site_fract_z
Si Si1 0.286158 0.917113 0.061592
Si Si2 0.121054 0.435053 0.145759
Si Si3 0.654110 0.884888 0.102887
Si Si4 0.541986 0.225746 0.392265
Si Si5 0.092415 0.810650 0.142545
O O1 0.375256 0.866422 0.129067
O O2 0.176833 0.934803 0.104943
O O3 0.278222 0.750000 0.000000
O O4 0.323834 0.067322 0.000755
O O5 0.102327 0.443211 0.250000
O O6 0.232106 0.360258 0.135183
O O7 0.122323 0.624943 0.114690
O O8 0.021036 0.346753 0.109655
O O9 0.571880 0.755262 0.137435
O O10 0.596782 0.055859 0.131012
O O11 0.527568 0.250000 0.500000
O O12 0.096752 0.817977 0.250000
#
# Coordination Sequence:
#
# PCOD9436286 Si02
#       5
#     8   8   8   8   8
#     4   9  16  33  55  82 105 142 177 218 265 323
#     4  10  21  39  57  77 108 147 182 226 275 325
#     4  10  19  36  56  83 111 143 182 223 267 325
#     4   9  17  33  56  79 111 145 172 219 274 322
#     4  10  20  38  59  76 108 149 180 220 281 325
#
# _framework density 24.801199
#
# number of rings (size 3 to 8) (size 9 to 14) (size 15 to 20)
#    0.000    2.800    4.000    2.400    0.000    0.800 
#    7.200    2.000    0.000    0.000    0.000    0.000 
#    0.000    0.000    0.000    0.000    0.000    0.000 
#
# Total GULP energy -223061.084940 kJ/mol
# GULP energy per Si atom -5576.527123 kJ/mol
# Density = 2.474475 g / cm^3
# Si number density = 24.801199 Si / 1000 Ang^3
#
#
#
# Elastic Constant Matrix: (Units=GPa)
#
#
# Indices 1 2 3 4 5 6 
#
# 1 265.7768 38.1236 12.9842 0.0000 0.0000 0.0000
# 2 38.1236 42.7972 5.3521 0.0000 0.0000 0.0000
# 3 12.9842 5.3521 26.9144 0.0000 0.0000 0.0000
# 4 0.0000 0.0000 0.0000 8.5760 0.0000 0.0000
# 5 0.0000 0.0000 0.0000 0.0000 48.0034 0.0000
# 6 0.0000 0.0000 0.0000 0.0000 0.0000 39.7234
#
#
#
# Elastic Compliance Matrix: (Units=1/GPa)
#
#
# Indices 1 2 3 4 5 6 
#
# 1 0.004362 -0.003715 -0.001366 0.000000 0.000000 0.000000
# 2 -0.003715 0.027126 -0.003602 0.000000 0.000000 0.000000
# 3 -0.001366 -0.003602 0.038530 0.000000 0.000000 0.000000
# 4 0.000000 0.000000 0.000000 0.116605 0.000000 0.000000
# 5 0.000000 0.000000 0.000000 0.000000 0.020832 0.000000
# 6 0.000000 0.000000 0.000000 0.000000 0.000000 0.025174
#
#
# Mechanical properties :
#
#
# Convention : Reuss Voigt Hill
#
# Bulk Modulus (GPa) = 18.99237 49.82314 34.40776
# Shear Modulus (GPa) = 18.68846 37.86245 28.27545
#
# Velocity S-wave (km/s) = 2.74803 3.91146 3.38018
# Velocity P-wave (km/s) = 4.21229 6.36647 5.39793
#
# Compressibility (1/GPa) = 0.05265271
#
# Stress axis : x y z
#
# Youngs Moduli (GPa) = 229.24401 36.86529 25.95380
#
# Poissons Ratio (x) = 0.13696 0.03544
# Poissons Ratio (y) = 0.85164 0.09348
# Poissons Ratio (z) = 0.31307 0.13279
#
# Static dielectric constant tensor:
#      x y z
#    x 2.022770 0.000000 0.000000 
#    y 0.000000 2.062940 0.000000 
#    z 0.000000 0.000000 2.082380 
# 
# From -- ./inp_files/24849.got.cif
#   From: 2010.05.17/outbox.cif.g08.bks.cpg/sg57_13_cif.got.tgz:24849.got - 2010.06.03 13:58:18.
