data_PCOD9436816
_publ_section_title
;
Structure prediction by ZEFSAII (Michael W. Deem and Ramdas Pophale) SiO2 
 PCOD9436816
Probable space group: P B C M
;
_chemical_formula_sum "Si O2"
_cell_formula_units_Z 48
_cell_length_a 7.947031
_cell_length_b 19.574918
_cell_length_c 11.404601
_cell_angle_alpha 90.000000
_cell_angle_beta 90.000000
_cell_angle_gamma 90.000000
_cell_volume 1774.128017
_symmetry_space_group_name_H-M "P B C M"
_symmetry_group_IT_number 57
_symmetry_cell_setting 'orthorhombic'
loop_
_space_group_symop_operation_xyz
x,y,z
-x,-y,1/2+z
x,1/2-y,-z
-x,1/2+y,1/2-z
-x,-y,-z
x,y,1/2-z
-x,1/2+y,z
x,1/2-y,1/2+z
loop_
_atom_site_type_symbol
_atom_site_label
_atom_site_fract_x
_atom_site_fract_y
_atom_site_fract_z
Si Si1 0.294318 0.210139 0.878337
Si Si2 0.618527 0.113531 0.876395
Si Si3 0.140863 0.743346 0.875486
Si Si4 0.270842 0.610032 0.378811
Si Si5 0.896254 0.544920 0.123905
Si Si6 0.865675 0.922558 0.377284
O O1 0.307160 0.246067 0.750000
O O2 0.445042 0.155256 0.878999
O O3 0.132827 0.159022 0.875305
O O4 0.305976 0.250000 0.000000
O O5 0.624111 0.075893 0.750000
O O6 0.761224 0.172351 0.870679
O O7 0.641645 0.081216 0.004884
O O8 0.057427 0.758192 0.750000
O O9 0.273802 0.807258 0.883673
O O10 0.050937 0.750000 0.000000
O O11 0.335396 0.589695 0.250000
O O12 0.073244 0.587425 0.382736
O O13 0.819635 0.561207 0.250000
O O14 0.961827 0.466394 0.122611
O O15 0.795883 0.560014 0.005943
O O16 0.789804 0.942605 0.250000
#
# Coordination Sequence:
#
# PCOD9436816 Si02
#       6
#     8   8   8   8   8   8
#     4  10  20  34  53  76 103 134 168 208 252 300
#     4   9  17  29  46  69 100 136 167 198 243 299
#     4   8  13  22  37  59  86 116 150 184 223 273
#     4   9  16  27  46  71  96 124 161 203 244 289
#     4   9  18  34  55  75  98 131 171 213 254 300
#     4   9  19  36  55  74  98 132 172 212 256 302
#
# _framework density 27.055541999999999
#
# number of rings (size 3 to 8) (size 9 to 14) (size 15 to 20)
#    0.000    3.000    0.000    1.500    0.000    3.333 
#    0.000    3.333    0.000   10.000    0.000    0.000 
#    0.000    0.000    0.000    0.000    0.000    0.000 
#
# Total GULP energy -267725.045359 kJ/mol
# GULP energy per Si atom -5577.605112 kJ/mol
# Density = 2.699396 g / cm^3
# Si number density = 27.055542 Si / 1000 Ang^3
#
#
#
# Elastic Constant Matrix: (Units=GPa)
#
#
# Indices 1 2 3 4 5 6 
#
# 1 78.3137 -8.9626 23.4623 0.0000 0.0000 0.0000
# 2 -8.9626 64.4445 51.9148 0.0000 0.0000 0.0000
# 3 23.4623 51.9148 417.1027 0.0000 0.0000 0.0000
# 4 0.0000 0.0000 0.0000 17.9098 0.0000 0.0000
# 5 0.0000 0.0000 0.0000 0.0000 -5.1411 0.0000
# 6 0.0000 0.0000 0.0000 0.0000 0.0000 28.6065
#
#
#
# Elastic Compliance Matrix: (Units=1/GPa)
#
#
# Indices 1 2 3 4 5 6 
#
# 1 0.013412 0.002749 -0.001097 0.000000 0.000000 0.000000
# 2 0.002749 0.017810 -0.002371 0.000000 0.000000 0.000000
# 3 -0.001097 -0.002371 0.002754 0.000000 0.000000 0.000000
# 4 0.000000 0.000000 0.000000 0.055835 0.000000 0.000000
# 5 0.000000 0.000000 0.000000 0.000000 -0.194511 0.000000
# 6 0.000000 0.000000 0.000000 0.000000 0.000000 0.034957
#
#
# Mechanical properties :
#
#
# Convention : Reuss Voigt Hill
#
# Bulk Modulus (GPa) = 30.73342 76.96557 53.84949
# Shear Modulus (GPa) = -87.02061 41.17148 -22.92456
#
# Velocity S-wave (km/s) = -5.67746 3.90518 -2.91403
# Velocity P-wave (km/s) = 5.62085 6.98877 2.93674
#
# Compressibility (1/GPa) = 0.03253787
#
# Stress axis : x y z
#
# Youngs Moduli (GPa) = 74.55877 56.14903 363.06620
#
# Poissons Ratio (x) = -0.15433 0.39812
# Poissons Ratio (y) = -0.20494 0.86094
# Poissons Ratio (z) = 0.08176 0.13315
#
# Static dielectric constant tensor:
#      x y z
#    x 2.163590 0.000000 0.000000 
#    y 0.000000 2.113180 0.000000 
#    z 0.000000 0.000000 1.636790 
# 
# From -- ./inp_files/11956.got.cif
#   From: 2010.05.17/outbox.cif.g08.bks.cpg/sg57_6_cif.got.tgz:11956.got - 2010.06.03 13:58:18.
