data_PCOD9436419
_publ_section_title
;
Structure prediction by ZEFSAII (Michael W. Deem and Ramdas Pophale) SiO2 
 PCOD9436419
Probable space group: P B C M
;
_chemical_formula_sum "Si O2"
_cell_formula_units_Z 56
_cell_length_a 16.174491
_cell_length_b 12.217617
_cell_length_c 14.031922
_cell_angle_alpha 90.000000
_cell_angle_beta 90.000000
_cell_angle_gamma 90.000000
_cell_volume 2772.900533
_symmetry_space_group_name_H-M "P B C M"
_symmetry_group_IT_number 57
_symmetry_cell_setting 'orthorhombic'
loop_
_space_group_symop_operation_xyz
x,y,z
-x,-y,1/2+z
x,1/2-y,-z
-x,1/2+y,1/2-z
-x,-y,-z
x,y,1/2-z
-x,1/2+y,z
x,1/2-y,1/2+z
loop_
_atom_site_type_symbol
_atom_site_label
_atom_site_fract_x
_atom_site_fract_y
_atom_site_fract_z
Si Si1 0.833895 0.725575 0.365284
Si Si2 0.925790 0.992145 0.864131
Si Si3 0.612433 0.036775 0.525765
Si Si4 0.116552 0.468170 0.135783
Si Si5 0.457692 0.403805 0.363533
Si Si6 0.202424 0.620414 0.990715
Si Si7 0.353935 0.318368 0.636911
O O1 0.833528 0.729036 0.250000
O O2 0.897459 0.630276 0.391472
O O3 0.857072 0.846982 0.396474
O O4 0.741126 0.695694 0.394261
O O5 0.919245 0.002135 0.750000
O O6 0.861409 0.074505 0.912222
O O7 0.020723 0.013349 0.889680
O O8 0.586404 0.005280 0.417943
O O9 0.610152 0.920282 0.580276
O O10 0.544399 0.108736 0.580728
O O11 0.703635 0.085905 0.531304
O O12 0.124128 0.474736 0.250000
O O13 0.173201 0.557992 0.085944
O O14 0.468046 0.421746 0.250000
O O15 0.402635 0.294890 0.376655
O O16 0.196042 0.750000 0.000000
O O17 0.355121 0.342777 0.750000
#
# Coordination Sequence:
#
# PCOD9436419 Si02
#       7
#     8   8   8   8   8   8   8
#     4   9  18  36  66  97 122 161 218 266 320 383
#     4  10  22  42  66  93 128 169 216 271 322 377
#     4  11  23  41  63  89 128 169 211 264 326 392
#     4  10  23  42  65  94 129 170 217 273 327 379
#     4  10  23  40  64  94 123 160 213 273 328 384
#     4  12  27  42  61  94 133 175 218 258 320 398
#     4  10  19  37  65  94 124 159 210 269 325 388
#
# _framework density 20.195459
#
# number of rings (size 3 to 8) (size 9 to 14) (size 15 to 20)
#    0.000    1.714    1.429    2.143    2.000    5.714 
#    0.000    0.000    0.000    0.000    0.000    0.000 
#    0.000    0.000    0.000    0.000    0.000    0.000 
#
# Total GULP energy -313130.758769 kJ/mol
# GULP energy per Si atom -5591.620692 kJ/mol
# Density = 2.014949 g / cm^3
# Si number density = 20.195459 Si / 1000 Ang^3
#
#
#
# Elastic Constant Matrix: (Units=GPa)
#
#
# Indices 1 2 3 4 5 6 
#
# 1 85.2640 16.8857 -19.3553 0.0000 0.0000 0.0000
# 2 16.8857 100.2136 0.2659 0.0000 0.0000 0.0000
# 3 -19.3553 0.2659 52.7396 0.0000 0.0000 0.0000
# 4 0.0000 0.0000 0.0000 24.3053 0.0000 0.0000
# 5 0.0000 0.0000 0.0000 0.0000 12.8838 0.0000
# 6 0.0000 0.0000 0.0000 0.0000 0.0000 35.7846
#
#
#
# Elastic Compliance Matrix: (Units=1/GPa)
#
#
# Indices 1 2 3 4 5 6 
#
# 1 0.013283 -0.002251 0.004886 0.000000 0.000000 0.000000
# 2 -0.002251 0.010360 -0.000878 0.000000 0.000000 0.000000
# 3 0.004886 -0.000878 0.020759 0.000000 0.000000 0.000000
# 4 0.000000 0.000000 0.000000 0.041143 0.000000 0.000000
# 5 0.000000 0.000000 0.000000 0.000000 0.077617 0.000000
# 6 0.000000 0.000000 0.000000 0.000000 0.000000 0.027945
#
#
# Mechanical properties :
#
#
# Convention : Reuss Voigt Hill
#
# Bulk Modulus (GPa) = 20.86992 25.97887 23.42439
# Shear Modulus (GPa) = 24.56204 30.62280 27.59242
#
# Velocity S-wave (km/s) = 3.49121 3.89822 3.70032
# Velocity P-wave (km/s) = 5.15828 5.75788 5.46630
#
# Compressibility (1/GPa) = 0.04791586
#
# Stress axis : x y z
#
# Youngs Moduli (GPa) = 75.28248 96.52203 48.17239
#
# Poissons Ratio (x) = 0.21729 -0.23538
# Poissons Ratio (y) = 0.16947 0.04231
# Poissons Ratio (z) = -0.36785 0.08479
#
# Static dielectric constant tensor:
#      x y z
#    x 1.690030 0.000000 0.000000 
#    y 0.000000 1.673960 0.000000 
#    z 0.000000 0.000000 1.760310 
# 
# From -- ./inp_files/18545.got.cif
#   From: 2010.05.17/outbox.cif.g08.bks.cpg/sg57_10_cif.got.tgz:18545.got - 2010.06.03 13:58:18.
