data_PCOD9436557
_publ_section_title
;
Structure prediction by ZEFSAII (Michael W. Deem and Ramdas Pophale) SiO2 
 PCOD9436557
Probable space group: P B C M
;
_chemical_formula_sum "Si O2"
_cell_formula_units_Z 40
_cell_length_a 16.547239
_cell_length_b 5.531807
_cell_length_c 20.001977
_cell_angle_alpha 90.000000
_cell_angle_beta 90.000000
_cell_angle_gamma 90.000000
_cell_volume 1830.903618
_symmetry_space_group_name_H-M "P B C M"
_symmetry_group_IT_number 57
_symmetry_cell_setting 'orthorhombic'
loop_
_space_group_symop_operation_xyz
x,y,z
-x,-y,1/2+z
x,1/2-y,-z
-x,1/2+y,1/2-z
-x,-y,-z
x,y,1/2-z
-x,1/2+y,z
x,1/2-y,1/2+z
loop_
_atom_site_type_symbol
_atom_site_label
_atom_site_fract_x
_atom_site_fract_y
_atom_site_fract_z
Si Si1 0.153853 0.750000 0.000000
Si Si2 0.307856 0.712410 0.174396
Si Si3 0.462387 0.000830 0.169871
Si Si4 0.952265 0.656063 0.250000
Si Si5 0.843736 0.017089 0.870089
Si Si6 0.722887 0.635983 0.563818
O O1 0.111644 0.635317 0.934660
O O2 0.213494 0.950387 0.969605
O O3 0.322612 0.625905 0.250000
O O4 0.367767 0.937448 0.161959
O O5 0.325471 0.512770 0.118824
O O6 0.214340 0.787561 0.166120
O O7 0.477115 0.011382 0.250000
O O8 0.507662 0.759170 0.143813
O O9 0.900008 0.608888 0.183564
O O10 0.015100 0.430084 0.250000
O O11 0.779332 0.828600 0.899352
O O12 0.677626 0.750000 0.500000
#
# Coordination Sequence:
#
# PCOD9436557 Si02
#       6
#     4   8   8   4   8   8
#     4   8  18  38  64  90 120 156 216 264 304 356
#     4  10  20  32  60  92 120 162 215 267 311 373
#     4   9  19  34  50  81 129 168 203 256 321 375
#     4  12  30  46  64  96 140 170 194 258 330 380
#     4  10  21  39  64  92 123 164 217 258 310 374
#     4   9  19  35  61  89 119 158 209 275 305 360
#
# _framework density 21.847135999999999
#
# number of rings (size 3 to 8) (size 9 to 14) (size 15 to 20)
#    0.000    2.400    1.000    0.000    9.800    0.000 
#    0.000    1.000    0.000    1.200    0.000    0.000 
#    0.000    0.000    0.000    0.000    0.000    0.000 
#
# Total GULP energy -223082.093907 kJ/mol
# GULP energy per Si atom -5577.052348 kJ/mol
# Density = 2.179741 g / cm^3
# Si number density = 21.847136 Si / 1000 Ang^3
#
#
#
# Elastic Constant Matrix: (Units=GPa)
#
#
# Indices 1 2 3 4 5 6 
#
# 1 26.7316 1.0791 22.6766 0.0000 0.0000 0.0000
# 2 1.0791 64.5603 19.9066 0.0000 0.0000 0.0000
# 3 22.6766 19.9066 109.5617 0.0000 0.0000 0.0000
# 4 0.0000 0.0000 0.0000 27.1707 0.0000 0.0000
# 5 0.0000 0.0000 0.0000 0.0000 -0.7969 0.0000
# 6 0.0000 0.0000 0.0000 0.0000 0.0000 14.2163
#
#
#
# Elastic Compliance Matrix: (Units=1/GPa)
#
#
# Indices 1 2 3 4 5 6 
#
# 1 0.045691 0.002280 -0.009871 0.000000 0.000000 0.000000
# 2 0.002280 0.016522 -0.003474 0.000000 0.000000 0.000000
# 3 -0.009871 -0.003474 0.011802 0.000000 0.000000 0.000000
# 4 0.000000 0.000000 0.000000 0.036804 0.000000 0.000000
# 5 0.000000 0.000000 0.000000 0.000000 -1.254841 0.000000
# 6 0.000000 0.000000 0.000000 0.000000 0.000000 0.070342
#
#
# Mechanical properties :
#
#
# Convention : Reuss Voigt Hill
#
# Bulk Modulus (GPa) = 19.27360 32.01978 25.64669
# Shear Modulus (GPa) = -4.83439 18.59744 6.88152
#
# Velocity S-wave (km/s) = -1.48917 2.92079 1.77671
# Velocity P-wave (km/s) = 2.42576 5.10517 3.99669
#
# Compressibility (1/GPa) = 0.05188445
#
# Stress axis : x y z
#
# Youngs Moduli (GPa) = 21.88638 60.52378 84.73482
#
# Poissons Ratio (x) = -0.13799 0.83642
# Poissons Ratio (y) = -0.04990 0.29436
# Poissons Ratio (z) = 0.21604 0.21025
#
# Static dielectric constant tensor:
#      x y z
#    x 1.776110 0.000000 0.000000 
#    y 0.000000 1.864970 0.000000 
#    z 0.000000 0.000000 1.816160 
# 
# From -- ./inp_files/22807.got.cif
#   From: 2010.05.17/outbox.cif.g08.bks.cpg/sg57_12_cif.got.tgz:22807.got - 2010.06.03 13:58:18.
