data_PCOD9436683
_publ_section_title
;
Structure prediction by ZEFSAII (Michael W. Deem and Ramdas Pophale) SiO2 
 PCOD9436683
Probable space group: P B C M
;
_chemical_formula_sum "Si O2"
_cell_formula_units_Z 40
_cell_length_a 27.254621
_cell_length_b 9.164512
_cell_length_c 8.673633
_cell_angle_alpha 90.000000
_cell_angle_beta 90.000000
_cell_angle_gamma 90.000000
_cell_volume 2166.459295
_symmetry_space_group_name_H-M "P B C M"
_symmetry_group_IT_number 57
_symmetry_cell_setting 'orthorhombic'
loop_
_space_group_symop_operation_xyz
x,y,z
-x,-y,1/2+z
x,1/2-y,-z
-x,1/2+y,1/2-z
-x,-y,-z
x,y,1/2-z
-x,1/2+y,z
x,1/2-y,1/2+z
loop_
_atom_site_type_symbol
_atom_site_label
_atom_site_fract_x
_atom_site_fract_y
_atom_site_fract_z
Si Si1 0.953611 0.085534 0.065696
Si Si2 0.546351 0.912583 0.435079
Si Si3 0.745393 0.084679 0.934624
Si Si4 0.147442 0.915618 0.435174
Si Si5 0.355564 0.585904 0.065453
O O1 0.954378 0.088902 0.250000
O O2 0.955854 0.250000 0.000000
O O3 0.901738 0.018746 0.007947
O O4 0.000000 0.000000 0.000000
O O5 0.545836 0.750000 0.500000
O O6 0.543624 0.909652 0.250000
O O7 0.500000 0.000000 0.500000
O O8 0.596899 0.993271 0.479538
O O9 0.741577 0.090812 0.750000
O O10 0.798926 0.018795 0.973591
O O11 0.746159 0.250000 0.000000
O O12 0.695571 0.019580 0.003129
O O13 0.148982 0.750000 0.500000
O O14 0.142558 0.910807 0.250000
O O15 0.352922 0.594530 0.250000
O O16 0.360560 0.750000 0.000000
#
# Coordination Sequence:
#
# PCOD9436683 Si02
#       5
#     8   8   8   8   8
#     4  11  21  34  52  75 103 137 175 218 266 316
#     4  11  24  40  59  82 108 141 178 219 263 311
#     4   9  16  26  45  72 102 134 168 209 255 302
#     4   9  16  27  44  70 100 131 169 212 257 307
#     4  10  20  33  52  79 108 137 171 210 256 308
#
# _framework density 18.463304000000001
#
# number of rings (size 3 to 8) (size 9 to 14) (size 15 to 20)
#    0.000    2.000    0.000    7.200    0.000    7.200 
#    0.000    0.000    0.000    1.200    0.000    2.800 
#    0.000    0.000    0.000    0.000    0.000    0.000 
#
# Total GULP energy -223104.128091 kJ/mol
# GULP energy per Si atom -5577.603202 kJ/mol
# Density = 1.842128 g / cm^3
# Si number density = 18.463304 Si / 1000 Ang^3
#
#
#
# Elastic Constant Matrix: (Units=GPa)
#
#
# Indices 1 2 3 4 5 6 
#
# 1 244.0188 63.3109 79.4366 0.0000 0.0000 0.0000
# 2 63.3109 52.2095 26.2283 0.0000 0.0000 0.0000
# 3 79.4366 26.2283 101.9905 0.0000 0.0000 0.0000
# 4 0.0000 0.0000 0.0000 20.8857 0.0000 0.0000
# 5 0.0000 0.0000 0.0000 0.0000 34.4047 0.0000
# 6 0.0000 0.0000 0.0000 0.0000 0.0000 27.7568
#
#
#
# Elastic Compliance Matrix: (Units=1/GPa)
#
#
# Indices 1 2 3 4 5 6 
#
# 1 0.007057 -0.006656 -0.003785 0.000000 0.000000 0.000000
# 2 -0.006656 0.028274 -0.002087 0.000000 0.000000 0.000000
# 3 -0.003785 -0.002087 0.013289 0.000000 0.000000 0.000000
# 4 0.000000 0.000000 0.000000 0.047880 0.000000 0.000000
# 5 0.000000 0.000000 0.000000 0.000000 0.029066 0.000000
# 6 0.000000 0.000000 0.000000 0.000000 0.000000 0.036027
#
#
# Mechanical properties :
#
#
# Convention : Reuss Voigt Hill
#
# Bulk Modulus (GPa) = 42.43663 81.79671 62.11667
# Shear Modulus (GPa) = 25.70660 31.89231 28.79945
#
# Velocity S-wave (km/s) = 3.73541 4.16063 3.95374
# Velocity P-wave (km/s) = 6.45280 8.21460 7.38641
#
# Compressibility (1/GPa) = 0.02356455
#
# Stress axis : x y z
#
# Youngs Moduli (GPa) = 141.70126 35.36878 75.24900
#
# Poissons Ratio (x) = 0.23543 0.28480
# Poissons Ratio (y) = 0.94321 0.15701
# Poissons Ratio (z) = 0.53630 0.07380
#
# Static dielectric constant tensor:
#      x y z
#    x 1.706320 0.000000 0.000000 
#    y 0.000000 1.616660 0.000000 
#    z 0.000000 0.000000 1.615710 
# 
# From -- ./inp_files/9633.got.cif
#   From: 2010.05.17/outbox.cif.g08.bks.cpg/sg57_5_cif.got.tgz:9633.got - 2010.06.03 13:58:18.
