data_PCOD9436329
_publ_section_title
;
Structure prediction by ZEFSAII (Michael W. Deem and Ramdas Pophale) SiO2 
 PCOD9436329
Probable space group: P B C M
;
_chemical_formula_sum "Si O2"
_cell_formula_units_Z 48
_cell_length_a 14.830910
_cell_length_b 8.918905
_cell_length_c 18.965100
_cell_angle_alpha 90.000000
_cell_angle_beta 90.000000
_cell_angle_gamma 90.000000
_cell_volume 2508.617656
_symmetry_space_group_name_H-M "P B C M"
_symmetry_group_IT_number 57
_symmetry_cell_setting 'orthorhombic'
loop_
_space_group_symop_operation_xyz
x,y,z
-x,-y,1/2+z
x,1/2-y,-z
-x,1/2+y,1/2-z
-x,-y,-z
x,y,1/2-z
-x,1/2+y,z
x,1/2-y,1/2+z
loop_
_atom_site_type_symbol
_atom_site_label
_atom_site_fract_x
_atom_site_fract_y
_atom_site_fract_z
Si Si1 0.773215 0.345284 0.427391
Si Si2 0.293347 0.920334 0.668234
Si Si3 0.438204 0.116743 0.592053
Si Si4 0.902731 0.972667 0.166072
Si Si5 0.388520 0.445666 0.929061
Si Si6 0.970645 0.265247 0.417388
O O1 0.763506 0.250000 0.500000
O O2 0.733275 0.233963 0.369106
O O3 0.713058 0.493890 0.426710
O O4 0.879878 0.368041 0.416545
O O5 0.306244 0.892893 0.750000
O O6 0.205235 0.025857 0.658649
O O7 0.379497 0.001245 0.636498
O O8 0.411921 0.288257 0.608121
O O9 0.411829 0.084198 0.510874
O O10 0.543482 0.075300 0.597627
O O11 0.923150 0.987595 0.250000
O O12 0.938507 0.112076 0.119482
O O13 0.951024 0.832397 0.130459
O O14 0.995811 0.250000 0.500000
#
# Coordination Sequence:
#
# PCOD9436329 Si02
#       6
#     8   8   8   8   8   8
#     4  10  19  36  60  85 115 148 191 236 286 341
#     4  10  21  38  57  81 116 154 188 236 293 340
#     4  10  20  35  56  86 111 147 188 233 275 340
#     4  10  21  38  58  81 114 157 194 232 292 355
#     4  10  20  34  59  84 111 143 190 231 280 330
#     4  10  21  36  57  85 117 149 193 247 287 333
#
# _framework density 19.134043999999999
#
# number of rings (size 3 to 8) (size 9 to 14) (size 15 to 20)
#    0.000    2.000    1.667    2.000    2.333    2.000 
#    3.000    4.167    0.000    0.000    0.000    0.000 
#    0.000    0.000    0.000    0.000    0.000    0.000 
#
# Total GULP energy -267801.050794 kJ/mol
# GULP energy per Si atom -5579.188558 kJ/mol
# Density = 1.909049 g / cm^3
# Si number density = 19.134044 Si / 1000 Ang^3
#
#
#
# Elastic Constant Matrix: (Units=GPa)
#
#
# Indices 1 2 3 4 5 6 
#
# 1 35.4659 -1.6118 15.7223 0.0000 0.0000 0.0000
# 2 -1.6118 26.8477 -6.2856 0.0000 0.0000 0.0000
# 3 15.7223 -6.2856 75.9190 0.0000 0.0000 0.0000
# 4 0.0000 0.0000 0.0000 22.1144 0.0000 0.0000
# 5 0.0000 0.0000 0.0000 0.0000 10.8286 0.0000
# 6 0.0000 0.0000 0.0000 0.0000 0.0000 35.4833
#
#
#
# Elastic Compliance Matrix: (Units=1/GPa)
#
#
# Indices 1 2 3 4 5 6 
#
# 1 0.031050 0.000366 -0.006400 0.000000 0.000000 0.000000
# 2 0.000366 0.037988 0.003069 0.000000 0.000000 0.000000
# 3 -0.006400 0.003069 0.014751 0.000000 0.000000 0.000000
# 4 0.000000 0.000000 0.000000 0.045219 0.000000 0.000000
# 5 0.000000 0.000000 0.000000 0.000000 0.092348 0.000000
# 6 0.000000 0.000000 0.000000 0.000000 0.000000 0.028182
#
#
# Mechanical properties :
#
#
# Convention : Reuss Voigt Hill
#
# Bulk Modulus (GPa) = 12.84367 17.09804 14.97086
# Shear Modulus (GPa) = 17.76697 22.37911 20.07304
#
# Velocity S-wave (km/s) = 3.05052 3.42365 3.24246
# Velocity P-wave (km/s) = 4.37431 4.95821 4.67538
#
# Compressibility (1/GPa) = 0.07785934
#
# Stress axis : x y z
#
# Youngs Moduli (GPa) = 32.20625 26.32434 67.79003
#
# Poissons Ratio (x) = -0.00963 0.43385
# Poissons Ratio (y) = -0.01178 -0.20807
# Poissons Ratio (z) = 0.20612 -0.08080
#
# Static dielectric constant tensor:
#      x y z
#    x 1.661490 0.000000 0.000000 
#    y 0.000000 1.671810 0.000000 
#    z 0.000000 0.000000 1.643320 
# 
# From -- ./inp_files/22443.got.cif
#   From: 2010.05.17/outbox.cif.g08.bks.cpg/sg57_12_cif.got.tgz:22443.got - 2010.06.03 13:58:18.
