data_PCOD9436738
_publ_section_title
;
Structure prediction by ZEFSAII (Michael W. Deem and Ramdas Pophale) SiO2 
 PCOD9436738
Probable space group: P B C M
;
_chemical_formula_sum "Si O2"
_cell_formula_units_Z 40
_cell_length_a 7.568896
_cell_length_b 7.188394
_cell_length_c 28.412701
_cell_angle_alpha 90.000000
_cell_angle_beta 90.000000
_cell_angle_gamma 90.000000
_cell_volume 1545.884106
_symmetry_space_group_name_H-M "P B C M"
_symmetry_group_IT_number 57
_symmetry_cell_setting 'orthorhombic'
loop_
_space_group_symop_operation_xyz
x,y,z
-x,-y,1/2+z
x,1/2-y,-z
-x,1/2+y,1/2-z
-x,-y,-z
x,y,1/2-z
-x,1/2+y,z
x,1/2-y,1/2+z
loop_
_atom_site_type_symbol
_atom_site_label
_atom_site_fract_x
_atom_site_fract_y
_atom_site_fract_z
Si Si1 0.365540 0.303604 0.750000
Si Si2 0.112243 0.841270 0.048664
Si Si3 0.621659 0.807975 0.649292
Si Si4 0.774422 0.226204 0.649191
Si Si5 0.774751 0.226258 0.750000
Si Si6 0.274976 0.246210 0.450950
O O1 0.323961 0.215485 0.800874
O O2 0.579779 0.320613 0.750000
O O3 0.277531 0.507247 0.750000
O O4 0.131484 0.739597 0.099392
O O5 0.902339 0.865771 0.041967
O O6 0.212423 0.034037 0.053471
O O7 0.175808 0.750000 0.000000
O O8 0.411280 0.832571 0.650063
O O9 0.649646 0.705290 0.599702
O O10 0.718501 0.007606 0.649443
O O11 0.865859 0.266618 0.699681
O O12 0.382145 0.250000 0.500000
#
# Coordination Sequence:
#
# PCOD9436738 Si02
#       6
#     4   8   8   8   4   8
#     4   8  14  28  47  68  94 122 150 186 229 274
#     4  10  20  34  50  69  93 125 159 193 233 278
#     4   9  18  31  50  73  96 122 155 192 232 275
#     4   9  18  31  50  73  96 122 155 192 232 275
#     4   8  14  28  47  68  94 122 150 186 229 274
#     4  10  20  34  50  69  93 125 159 193 233 278
#
# _framework density 25.875162
#
# number of rings (size 3 to 8) (size 9 to 14) (size 15 to 20)
#    0.000    2.800    0.000    2.400    0.000    4.000 
#    0.000    5.000    0.000    0.000    0.000    0.000 
#    0.000    0.000    0.000    0.000    0.000    0.000 
#
# Total GULP energy -223172.638764 kJ/mol
# GULP energy per Si atom -5579.315969 kJ/mol
# Density = 2.581627 g / cm^3
# Si number density = 25.875162 Si / 1000 Ang^3
#
#
#
# Elastic Constant Matrix: (Units=GPa)
#
#
# Indices 1 2 3 4 5 6 
#
# 1 31.2432 -6.6970 34.2909 0.0000 0.0000 0.0000
# 2 -6.6970 53.7218 32.7545 0.0000 0.0000 0.0000
# 3 34.2909 32.7545 355.8884 0.0000 0.0000 0.0000
# 4 0.0000 0.0000 0.0000 32.3081 0.0000 0.0000
# 5 0.0000 0.0000 0.0000 0.0000 30.4623 0.0000
# 6 0.0000 0.0000 0.0000 0.0000 0.0000 2.7862
#
#
#
# Elastic Compliance Matrix: (Units=1/GPa)
#
#
# Indices 1 2 3 4 5 6 
#
# 1 0.038425 0.007466 -0.004390 0.000000 0.000000 0.000000
# 2 0.007466 0.021172 -0.002668 0.000000 0.000000 0.000000
# 3 -0.004390 -0.002668 0.003478 0.000000 0.000000 0.000000
# 4 0.000000 0.000000 0.000000 0.030952 0.000000 0.000000
# 5 0.000000 0.000000 0.000000 0.000000 0.032827 0.000000
# 6 0.000000 0.000000 0.000000 0.000000 0.000000 0.358912
#
#
# Mechanical properties :
#
#
# Convention : Reuss Voigt Hill
#
# Bulk Modulus (GPa) = 15.65111 62.39446 39.02278
# Shear Modulus (GPa) = 9.87661 38.47832 24.17746
#
# Velocity S-wave (km/s) = 1.95584 3.86045 3.06009
# Velocity P-wave (km/s) = 3.34099 6.63602 5.25352
#
# Compressibility (1/GPa) = 0.06389325
#
# Stress axis : x y z
#
# Youngs Moduli (GPa) = 26.02460 47.23245 287.49117
#
# Poissons Ratio (x) = -0.35266 1.26196
# Poissons Ratio (y) = -0.19431 0.76702
# Poissons Ratio (z) = 0.11424 0.12602
#
# Static dielectric constant tensor:
#      x y z
#    x 1.993100 0.000000 0.000000 
#    y 0.000000 2.094780 0.000000 
#    z 0.000000 0.000000 2.160540 
# 
# From -- ./inp_files/24877.got.cif
#   From: 2010.05.17/outbox.cif.g08.bks.cpg/sg57_13_cif.got.tgz:24877.got - 2010.06.03 13:58:18.
