data_PCOD9436495
_publ_section_title
;
Structure prediction by ZEFSAII (Michael W. Deem and Ramdas Pophale) SiO2 
 PCOD9436495
Probable space group: P B C M
;
_chemical_formula_sum "Si O2"
_cell_formula_units_Z 64
_cell_length_a 5.276368
_cell_length_b 22.064205
_cell_length_c 28.736048
_cell_angle_alpha 90.000000
_cell_angle_beta 90.000000
_cell_angle_gamma 90.000000
_cell_volume 3345.418099
_symmetry_space_group_name_H-M "P B C M"
_symmetry_group_IT_number 57
_symmetry_cell_setting 'orthorhombic'
loop_
_space_group_symop_operation_xyz
x,y,z
-x,-y,1/2+z
x,1/2-y,-z
-x,1/2+y,1/2-z
-x,-y,-z
x,y,1/2-z
-x,1/2+y,z
x,1/2-y,1/2+z
loop_
_atom_site_type_symbol
_atom_site_label
_atom_site_fract_x
_atom_site_fract_y
_atom_site_fract_z
Si Si1 0.998608 0.508064 0.302719
Si Si2 0.844069 0.822719 0.954601
Si Si3 0.758549 0.477303 0.045699
Si Si4 0.487552 0.627764 0.599958
Si Si5 0.501260 0.574664 0.802973
Si Si6 0.068276 0.934643 0.897074
Si Si7 0.014476 0.188911 0.560135
Si Si8 0.439638 0.910050 0.534193
O O1 0.006180 0.532299 0.250000
O O2 0.240108 0.463656 0.308444
O O3 0.018246 0.557458 0.343130
O O4 0.740587 0.469728 0.307890
O O5 0.896340 0.758127 0.931557
O O6 0.557287 0.843493 0.968159
O O7 0.935287 0.876246 0.920523
O O8 0.982263 0.819009 0.004347
O O9 0.576393 0.438834 0.079340
O O10 0.652855 0.539773 0.024111
O O11 0.981307 0.502521 0.078062
O O12 0.777448 0.431692 0.001918
O O13 0.488125 0.622792 0.655567
O O14 0.760121 0.647939 0.581055
O O15 0.256567 0.669966 0.581403
O O16 0.496330 0.598964 0.750000
O O17 0.354521 0.923716 0.913371
#
# Coordination Sequence:
#
# PCOD9436495 Si02
#       8
#     8   8   8   8   8   8   8   8
#     4  10  21  37  60  90 122 152 186 237 302 372
#     4  10  24  40  55  84 116 170 205 248 286 352
#     4  10  20  31  52  88 117 149 186 232 305 354
#     4  12  22  38  62  87 117 156 195 255 292 356
#     4  10  21  39  61  90 123 152 189 241 308 366
#     4  11  21  34  59  83 121 155 197 248 297 364
#     4  11  26  40  60  82 120 162 216 243 289 346
#     4  10  20  34  54  80 122 156 193 239 292 360
#
# _framework density 19.130642000000002
#
# number of rings (size 3 to 8) (size 9 to 14) (size 15 to 20)
#    0.000    1.500    2.500    2.625    5.250    1.000 
#    0.000    0.000    0.000    1.500    0.000    0.000 
#    0.000    0.000    0.000    0.000    0.000    0.000 
#
# Total GULP energy -356849.547570 kJ/mol
# GULP energy per Si atom -5575.774181 kJ/mol
# Density = 1.908710 g / cm^3
# Si number density = 19.130642 Si / 1000 Ang^3
#
#
#
# Elastic Constant Matrix: (Units=GPa)
#
#
# Indices 1 2 3 4 5 6 
#
# 1 72.7061 15.7452 10.4868 0.0000 0.0000 0.0000
# 2 15.7452 80.6236 22.8637 0.0000 0.0000 0.0000
# 3 10.4868 22.8637 129.7481 0.0000 0.0000 0.0000
# 4 0.0000 0.0000 0.0000 23.1980 0.0000 0.0000
# 5 0.0000 0.0000 0.0000 0.0000 17.2477 0.0000
# 6 0.0000 0.0000 0.0000 0.0000 0.0000 22.3642
#
#
#
# Elastic Compliance Matrix: (Units=1/GPa)
#
#
# Indices 1 2 3 4 5 6 
#
# 1 0.014422 -0.002617 -0.000705 0.000000 0.000000 0.000000
# 2 -0.002617 0.013531 -0.002173 0.000000 0.000000 0.000000
# 3 -0.000705 -0.002173 0.008147 0.000000 0.000000 0.000000
# 4 0.000000 0.000000 0.000000 0.043107 0.000000 0.000000
# 5 0.000000 0.000000 0.000000 0.000000 0.057979 0.000000
# 6 0.000000 0.000000 0.000000 0.000000 0.000000 0.044714
#
#
# Mechanical properties :
#
#
# Convention : Reuss Voigt Hill
#
# Bulk Modulus (GPa) = 39.82215 42.36325 41.09270
# Shear Modulus (GPa) = 24.84363 28.16080 26.50222
#
# Velocity S-wave (km/s) = 3.60756 3.84086 3.72604
# Velocity P-wave (km/s) = 6.18173 6.47008 6.32754
#
# Compressibility (1/GPa) = 0.02511166
#
# Stress axis : x y z
#
# Youngs Moduli (GPa) = 69.33704 73.90696 122.74355
#
# Poissons Ratio (x) = 0.19340 0.08648
# Poissons Ratio (y) = 0.18144 0.26670
# Poissons Ratio (z) = 0.04885 0.16058
#
# Static dielectric constant tensor:
#      x y z
#    x 1.778070 0.000000 0.000000 
#    y 0.000000 1.668870 0.000000 
#    z 0.000000 0.000000 1.698370 
# 
# From -- ./inp_files/28144.got.cif
#   From: 2010.05.17/outbox.cif.g08.bks.cpg/sg57_15_cif.got.tgz:28144.got - 2010.06.03 13:58:18.
