data_PCOD9436679
_publ_section_title
;
Structure prediction by ZEFSAII (Michael W. Deem and Ramdas Pophale) SiO2 
 PCOD9436679
Probable space group: P B C M
;
_chemical_formula_sum "Si O2"
_cell_formula_units_Z 64
_cell_length_a 25.277214
_cell_length_b 15.086998
_cell_length_c 8.075931
_cell_angle_alpha 90.000000
_cell_angle_beta 90.000000
_cell_angle_gamma 90.000000
_cell_volume 3079.815056
_symmetry_space_group_name_H-M "P B C M"
_symmetry_group_IT_number 57
_symmetry_cell_setting 'orthorhombic'
loop_
_space_group_symop_operation_xyz
x,y,z
-x,-y,1/2+z
x,1/2-y,-z
-x,1/2+y,1/2-z
-x,-y,-z
x,y,1/2-z
-x,1/2+y,z
x,1/2-y,1/2+z
loop_
_atom_site_type_symbol
_atom_site_label
_atom_site_fract_x
_atom_site_fract_y
_atom_site_fract_z
Si Si1 0.120878 0.462586 0.449301
Si Si2 0.365192 0.848899 0.053083
Si Si3 0.096756 0.652625 0.552777
Si Si4 0.024106 0.348204 0.449808
Si Si5 0.319997 0.473288 0.050557
Si Si6 0.481744 0.902096 0.450040
Si Si7 0.591773 0.657750 0.551068
Si Si8 0.777696 0.852454 0.450143
O O1 0.120203 0.458346 0.250000
O O2 0.127386 0.565082 0.496608
O O3 0.064950 0.422476 0.510492
O O4 0.168021 0.398802 0.507839
O O5 0.368341 0.851076 0.250000
O O6 0.424253 0.873382 0.985585
O O7 0.351155 0.750000 0.000000
O O8 0.324482 0.924807 0.999101
O O9 0.116320 0.750000 0.500000
O O10 0.094783 0.652091 0.750000
O O11 0.036093 0.642860 0.487238
O O12 0.043064 0.250000 0.500000
O O13 0.022515 0.352206 0.250000
O O14 0.319640 0.470011 0.250000
O O15 0.373348 0.424133 0.990209
O O16 0.270651 0.414716 0.991764
O O17 0.479833 0.897090 0.250000
O O18 0.531760 0.845608 0.512476
O O19 0.500000 0.000000 0.500000
O O20 0.617585 0.750000 0.500000
O O21 0.590320 0.653360 0.750000
O O22 0.773174 0.750000 0.500000
O O23 0.777424 0.854469 0.250000
#
# Coordination Sequence:
#
# PCOD9436679 Si02
#       8
#     8   8   8   8   8   8   8   8
#     4  10  20  35  54  80 113 147 185 230 278 328
#     4  11  23  38  59  85 112 146 186 228 276 329
#     4  10  20  34  53  79 110 148 189 228 275 328
#     4   9  18  31  50  78 113 149 185 227 274 329
#     4  10  21  39  59  80 110 144 182 228 274 321
#     4  10  20  34  53  80 111 146 181 218 267 322
#     4  10  20  33  52  78 108 141 175 214 262 315
#     4  10  22  39  61  87 114 145 181 226 278 329
#
# _framework density 20.780467999999999
#
# number of rings (size 3 to 8) (size 9 to 14) (size 15 to 20)
#    0.000    2.000    1.250    2.250    0.000    3.500 
#    0.000    0.625    0.000    0.000    0.000    0.000 
#    0.000    0.000    0.000    0.000    0.000    0.000 
#
# Total GULP energy -357290.275946 kJ/mol
# GULP energy per Si atom -5582.660562 kJ/mol
# Density = 2.073317 g / cm^3
# Si number density = 20.780468 Si / 1000 Ang^3
#
#
#
# Elastic Constant Matrix: (Units=GPa)
#
#
# Indices 1 2 3 4 5 6 
#
# 1 61.6745 52.7281 11.6865 0.0000 0.0000 0.0000
# 2 52.7281 183.8736 -0.4280 0.0000 0.0000 0.0000
# 3 11.6865 -0.4280 10.7141 0.0000 0.0000 0.0000
# 4 0.0000 0.0000 0.0000 35.8261 0.0000 0.0000
# 5 0.0000 0.0000 0.0000 0.0000 8.0061 0.0000
# 6 0.0000 0.0000 0.0000 0.0000 0.0000 27.7786
#
#
#
# Elastic Compliance Matrix: (Units=1/GPa)
#
#
# Indices 1 2 3 4 5 6 
#
# 1 0.029818 -0.008627 -0.032869 0.000000 0.000000 0.000000
# 2 -0.008627 0.007935 0.009727 0.000000 0.000000 0.000000
# 3 -0.032869 0.009727 0.129576 0.000000 0.000000 0.000000
# 4 0.000000 0.000000 0.000000 0.027913 0.000000 0.000000
# 5 0.000000 0.000000 0.000000 0.000000 0.124904 0.000000
# 6 0.000000 0.000000 0.000000 0.000000 0.000000 0.035999
#
#
# Mechanical properties :
#
#
# Convention : Reuss Voigt Hill
#
# Bulk Modulus (GPa) = 9.63474 42.69282 26.16378
# Shear Modulus (GPa) = 11.00643 27.14054 19.07348
#
# Velocity S-wave (km/s) = 2.30391 3.61787 3.03290
# Velocity P-wave (km/s) = 3.42401 6.16776 4.98824
#
# Compressibility (1/GPa) = 0.10379108
#
# Stress axis : x y z
#
# Youngs Moduli (GPa) = 33.53660 126.02179 7.71748
#
# Poissons Ratio (x) = 1.08722 0.25367
# Poissons Ratio (y) = 0.28933 -0.07507
# Poissons Ratio (z) = 1.10232 -1.22584
#
# Static dielectric constant tensor:
#      x y z
#    x 1.773200 0.000000 0.000000 
#    y 0.000000 1.751350 0.000000 
#    z 0.000000 0.000000 1.724510 
# 
# From -- ./inp_files/9317.got.cif
#   From: 2010.05.17/outbox.cif.g08.bks.cpg/sg57_5_cif.got.tgz:9317.got - 2010.06.03 13:58:18.
