data_PCOD9436809
_publ_section_title
;
Structure prediction by ZEFSAII (Michael W. Deem and Ramdas Pophale) SiO2 
 PCOD9436809
Probable space group: P B C M
;
_chemical_formula_sum "Si O2"
_cell_formula_units_Z 52
_cell_length_a 13.538081
_cell_length_b 9.916294
_cell_length_c 20.449156
_cell_angle_alpha 90.000000
_cell_angle_beta 90.000000
_cell_angle_gamma 90.000000
_cell_volume 2745.249939
_symmetry_space_group_name_H-M "P B C M"
_symmetry_group_IT_number 57
_symmetry_cell_setting 'orthorhombic'
loop_
_space_group_symop_operation_xyz
x,y,z
-x,-y,1/2+z
x,1/2-y,-z
-x,1/2+y,1/2-z
-x,-y,-z
x,y,1/2-z
-x,1/2+y,z
x,1/2-y,1/2+z
loop_
_atom_site_type_symbol
_atom_site_label
_atom_site_fract_x
_atom_site_fract_y
_atom_site_fract_z
Si Si1 0.438118 0.873943 0.675184
Si Si2 0.720536 0.689049 0.569366
Si Si3 0.650951 0.250000 0.000000
Si Si4 0.762261 0.102944 0.388831
Si Si5 0.494119 0.621722 0.593196
Si Si6 0.042046 0.525968 0.328020
Si Si7 0.874372 0.771744 0.828197
O O1 0.469236 0.890532 0.750000
O O2 0.321622 0.906799 0.667149
O O3 0.454370 0.723588 0.648736
O O4 0.493142 0.975239 0.625253
O O5 0.746790 0.750000 0.500000
O O6 0.759732 0.537471 0.572994
O O7 0.602814 0.676868 0.576129
O O8 0.774757 0.763733 0.629343
O O9 0.720219 0.291504 0.940342
O O10 0.577544 0.136256 0.969676
O O11 0.870245 0.114155 0.359576
O O12 0.049657 0.538737 0.250000
O O13 0.063746 0.367531 0.342125
O O14 0.939004 0.596830 0.346144
O O15 0.854513 0.772835 0.750000
#
# Coordination Sequence:
#
# PCOD9436809 Si02
#       7
#     8   8   4   8   8   8   8
#     4  10  20  34  52  81 107 137 181 225 266 318
#     4  10  20  35  54  80 107 143 180 219 265 321
#     4  10  20  36  52  80 106 144 188 214 262 320
#     4   9  20  34  55  75 105 145 175 214 267 323
#     4  10  21  33  57  74 109 147 177 220 269 317
#     4   9  17  36  58  79 103 137 175 218 270 320
#     4   9  19  36  58  80 107 139 178 219 271 324
#
# _framework density 18.941808999999999
#
# number of rings (size 3 to 8) (size 9 to 14) (size 15 to 20)
#    0.000    2.462    0.769    0.923    2.154    6.154 
#    4.154    1.538    0.000    3.692    0.000    0.000 
#    0.000    0.000    0.000    0.000    0.000    0.000 
#
# Total GULP energy -289778.906826 kJ/mol
# GULP energy per Si atom -5572.671285 kJ/mol
# Density = 1.889870 g / cm^3
# Si number density = 18.941809 Si / 1000 Ang^3
#
#
#
# Elastic Constant Matrix: (Units=GPa)
#
#
# Indices 1 2 3 4 5 6 
#
# 1 18.1240 -3.9329 -10.0761 0.0000 0.0000 0.0000
# 2 -3.9329 16.7398 6.6906 0.0000 0.0000 0.0000
# 3 -10.0761 6.6906 42.6000 0.0000 0.0000 0.0000
# 4 0.0000 0.0000 0.0000 13.9973 0.0000 0.0000
# 5 0.0000 0.0000 0.0000 0.0000 18.3939 0.0000
# 6 0.0000 0.0000 0.0000 0.0000 0.0000 21.7832
#
#
#
# Elastic Compliance Matrix: (Units=1/GPa)
#
#
# Indices 1 2 3 4 5 6 
#
# 1 0.064983 0.009735 0.013841 0.000000 0.000000 0.000000
# 2 0.009735 0.065198 -0.007937 0.000000 0.000000 0.000000
# 3 0.013841 -0.007937 0.027995 0.000000 0.000000 0.000000
# 4 0.000000 0.000000 0.000000 0.071443 0.000000 0.000000
# 5 0.000000 0.000000 0.000000 0.000000 0.054366 0.000000
# 6 0.000000 0.000000 0.000000 0.000000 0.000000 0.045907
#
#
# Mechanical properties :
#
#
# Convention : Reuss Voigt Hill
#
# Bulk Modulus (GPa) = 5.27833 6.98078 6.12956
# Shear Modulus (GPa) = 13.82119 16.48701 15.15410
#
# Velocity S-wave (km/s) = 2.70416 2.95346 2.83156
# Velocity P-wave (km/s) = 3.54156 3.91458 3.73273
#
# Compressibility (1/GPa) = 0.18945403
#
# Stress axis : x y z
#
# Youngs Moduli (GPa) = 15.38863 15.33798 35.72112
#
# Poissons Ratio (x) = -0.14932 -0.49443
# Poissons Ratio (y) = -0.14981 0.28352
# Poissons Ratio (z) = -0.21300 0.12174
#
# Static dielectric constant tensor:
#      x y z
#    x 1.676870 0.000000 0.000000 
#    y 0.000000 1.683370 0.000000 
#    z 0.000000 0.000000 1.665440 
# 
# From -- ./inp_files/22576.got.cif
#   From: 2010.05.17/outbox.cif.g08.bks.cpg/sg57_12_cif.got.tgz:22576.got - 2010.06.03 13:58:18.
