data_PCOD9436661
_publ_section_title
;
Structure prediction by ZEFSAII (Michael W. Deem and Ramdas Pophale) SiO2 
 PCOD9436661
Probable space group: P B C M
;
_chemical_formula_sum "Si O2"
_cell_formula_units_Z 28
_cell_length_a 10.085268
_cell_length_b 5.218149
_cell_length_c 21.294682
_cell_angle_alpha 90.000000
_cell_angle_beta 90.000000
_cell_angle_gamma 90.000000
_cell_volume 1120.663116
_symmetry_space_group_name_H-M "P B C M"
_symmetry_group_IT_number 57
_symmetry_cell_setting 'orthorhombic'
loop_
_space_group_symop_operation_xyz
x,y,z
-x,-y,1/2+z
x,1/2-y,-z
-x,1/2+y,1/2-z
-x,-y,-z
x,y,1/2-z
-x,1/2+y,z
x,1/2-y,1/2+z
loop_
_atom_site_type_symbol
_atom_site_label
_atom_site_fract_x
_atom_site_fract_y
_atom_site_fract_z
Si Si1 0.182061 0.910040 0.062840
Si Si2 0.417604 0.374579 0.750000
Si Si3 0.410978 0.218171 0.111547
Si Si4 0.045614 0.905484 0.645290
O O1 0.293070 0.125330 0.067296
O O2 0.184682 0.703926 0.121196
O O3 0.189333 0.750000 0.000000
O O4 0.042958 0.042465 0.081735
O O5 0.542065 0.173632 0.750000
O O6 0.355690 0.310621 0.817149
O O7 0.522793 0.994785 0.103164
O O8 0.968330 0.674623 0.678256
#
# Coordination Sequence:
#
# PCOD9436661 Si02
#       4
#     8   4   8   8
#     4  10  20  33  52  75 105 132 168 204 243 296
#     4   8  16  36  54  68  92 128 176 202 230 296
#     4  10  22  35  53  76 100 133 164 205 254 295
#     4   8  19  32  50  71  96 135 174 200 231 286
#
# _framework density 24.985208
#
# number of rings (size 3 to 8) (size 9 to 14) (size 15 to 20)
#    1.714    1.143    0.000    0.857    4.000    1.143 
#    0.000    0.000    0.000    1.714    0.000    0.000 
#    0.000    0.000    0.000    0.000    0.000    0.000 
#
# Total GULP energy -155900.121524 kJ/mol
# GULP energy per Si atom -5567.861483 kJ/mol
# Density = 2.492834 g / cm^3
# Si number density = 24.985208 Si / 1000 Ang^3
#
#
#
# Elastic Constant Matrix: (Units=GPa)
#
#
# Indices 1 2 3 4 5 6 
#
# 1 65.2085 -1.2209 1.8176 0.0000 0.0000 0.0000
# 2 -1.2209 142.9906 -6.3745 0.0000 0.0000 0.0000
# 3 1.8176 -6.3745 69.0090 0.0000 0.0000 0.0000
# 4 0.0000 0.0000 0.0000 -3.9780 0.0000 0.0000
# 5 0.0000 0.0000 0.0000 0.0000 18.3236 0.0000
# 6 0.0000 0.0000 0.0000 0.0000 0.0000 16.8636
#
#
#
# Elastic Compliance Matrix: (Units=1/GPa)
#
#
# Indices 1 2 3 4 5 6 
#
# 1 0.015349 0.000113 -0.000394 0.000000 0.000000 0.000000
# 2 0.000113 0.007023 0.000646 0.000000 0.000000 0.000000
# 3 -0.000394 0.000646 0.014561 0.000000 0.000000 0.000000
# 4 0.000000 0.000000 0.000000 -0.251380 0.000000 0.000000
# 5 0.000000 0.000000 0.000000 0.000000 0.054574 0.000000
# 6 0.000000 0.000000 0.000000 0.000000 0.000000 0.059299
#
#
# Mechanical properties :
#
#
# Convention : Reuss Voigt Hill
#
# Bulk Modulus (GPa) = 26.55086 29.51697 28.03392
# Shear Modulus (GPa) = -56.33815 25.10756 -15.61529
#
# Velocity S-wave (km/s) = -4.75369 3.17345 -2.50268
# Velocity P-wave (km/s) = 4.41366 5.02664 1.70100
#
# Compressibility (1/GPa) = 0.03766356
#
# Stress axis : x y z
#
# Youngs Moduli (GPa) = 65.15288 142.38478 68.67715
#
# Poissons Ratio (x) = -0.01616 0.02704
# Poissons Ratio (y) = -0.00739 -0.04435
# Poissons Ratio (z) = 0.02566 -0.09195
#
# Static dielectric constant tensor:
#      x y z
#    x 1.978890 0.000000 0.000000 
#    y 0.000000 2.157990 0.000000 
#    z 0.000000 0.000000 1.970570 
# 
# From -- ./inp_files/24756.got.cif
#   From: 2010.05.17/outbox.cif.g08.bks.cpg/sg57_13_cif.got.tgz:24756.got - 2010.06.03 13:58:18.
