data_PCOD9436754
_publ_section_title
;
Structure prediction by ZEFSAII (Michael W. Deem and Ramdas Pophale) SiO2 
 PCOD9436754
Probable space group: P B C M
;
_chemical_formula_sum "Si O2"
_cell_formula_units_Z 64
_cell_length_a 21.182711
_cell_length_b 19.765487
_cell_length_c 7.660409
_cell_angle_alpha 90.000000
_cell_angle_beta 90.000000
_cell_angle_gamma 90.000000
_cell_volume 3207.310590
_symmetry_space_group_name_H-M "P B C M"
_symmetry_group_IT_number 57
_symmetry_cell_setting 'orthorhombic'
loop_
_space_group_symop_operation_xyz
x,y,z
-x,-y,1/2+z
x,1/2-y,-z
-x,1/2+y,1/2-z
-x,-y,-z
x,y,1/2-z
-x,1/2+y,z
x,1/2-y,1/2+z
loop_
_atom_site_type_symbol
_atom_site_label
_atom_site_fract_x
_atom_site_fract_y
_atom_site_fract_z
Si Si1 0.835524 0.827283 0.041360
Si Si2 0.531914 0.170056 0.459240
Si Si3 0.668989 0.329410 0.958041
Si Si4 0.393659 0.329761 0.960782
Si Si5 0.229003 0.561460 0.543579
Si Si6 0.087787 0.948274 0.038210
Si Si7 0.042971 0.100054 0.542727
Si Si8 0.280167 0.078561 0.046278
O O1 0.834222 0.836755 0.250000
O O2 0.905163 0.847666 0.973830
O O3 0.820836 0.750000 0.000000
O O4 0.782864 0.876602 0.964700
O O5 0.532444 0.250000 0.500000
O O6 0.531872 0.160840 0.250000
O O7 0.600087 0.145462 0.525933
O O8 0.463254 0.147136 0.524818
O O9 0.667903 0.335574 0.750000
O O10 0.675836 0.250000 0.000000
O O11 0.726528 0.374136 0.023418
O O12 0.394149 0.333605 0.750000
O O13 0.337679 0.377287 0.029189
O O14 0.383992 0.250000 0.000000
O O15 0.220959 0.548468 0.750000
O O16 0.157742 0.570019 0.474655
O O17 0.263465 0.494723 0.468805
O O18 0.086631 0.945169 0.250000
O O19 0.028583 0.903494 0.973183
O O20 0.072151 0.025429 0.986823
O O21 0.038189 0.111785 0.750000
O O22 0.296149 0.067880 0.250000
#
# Coordination Sequence:
#
# PCOD9436754 Si02
#       8
#     8   8   8   8   8   8   8   8
#     4  11  22  34  50  73 105 140 175 216 258 304
#     4   8  15  29  49  72  96 127 166 210 254 300
#     4  10  20  35  56  78 101 129 166 211 261 313
#     4   9  17  30  49  72 100 133 173 214 253 298
#     4  10  20  34  53  77 106 138 169 207 255 308
#     4   9  17  32  54  75  99 130 166 208 251 301
#     4   9  18  32  51  75  98 127 169 214 253 294
#     4  10  20  34  51  74 104 140 176 210 253 304
#
# _framework density 19.954414
#
# number of rings (size 3 to 8) (size 9 to 14) (size 15 to 20)
#    0.000    2.500    1.250    1.125    0.000    3.500 
#    0.000    1.250    0.000    1.500    0.000    0.000 
#    0.000    0.000    0.000    0.000    0.000    0.000 
#
# Total GULP energy -356719.484161 kJ/mol
# GULP energy per Si atom -5573.741940 kJ/mol
# Density = 1.990900 g / cm^3
# Si number density = 19.954414 Si / 1000 Ang^3
#
#
#
# Elastic Constant Matrix: (Units=GPa)
#
#
# Indices 1 2 3 4 5 6 
#
# 1 172.3579 53.7678 -7.3140 0.0000 0.0000 0.0000
# 2 53.7678 64.0215 -12.8707 0.0000 0.0000 0.0000
# 3 -7.3140 -12.8707 32.2971 0.0000 0.0000 0.0000
# 4 0.0000 0.0000 0.0000 14.1858 0.0000 0.0000
# 5 0.0000 0.0000 0.0000 0.0000 5.9400 0.0000
# 6 0.0000 0.0000 0.0000 0.0000 0.0000 88.4157
#
#
#
# Elastic Compliance Matrix: (Units=1/GPa)
#
#
# Indices 1 2 3 4 5 6 
#
# 1 0.007887 -0.006810 -0.000928 0.000000 0.000000 0.000000
# 2 -0.006810 0.022861 0.007568 0.000000 0.000000 0.000000
# 3 -0.000928 0.007568 0.033768 0.000000 0.000000 0.000000
# 4 0.000000 0.000000 0.000000 0.070493 0.000000 0.000000
# 5 0.000000 0.000000 0.000000 0.000000 0.168351 0.000000
# 6 0.000000 0.000000 0.000000 0.000000 0.000000 0.011310
#
#
# Mechanical properties :
#
#
# Convention : Reuss Voigt Hill
#
# Bulk Modulus (GPa) = 15.58224 37.31584 26.44904
# Shear Modulus (GPa) = 14.86313 37.38120 26.12216
#
# Velocity S-wave (km/s) = 2.73216 4.33289 3.62206
# Velocity P-wave (km/s) = 4.21649 6.61612 5.54761
#
# Compressibility (1/GPa) = 0.06417561
#
# Stress axis : x y z
#
# Youngs Moduli (GPa) = 126.79045 43.74298 29.61353
#
# Poissons Ratio (x) = 0.29791 0.02748
# Poissons Ratio (y) = 0.86349 -0.22412
# Poissons Ratio (z) = 0.11765 -0.33105
#
# Static dielectric constant tensor:
#      x y z
#    x 1.770670 0.000000 0.000000 
#    y 0.000000 1.657560 0.000000 
#    z 0.000000 0.000000 1.764930 
# 
# From -- ./inp_files/8757.got.cif
#   From: 2010.05.17/outbox.cif.g08.bks.cpg/sg57_5_cif.got.tgz:8757.got - 2010.06.03 13:58:18.
