data_PCOD9436828
_publ_section_title
;
Structure prediction by ZEFSAII (Michael W. Deem and Ramdas Pophale) SiO2 
 PCOD9436828
Probable space group: P B C M
;
_chemical_formula_sum "Si O2"
_cell_formula_units_Z 56
_cell_length_a 13.298590
_cell_length_b 24.740949
_cell_length_c 9.161429
_cell_angle_alpha 90.000000
_cell_angle_beta 90.000000
_cell_angle_gamma 90.000000
_cell_volume 3014.290960
_symmetry_space_group_name_H-M "P B C M"
_symmetry_group_IT_number 57
_symmetry_cell_setting 'orthorhombic'
loop_
_space_group_symop_operation_xyz
x,y,z
-x,-y,1/2+z
x,1/2-y,-z
-x,1/2+y,1/2-z
-x,-y,-z
x,y,1/2-z
-x,1/2+y,z
x,1/2-y,1/2+z
loop_
_atom_site_type_symbol
_atom_site_label
_atom_site_fract_x
_atom_site_fract_y
_atom_site_fract_z
Si Si1 0.559247 0.913404 0.575590
Si Si2 0.254464 0.695117 0.580940
Si Si3 0.256390 0.027494 0.924955
Si Si4 0.672382 0.412093 0.576059
Si Si5 0.135740 0.381533 0.575439
Si Si6 0.670019 0.692942 0.422505
Si Si7 0.012179 0.694511 0.579902
O O1 0.578674 0.921057 0.750000
O O2 0.638679 0.947950 0.484450
O O3 0.443926 0.926299 0.544454
O O4 0.582850 0.850409 0.542694
O O5 0.285996 0.750000 0.500000
O O6 0.283174 0.697947 0.750000
O O7 0.297781 0.641794 0.507016
O O8 0.132897 0.691838 0.572283
O O9 0.250751 0.033846 0.750000
O O10 0.259247 0.963895 0.960192
O O11 0.170367 0.062258 0.003807
O O12 0.679318 0.402643 0.750000
O O13 0.126263 0.386523 0.750000
O O14 0.226563 0.339081 0.543870
O O15 0.038199 0.355556 0.502367
O O16 0.662484 0.750000 0.500000
O O17 0.668502 0.702435 0.250000
O O18 0.980436 0.750000 0.500000
O O19 0.982167 0.695817 0.750000
#
# Coordination Sequence:
#
# PCOD9436828 Si02
#       7
#     8   8   8   8   8   8   8
#     4   9  19  35  52  74 106 142 180 223 267 316
#     4  10  22  39  59  82 109 140 177 221 266 314
#     4  10  20  34  54  81 109 139 178 224 268 316
#     4  10  21  37  57  79 106 141 181 224 269 315
#     4  10  20  34  53  77 106 142 178 217 266 319
#     4   9  18  30  45  69 102 135 168 208 256 308
#     4  10  20  35  56  82 109 139 177 219 263 316
#
# _framework density 18.578167000000001
#
# number of rings (size 3 to 8) (size 9 to 14) (size 15 to 20)
#    0.000    2.286    0.000    3.429    0.000    8.000 
#    0.000    2.143    0.000    0.000    0.000    0.000 
#    0.000    0.000    0.000    0.000    0.000    0.000 
#
# Total GULP energy -312619.534102 kJ/mol
# GULP energy per Si atom -5582.491680 kJ/mol
# Density = 1.853588 g / cm^3
# Si number density = 18.578167 Si / 1000 Ang^3
#
#
#
# Elastic Constant Matrix: (Units=GPa)
#
#
# Indices 1 2 3 4 5 6 
#
# 1 9.0346 10.4317 20.7750 0.0000 0.0000 0.0000
# 2 10.4317 112.4310 49.4519 0.0000 0.0000 0.0000
# 3 20.7750 49.4519 66.3376 0.0000 0.0000 0.0000
# 4 0.0000 0.0000 0.0000 33.6124 0.0000 0.0000
# 5 0.0000 0.0000 0.0000 0.0000 27.0722 0.0000
# 6 0.0000 0.0000 0.0000 0.0000 0.0000 22.9243
#
#
#
# Elastic Compliance Matrix: (Units=1/GPa)
#
#
# Indices 1 2 3 4 5 6 
#
# 1 0.456550 0.030542 -0.165746 0.000000 0.000000 0.000000
# 2 0.030542 0.015277 -0.020953 0.000000 0.000000 0.000000
# 3 -0.165746 -0.020953 0.082601 0.000000 0.000000 0.000000
# 4 0.000000 0.000000 0.000000 0.029751 0.000000 0.000000
# 5 0.000000 0.000000 0.000000 0.000000 0.036938 0.000000
# 6 0.000000 0.000000 0.000000 0.000000 0.000000 0.043622
#
#
# Mechanical properties :
#
#
# Convention : Reuss Voigt Hill
#
# Bulk Modulus (GPa) = 4.13029 38.79117 21.46073
# Shear Modulus (GPa) = 4.72699 23.86476 14.29587
#
# Velocity S-wave (km/s) = 1.59684 3.58796 2.77699
# Velocity P-wave (km/s) = 2.37232 6.17171 4.67535
#
# Compressibility (1/GPa) = 0.24211356
#
# Stress axis : x y z
#
# Youngs Moduli (GPa) = 2.19034 65.45997 12.10645
#
# Poissons Ratio (x) = -1.99927 2.00659
# Poissons Ratio (y) = -0.06690 0.25366
# Poissons Ratio (z) = 0.36304 1.37157
#
# Static dielectric constant tensor:
#      x y z
#    x 1.650150 0.000000 0.000000 
#    y 0.000000 1.629970 0.000000 
#    z 0.000000 0.000000 1.603050 
# 
# From -- ./inp_files/5192.got.cif
#   From: 2010.05.17/outbox.cif.g08.bks.cpg/sg57_3_cif.got.tgz:5192.got - 2010.06.03 13:58:18.
