data_PCOD9436157
_publ_section_title
;
Structure prediction by ZEFSAII (Michael W. Deem and Ramdas Pophale) SiO2 
 PCOD9436157
Probable space group: P B C M
;
_chemical_formula_sum "Si O2"
_cell_formula_units_Z 64
_cell_length_a 8.695496
_cell_length_b 22.302852
_cell_length_c 18.471058
_cell_angle_alpha 90.000000
_cell_angle_beta 90.000000
_cell_angle_gamma 90.000000
_cell_volume 3582.172818
_symmetry_space_group_name_H-M "P B C M"
_symmetry_group_IT_number 57
_symmetry_cell_setting 'orthorhombic'
loop_
_space_group_symop_operation_xyz
x,y,z
-x,-y,1/2+z
x,1/2-y,-z
-x,1/2+y,1/2-z
-x,-y,-z
x,y,1/2-z
-x,1/2+y,z
x,1/2-y,1/2+z
loop_
_atom_site_type_symbol
_atom_site_label
_atom_site_fract_x
_atom_site_fract_y
_atom_site_fract_z
Si Si1 0.054302 0.933540 0.981093
Si Si2 0.776457 0.415467 0.835423
Si Si3 0.317160 0.595364 0.595138
Si Si4 0.099448 0.814776 0.333929
Si Si5 0.819852 0.638495 0.575706
Si Si6 0.522403 0.709483 0.564309
Si Si7 0.610214 0.542637 0.664334
Si Si8 0.340369 0.715889 0.336117
O O1 0.092978 0.923574 0.896704
O O2 0.209167 0.924684 0.029133
O O3 0.920414 0.890437 0.011576
O O4 0.000000 0.000000 0.000000
O O5 0.825679 0.411526 0.750000
O O6 0.671160 0.474746 0.841494
O O7 0.687586 0.353590 0.853955
O O8 0.204677 0.626094 0.653833
O O9 0.421950 0.650117 0.569073
O O10 0.439931 0.549892 0.629981
O O11 0.070091 0.805526 0.250000
O O12 0.197171 0.757574 0.361749
O O13 0.942805 0.827867 0.374513
O O14 0.693567 0.686552 0.552086
O O15 0.727756 0.586881 0.621197
O O16 0.463887 0.750000 0.500000
O O17 0.491171 0.751197 0.633551
O O18 0.606642 0.559025 0.750000
O O19 0.343935 0.720293 0.250000
#
# Coordination Sequence:
#
# PCOD9436157 Si02
#       8
#     8   8   8   8   8   8   8   8
#     4  11  21  39  56  83 115 150 189 235 288 347
#     4  10  21  37  59  82 113 157 198 234 285 354
#     4   9  20  34  56  83 107 144 188 228 289 337
#     4   9  17  32  55  81 109 141 180 226 276 333
#     4  10  21  34  55  85 112 146 187 234 296 330
#     4  10  20  36  54  82 108 140 182 236 281 330
#     4  10  19  35  56  85 116 146 189 239 285 340
#     4   9  19  36  57  79 108 148 189 227 279 345
#
# _framework density 17.866251999999999
#
# number of rings (size 3 to 8) (size 9 to 14) (size 15 to 20)
#    0.000    2.250    1.250    1.500    0.000    5.000 
#    2.250    1.875    0.000    0.750    0.000    0.000 
#    0.000    0.000    0.000    0.000    0.000    0.000 
#
# Total GULP energy -356532.548364 kJ/mol
# GULP energy per Si atom -5570.821068 kJ/mol
# Density = 1.782559 g / cm^3
# Si number density = 17.866252 Si / 1000 Ang^3
#
#
#
# Elastic Constant Matrix: (Units=GPa)
#
#
# Indices 1 2 3 4 5 6 
#
# 1 58.9043 13.1912 32.2383 0.0000 0.0000 0.0000
# 2 13.1912 79.9334 37.3311 0.0000 0.0000 0.0000
# 3 32.2383 37.3311 72.8139 0.0000 0.0000 0.0000
# 4 0.0000 0.0000 0.0000 26.4285 0.0000 0.0000
# 5 0.0000 0.0000 0.0000 0.0000 -34.1567 0.0000
# 6 0.0000 0.0000 0.0000 0.0000 0.0000 0.3569
#
#
#
# Elastic Compliance Matrix: (Units=1/GPa)
#
#
# Indices 1 2 3 4 5 6 
#
# 1 0.022498 0.001235 -0.010594 0.000000 0.000000 0.000000
# 2 0.001235 0.016517 -0.009015 0.000000 0.000000 0.000000
# 3 -0.010594 -0.009015 0.023046 0.000000 0.000000 0.000000
# 4 0.000000 0.000000 0.000000 0.037838 0.000000 0.000000
# 5 0.000000 0.000000 0.000000 0.000000 -0.029277 0.000000
# 6 0.000000 0.000000 0.000000 0.000000 0.000000 2.801943
#
#
# Mechanical properties :
#
#
# Convention : Reuss Voigt Hill
#
# Bulk Modulus (GPa) = 39.50544 41.90809 40.70676
# Shear Modulus (GPa) = 1.71365 7.11849 4.41607
#
# Velocity S-wave (km/s) = 0.98043 1.99824 1.57388
# Velocity P-wave (km/s) = 4.84163 5.36949 5.11238
#
# Compressibility (1/GPa) = 0.02531297
#
# Stress axis : x y z
#
# Youngs Moduli (GPa) = 44.44769 60.54455 43.39141
#
# Poissons Ratio (x) = -0.07477 0.45970
# Poissons Ratio (y) = -0.05489 0.39116
# Poissons Ratio (z) = 0.47089 0.54580
#
# Static dielectric constant tensor:
#      x y z
#    x 1.618730 0.000000 0.000000 
#    y 0.000000 1.590120 0.000000 
#    z 0.000000 0.000000 1.583880 
# 
# From -- ./inp_files/21402.got.cif
#   From: 2010.05.17/outbox.cif.g08.bks.cpg/sg57_11_cif.got.tgz:21402.got - 2010.06.03 13:58:18.
