data_PCOD9436905
_publ_section_title
;
Structure prediction by ZEFSAII (Michael W. Deem and Ramdas Pophale) SiO2 
 PCOD9436905
Probable space group: P B C M
;
_chemical_formula_sum "Si O2"
_cell_formula_units_Z 56
_cell_length_a 15.117002
_cell_length_b 23.098801
_cell_length_c 8.600845
_cell_angle_alpha 90.000000
_cell_angle_beta 90.000000
_cell_angle_gamma 90.000000
_cell_volume 3003.282801
_symmetry_space_group_name_H-M "P B C M"
_symmetry_group_IT_number 57
_symmetry_cell_setting 'orthorhombic'
loop_
_space_group_symop_operation_xyz
x,y,z
-x,-y,1/2+z
x,1/2-y,-z
-x,1/2+y,1/2-z
-x,-y,-z
x,y,1/2-z
-x,1/2+y,z
x,1/2-y,1/2+z
loop_
_atom_site_type_symbol
_atom_site_label
_atom_site_fract_x
_atom_site_fract_y
_atom_site_fract_z
Si Si1 0.926380 0.688613 0.436528
Si Si2 0.094840 0.980594 0.062782
Si Si3 0.608393 0.554944 0.935903
Si Si4 0.415812 0.576578 0.437510
Si Si5 0.116708 0.651993 0.563235
Si Si6 0.696076 0.188656 0.436374
Si Si7 0.210328 0.087994 0.437515
O O1 0.894716 0.750000 0.500000
O O2 0.932297 0.689230 0.250000
O O3 0.858100 0.638250 0.483123
O O4 0.023875 0.677082 0.504320
O O5 0.091044 0.981861 0.250000
O O6 0.117407 0.915570 0.015115
O O7 0.166753 0.027347 0.011373
O O8 0.000000 0.000000 0.000000
O O9 0.603150 0.555452 0.750000
O O10 0.618440 0.487270 0.987649
O O11 0.516648 0.578455 0.004422
O O12 0.692501 0.590882 0.992425
O O13 0.415089 0.577205 0.250000
O O14 0.358479 0.631748 0.490720
O O15 0.119958 0.656191 0.750000
O O16 0.202992 0.681536 0.492634
O O17 0.661300 0.250000 0.500000
O O18 0.693981 0.189974 0.250000
O O19 0.216609 0.088376 0.250000
#
# Coordination Sequence:
#
# PCOD9436905 Si02
#       7
#     8   8   8   8   8   8   8
#     4  11  23  39  57  76 107 149 193 235 276 326
#     4  10  20  34  54  82 113 146 184 229 280 331
#     4  10  20  35  61  91 114 142 182 229 280 339
#     4   9  20  39  60  85 116 148 180 225 285 339
#     4  11  22  36  57  84 114 149 189 232 281 337
#     4  11  23  39  59  83 115 153 193 235 281 337
#     4  10  21  37  56  81 114 149 182 226 281 331
#
# _framework density 18.646263000000001
#
# number of rings (size 3 to 8) (size 9 to 14) (size 15 to 20)
#    0.000    1.714    1.429    3.000    0.000    4.000 
#    0.000    0.714    0.000    0.000    0.000    0.000 
#    0.000    0.000    0.000    0.000    0.000    0.000 
#
# Total GULP energy -312838.796310 kJ/mol
# GULP energy per Si atom -5586.407077 kJ/mol
# Density = 1.860382 g / cm^3
# Si number density = 18.646263 Si / 1000 Ang^3
#
#
#
# Elastic Constant Matrix: (Units=GPa)
#
#
# Indices 1 2 3 4 5 6 
#
# 1 114.7865 45.1874 16.2385 0.0000 0.0000 0.0000
# 2 45.1874 106.9015 24.5376 0.0000 0.0000 0.0000
# 3 16.2385 24.5376 22.3397 0.0000 0.0000 0.0000
# 4 0.0000 0.0000 0.0000 26.5102 0.0000 0.0000
# 5 0.0000 0.0000 0.0000 0.0000 30.1028 0.0000
# 6 0.0000 0.0000 0.0000 0.0000 0.0000 19.6091
#
#
#
# Elastic Compliance Matrix: (Units=1/GPa)
#
#
# Indices 1 2 3 4 5 6 
#
# 1 0.010681 -0.003654 -0.003750 0.000000 0.000000 0.000000
# 2 -0.003654 0.013758 -0.012455 0.000000 0.000000 0.000000
# 3 -0.003750 -0.012455 0.061170 0.000000 0.000000 0.000000
# 4 0.000000 0.000000 0.000000 0.037721 0.000000 0.000000
# 5 0.000000 0.000000 0.000000 0.000000 0.033219 0.000000
# 6 0.000000 0.000000 0.000000 0.000000 0.000000 0.050997
#
#
# Mechanical properties :
#
#
# Convention : Reuss Voigt Hill
#
# Bulk Modulus (GPa) = 21.79149 46.21717 34.00433
# Shear Modulus (GPa) = 19.04311 25.78204 22.41257
#
# Velocity S-wave (km/s) = 3.19922 3.72249 3.47073
# Velocity P-wave (km/s) = 5.03575 6.58149 5.85981
#
# Compressibility (1/GPa) = 0.04588947
#
# Stress axis : x y z
#
# Youngs Moduli (GPa) = 93.62586 72.68566 16.34786
#
# Poissons Ratio (x) = 0.26559 0.06131
# Poissons Ratio (y) = 0.34211 0.20362
# Poissons Ratio (z) = 0.35113 0.90533
#
# Static dielectric constant tensor:
#      x y z
#    x 1.613380 0.000000 0.000000 
#    y 0.000000 1.647610 0.000000 
#    z 0.000000 0.000000 1.631260 
# 
# From -- ./inp_files/5282.got.cif
#   From: 2010.05.17/outbox.cif.g08.bks.cpg/sg57_3_cif.got.tgz:5282.got - 2010.06.03 13:58:18.
