data_PCOD9436201
_publ_section_title
;
Structure prediction by ZEFSAII (Michael W. Deem and Ramdas Pophale) SiO2 
 PCOD9436201
Probable space group: P B C M
;
_chemical_formula_sum "Si O2"
_cell_formula_units_Z 64
_cell_length_a 24.317099
_cell_length_b 15.062280
_cell_length_c 8.963826
_cell_angle_alpha 90.000000
_cell_angle_beta 90.000000
_cell_angle_gamma 90.000000
_cell_volume 3283.189100
_symmetry_space_group_name_H-M "P B C M"
_symmetry_group_IT_number 57
_symmetry_cell_setting 'orthorhombic'
loop_
_space_group_symop_operation_xyz
x,y,z
-x,-y,1/2+z
x,1/2-y,-z
-x,1/2+y,1/2-z
-x,-y,-z
x,y,1/2-z
-x,1/2+y,z
x,1/2-y,1/2+z
loop_
_atom_site_type_symbol
_atom_site_label
_atom_site_fract_x
_atom_site_fract_y
_atom_site_fract_z
Si Si1 0.868905 0.981650 0.428180
Si Si2 0.253054 0.469063 0.427394
Si Si3 0.440627 0.483128 0.569548
Si Si4 0.037625 0.344888 0.429338
Si Si5 0.742230 0.160479 0.579702
Si Si6 0.089599 0.655213 0.572073
Si Si7 0.389635 0.664366 0.916955
Si Si8 0.652064 0.652330 0.430022
O O1 0.873580 0.996848 0.250000
O O2 0.809610 0.937101 0.454223
O O3 0.918975 0.919013 0.477593
O O4 0.873985 0.075662 0.509734
O O5 0.263917 0.468153 0.250000
O O6 0.251600 0.570248 0.486875
O O7 0.298414 0.410267 0.511040
O O8 0.500000 0.500000 0.500000
O O9 0.444653 0.481336 0.750000
O O10 0.405198 0.568888 0.520217
O O11 0.405407 0.396354 0.527301
O O12 0.051107 0.250000 0.500000
O O13 0.040540 0.338069 0.250000
O O14 0.974292 0.365754 0.468841
O O15 0.763503 0.250000 0.500000
O O16 0.763214 0.152462 0.750000
O O17 0.676083 0.171108 0.589512
O O18 0.102752 0.750000 0.500000
O O19 0.093428 0.661141 0.750000
O O20 0.411682 0.667216 0.750000
O O21 0.411786 0.750000 0.000000
O O22 0.655853 0.750000 0.500000
O O23 0.654947 0.656635 0.250000
#
# Coordination Sequence:
#
# PCOD9436201 Si02
#       8
#     8   8   8   8   8   8   8   8
#     4  10  22  38  56  83 119 152 193 247 296 349
#     4  11  23  39  60  87 118 158 202 246 299 354
#     4  10  22  40  61  88 122 155 192 240 292 345
#     4   9  19  36  57  82 113 149 191 243 297 353
#     4  10  19  35  58  84 114 148 188 236 288 348
#     4  10  20  35  58  85 114 153 196 238 295 358
#     4   9  18  34  55  82 113 144 180 224 277 335
#     4  11  24  45  67  89 121 161 204 250 296 350
#
# _framework density 19.493243
#
# number of rings (size 3 to 8) (size 9 to 14) (size 15 to 20)
#    0.000    2.000    1.250    1.875    0.000    5.500 
#    0.000    3.750    0.000    0.000    0.000    0.000 
#    0.000    0.000    0.000    0.000    0.000    0.000 
#
# Total GULP energy -357205.513320 kJ/mol
# GULP energy per Si atom -5581.336146 kJ/mol
# Density = 1.944888 g / cm^3
# Si number density = 19.493243 Si / 1000 Ang^3
#
#
#
# Elastic Constant Matrix: (Units=GPa)
#
#
# Indices 1 2 3 4 5 6 
#
# 1 103.4312 56.8282 40.6670 0.0000 0.0000 0.0000
# 2 56.8282 126.6688 41.9902 0.0000 0.0000 0.0000
# 3 40.6670 41.9902 53.1482 0.0000 0.0000 0.0000
# 4 0.0000 0.0000 0.0000 37.3480 0.0000 0.0000
# 5 0.0000 0.0000 0.0000 0.0000 20.0198 0.0000
# 6 0.0000 0.0000 0.0000 0.0000 0.0000 3.0209
#
#
#
# Elastic Compliance Matrix: (Units=1/GPa)
#
#
# Indices 1 2 3 4 5 6 
#
# 1 0.015200 -0.004015 -0.008458 0.000000 0.000000 0.000000
# 2 -0.004015 0.011757 -0.006216 0.000000 0.000000 0.000000
# 3 -0.008458 -0.006216 0.030198 0.000000 0.000000 0.000000
# 4 0.000000 0.000000 0.000000 0.026775 0.000000 0.000000
# 5 0.000000 0.000000 0.000000 0.000000 0.049951 0.000000
# 6 0.000000 0.000000 0.000000 0.000000 0.000000 0.331022
#
#
# Mechanical properties :
#
#
# Convention : Reuss Voigt Hill
#
# Bulk Modulus (GPa) = 50.56685 62.46880 56.51783
# Shear Modulus (GPa) = 9.82562 21.66193 15.74377
#
# Velocity S-wave (km/s) = 2.24755 3.33716 2.84501
# Velocity P-wave (km/s) = 5.72122 6.85309 6.31257
#
# Compressibility (1/GPa) = 0.01977580
#
# Stress axis : x y z
#
# Youngs Moduli (GPa) = 65.78940 85.05816 33.11473
#
# Poissons Ratio (x) = 0.34155 0.28009
# Poissons Ratio (y) = 0.26418 0.20584
# Poissons Ratio (z) = 0.55645 0.52872
#
# Static dielectric constant tensor:
#      x y z
#    x 1.709320 0.000000 0.000000 
#    y 0.000000 1.666600 0.000000 
#    z 0.000000 0.000000 1.642710 
# 
# From -- ./inp_files/9429.got.cif
#   From: 2010.05.17/outbox.cif.g08.bks.cpg/sg57_5_cif.got.tgz:9429.got - 2010.06.03 13:58:18.
