data_PCOD9436866
_publ_section_title
;
Structure prediction by ZEFSAII (Michael W. Deem and Ramdas Pophale) SiO2 
 PCOD9436866
Probable space group: P B C M
;
_chemical_formula_sum "Si O2"
_cell_formula_units_Z 40
_cell_length_a 26.753381
_cell_length_b 9.640641
_cell_length_c 8.609038
_cell_angle_alpha 90.000000
_cell_angle_beta 90.000000
_cell_angle_gamma 90.000000
_cell_volume 2220.440858
_symmetry_space_group_name_H-M "P B C M"
_symmetry_group_IT_number 57
_symmetry_cell_setting 'orthorhombic'
loop_
_space_group_symop_operation_xyz
x,y,z
-x,-y,1/2+z
x,1/2-y,-z
-x,1/2+y,1/2-z
-x,-y,-z
x,y,1/2-z
-x,1/2+y,z
x,1/2-y,1/2+z
loop_
_atom_site_type_symbol
_atom_site_label
_atom_site_fract_x
_atom_site_fract_y
_atom_site_fract_z
Si Si1 0.241322 0.907362 0.435562
Si Si2 0.044475 0.405925 0.563819
Si Si3 0.544333 0.406443 0.564080
Si Si4 0.654736 0.092691 0.063611
Si Si5 0.847909 0.594089 0.563923
O O1 0.238041 0.750000 0.500000
O O2 0.239092 0.904012 0.250000
O O3 0.295095 0.968142 0.489361
O O4 0.196425 0.996997 0.504544
O O5 0.037974 0.250000 0.500000
O O6 0.044755 0.404565 0.750000
O O7 0.098466 0.454894 0.501473
O O8 0.000000 0.500000 0.500000
O O9 0.540275 0.250000 0.500000
O O10 0.500000 0.500000 0.500000
O O11 0.541736 0.400483 0.750000
O O12 0.599802 0.464730 0.523088
O O13 0.660063 0.094231 0.250000
O O14 0.653140 0.250000 0.000000
O O15 0.840486 0.750000 0.500000
O O16 0.849501 0.597132 0.750000
#
# Coordination Sequence:
#
# PCOD9436866 Si02
#       5
#     8   8   8   8   8
#     4  11  21  35  56  83 110 141 180 225 268 316
#     4  11  22  39  60  85 113 146 184 224 269 320
#     4  10  20  34  54  78 107 140 178 220 268 320
#     4   9  17  31  51  76 104 138 176 219 267 319
#     4  11  22  39  59  82 112 147 181 220 270 325
#
# _framework density 18.014441000000001
#
# number of rings (size 3 to 8) (size 9 to 14) (size 15 to 20)
#    0.000    1.600    0.000    9.000    0.000    3.200 
#    0.000    5.000    0.000    4.800    0.000    0.000 
#    0.000    0.000    0.000    0.000    0.000    0.000 
#
# Total GULP energy -223326.503022 kJ/mol
# GULP energy per Si atom -5583.162576 kJ/mol
# Density = 1.797344 g / cm^3
# Si number density = 18.014441 Si / 1000 Ang^3
#
#
#
# Elastic Constant Matrix: (Units=GPa)
#
#
# Indices 1 2 3 4 5 6 
#
# 1 221.8107 79.9205 91.1845 0.0000 0.0000 0.0000
# 2 79.9205 49.5624 38.5885 0.0000 0.0000 0.0000
# 3 91.1845 38.5885 175.9814 0.0000 0.0000 0.0000
# 4 0.0000 0.0000 0.0000 29.7465 0.0000 0.0000
# 5 0.0000 0.0000 0.0000 0.0000 35.8999 0.0000
# 6 0.0000 0.0000 0.0000 0.0000 0.0000 37.4600
#
#
#
# Elastic Compliance Matrix: (Units=1/GPa)
#
#
# Indices 1 2 3 4 5 6 
#
# 1 0.011469 -0.016722 -0.002276 0.000000 0.000000 0.000000
# 2 -0.016722 0.048712 -0.002017 0.000000 0.000000 0.000000
# 3 -0.002276 -0.002017 0.007304 0.000000 0.000000 0.000000
# 4 0.000000 0.000000 0.000000 0.033617 0.000000 0.000000
# 5 0.000000 0.000000 0.000000 0.000000 0.027855 0.000000
# 6 0.000000 0.000000 0.000000 0.000000 0.000000 0.026695
#
#
# Mechanical properties :
#
#
# Convention : Reuss Voigt Hill
#
# Bulk Modulus (GPa) = 39.28502 96.30461 67.79481
# Shear Modulus (GPa) = 24.25214 36.46533 30.35874
#
# Velocity S-wave (km/s) = 3.67312 4.50402 4.10963
# Velocity P-wave (km/s) = 6.31221 8.97909 7.76106
#
# Compressibility (1/GPa) = 0.02545500
#
# Stress axis : x y z
#
# Youngs Moduli (GPa) = 87.19043 20.52895 136.91298
#
# Poissons Ratio (x) = 0.34329 0.31161
# Poissons Ratio (y) = 1.45802 0.27611
# Poissons Ratio (z) = 0.19844 0.04140
#
# Static dielectric constant tensor:
#      x y z
#    x 1.648710 0.000000 0.000000 
#    y 0.000000 1.583920 0.000000 
#    z 0.000000 0.000000 1.598670 
# 
# From -- ./inp_files/7808.got.cif
#   From: 2010.05.17/outbox.cif.g08.bks.cpg/sg57_4_cif.got.tgz:7808.got - 2010.06.03 13:58:18.
