data_PCOD9436713
_publ_section_title
;
Structure prediction by ZEFSAII (Michael W. Deem and Ramdas Pophale) SiO2 
 PCOD9436713
Probable space group: P B C M
;
_chemical_formula_sum "Si O2"
_cell_formula_units_Z 64
_cell_length_a 13.423130
_cell_length_b 28.972890
_cell_length_c 8.369226
_cell_angle_alpha 90.000000
_cell_angle_beta 90.000000
_cell_angle_gamma 90.000000
_cell_volume 3254.849479
_symmetry_space_group_name_H-M "P B C M"
_symmetry_group_IT_number 57
_symmetry_cell_setting 'orthorhombic'
loop_
_space_group_symop_operation_xyz
x,y,z
-x,-y,1/2+z
x,1/2-y,-z
-x,1/2+y,1/2-z
-x,-y,-z
x,y,1/2-z
-x,1/2+y,z
x,1/2-y,1/2+z
loop_
_atom_site_type_symbol
_atom_site_label
_atom_site_fract_x
_atom_site_fract_y
_atom_site_fract_z
Si Si1 0.305091 0.392955 0.558481
Si Si2 0.993037 0.303035 0.941496
Si Si3 0.307510 0.894239 0.056598
Si Si4 0.889215 0.555174 0.559859
Si Si5 0.219358 0.802274 0.060258
Si Si6 0.109611 0.550142 0.556130
Si Si7 0.502001 0.947551 0.941132
Si Si8 0.213389 0.302239 0.557084
O O1 0.315182 0.390757 0.750000
O O2 0.202628 0.419213 0.520911
O O3 0.400108 0.420776 0.495691
O O4 0.291853 0.340330 0.500063
O O5 0.985506 0.305042 0.750000
O O6 0.102417 0.319836 0.991972
O O7 0.994164 0.250000 0.000000
O O8 0.890739 0.321086 0.014670
O O9 0.311456 0.894936 0.250000
O O10 0.296930 0.840961 0.003092
O O11 0.206008 0.920649 0.008983
O O12 0.403227 0.920446 0.992126
O O13 0.881412 0.561202 0.750000
O O14 0.882594 0.500997 0.516400
O O15 0.001109 0.570070 0.508226
O O16 0.223792 0.800013 0.250000
O O17 0.232359 0.750000 0.000000
O O18 0.108952 0.546320 0.750000
O O19 0.507156 0.948623 0.750000
O O20 0.500000 0.000000 0.000000
O O21 0.228755 0.250000 0.500000
O O22 0.213283 0.300997 0.750000
#
# Coordination Sequence:
#
# PCOD9436713 Si02
#       8
#     8   8   8   8   8   8   8   8
#     4  10  22  39  57  80 113 150 184 226 286 339
#     4   9  16  28  48  75 107 145 184 223 265 319
#     4  10  22  39  59  82 111 149 191 234 284 337
#     4  10  20  33  54  84 112 143 184 227 275 339
#     4  10  20  34  54  80 114 152 189 231 278 331
#     4   9  19  36  54  77 113 149 178 223 287 341
#     4  11  24  42  64  86 112 146 188 240 289 341
#     4   9  19  35  54  79 112 149 188 227 275 330
#
# _framework density 19.662967999999999
#
# number of rings (size 3 to 8) (size 9 to 14) (size 15 to 20)
#    0.000    2.250    0.000    3.000    1.750    7.000 
#    0.000    0.625    0.000    3.000    0.000    0.000 
#    0.000    0.000    0.000    0.000    0.000    0.000 
#
# Total GULP energy -357125.830027 kJ/mol
# GULP energy per Si atom -5580.091094 kJ/mol
# Density = 1.961821 g / cm^3
# Si number density = 19.662968 Si / 1000 Ang^3
#
#
#
# Elastic Constant Matrix: (Units=GPa)
#
#
# Indices 1 2 3 4 5 6 
#
# 1 142.7719 94.3085 17.2363 0.0000 0.0000 0.0000
# 2 94.3085 138.7249 16.4796 0.0000 0.0000 0.0000
# 3 17.2363 16.4796 15.7438 0.0000 0.0000 0.0000
# 4 0.0000 0.0000 0.0000 17.0772 0.0000 0.0000
# 5 0.0000 0.0000 0.0000 0.0000 25.5853 0.0000
# 6 0.0000 0.0000 0.0000 0.0000 0.0000 37.9135
#
#
#
# Elastic Compliance Matrix: (Units=1/GPa)
#
#
# Indices 1 2 3 4 5 6 
#
# 1 0.013155 -0.008259 -0.005757 0.000000 0.000000 0.000000
# 2 -0.008259 0.013417 -0.005003 0.000000 0.000000 0.000000
# 3 -0.005757 -0.005003 0.075056 0.000000 0.000000 0.000000
# 4 0.000000 0.000000 0.000000 0.058558 0.000000 0.000000
# 5 0.000000 0.000000 0.000000 0.000000 0.039085 0.000000
# 6 0.000000 0.000000 0.000000 0.000000 0.000000 0.026376
#
#
# Mechanical properties :
#
#
# Convention : Reuss Voigt Hill
#
# Bulk Modulus (GPa) = 15.72541 61.47661 38.60101
# Shear Modulus (GPa) = 17.55124 27.39628 22.47376
#
# Velocity S-wave (km/s) = 2.99089 3.73673 3.38442
# Velocity P-wave (km/s) = 4.46565 7.06758 5.91154
#
# Compressibility (1/GPa) = 0.06359134
#
# Stress axis : x y z
#
# Youngs Moduli (GPa) = 76.01858 74.52983 13.32341
#
# Poissons Ratio (x) = 0.61554 0.07670
# Poissons Ratio (y) = 0.62784 0.06665
# Poissons Ratio (z) = 0.43762 0.37284
#
# Static dielectric constant tensor:
#      x y z
#    x 1.700560 0.000000 0.000000 
#    y 0.000000 1.697090 0.000000 
#    z 0.000000 0.000000 1.671430 
# 
# From -- ./inp_files/3880.got.cif
#   From: 2010.05.17/outbox.cif.g08.bks.cpg/sg57_2_cif.got.tgz:3880.got - 2010.06.03 13:58:18.
