data_PCOD9436167
_publ_section_title
;
Structure prediction by ZEFSAII (Michael W. Deem and Ramdas Pophale) SiO2 
 PCOD9436167
Probable space group: P B C M
;
_chemical_formula_sum "Si O2"
_cell_formula_units_Z 48
_cell_length_a 16.983280
_cell_length_b 18.473782
_cell_length_c 8.578558
_cell_angle_alpha 90.000000
_cell_angle_beta 90.000000
_cell_angle_gamma 90.000000
_cell_volume 2691.483217
_symmetry_space_group_name_H-M "P B C M"
_symmetry_group_IT_number 57
_symmetry_cell_setting 'orthorhombic'
loop_
_space_group_symop_operation_xyz
x,y,z
-x,-y,1/2+z
x,1/2-y,-z
-x,1/2+y,1/2-z
-x,-y,-z
x,y,1/2-z
-x,1/2+y,z
x,1/2-y,1/2+z
loop_
_atom_site_type_symbol
_atom_site_label
_atom_site_fract_x
_atom_site_fract_y
_atom_site_fract_z
Si Si1 0.759070 0.953486 0.061394
Si Si2 0.163074 0.828367 0.435894
Si Si3 0.917011 0.472398 0.937724
Si Si4 0.679176 0.394867 0.936885
Si Si5 0.510516 0.081522 0.562904
Si Si6 0.645392 0.830691 0.438382
O O1 0.761008 0.950191 0.250000
O O2 0.717794 0.880699 0.005298
O O3 0.846917 0.973250 0.009754
O O4 0.704857 0.022706 0.022743
O O5 0.139320 0.750000 0.500000
O O6 0.160189 0.829028 0.250000
O O7 0.109142 0.893360 0.501822
O O8 0.252373 0.845258 0.492048
O O9 0.917784 0.470437 0.750000
O O10 0.000000 0.500000 0.000000
O O11 0.680478 0.387574 0.750000
O O12 0.591672 0.384775 0.000317
O O13 0.512739 0.078424 0.750000
O O14 0.435464 0.129381 0.515078
O O15 0.500000 0.000000 0.500000
O O16 0.649184 0.750000 0.500000
O O17 0.646939 0.829399 0.250000
#
# Coordination Sequence:
#
# PCOD9436167 Si02
#       6
#     8   8   8   8   8   8
#     4   8  16  34  56  76 105 143 179 224 278 330
#     4  11  22  38  59  87 119 152 191 236 291 349
#     4  10  20  37  62  89 117 151 190 233 284 343
#     4  10  19  35  57  81 110 146 187 233 286 340
#     4  11  21  34  54  79 110 148 195 240 285 339
#     4  10  21  37  53  76 108 145 186 232 282 331
#
# _framework density 17.834032000000001
#
# number of rings (size 3 to 8) (size 9 to 14) (size 15 to 20)
#    0.000    2.000    1.667    4.000    0.000    2.000 
#    0.000    4.167    0.000    2.000    0.000    0.000 
#    0.000    0.000    0.000    0.000    0.000    0.000 
#
# Total GULP energy -267939.947441 kJ/mol
# GULP energy per Si atom -5582.082238 kJ/mol
# Density = 1.779344 g / cm^3
# Si number density = 17.834032 Si / 1000 Ang^3
#
#
#
# Elastic Constant Matrix: (Units=GPa)
#
#
# Indices 1 2 3 4 5 6 
#
# 1 161.7919 89.5842 45.0201 0.0000 0.0000 0.0000
# 2 89.5842 144.3796 40.4073 0.0000 0.0000 0.0000
# 3 45.0201 40.4073 73.1344 0.0000 0.0000 0.0000
# 4 0.0000 0.0000 0.0000 30.6607 0.0000 0.0000
# 5 0.0000 0.0000 0.0000 0.0000 29.1756 0.0000
# 6 0.0000 0.0000 0.0000 0.0000 0.0000 19.9136
#
#
#
# Elastic Compliance Matrix: (Units=1/GPa)
#
#
# Indices 1 2 3 4 5 6 
#
# 1 0.010023 -0.005314 -0.003234 0.000000 0.000000 0.000000
# 2 -0.005314 0.011010 -0.002812 0.000000 0.000000 0.000000
# 3 -0.003234 -0.002812 0.017218 0.000000 0.000000 0.000000
# 4 0.000000 0.000000 0.000000 0.032615 0.000000 0.000000
# 5 0.000000 0.000000 0.000000 0.000000 0.034275 0.000000
# 6 0.000000 0.000000 0.000000 0.000000 0.000000 0.050217
#
#
# Mechanical properties :
#
#
# Convention : Reuss Voigt Hill
#
# Bulk Modulus (GPa) = 64.38651 81.03659 72.71155
# Shear Modulus (GPa) = 27.28425 29.56959 28.42692
#
# Velocity S-wave (km/s) = 3.91563 4.07632 3.99679
# Velocity P-wave (km/s) = 7.52492 8.22759 7.88409
#
# Compressibility (1/GPa) = 0.01553120
#
# Stress axis : x y z
#
# Youngs Moduli (GPa) = 99.77057 90.82311 58.07882
#
# Poissons Ratio (x) = 0.48263 0.18782
# Poissons Ratio (y) = 0.53018 0.16333
# Poissons Ratio (z) = 0.32265 0.25541
#
# Static dielectric constant tensor:
#      x y z
#    x 1.604590 0.000000 0.000000 
#    y 0.000000 1.593250 0.000000 
#    z 0.000000 0.000000 1.604880 
# 
# From -- ./inp_files/6665.got.cif
#   From: 2010.05.17/outbox.cif.g08.bks.cpg/sg57_4_cif.got.tgz:6665.got - 2010.06.03 13:58:18.
