data_PCOD9436271
_publ_section_title
;
Structure prediction by ZEFSAII (Michael W. Deem and Ramdas Pophale) SiO2 
 PCOD9436271
Probable space group: P B C M
;
_chemical_formula_sum "Si O2"
_cell_formula_units_Z 64
_cell_length_a 15.450458
_cell_length_b 23.877253
_cell_length_c 8.919275
_cell_angle_alpha 90.000000
_cell_angle_beta 90.000000
_cell_angle_gamma 90.000000
_cell_volume 3290.449829
_symmetry_space_group_name_H-M "P B C M"
_symmetry_group_IT_number 57
_symmetry_cell_setting 'orthorhombic'
loop_
_space_group_symop_operation_xyz
x,y,z
-x,-y,1/2+z
x,1/2-y,-z
-x,1/2+y,1/2-z
-x,-y,-z
x,y,1/2-z
-x,1/2+y,z
x,1/2-y,1/2+z
loop_
_atom_site_type_symbol
_atom_site_label
_atom_site_fract_x
_atom_site_fract_y
_atom_site_fract_z
Si Si1 0.594846 0.872030 0.429349
Si Si2 0.852275 0.012270 0.426017
Si Si3 0.101329 0.387387 0.429554
Si Si4 0.247165 0.310148 0.928133
Si Si5 0.398700 0.887241 0.427630
Si Si6 0.904997 0.127696 0.572315
Si Si7 0.354849 0.001046 0.574177
Si Si8 0.252867 0.810196 0.928347
O O1 0.609422 0.866218 0.250000
O O2 0.659702 0.831790 0.515635
O O3 0.493714 0.862758 0.459993
O O4 0.617209 0.936473 0.468704
O O5 0.870956 0.023797 0.250000
O O6 0.895383 0.953281 0.468643
O O7 0.882110 0.064338 0.524254
O O8 0.748913 0.004271 0.439888
O O9 0.117430 0.384195 0.250000
O O10 0.175907 0.354079 0.513641
O O11 0.006187 0.363479 0.461054
O O12 0.245264 0.306481 0.750000
O O13 0.228810 0.250000 0.000000
O O14 0.382765 0.883304 0.250000
O O15 0.396807 0.952007 0.477266
O O16 0.324097 0.854502 0.515034
O O17 0.891474 0.134455 0.750000
O O18 0.840140 0.167968 0.484547
O O19 0.376952 0.992867 0.750000
O O20 0.254354 0.806972 0.750000
O O21 0.271293 0.750000 0.000000
#
# Coordination Sequence:
#
# PCOD9436271 Si02
#       8
#     8   8   8   8   8   8   8   8
#     4  10  22  42  65  91 127 165 203 252 306 361
#     4  10  19  35  62  92 127 167 201 246 306 360
#     4  10  22  42  65  91 127 165 203 252 306 361
#     4  12  26  43  66  91 120 161 207 257 305 364
#     4  11  23  39  64  95 126 162 205 252 303 364
#     4  11  23  39  64  95 126 162 205 252 303 364
#     4  10  19  35  62  92 127 167 201 246 306 360
#     4  12  26  45  66  87 120 161 205 259 309 364
#
# _framework density 19.450227000000002
#
# number of rings (size 3 to 8) (size 9 to 14) (size 15 to 20)
#    0.000    1.250    2.500    3.750    0.000    4.000 
#    0.000    0.000    0.000    0.000    0.000    0.000 
#    0.000    0.000    0.000    0.000    0.000    0.000 
#
# Total GULP energy -357987.937882 kJ/mol
# GULP energy per Si atom -5593.561529 kJ/mol
# Density = 1.940596 g / cm^3
# Si number density = 19.450227 Si / 1000 Ang^3
#
#
#
# Elastic Constant Matrix: (Units=GPa)
#
#
# Indices 1 2 3 4 5 6 
#
# 1 47.7682 -12.6312 27.6797 0.0000 0.0000 0.0000
# 2 -12.6312 40.5009 11.2724 0.0000 0.0000 0.0000
# 3 27.6797 11.2724 68.5524 0.0000 0.0000 0.0000
# 4 0.0000 0.0000 0.0000 35.3490 0.0000 0.0000
# 5 0.0000 0.0000 0.0000 0.0000 16.2066 0.0000
# 6 0.0000 0.0000 0.0000 0.0000 0.0000 4.4233
#
#
#
# Elastic Compliance Matrix: (Units=1/GPa)
#
#
# Indices 1 2 3 4 5 6 
#
# 1 0.034539 0.015356 -0.016471 0.000000 0.000000 0.000000
# 2 0.015356 0.032702 -0.011578 0.000000 0.000000 0.000000
# 3 -0.016471 -0.011578 0.023142 0.000000 0.000000 0.000000
# 4 0.000000 0.000000 0.000000 0.028289 0.000000 0.000000
# 5 0.000000 0.000000 0.000000 0.000000 0.061703 0.000000
# 6 0.000000 0.000000 0.000000 0.000000 0.000000 0.226077
#
#
# Mechanical properties :
#
#
# Convention : Reuss Voigt Hill
#
# Bulk Modulus (GPa) = 15.38508 23.27371 19.32939
# Shear Modulus (GPa) = 11.02524 19.89582 15.46053
#
# Velocity S-wave (km/s) = 2.38343 3.20177 2.82241
# Velocity P-wave (km/s) = 3.93719 5.06559 4.53661
#
# Compressibility (1/GPa) = 0.06499804
#
# Stress axis : x y z
#
# Youngs Moduli (GPa) = 28.95239 30.57876 43.21170
#
# Poissons Ratio (x) = -0.46958 0.71175
# Poissons Ratio (y) = -0.44460 0.50030
# Poissons Ratio (z) = 0.47688 0.35404
#
# Static dielectric constant tensor:
#      x y z
#    x 1.678130 0.000000 0.000000 
#    y 0.000000 1.661300 0.000000 
#    z 0.000000 0.000000 1.640620 
# 
# From -- ./inp_files/5721.got.cif
#   From: 2010.05.17/outbox.cif.g08.bks.cpg/sg57_3_cif.got.tgz:5721.got - 2010.06.03 13:58:18.
