data_PCOD9436571
_publ_section_title
;
Structure prediction by ZEFSAII (Michael W. Deem and Ramdas Pophale) SiO2 
 PCOD9436571
Probable space group: P B C M
;
_chemical_formula_sum "Si O2"
_cell_formula_units_Z 64
_cell_length_a 23.557195
_cell_length_b 17.954180
_cell_length_c 9.106839
_cell_angle_alpha 90.000000
_cell_angle_beta 90.000000
_cell_angle_gamma 90.000000
_cell_volume 3851.738642
_symmetry_space_group_name_H-M "P B C M"
_symmetry_group_IT_number 57
_symmetry_cell_setting 'orthorhombic'
loop_
_space_group_symop_operation_xyz
x,y,z
-x,-y,1/2+z
x,1/2-y,-z
-x,1/2+y,1/2-z
-x,-y,-z
x,y,1/2-z
-x,1/2+y,z
x,1/2-y,1/2+z
loop_
_atom_site_type_symbol
_atom_site_label
_atom_site_fract_x
_atom_site_fract_y
_atom_site_fract_z
Si Si1 0.081243 0.449348 0.581252
Si Si2 0.585846 0.455491 0.576709
Si Si3 0.530363 0.597553 0.424663
Si Si4 0.977702 0.113126 0.581566
Si Si5 0.692412 0.513389 0.426311
Si Si6 0.357430 0.175319 0.423233
Si Si7 0.812544 0.482912 0.574906
Si Si8 0.870213 0.176435 0.423986
O O1 0.091063 0.427282 0.750000
O O2 0.049496 0.529820 0.584128
O O3 0.139432 0.463853 0.494999
O O4 0.037987 0.394618 0.498510
O O5 0.598066 0.456636 0.750000
O O6 0.554122 0.531251 0.526020
O O7 0.536766 0.393978 0.547785
O O8 0.644007 0.457431 0.486683
O O9 0.536053 0.576669 0.250000
O O10 0.574995 0.663367 0.449314
O O11 0.983191 0.137993 0.750000
O O12 0.932197 0.161280 0.492915
O O13 0.694882 0.990692 0.750000
O O14 0.672488 0.597633 0.467504
O O15 0.752548 0.496434 0.498644
O O16 0.337051 0.250000 0.500000
O O17 0.348921 0.182992 0.250000
O O18 0.809408 0.493998 0.750000
O O19 0.833661 0.398055 0.548517
O O20 0.845942 0.250000 0.500000
O O21 0.874727 0.186882 0.250000
#
# Coordination Sequence:
#
# PCOD9436571 Si02
#       8
#     8   8   8   8   8   8   8   8
#     4   9  16  27  45  69  96 124 153 190 237 282
#     4   9  15  25  44  67  90 117 150 189 232 278
#     4   8  15  27  42  64  93 119 145 183 232 281
#     4   9  16  27  45  69  96 124 154 189 232 282
#     4  10  20  33  48  69  98 129 165 207 249 293
#     4   9  18  31  47  69  96 125 157 197 244 294
#     4  10  20  33  50  73  98 128 170 211 246 291
#     4  10  20  33  50  73 100 128 161 203 250 301
#
# _framework density 16.615873000000001
#
# number of rings (size 3 to 8) (size 9 to 14) (size 15 to 20)
#    0.000    2.750    0.000    3.000    0.000    7.500 
#    0.000    0.000    0.000    1.500    0.000    5.250 
#    0.000    0.000    0.000    0.000    0.000    0.000 
#
# Total GULP energy -356346.216167 kJ/mol
# GULP energy per Si atom -5567.909628 kJ/mol
# Density = 1.657805 g / cm^3
# Si number density = 16.615873 Si / 1000 Ang^3
#
#
#
# Elastic Constant Matrix: (Units=GPa)
#
#
# Indices 1 2 3 4 5 6 
#
# 1 140.8313 31.0932 69.7070 0.0000 0.0000 0.0000
# 2 31.0932 45.7517 37.4654 0.0000 0.0000 0.0000
# 3 69.7070 37.4654 90.0760 0.0000 0.0000 0.0000
# 4 0.0000 0.0000 0.0000 21.0549 0.0000 0.0000
# 5 0.0000 0.0000 0.0000 0.0000 31.2532 0.0000
# 6 0.0000 0.0000 0.0000 0.0000 0.0000 9.2702
#
#
#
# Elastic Compliance Matrix: (Units=1/GPa)
#
#
# Indices 1 2 3 4 5 6 
#
# 1 0.011529 -0.000802 -0.008588 0.000000 0.000000 0.000000
# 2 -0.000802 0.033203 -0.013189 0.000000 0.000000 0.000000
# 3 -0.008588 -0.013189 0.023233 0.000000 0.000000 0.000000
# 4 0.000000 0.000000 0.000000 0.047495 0.000000 0.000000
# 5 0.000000 0.000000 0.000000 0.000000 0.031997 0.000000
# 6 0.000000 0.000000 0.000000 0.000000 0.000000 0.107872
#
#
# Mechanical properties :
#
#
# Convention : Reuss Voigt Hill
#
# Bulk Modulus (GPa) = 43.84816 61.46561 52.65689
# Shear Modulus (GPa) = 16.22905 21.54189 18.88547
#
# Velocity S-wave (km/s) = 3.12864 3.60455 3.37500
# Velocity P-wave (km/s) = 6.28473 7.37537 6.85179
#
# Compressibility (1/GPa) = 0.02280597
#
# Stress axis : x y z
#
# Youngs Moduli (GPa) = 86.74106 30.11792 43.04158
#
# Poissons Ratio (x) = 0.02417 0.36963
# Poissons Ratio (y) = 0.06961 0.56768
# Poissons Ratio (z) = 0.74492 0.39723
#
# Static dielectric constant tensor:
#      x y z
#    x 1.570220 0.000000 0.000000 
#    y 0.000000 1.571970 0.000000 
#    z 0.000000 0.000000 1.558520 
# 
# From -- ./inp_files/9526.got.cif
#   From: 2010.05.17/outbox.cif.g08.bks.cpg/sg57_5_cif.got.tgz:9526.got - 2010.06.03 13:58:18.
