data_PCOD9436011
_publ_section_title
;
Structure prediction by ZEFSAII (Michael W. Deem and Ramdas Pophale) SiO2 
 PCOD9436011
Probable space group: P B C M
;
_chemical_formula_sum "Si O2"
_cell_formula_units_Z 48
_cell_length_a 32.579789
_cell_length_b 9.491339
_cell_length_c 8.490160
_cell_angle_alpha 90.000000
_cell_angle_beta 90.000000
_cell_angle_gamma 90.000000
_cell_volume 2625.376704
_symmetry_space_group_name_H-M "P B C M"
_symmetry_group_IT_number 57
_symmetry_cell_setting 'orthorhombic'
loop_
_space_group_symop_operation_xyz
x,y,z
-x,-y,1/2+z
x,1/2-y,-z
-x,1/2+y,1/2-z
-x,-y,-z
x,y,1/2-z
-x,1/2+y,z
x,1/2-y,1/2+z
loop_
_atom_site_type_symbol
_atom_site_label
_atom_site_fract_x
_atom_site_fract_y
_atom_site_fract_z
Si Si1 0.961601 0.409752 0.562260
Si Si2 0.371393 0.909113 0.440350
Si Si3 0.794913 0.589559 0.439694
Si Si4 0.885248 0.588586 0.439879
Si Si5 0.462430 0.908966 0.061550
Si Si6 0.705794 0.910021 0.559249
O O1 0.963168 0.250000 0.500000
O O2 0.962934 0.406861 0.750000
O O3 0.920596 0.489397 0.506061
O O4 0.000000 0.500000 0.500000
O O5 0.367167 0.750000 0.500000
O O6 0.370465 0.907983 0.250000
O O7 0.416899 0.961107 0.488608
O O8 0.333278 0.001924 0.497284
O O9 0.794431 0.750000 0.500000
O O10 0.795056 0.589632 0.250000
O O11 0.839644 0.534278 0.489068
O O12 0.750631 0.529352 0.490302
O O13 0.889974 0.750000 0.500000
O O14 0.887539 0.590858 0.250000
O O15 0.463472 0.907996 0.250000
O O16 0.466325 0.750000 0.000000
O O17 0.500000 0.000000 0.000000
O O18 0.702956 0.750000 0.500000
O O19 0.705003 0.908386 0.750000
#
# Coordination Sequence:
#
# PCOD9436011 Si02
#       6
#     8   8   8   8   8   8
#     4  12  25  42  61  83 110 142 178 219 263 311
#     4   9  19  34  51  71  99 132 168 206 252 305
#     4   8  15  28  49  74 104 137 171 210 253 298
#     4  10  19  34  56  83 111 143 179 217 260 309
#     4  10  20  35  53  74  99 131 168 211 258 310
#     4   9  17  31  50  75 103 133 170 213 253 297
#
# _framework density 18.283090000000001
#
# number of rings (size 3 to 8) (size 9 to 14) (size 15 to 20)
#    0.000    2.333    0.000    3.000    0.000    2.667 
#    0.000    2.500    0.000    2.000    0.000    0.000 
#    0.000    0.000    0.000    0.000    0.000    0.000 
#
# Total GULP energy -267575.251279 kJ/mol
# GULP energy per Si atom -5574.484402 kJ/mol
# Density = 1.824148 g / cm^3
# Si number density = 18.283090 Si / 1000 Ang^3
#
#
#
# Elastic Constant Matrix: (Units=GPa)
#
#
# Indices 1 2 3 4 5 6 
#
# 1 244.1015 96.9785 49.5582 0.0000 0.0000 0.0000
# 2 96.9785 81.6875 27.3024 0.0000 0.0000 0.0000
# 3 49.5582 27.3024 55.7017 0.0000 0.0000 0.0000
# 4 0.0000 0.0000 0.0000 28.3547 0.0000 0.0000
# 5 0.0000 0.0000 0.0000 0.0000 20.8258 0.0000
# 6 0.0000 0.0000 0.0000 0.0000 0.0000 34.9041
#
#
#
# Elastic Compliance Matrix: (Units=1/GPa)
#
#
# Indices 1 2 3 4 5 6 
#
# 1 0.008153 -0.008676 -0.003001 0.000000 0.000000 0.000000
# 2 -0.008676 0.023873 -0.003982 0.000000 0.000000 0.000000
# 3 -0.003001 -0.003982 0.022575 0.000000 0.000000 0.000000
# 4 0.000000 0.000000 0.000000 0.035267 0.000000 0.000000
# 5 0.000000 0.000000 0.000000 0.000000 0.048017 0.000000
# 6 0.000000 0.000000 0.000000 0.000000 0.000000 0.028650
#
#
# Mechanical properties :
#
#
# Convention : Reuss Voigt Hill
#
# Bulk Modulus (GPa) = 42.95213 81.01878 61.98546
# Shear Modulus (GPa) = 24.31742 30.66036 27.48889
#
# Velocity S-wave (km/s) = 3.65094 4.09954 3.88172
# Velocity P-wave (km/s) = 6.42778 8.17423 7.35304
#
# Compressibility (1/GPa) = 0.02328173
#
# Stress axis : x y z
#
# Youngs Moduli (GPa) = 122.65836 41.88901 44.29717
#
# Poissons Ratio (x) = 0.36342 0.13294
# Poissons Ratio (y) = 1.06416 0.17641
# Poissons Ratio (z) = 0.36811 0.16682
#
# Static dielectric constant tensor:
#      x y z
#    x 1.688610 0.000000 0.000000 
#    y 0.000000 1.563780 0.000000 
#    z 0.000000 0.000000 1.630540 
# 
# From -- ./inp_files/9971.got.cif
#   From: 2010.05.17/outbox.cif.g08.bks.cpg/sg57_5_cif.got.tgz:9971.got - 2010.06.03 13:58:18.
