data_PCOD9436749
_publ_section_title
;
Structure prediction by ZEFSAII (Michael W. Deem and Ramdas Pophale) SiO2 
 PCOD9436749
Probable space group: P B C M
;
_chemical_formula_sum "Si O2"
_cell_formula_units_Z 48
_cell_length_a 7.389026
_cell_length_b 32.456741
_cell_length_c 9.163893
_cell_angle_alpha 90.000000
_cell_angle_beta 90.000000
_cell_angle_gamma 90.000000
_cell_volume 2197.718754
_symmetry_space_group_name_H-M "P B C M"
_symmetry_group_IT_number 57
_symmetry_cell_setting 'orthorhombic'
loop_
_space_group_symop_operation_xyz
x,y,z
-x,-y,1/2+z
x,1/2-y,-z
-x,1/2+y,1/2-z
-x,-y,-z
x,y,1/2-z
-x,1/2+y,z
x,1/2-y,1/2+z
loop_
_atom_site_type_symbol
_atom_site_label
_atom_site_fract_x
_atom_site_fract_y
_atom_site_fract_z
Si Si1 0.952393 0.130482 0.087175
Si Si2 0.945500 0.209536 0.585259
Si Si3 0.490822 0.874888 0.918452
Si Si4 0.542489 0.043399 0.923292
Si Si5 0.079812 0.540635 0.073851
Si Si6 0.503547 0.208311 0.581034
O O1 0.000345 0.144013 0.250000
O O2 0.731172 0.127360 0.083719
O O3 0.024680 0.084167 0.064594
O O4 0.008039 0.166045 0.978294
O O5 0.004358 0.250000 0.500000
O O6 0.002733 0.213656 0.750000
O O7 0.724820 0.208680 0.579694
O O8 0.547782 0.877395 0.750000
O O9 0.546383 0.916044 0.005611
O O10 0.552022 0.833034 0.996332
O O11 0.514106 0.041417 0.750000
O O12 0.749594 0.048565 0.969999
O O13 0.500000 0.000000 0.000000
O O14 0.118791 0.534891 0.250000
O O15 0.000000 0.500000 0.000000
O O16 0.445501 0.250000 0.500000
O O17 0.448675 0.207604 0.750000
#
# Coordination Sequence:
#
# PCOD9436749 Si02
#       6
#     8   8   8   8   8   8
#     4   8  15  26  39  56  82 113 146 183 225 271
#     4   9  15  21  32  50  75 107 143 179 219 267
#     4   9  16  27  41  59  84 115 150 189 232 280
#     4  11  21  34  51  71  96 127 162 201 243 289
#     4  10  20  34  51  72  97 127 161 199 241 286
#     4   9  15  22  33  52  78 111 147 183 224 273
#
# _framework density 21.840828999999999
#
# number of rings (size 3 to 8) (size 9 to 14) (size 15 to 20)
#    0.000    2.667    0.000    4.500    0.000    8.667 
#    0.000    0.000    0.000    0.000    0.000    0.000 
#    0.000    1.333    0.000    9.333    0.000   11.667 
#
# Total GULP energy -267768.101922 kJ/mol
# GULP energy per Si atom -5578.502123 kJ/mol
# Density = 2.179112 g / cm^3
# Si number density = 21.840829 Si / 1000 Ang^3
#
#
#
# Elastic Constant Matrix: (Units=GPa)
#
#
# Indices 1 2 3 4 5 6 
#
# 1 48.0224 -4.3245 7.3125 0.0000 0.0000 0.0000
# 2 -4.3245 224.6260 153.7418 0.0000 0.0000 0.0000
# 3 7.3125 153.7418 233.9962 0.0000 0.0000 0.0000
# 4 0.0000 0.0000 0.0000 51.6335 0.0000 0.0000
# 5 0.0000 0.0000 0.0000 0.0000 1.2595 0.0000
# 6 0.0000 0.0000 0.0000 0.0000 0.0000 5.1464
#
#
#
# Elastic Compliance Matrix: (Units=1/GPa)
#
#
# Indices 1 2 3 4 5 6 
#
# 1 0.021223 0.001567 -0.001693 0.000000 0.000000 0.000000
# 2 0.001567 0.008205 -0.005440 0.000000 0.000000 0.000000
# 3 -0.001693 -0.005440 0.007901 0.000000 0.000000 0.000000
# 4 0.000000 0.000000 0.000000 0.019367 0.000000 0.000000
# 5 0.000000 0.000000 0.000000 0.000000 0.793962 0.000000
# 6 0.000000 0.000000 0.000000 0.000000 0.000000 0.194311
#
#
# Mechanical properties :
#
#
# Convention : Reuss Voigt Hill
#
# Bulk Modulus (GPa) = 38.17211 91.12270 64.64741
# Shear Modulus (GPa) = 4.69557 34.93552 19.81554
#
# Velocity S-wave (km/s) = 1.46785 4.00378 3.01536
# Velocity P-wave (km/s) = 4.51532 7.94893 6.46427
#
# Compressibility (1/GPa) = 0.02619713
#
# Stress axis : x y z
#
# Youngs Moduli (GPa) = 47.11967 121.86979 126.56881
#
# Poissons Ratio (x) = -0.19101 0.21428
# Poissons Ratio (y) = -0.07385 0.68856
# Poissons Ratio (z) = 0.07977 0.66300
#
# Static dielectric constant tensor:
#      x y z
#    x 1.852510 0.000000 0.000000 
#    y 0.000000 1.802920 0.000000 
#    z 0.000000 0.000000 1.734390 
# 
# From -- ./inp_files/3527.got.cif
#   From: 2010.05.17/outbox.cif.g08.bks.cpg/sg57_2_cif.got.tgz:3527.got - 2010.06.03 13:58:18.
