data_PCOD9436632
_publ_section_title
;
Structure prediction by ZEFSAII (Michael W. Deem and Ramdas Pophale) SiO2 
 PCOD9436632
Probable space group: P B C M
;
_chemical_formula_sum "Si O2"
_cell_formula_units_Z 64
_cell_length_a 17.737959
_cell_length_b 24.283501
_cell_length_c 7.651661
_cell_angle_alpha 90.000000
_cell_angle_beta 90.000000
_cell_angle_gamma 90.000000
_cell_volume 3295.874509
_symmetry_space_group_name_H-M "P B C M"
_symmetry_group_IT_number 57
_symmetry_cell_setting 'orthorhombic'
loop_
_space_group_symop_operation_xyz
x,y,z
-x,-y,1/2+z
x,1/2-y,-z
-x,1/2+y,1/2-z
-x,-y,-z
x,y,1/2-z
-x,1/2+y,z
x,1/2-y,1/2+z
loop_
_atom_site_type_symbol
_atom_site_label
_atom_site_fract_x
_atom_site_fract_y
_atom_site_fract_z
Si Si1 0.741907 0.814655 0.539208
Si Si2 0.740485 0.131525 0.461288
Si Si3 0.893920 0.187469 0.547452
Si Si4 0.587155 0.184958 0.039397
Si Si5 0.576817 0.815073 0.540490
Si Si6 0.978154 0.419050 0.550530
Si Si7 0.171476 0.524372 0.038106
Si Si8 0.856055 0.905081 0.543314
O O1 0.752700 0.750000 0.500000
O O2 0.740539 0.819373 0.750000
O O3 0.658811 0.833665 0.474402
O O4 0.807939 0.854171 0.471863
O O5 0.738176 0.130681 0.250000
O O6 0.806225 0.174081 0.512652
O O7 0.659352 0.151411 0.526350
O O8 0.769961 0.071496 0.519384
O O9 0.911005 0.250000 0.500000
O O10 0.909632 0.178433 0.750000
O O11 0.942180 0.141901 0.447099
O O12 0.586317 0.180139 0.250000
O O13 0.504777 0.165094 0.974247
O O14 0.595832 0.250000 0.000000
O O15 0.576186 0.750000 0.500000
O O16 0.576879 0.822626 0.750000
O O17 0.988077 0.438521 0.750000
O O18 0.911891 0.456947 0.472800
O O19 0.060368 0.414709 0.466642
O O20 0.169913 0.525677 0.250000
O O21 0.187116 0.462707 0.979070
O O22 0.866660 0.894228 0.750000
#
# Coordination Sequence:
#
# PCOD9436632 Si02
#       8
#     8   8   8   8   8   8   8   8
#     4   9  18  32  49  71  97 122 149 185 230 277
#     4   9  18  32  47  67  95 124 157 195 230 267
#     4  11  21  32  47  67  94 128 159 188 230 280
#     4   9  16  26  44  69  95 123 154 188 226 269
#     4   8  14  26  44  66  92 121 151 183 223 270
#     4   9  19  35  50  67  92 120 155 199 238 273
#     4   9  18  32  49  67  90 120 154 194 235 275
#     4  10  20  33  51  72  93 118 151 193 235 276
#
# _framework density 19.418215
#
# number of rings (size 3 to 8) (size 9 to 14) (size 15 to 20)
#    0.000    2.750    0.000    2.625    0.000    5.000 
#    0.000    1.250    0.000    0.750    0.000    0.000 
#    0.000    0.000    0.000    0.000    0.000    0.250 
#
# Total GULP energy -356705.712059 kJ/mol
# GULP energy per Si atom -5573.526751 kJ/mol
# Density = 1.937402 g / cm^3
# Si number density = 19.418215 Si / 1000 Ang^3
#
#
#
# Elastic Constant Matrix: (Units=GPa)
#
#
# Indices 1 2 3 4 5 6 
#
# 1 118.3273 52.5158 7.1898 0.0000 0.0000 0.0000
# 2 52.5158 89.7599 -5.3293 0.0000 0.0000 0.0000
# 3 7.1898 -5.3293 44.9172 0.0000 0.0000 0.0000
# 4 0.0000 0.0000 0.0000 17.1964 0.0000 0.0000
# 5 0.0000 0.0000 0.0000 0.0000 11.5935 0.0000
# 6 0.0000 0.0000 0.0000 0.0000 0.0000 15.3613
#
#
#
# Elastic Compliance Matrix: (Units=1/GPa)
#
#
# Indices 1 2 3 4 5 6 
#
# 1 0.011734 -0.007026 -0.002712 0.000000 0.000000 0.000000
# 2 -0.007026 0.015427 0.002955 0.000000 0.000000 0.000000
# 3 -0.002712 0.002955 0.023048 0.000000 0.000000 0.000000
# 4 0.000000 0.000000 0.000000 0.058152 0.000000 0.000000
# 5 0.000000 0.000000 0.000000 0.000000 0.086255 0.000000
# 6 0.000000 0.000000 0.000000 0.000000 0.000000 0.065098
#
#
# Mechanical properties :
#
#
# Convention : Reuss Voigt Hill
#
# Bulk Modulus (GPa) = 27.29038 40.19520 33.74279
# Shear Modulus (GPa) = 17.51341 22.07213 19.79277
#
# Velocity S-wave (km/s) = 3.00643 3.37511 3.19609
# Velocity P-wave (km/s) = 5.11234 5.99443 5.57087
#
# Compressibility (1/GPa) = 0.03664294
#
# Stress axis : x y z
#
# Youngs Moduli (GPa) = 85.21959 64.82033 43.38787
#
# Poissons Ratio (x) = 0.45546 0.11767
# Poissons Ratio (y) = 0.59879 -0.12822
# Poissons Ratio (z) = 0.23111 -0.19155
#
# Static dielectric constant tensor:
#      x y z
#    x 1.733920 0.000000 0.000000 
#    y 0.000000 1.649240 0.000000 
#    z 0.000000 0.000000 1.714030 
# 
# From -- ./inp_files/7408.got.cif
#   From: 2010.05.17/outbox.cif.g08.bks.cpg/sg57_4_cif.got.tgz:7408.got - 2010.06.03 13:58:18.
