data_PCOD9436510
_publ_section_title
;
Structure prediction by ZEFSAII (Michael W. Deem and Ramdas Pophale) SiO2 
 PCOD9436510
Probable space group: P B C M
;
_chemical_formula_sum "Si O2"
_cell_formula_units_Z 32
_cell_length_a 14.281087
_cell_length_b 15.867326
_cell_length_c 5.686667
_cell_angle_alpha 90.000000
_cell_angle_beta 90.000000
_cell_angle_gamma 90.000000
_cell_volume 1288.613886
_symmetry_space_group_name_H-M "P B C M"
_symmetry_group_IT_number 57
_symmetry_cell_setting 'orthorhombic'
loop_
_space_group_symop_operation_xyz
x,y,z
-x,-y,1/2+z
x,1/2-y,-z
-x,1/2+y,1/2-z
-x,-y,-z
x,y,1/2-z
-x,1/2+y,z
x,1/2-y,1/2+z
loop_
_atom_site_type_symbol
_atom_site_label
_atom_site_fract_x
_atom_site_fract_y
_atom_site_fract_z
Si Si1 0.027054 0.599249 0.500073
Si Si2 0.315293 0.792516 0.250000
Si Si3 0.474016 0.266618 0.750000
Si Si4 0.470293 0.039840 0.250000
Si Si5 0.740241 0.485682 0.250000
Si Si6 0.187247 0.371133 0.000771
O O1 0.072581 0.620903 0.250000
O O2 0.924285 0.642358 0.504389
O O3 0.000000 0.500000 0.500000
O O4 0.074511 0.618607 0.750000
O O5 0.286757 0.750000 0.500000
O O6 0.429762 0.787792 0.250000
O O7 0.281857 0.888575 0.250000
O O8 0.425079 0.250000 0.500000
O O9 0.503120 0.364111 0.750000
O O10 0.500000 0.000000 0.500000
O O11 0.359047 0.032716 0.250000
O O12 0.795219 0.527873 0.467872
O O13 0.221132 0.336224 0.750000
O O14 0.228165 0.346387 0.250000
#
# Coordination Sequence:
#
# PCOD9436510 Si02
#       6
#     8   4   4   4   4   8
#     4   8  12  20  34  54  81 116 147 165 208 270
#     4  10  20  32  48  64  87 120 152 192 241 294
#     4  10  20  38  52  70  98 124 157 202 251 304
#     4  12  24  36  56  78  95 126 171 214 254 302
#     4  10  22  32  52  68  96 118 162 204 248 286
#     4   8  16  26  40  61  89 118 146 182 228 273
#
# _framework density 24.832885000000001
#
# number of rings (size 3 to 8) (size 9 to 14) (size 15 to 20)
#    0.750    2.000    0.000    3.750    3.500    0.000 
#    0.000    0.000    0.000    0.000    0.000    0.000 
#    0.000    0.000    0.000    6.750    1.000    0.000 
#
# Total GULP energy -178323.301771 kJ/mol
# GULP energy per Si atom -5572.603180 kJ/mol
# Density = 2.477636 g / cm^3
# Si number density = 24.832885 Si / 1000 Ang^3
#
#
#
# Elastic Constant Matrix: (Units=GPa)
#
#
# Indices 1 2 3 4 5 6 
#
# 1 78.7896 9.0059 11.4843 0.0000 0.0000 0.0000
# 2 9.0059 108.9342 41.6635 0.0000 0.0000 0.0000
# 3 11.4843 41.6635 337.7747 0.0000 0.0000 0.0000
# 4 0.0000 0.0000 0.0000 -24.1429 0.0000 0.0000
# 5 0.0000 0.0000 0.0000 0.0000 13.0337 0.0000
# 6 0.0000 0.0000 0.0000 0.0000 0.0000 62.3635
#
#
#
# Elastic Compliance Matrix: (Units=1/GPa)
#
#
# Indices 1 2 3 4 5 6 
#
# 1 0.012846 -0.000939 -0.000321 0.000000 0.000000 0.000000
# 2 -0.000939 0.009703 -0.001165 0.000000 0.000000 0.000000
# 3 -0.000321 -0.001165 0.003115 0.000000 0.000000 0.000000
# 4 0.000000 0.000000 0.000000 -0.041420 0.000000 0.000000
# 5 0.000000 0.000000 0.000000 0.000000 0.076724 0.000000
# 6 0.000000 0.000000 0.000000 0.000000 0.000000 0.016035
#
#
# Mechanical properties :
#
#
# Convention : Reuss Voigt Hill
#
# Bulk Modulus (GPa) = 48.04423 72.20065 60.12244
# Shear Modulus (GPa) = 56.31136 41.14050 48.72593
#
# Velocity S-wave (km/s) = 4.76711 4.07467 4.43443
# Velocity P-wave (km/s) = 7.04908 7.16065 7.10508
#
# Compressibility (1/GPa) = 0.02081416
#
# Stress axis : x y z
#
# Youngs Moduli (GPa) = 77.84417 103.06047 321.01166
#
# Poissons Ratio (x) = 0.09680 0.10302
# Poissons Ratio (y) = 0.07312 0.37395
# Poissons Ratio (z) = 0.02498 0.12006
#
# Static dielectric constant tensor:
#      x y z
#    x 1.951770 0.000000 0.000000 
#    y 0.000000 1.952400 0.000000 
#    z 0.000000 0.000000 2.198250 
# 
# From -- ./inp_files/462.got.cif
#   From: 2010.05.17/outbox.cif.g08.bks.cpg/sg57_1_cif.got.tgz:462.got - 2010.06.03 13:58:18.
