data_PCOD9436489
_publ_section_title
;
Structure prediction by ZEFSAII (Michael W. Deem and Ramdas Pophale) SiO2 
 PCOD9436489
Probable space group: P B C M
;
_chemical_formula_sum "Si O2"
_cell_formula_units_Z 64
_cell_length_a 17.893870
_cell_length_b 20.495322
_cell_length_c 8.804975
_cell_angle_alpha 90.000000
_cell_angle_beta 90.000000
_cell_angle_gamma 90.000000
_cell_volume 3229.142056
_symmetry_space_group_name_H-M "P B C M"
_symmetry_group_IT_number 57
_symmetry_cell_setting 'orthorhombic'
loop_
_space_group_symop_operation_xyz
x,y,z
-x,-y,1/2+z
x,1/2-y,-z
-x,1/2+y,1/2-z
-x,-y,-z
x,y,1/2-z
-x,1/2+y,z
x,1/2-y,1/2+z
loop_
_atom_site_type_symbol
_atom_site_label
_atom_site_fract_x
_atom_site_fract_y
_atom_site_fract_z
Si Si1 0.622470 0.822706 0.568479
Si Si2 0.430993 0.039621 0.433290
Si Si3 0.083234 0.843975 0.923141
Si Si4 0.249511 0.817260 0.566030
Si Si5 0.284434 0.956859 0.431987
Si Si6 0.223084 0.320203 0.427653
Si Si7 0.940692 0.879795 0.073583
Si Si8 0.128635 0.506093 0.427573
O O1 0.609362 0.750000 0.500000
O O2 0.619795 0.816505 0.750000
O O3 0.570896 0.883807 0.520319
O O4 0.705312 0.846102 0.517785
O O5 0.434452 0.038902 0.250000
O O6 0.500000 0.000000 0.500000
O O7 0.354951 0.001301 0.476907
O O8 0.079007 0.821217 0.750000
O O9 0.162184 0.819553 0.987743
O O10 0.094423 0.922060 0.928762
O O11 0.003353 0.834594 0.999380
O O12 0.282199 0.750000 0.500000
O O13 0.250477 0.817613 0.750000
O O14 0.285683 0.884455 0.506309
O O15 0.283689 0.949977 0.250000
O O16 0.207180 0.990100 0.485995
O O17 0.211297 0.250000 0.500000
O O18 0.243146 0.316128 0.250000
O O19 0.143794 0.354601 0.440243
O O20 0.962142 0.884253 0.250000
O O21 0.929037 0.952823 0.010157
O O22 0.144440 0.489866 0.250000
#
# Coordination Sequence:
#
# PCOD9436489 Si02
#       8
#     8   8   8   8   8   8   8   8
#     4  10  20  37  60  87 116 150 190 229 268 322
#     4  10  23  40  61  91 124 153 186 225 272 328
#     4   9  19  32  47  69  99 133 174 224 281 336
#     4  10  21  38  58  81 107 143 190 239 289 344
#     4  10  20  36  58  85 112 143 184 231 280 336
#     4  10  20  33  49  72 100 136 178 220 265 317
#     4  10  20  31  46  69  99 135 179 227 279 334
#     4   9  18  33  50  72 100 133 176 225 275 333
#
# _framework density 19.819506000000001
#
# number of rings (size 3 to 8) (size 9 to 14) (size 15 to 20)
#    0.000    2.250    0.000    4.125    0.000    6.500 
#    0.000    3.125    0.000    1.500    0.000    0.000 
#    0.000    0.000    0.000    0.000    0.000    0.000 
#
# Total GULP energy -356812.007459 kJ/mol
# GULP energy per Si atom -5575.187617 kJ/mol
# Density = 1.977440 g / cm^3
# Si number density = 19.819506 Si / 1000 Ang^3
#
#
#
# Elastic Constant Matrix: (Units=GPa)
#
#
# Indices 1 2 3 4 5 6 
#
# 1 70.2411 44.7920 25.5218 0.0000 0.0000 0.0000
# 2 44.7920 107.6306 30.8074 0.0000 0.0000 0.0000
# 3 25.5218 30.8074 43.9960 0.0000 0.0000 0.0000
# 4 0.0000 0.0000 0.0000 20.6467 0.0000 0.0000
# 5 0.0000 0.0000 0.0000 0.0000 28.2275 0.0000
# 6 0.0000 0.0000 0.0000 0.0000 0.0000 13.0909
#
#
#
# Elastic Compliance Matrix: (Units=1/GPa)
#
#
# Indices 1 2 3 4 5 6 
#
# 1 0.021270 -0.006654 -0.007679 0.000000 0.000000 0.000000
# 2 -0.006654 0.013701 -0.005734 0.000000 0.000000 0.000000
# 3 -0.007679 -0.005734 0.031200 0.000000 0.000000 0.000000
# 4 0.000000 0.000000 0.000000 0.048434 0.000000 0.000000
# 5 0.000000 0.000000 0.000000 0.000000 0.035426 0.000000
# 6 0.000000 0.000000 0.000000 0.000000 0.000000 0.076389
#
#
# Mechanical properties :
#
#
# Convention : Reuss Voigt Hill
#
# Bulk Modulus (GPa) = 38.40860 47.12334 42.76597
# Shear Modulus (GPa) = 18.16638 20.44279 19.30458
#
# Velocity S-wave (km/s) = 3.03081 3.21510 3.12431
# Velocity P-wave (km/s) = 5.62752 6.13273 5.88555
#
# Compressibility (1/GPa) = 0.02603584
#
# Stress axis : x y z
#
# Youngs Moduli (GPa) = 47.01468 72.98509 32.05176
#
# Poissons Ratio (x) = 0.48562 0.24614
# Poissons Ratio (y) = 0.31282 0.18380
# Poissons Ratio (z) = 0.36105 0.41853
#
# Static dielectric constant tensor:
#      x y z
#    x 1.724850 0.000000 0.000000 
#    y 0.000000 1.761570 0.000000 
#    z 0.000000 0.000000 1.694690 
# 
# From -- ./inp_files/7278.got.cif
#   From: 2010.05.17/outbox.cif.g08.bks.cpg/sg57_4_cif.got.tgz:7278.got - 2010.06.03 13:58:18.
