data_PCOD9436448
_publ_section_title
;
Structure prediction by ZEFSAII (Michael W. Deem and Ramdas Pophale) SiO2 
 PCOD9436448
Probable space group: P B C M
;
_chemical_formula_sum "Si O2"
_cell_formula_units_Z 32
_cell_length_a 5.233150
_cell_length_b 29.071723
_cell_length_c 8.471155
_cell_angle_alpha 90.000000
_cell_angle_beta 90.000000
_cell_angle_gamma 90.000000
_cell_volume 1288.773459
_symmetry_space_group_name_H-M "P B C M"
_symmetry_group_IT_number 57
_symmetry_cell_setting 'orthorhombic'
loop_
_space_group_symop_operation_xyz
x,y,z
-x,-y,1/2+z
x,1/2-y,-z
-x,1/2+y,1/2-z
-x,-y,-z
x,y,1/2-z
-x,1/2+y,z
x,1/2-y,1/2+z
loop_
_atom_site_type_symbol
_atom_site_label
_atom_site_fract_x
_atom_site_fract_y
_atom_site_fract_z
Si Si1 0.451799 0.705960 0.933161
Si Si2 0.247708 0.976343 0.432440
Si Si3 0.400394 0.101159 0.574513
Si Si4 0.275866 0.114987 0.250000
Si Si5 0.212136 0.675983 0.250000
O O1 0.368215 0.713221 0.750000
O O2 0.589045 0.656477 0.926735
O O3 0.608153 0.750000 0.000000
O O4 0.252569 0.700824 0.079814
O O5 0.238072 0.985387 0.250000
O O6 0.319141 0.921930 0.446489
O O7 0.500000 0.000000 0.500000
O O8 0.000000 0.000000 0.500000
O O9 0.306814 0.086500 0.750000
O O10 0.251582 0.088485 0.415151
O O11 0.063869 0.153914 0.250000
O O12 0.559303 0.137704 0.250000
#
# Coordination Sequence:
#
# PCOD9436448 Si02
#       5
#     8   8   8   4   4
#     4  10  19  38  68  96 137 176 224 279 339 406
#     4  11  25  45  70 104 142 185 235 292 358 425
#     4   9  22  42  67 101 138 182 225 283 347 409
#     4  10  22  40  68  92 128 166 226 268 328 394
#     4  10  22  40  60  98 124 170 220 268 324 398
#
# _framework density 24.829808
#
# number of rings (size 3 to 8) (size 9 to 14) (size 15 to 20)
#    0.000    2.000    1.250    0.750    3.500    5.000 
#    0.000   12.500    0.000    0.000    0.000    0.000 
#    0.000    0.000    0.000    0.000    0.000    0.000 
#
# Total GULP energy -178428.546952 kJ/mol
# GULP energy per Si atom -5575.892092 kJ/mol
# Density = 2.477329 g / cm^3
# Si number density = 24.829808 Si / 1000 Ang^3
#
#
#
# Elastic Constant Matrix: (Units=GPa)
#
#
# Indices 1 2 3 4 5 6 
#
# 1 73.0532 27.8075 33.7026 0.0000 0.0000 0.0000
# 2 27.8075 128.4717 33.4574 0.0000 0.0000 0.0000
# 3 33.7026 33.4574 265.0792 0.0000 0.0000 0.0000
# 4 0.0000 0.0000 0.0000 43.9387 0.0000 0.0000
# 5 0.0000 0.0000 0.0000 0.0000 22.8641 0.0000
# 6 0.0000 0.0000 0.0000 0.0000 0.0000 21.7928
#
#
#
# Elastic Compliance Matrix: (Units=1/GPa)
#
#
# Indices 1 2 3 4 5 6 
#
# 1 0.015551 -0.002948 -0.001605 0.000000 0.000000 0.000000
# 2 -0.002948 0.008607 -0.000712 0.000000 0.000000 0.000000
# 3 -0.001605 -0.000712 0.004066 0.000000 0.000000 0.000000
# 4 0.000000 0.000000 0.000000 0.022759 0.000000 0.000000
# 5 0.000000 0.000000 0.000000 0.000000 0.043737 0.000000
# 6 0.000000 0.000000 0.000000 0.000000 0.000000 0.045887
#
#
# Mechanical properties :
#
#
# Convention : Reuss Voigt Hill
#
# Bulk Modulus (GPa) = 56.51173 72.94881 64.73027
# Shear Modulus (GPa) = 31.83997 42.49488 37.16743
#
# Velocity S-wave (km/s) = 3.58485 4.14145 3.87316
# Velocity P-wave (km/s) = 6.32012 7.23271 6.79176
#
# Compressibility (1/GPa) = 0.01769544
#
# Stress axis : x y z
#
# Youngs Moduli (GPa) = 64.30313 116.18147 245.92105
#
# Poissons Ratio (x) = 0.34251 0.39473
# Poissons Ratio (y) = 0.18957 0.17499
# Poissons Ratio (z) = 0.10321 0.08267
#
# Static dielectric constant tensor:
#      x y z
#    x 1.912870 0.000000 0.000000 
#    y 0.000000 2.137240 0.000000 
#    z 0.000000 0.000000 1.997430 
# 
# From -- ./inp_files/791.got.cif
#   From: 2010.05.17/outbox.cif.g08.bks.cpg/sg57_1_cif.got.tgz:791.got - 2010.06.03 13:58:18.
