data_PCOD9436757
_publ_section_title
;
Structure prediction by ZEFSAII (Michael W. Deem and Ramdas Pophale) SiO2 
 PCOD9436757
Probable space group: P B C M
;
_chemical_formula_sum "Si O2"
_cell_formula_units_Z 48
_cell_length_a 16.512554
_cell_length_b 18.977477
_cell_length_c 8.772138
_cell_angle_alpha 90.000000
_cell_angle_beta 90.000000
_cell_angle_gamma 90.000000
_cell_volume 2748.895180
_symmetry_space_group_name_H-M "P B C M"
_symmetry_group_IT_number 57
_symmetry_cell_setting 'orthorhombic'
loop_
_space_group_symop_operation_xyz
x,y,z
-x,-y,1/2+z
x,1/2-y,-z
-x,1/2+y,1/2-z
-x,-y,-z
x,y,1/2-z
-x,1/2+y,z
x,1/2-y,1/2+z
loop_
_atom_site_type_symbol
_atom_site_label
_atom_site_fract_x
_atom_site_fract_y
_atom_site_fract_z
Si Si1 0.670495 0.173341 0.933798
Si Si2 0.979402 0.172155 0.932056
Si Si3 0.827262 0.402400 0.568121
Si Si4 0.581485 0.031722 0.932521
Si Si5 0.750176 0.960687 0.932563
Si Si6 0.832899 0.827436 0.431936
O O1 0.674076 0.175896 0.750000
O O2 0.607330 0.111313 0.979008
O O3 0.650760 0.250000 0.000000
O O4 0.757781 0.147866 0.996389
O O5 0.967883 0.173667 0.750000
O O6 0.072961 0.153108 0.963576
O O7 0.966193 0.250000 0.000000
O O8 0.914399 0.121391 0.008244
O O9 0.823355 0.398169 0.750000
O O10 0.806265 0.480548 0.510964
O O11 0.574278 0.032541 0.750000
O O12 0.658421 0.982781 0.972208
O O13 0.500000 0.000000 0.000000
O O14 0.758749 0.965504 0.750000
O O15 0.775357 0.884672 0.991861
O O16 0.819453 0.750000 0.500000
O O17 0.822203 0.826168 0.250000
#
# Coordination Sequence:
#
# PCOD9436757 Si02
#       6
#     8   8   8   8   8   8
#     4  10  20  35  54  80 111 142 176 216 264 316
#     4  10  20  34  51  74 106 142 181 223 265 310
#     4  11  21  33  52  78 107 142 180 218 264 315
#     4   9  20  37  58  82 108 138 172 214 264 317
#     4  10  21  38  57  79 107 138 174 217 265 317
#     4  10  21  37  57  79 104 140 182 223 267 311
#
# _framework density 17.461562000000001
#
# number of rings (size 3 to 8) (size 9 to 14) (size 15 to 20)
#    0.000    2.000    0.000    5.000    0.000    6.667 
#    0.000    0.833    0.000    2.000    0.000    0.000 
#    0.000    0.000    0.000    0.000    0.000    0.000 
#
# Total GULP energy -268028.240718 kJ/mol
# GULP energy per Si atom -5583.921682 kJ/mol
# Density = 1.742182 g / cm^3
# Si number density = 17.461562 Si / 1000 Ang^3
#
#
#
# Elastic Constant Matrix: (Units=GPa)
#
#
# Indices 1 2 3 4 5 6 
#
# 1 89.8687 90.9614 52.8485 0.0000 0.0000 0.0000
# 2 90.9614 138.5881 58.3507 0.0000 0.0000 0.0000
# 3 52.8485 58.3507 85.8941 0.0000 0.0000 0.0000
# 4 0.0000 0.0000 0.0000 35.7342 0.0000 0.0000
# 5 0.0000 0.0000 0.0000 0.0000 29.8358 0.0000
# 6 0.0000 0.0000 0.0000 0.0000 0.0000 20.1908
#
#
#
# Elastic Compliance Matrix: (Units=1/GPa)
#
#
# Indices 1 2 3 4 5 6 
#
# 1 0.037433 -0.020829 -0.008881 0.000000 0.000000 0.000000
# 2 -0.020829 0.021697 -0.001924 0.000000 0.000000 0.000000
# 3 -0.008881 -0.001924 0.018413 0.000000 0.000000 0.000000
# 4 0.000000 0.000000 0.000000 0.027984 0.000000 0.000000
# 5 0.000000 0.000000 0.000000 0.000000 0.033517 0.000000
# 6 0.000000 0.000000 0.000000 0.000000 0.000000 0.049527
#
#
# Mechanical properties :
#
#
# Convention : Reuss Voigt Hill
#
# Bulk Modulus (GPa) = 70.05534 79.85244 74.95389
# Shear Modulus (GPa) = 19.48572 24.63153 22.05862
#
# Velocity S-wave (km/s) = 3.34416 3.75989 3.55810
# Velocity P-wave (km/s) = 7.42416 8.04231 7.73941
#
# Compressibility (1/GPa) = 0.01427443
#
# Stress axis : x y z
#
# Youngs Moduli (GPa) = 26.71452 46.08988 54.30821
#
# Poissons Ratio (x) = 0.96002 0.48233
# Poissons Ratio (y) = 0.55645 0.10446
# Poissons Ratio (z) = 0.23726 0.08865
#
# Static dielectric constant tensor:
#      x y z
#    x 1.575960 0.000000 0.000000 
#    y 0.000000 1.586530 0.000000 
#    z 0.000000 0.000000 1.582040 
# 
# From -- ./inp_files/4548.got.cif
#   From: 2010.05.17/outbox.cif.g08.bks.cpg/sg57_3_cif.got.tgz:4548.got - 2010.06.03 13:58:18.
