data_PCOD9436541
_publ_section_title
;
Structure prediction by ZEFSAII (Michael W. Deem and Ramdas Pophale) SiO2 
 PCOD9436541
Probable space group: P B C M
;
_chemical_formula_sum "Si O2"
_cell_formula_units_Z 56
_cell_length_a 12.925449
_cell_length_b 11.012648
_cell_length_c 21.038860
_cell_angle_alpha 90.000000
_cell_angle_beta 90.000000
_cell_angle_gamma 90.000000
_cell_volume 2994.743287
_symmetry_space_group_name_H-M "P B C M"
_symmetry_group_IT_number 57
_symmetry_cell_setting 'orthorhombic'
loop_
_space_group_symop_operation_xyz
x,y,z
-x,-y,1/2+z
x,1/2-y,-z
-x,1/2+y,1/2-z
-x,-y,-z
x,y,1/2-z
-x,1/2+y,z
x,1/2-y,1/2+z
loop_
_atom_site_type_symbol
_atom_site_label
_atom_site_fract_x
_atom_site_fract_y
_atom_site_fract_z
Si Si1 0.394187 0.447703 0.825944
Si Si2 0.624434 0.440757 0.824254
Si Si3 0.978200 0.945633 0.905253
Si Si4 0.741545 0.311968 0.323040
Si Si5 0.165585 0.050519 0.675051
Si Si6 0.195502 0.330330 0.824601
Si Si7 0.903983 0.294688 0.062831
O O1 0.407773 0.430317 0.750000
O O2 0.509960 0.451648 0.852846
O O3 0.329054 0.570432 0.835577
O O4 0.314454 0.343053 0.846894
O O5 0.616946 0.479991 0.750000
O O6 0.665210 0.303252 0.825819
O O7 0.720885 0.516344 0.850882
O O8 0.010300 0.813042 0.932371
O O9 0.878054 0.919368 0.862597
O O10 0.075819 0.984033 0.862476
O O11 0.949481 0.068588 0.943956
O O12 0.781812 0.319177 0.250000
O O13 0.832377 0.296140 0.374386
O O14 0.160634 0.016617 0.750000
O O15 0.154363 0.194397 0.669761
O O16 0.192944 0.362734 0.750000
O O17 0.842807 0.250000 0.000000
#
# Coordination Sequence:
#
# PCOD9436541 Si02
#       7
#     8   8   8   8   8   8   8
#     4   9  18  31  51  82 117 150 186 233 286 341
#     4   9  18  31  51  82 117 150 186 233 286 341
#     4  12  22  40  58  82 113 152 199 242 291 352
#     4  10  20  36  59  86 114 152 195 237 288 346
#     4  10  20  32  52  85 121 153 186 235 293 344
#     4  10  20  32  52  85 121 153 186 235 293 344
#     4  12  26  42  61  84 118 158 199 245 296 358
#
# _framework density 18.699432999999999
#
# number of rings (size 3 to 8) (size 9 to 14) (size 15 to 20)
#    0.000    1.714    4.286    0.857    2.000    1.143 
#    0.000    0.000    0.000    0.857    0.000    0.000 
#    0.000    0.000    0.000    0.000    0.000    0.000 
#
# Total GULP energy -311964.735631 kJ/mol
# GULP energy per Si atom -5570.798851 kJ/mol
# Density = 1.865687 g / cm^3
# Si number density = 18.699433 Si / 1000 Ang^3
#
#
#
# Elastic Constant Matrix: (Units=GPa)
#
#
# Indices 1 2 3 4 5 6 
#
# 1 96.4485 11.0833 14.3044 0.0000 0.0000 0.0000
# 2 11.0833 70.7777 11.7022 0.0000 0.0000 0.0000
# 3 14.3044 11.7022 34.1915 0.0000 0.0000 0.0000
# 4 0.0000 0.0000 0.0000 13.1192 0.0000 0.0000
# 5 0.0000 0.0000 0.0000 0.0000 1.9463 0.0000
# 6 0.0000 0.0000 0.0000 0.0000 0.0000 8.0479
#
#
#
# Elastic Compliance Matrix: (Units=1/GPa)
#
#
# Indices 1 2 3 4 5 6 
#
# 1 0.011125 -0.001031 -0.004301 0.000000 0.000000 0.000000
# 2 -0.001031 0.015072 -0.004727 0.000000 0.000000 0.000000
# 3 -0.004301 -0.004727 0.032664 0.000000 0.000000 0.000000
# 4 0.000000 0.000000 0.000000 0.076224 0.000000 0.000000
# 5 0.000000 0.000000 0.000000 0.000000 0.513805 0.000000
# 6 0.000000 0.000000 0.000000 0.000000 0.000000 0.124256
#
#
# Mechanical properties :
#
#
# Convention : Reuss Voigt Hill
#
# Bulk Modulus (GPa) = 25.81161 30.62195 28.21678
# Shear Modulus (GPa) = 6.20210 15.57787 10.88998
#
# Velocity S-wave (km/s) = 1.82317 2.88942 2.41585
# Velocity P-wave (km/s) = 4.27379 5.24815 4.78583
#
# Compressibility (1/GPa) = 0.03874226
#
# Stress axis : x y z
#
# Youngs Moduli (GPa) = 89.89079 66.34940 30.61437
#
# Poissons Ratio (x) = 0.06840 0.13168
# Poissons Ratio (y) = 0.09267 0.14472
# Poissons Ratio (z) = 0.38664 0.31364
#
# Static dielectric constant tensor:
#      x y z
#    x 1.663030 0.000000 0.000000 
#    y 0.000000 1.694710 0.000000 
#    z 0.000000 0.000000 1.670190 
# 
# From -- ./inp_files/25026.got.cif
#   From: 2010.05.17/outbox.cif.g08.bks.cpg/sg57_13_cif.got.tgz:25026.got - 2010.06.03 13:58:18.
