data_PCOD9436863
_publ_section_title
;
Structure prediction by ZEFSAII (Michael W. Deem and Ramdas Pophale) SiO2 
 PCOD9436863
Probable space group: P B C M
;
_chemical_formula_sum "Si O2"
_cell_formula_units_Z 48
_cell_length_a 31.917120
_cell_length_b 9.586909
_cell_length_c 8.689375
_cell_angle_alpha 90.000000
_cell_angle_beta 90.000000
_cell_angle_gamma 90.000000
_cell_volume 2658.831661
_symmetry_space_group_name_H-M "P B C M"
_symmetry_group_IT_number 57
_symmetry_cell_setting 'orthorhombic'
loop_
_space_group_symop_operation_xyz
x,y,z
-x,-y,1/2+z
x,1/2-y,-z
-x,1/2+y,1/2-z
-x,-y,-z
x,y,1/2-z
-x,1/2+y,z
x,1/2-y,1/2+z
loop_
_atom_site_type_symbol
_atom_site_label
_atom_site_fract_x
_atom_site_fract_y
_atom_site_fract_z
Si Si1 0.537027 0.406596 0.065713
Si Si2 0.715716 0.093292 0.066508
Si Si3 0.370306 0.907483 0.434417
Si Si4 0.789126 0.595393 0.064903
Si Si5 0.962356 0.406120 0.064571
Si Si6 0.115175 0.096288 0.065061
O O1 0.534269 0.399841 0.250000
O O2 0.583597 0.465628 0.027047
O O3 0.533994 0.250000 0.000000
O O4 0.500000 0.500000 0.000000
O O5 0.715282 0.098792 0.250000
O O6 0.718340 0.250000 0.000000
O O7 0.671611 0.029059 0.006989
O O8 0.755039 0.007251 0.005408
O O9 0.371516 0.750000 0.500000
O O10 0.365839 0.903601 0.250000
O O11 0.786075 0.595327 0.250000
O O12 0.837140 0.558356 0.021048
O O13 0.781626 0.750000 0.000000
O O14 0.964540 0.402202 0.250000
O O15 0.919125 0.482929 0.017700
O O16 0.964639 0.250000 0.000000
O O17 0.000000 0.500000 0.000000
O O18 0.113979 0.106263 0.250000
O O19 0.105508 0.250000 0.000000
#
# Coordination Sequence:
#
# PCOD9436863 Si02
#       6
#     8   8   8   8   8   8
#     4  10  20  34  54  78 106 138 175 217 265 317
#     4  11  21  34  54  80 107 139 177 221 266 314
#     4   9  17  31  51  75 102 136 175 217 263 316
#     4  10  20  37  57  80 110 144 179 219 267 321
#     4  11  23  39  58  84 114 147 184 225 271 320
#     4   9  20  37  58  81 108 142 181 221 266 318
#
# _framework density 18.053042000000001
#
# number of rings (size 3 to 8) (size 9 to 14) (size 15 to 20)
#    0.000    2.000    0.000    5.000    0.000    6.000 
#    0.000    2.500    0.000    4.000    0.000    0.000 
#    0.000    0.000    0.000    0.000    0.000    0.000 
#
# Total GULP energy -267873.047691 kJ/mol
# GULP energy per Si atom -5580.688494 kJ/mol
# Density = 1.801195 g / cm^3
# Si number density = 18.053042 Si / 1000 Ang^3
#
#
#
# Elastic Constant Matrix: (Units=GPa)
#
#
# Indices 1 2 3 4 5 6 
#
# 1 185.0884 104.5857 69.7800 0.0000 0.0000 0.0000
# 2 104.5857 96.4357 43.6245 0.0000 0.0000 0.0000
# 3 69.7800 43.6245 91.0518 0.0000 0.0000 0.0000
# 4 0.0000 0.0000 0.0000 31.9768 0.0000 0.0000
# 5 0.0000 0.0000 0.0000 0.0000 27.5770 0.0000
# 6 0.0000 0.0000 0.0000 0.0000 0.0000 33.7128
#
#
#
# Elastic Compliance Matrix: (Units=1/GPa)
#
#
# Indices 1 2 3 4 5 6 
#
# 1 0.015483 -0.014585 -0.004878 0.000000 0.000000 0.000000
# 2 -0.014585 0.026978 -0.001748 0.000000 0.000000 0.000000
# 3 -0.004878 -0.001748 0.015559 0.000000 0.000000 0.000000
# 4 0.000000 0.000000 0.000000 0.031273 0.000000 0.000000
# 5 0.000000 0.000000 0.000000 0.000000 0.036262 0.000000
# 6 0.000000 0.000000 0.000000 0.000000 0.000000 0.029662
#
#
# Mechanical properties :
#
#
# Convention : Reuss Voigt Hill
#
# Bulk Modulus (GPa) = 64.11173 89.83959 76.97566
# Shear Modulus (GPa) = 24.65005 28.95903 26.80454
#
# Velocity S-wave (km/s) = 3.69917 4.00948 3.85745
# Velocity P-wave (km/s) = 7.33725 8.44434 7.91019
#
# Compressibility (1/GPa) = 0.01559777
#
# Stress axis : x y z
#
# Youngs Moduli (GPa) = 64.58509 37.06687 64.27284
#
# Poissons Ratio (x) = 0.54063 0.31353
# Poissons Ratio (y) = 0.94199 0.11234
# Poissons Ratio (z) = 0.31505 0.06479
#
# Static dielectric constant tensor:
#      x y z
#    x 1.654760 0.000000 0.000000 
#    y 0.000000 1.590940 0.000000 
#    z 0.000000 0.000000 1.604200 
# 
# From -- ./inp_files/9954.got.cif
#   From: 2010.05.17/outbox.cif.g08.bks.cpg/sg57_5_cif.got.tgz:9954.got - 2010.06.03 13:58:18.
