data_PCOD9436014
_publ_section_title
;
Structure prediction by ZEFSAII (Michael W. Deem and Ramdas Pophale) SiO2 
 PCOD9436014
Probable space group: P B C M
;
_chemical_formula_sum "Si O2"
_cell_formula_units_Z 56
_cell_length_a 13.545425
_cell_length_b 5.233380
_cell_length_c 35.654514
_cell_angle_alpha 90.000000
_cell_angle_beta 90.000000
_cell_angle_gamma 90.000000
_cell_volume 2527.489892
_symmetry_space_group_name_H-M "P B C M"
_symmetry_group_IT_number 57
_symmetry_cell_setting 'orthorhombic'
loop_
_space_group_symop_operation_xyz
x,y,z
-x,-y,1/2+z
x,1/2-y,-z
-x,1/2+y,1/2-z
-x,-y,-z
x,y,1/2-z
-x,1/2+y,z
x,1/2-y,1/2+z
loop_
_atom_site_type_symbol
_atom_site_label
_atom_site_fract_x
_atom_site_fract_y
_atom_site_fract_z
Si Si1 0.068540 0.592562 0.208209
Si Si2 0.282287 0.333664 0.896223
Si Si3 0.839788 0.169442 0.372759
Si Si4 0.611070 0.163536 0.206090
Si Si5 0.947300 0.270262 0.554700
Si Si6 0.389062 0.164877 0.173881
Si Si7 0.747391 0.012567 0.976870
O O1 0.118145 0.608801 0.250000
O O2 0.131184 0.618337 0.170067
O O3 0.010007 0.325023 0.206889
O O4 0.220995 0.569395 0.878600
O O5 0.378419 0.310415 0.870224
O O6 0.303496 0.412829 0.938716
O O7 0.220479 0.071676 0.890569
O O8 0.933226 0.212498 0.400395
O O9 0.597345 0.178130 0.250000
O O10 0.502090 0.154351 0.187416
O O11 0.660405 0.412972 0.190109
O O12 0.661025 0.905507 0.193370
O O13 0.970641 0.561108 0.543512
O O14 0.848065 0.148243 0.537958
O O15 0.762858 0.750000 0.000000
O O16 0.699211 0.250000 0.000000
#
# Coordination Sequence:
#
# PCOD9436014 Si02
#       7
#     8   8   8   8   8   8   8
#     4  10  20  35  54  72  95 135 185 230 269 308
#     4  11  23  38  56  79 108 142 180 214 266 331
#     4  11  21  37  54  76 109 140 180 227 269 325
#     4  10  19  35  59  89 120 148 183 218 259 308
#     4  11  21  34  55  80 103 135 176 226 285 333
#     4  10  19  34  56  83 114 149 181 214 251 309
#     4  11  23  39  56  77 108 142 178 226 279 339
#
# _framework density 22.156369999999999
#
# number of rings (size 3 to 8) (size 9 to 14) (size 15 to 20)
#    0.000    1.429    0.000    9.000    0.000    1.714 
#    0.000    5.714    0.000    0.000    0.000   12.000 
#    0.000    0.000    0.000    0.000    0.000    0.000 
#
# Total GULP energy -312578.427684 kJ/mol
# GULP energy per Si atom -5581.757637 kJ/mol
# Density = 2.210594 g / cm^3
# Si number density = 22.156370 Si / 1000 Ang^3
#
#
#
# Elastic Constant Matrix: (Units=GPa)
#
#
# Indices 1 2 3 4 5 6 
#
# 1 15.2926 15.2400 36.1852 0.0000 0.0000 0.0000
# 2 15.2400 197.2603 50.1360 0.0000 0.0000 0.0000
# 3 36.1852 50.1360 203.5339 0.0000 0.0000 0.0000
# 4 0.0000 0.0000 0.0000 38.4333 0.0000 0.0000
# 5 0.0000 0.0000 0.0000 0.0000 29.4045 0.0000
# 6 0.0000 0.0000 0.0000 0.0000 0.0000 -563.8405
#
#
#
# Elastic Compliance Matrix: (Units=1/GPa)
#
#
# Indices 1 2 3 4 5 6 
#
# 1 0.115701 -0.003959 -0.019595 0.000000 0.000000 0.000000
# 2 -0.003959 0.005543 -0.000662 0.000000 0.000000 0.000000
# 3 -0.019595 -0.000662 0.008560 0.000000 0.000000 0.000000
# 4 0.000000 0.000000 0.000000 0.026019 0.000000 0.000000
# 5 0.000000 0.000000 0.000000 0.000000 0.034008 0.000000
# 6 0.000000 0.000000 0.000000 0.000000 0.000000 -0.001774
#
#
# Mechanical properties :
#
#
# Convention : Reuss Voigt Hill
#
# Bulk Modulus (GPa) = 12.28897 68.80104 40.54501
# Shear Modulus (GPa) = 18.96725 -78.23215 -29.63245
#
# Velocity S-wave (km/s) = 2.92903 -5.94859 -3.66105
# Velocity P-wave (km/s) = 4.12280 4.00763 0.68424
#
# Compressibility (1/GPa) = 0.08137378
#
# Stress axis : x y z
#
# Youngs Moduli (GPa) = 8.64300 180.39261 116.82486
#
# Poissons Ratio (x) = 0.71410 2.28914
# Poissons Ratio (y) = 0.03421 0.07731
# Poissons Ratio (z) = 0.16936 0.11937
#
# Static dielectric constant tensor:
#      x y z
#    x 1.863980 0.000000 0.000000 
#    y 0.000000 1.862090 0.000000 
#    z 0.000000 0.000000 1.857280 
# 
# From -- ./inp_files/29852.got.cif
#   From: 2010.05.17/outbox.cif.g08.bks.cpg/sg57_15_cif.got.tgz:29852.got - 2010.06.03 13:58:18.
