data_PCOD9436637
_publ_section_title
;
Structure prediction by ZEFSAII (Michael W. Deem and Ramdas Pophale) SiO2 
 PCOD9436637
Probable space group: P B C M
;
_chemical_formula_sum "Si O2"
_cell_formula_units_Z 64
_cell_length_a 15.558466
_cell_length_b 24.438072
_cell_length_c 7.560458
_cell_angle_alpha 90.000000
_cell_angle_beta 90.000000
_cell_angle_gamma 90.000000
_cell_volume 2874.629117
_symmetry_space_group_name_H-M "P B C M"
_symmetry_group_IT_number 57
_symmetry_cell_setting 'orthorhombic'
loop_
_space_group_symop_operation_xyz
x,y,z
-x,-y,1/2+z
x,1/2-y,-z
-x,1/2+y,1/2-z
-x,-y,-z
x,y,1/2-z
-x,1/2+y,z
x,1/2-y,1/2+z
loop_
_atom_site_type_symbol
_atom_site_label
_atom_site_fract_x
_atom_site_fract_y
_atom_site_fract_z
Si Si1 0.143360 0.891101 0.036500
Si Si2 0.540075 0.341825 0.045395
Si Si3 0.716601 0.308303 0.461743
Si Si4 0.013111 0.185373 0.962383
Si Si5 0.645980 0.813620 0.038105
Si Si6 0.773962 0.996219 0.460022
Si Si7 0.414667 0.535374 0.461547
Si Si8 0.184922 0.124538 0.967046
O O1 0.141662 0.889007 0.250000
O O2 0.226638 0.857904 0.970846
O O3 0.061718 0.855917 0.973453
O O4 0.160258 0.953892 0.989437
O O5 0.533194 0.324063 0.250000
O O6 0.620576 0.310360 0.962735
O O7 0.446520 0.332300 0.965964
O O8 0.567472 0.404955 0.039945
O O9 0.758252 0.250000 0.500000
O O10 0.711313 0.314322 0.250000
O O11 0.012542 0.181499 0.750000
O O12 0.103834 0.160628 0.025923
O O13 0.001678 0.250000 0.000000
O O14 0.645008 0.822085 0.250000
O O15 0.726628 0.847841 0.972267
O O16 0.657888 0.750000 0.000000
O O17 0.763199 0.989605 0.250000
O O18 0.677112 0.010965 0.526761
O O19 0.811622 0.938622 0.525592
O O20 0.500000 0.500000 0.500000
O O21 0.408038 0.541107 0.250000
O O22 0.182640 0.125151 0.750000
#
# Coordination Sequence:
#
# PCOD9436637 Si02
#       8
#     8   8   8   8   8   8   8   8
#     4  10  21  37  56  82 115 148 182 228 283 329
#     4  10  20  35  53  76 109 148 185 230 282 331
#     4  10  20  33  51  75 108 143 178 224 273 325
#     4  10  21  38  61  86 114 148 186 230 282 339
#     4  10  20  35  56  80 111 148 188 235 284 337
#     4  10  21  38  59  83 112 150 192 231 278 340
#     4  11  22  35  55  81 110 149 193 235 277 332
#     4   9  19  37  58  81 112 148 185 232 286 334
#
# _framework density 22.263742000000001
#
# number of rings (size 3 to 8) (size 9 to 14) (size 15 to 20)
#    0.000    2.000    1.250    2.250    0.000    5.000 
#    0.000    1.250    0.000    0.000    0.000    0.000 
#    0.000    0.000    0.000    0.000    0.000    0.000 
#
# Total GULP energy -357430.779303 kJ/mol
# GULP energy per Si atom -5584.855927 kJ/mol
# Density = 2.221307 g / cm^3
# Si number density = 22.263742 Si / 1000 Ang^3
#
#
#
# Elastic Constant Matrix: (Units=GPa)
#
#
# Indices 1 2 3 4 5 6 
#
# 1 140.4188 77.9089 12.3861 0.0000 0.0000 0.0000
# 2 77.9089 140.5235 -11.2723 0.0000 0.0000 0.0000
# 3 12.3861 -11.2723 54.5702 0.0000 0.0000 0.0000
# 4 0.0000 0.0000 0.0000 25.2774 0.0000 0.0000
# 5 0.0000 0.0000 0.0000 0.0000 -7.7899 0.0000
# 6 0.0000 0.0000 0.0000 0.0000 0.0000 38.8392
#
#
#
# Elastic Compliance Matrix: (Units=1/GPa)
#
#
# Indices 1 2 3 4 5 6 
#
# 1 0.011019 -0.006416 -0.003826 0.000000 0.000000 0.000000
# 2 -0.006416 0.010972 0.003723 0.000000 0.000000 0.000000
# 3 -0.003826 0.003723 0.019962 0.000000 0.000000 0.000000
# 4 0.000000 0.000000 0.000000 0.039561 0.000000 0.000000
# 5 0.000000 0.000000 0.000000 0.000000 -0.128372 0.000000
# 6 0.000000 0.000000 0.000000 0.000000 0.000000 0.025747
#
#
# Mechanical properties :
#
#
# Convention : Reuss Voigt Hill
#
# Bulk Modulus (GPa) = 34.58519 54.83977 44.71248
# Shear Modulus (GPa) = 3191.38204 28.36469 1609.87336
#
# Velocity S-wave (km/s) = 37.90192 3.57323 26.91954
# Velocity P-wave (km/s) = 43.94287 6.45827 31.40609
#
# Compressibility (1/GPa) = 0.02891411
#
# Stress axis : x y z
#
# Youngs Moduli (GPa) = 90.75340 91.14087 50.09400
#
# Poissons Ratio (x) = 0.58476 0.19168
# Poissons Ratio (y) = 0.58227 -0.18649
# Poissons Ratio (z) = 0.34725 -0.33929
#
# Static dielectric constant tensor:
#      x y z
#    x 1.836910 0.000000 0.000000 
#    y 0.000000 1.814620 0.000000 
#    z 0.000000 0.000000 1.835020 
# 
# From -- ./inp_files/5723.got.cif
#   From: 2010.05.17/outbox.cif.g08.bks.cpg/sg57_3_cif.got.tgz:5723.got - 2010.06.03 13:58:18.
