data_PCOD9436411
_publ_section_title
;
Structure prediction by ZEFSAII (Michael W. Deem and Ramdas Pophale) SiO2 
 PCOD9436411
Probable space group: P B C M
;
_chemical_formula_sum "Si O2"
_cell_formula_units_Z 48
_cell_length_a 19.214311
_cell_length_b 8.543273
_cell_length_c 16.023611
_cell_angle_alpha 90.000000
_cell_angle_beta 90.000000
_cell_angle_gamma 90.000000
_cell_volume 2630.325489
_symmetry_space_group_name_H-M "P B C M"
_symmetry_group_IT_number 57
_symmetry_cell_setting 'orthorhombic'
loop_
_space_group_symop_operation_xyz
x,y,z
-x,-y,1/2+z
x,1/2-y,-z
-x,1/2+y,1/2-z
-x,-y,-z
x,y,1/2-z
-x,1/2+y,z
x,1/2-y,1/2+z
loop_
_atom_site_type_symbol
_atom_site_label
_atom_site_fract_x
_atom_site_fract_y
_atom_site_fract_z
Si Si1 0.676406 0.572685 0.403622
Si Si2 0.328907 0.050637 0.906356
Si Si3 0.172977 0.956052 0.155473
Si Si4 0.580056 0.566424 0.250000
Si Si5 0.077569 0.435560 0.990604
Si Si6 0.423800 0.056139 0.750000
Si Si7 0.810845 0.140184 0.082011
O O1 0.681801 0.761776 0.399592
O O2 0.651570 0.524967 0.496302
O O3 0.753107 0.507825 0.384148
O O4 0.623482 0.518723 0.332007
O O5 0.383205 0.004905 0.834190
O O6 0.257265 0.957241 0.894780
O O7 0.170034 0.012189 0.250000
O O8 0.169796 0.767961 0.150670
O O9 0.111444 0.021413 0.098349
O O10 0.576398 0.755077 0.250000
O O11 0.502558 0.501554 0.250000
O O12 0.078935 0.250000 0.000000
O O13 0.127706 0.522394 0.056976
O O14 0.000000 0.500000 0.000000
O O15 0.798369 0.250000 0.000000
#
# Coordination Sequence:
#
# PCOD9436411 Si02
#       7
#     8   8   8   4   8   4   8
#     4  10  19  37  64  81 119 156 204 247 308 355
#     4  10  20  37  58  88 115 157 200 253 297 368
#     4  11  22  37  60  96 124 158 201 255 299 363
#     4  10  22  40  54  88 115 162 197 256 306 364
#     4  11  22  42  66  88 124 165 204 247 304 360
#     4  10  24  38  56  82 123 152 209 244 310 366
#     4  10  20  35  58  91 120 152 201 237 298 358
#
# _framework density 18.248691000000001
#
# number of rings (size 3 to 8) (size 9 to 14) (size 15 to 20)
#    0.000    1.667    4.167    2.500    1.167    2.000 
#    0.000    4.167    0.000    0.000    0.000    0.000 
#    0.000    0.000    0.000    0.000    0.000    0.000 
#
# Total GULP energy -267860.616808 kJ/mol
# GULP energy per Si atom -5580.429517 kJ/mol
# Density = 1.820716 g / cm^3
# Si number density = 18.248691 Si / 1000 Ang^3
#
#
#
# Elastic Constant Matrix: (Units=GPa)
#
#
# Indices 1 2 3 4 5 6 
#
# 1 159.5786 47.1956 83.5133 0.0000 0.0000 0.0000
# 2 47.1956 63.8532 38.1248 0.0000 0.0000 0.0000
# 3 83.5133 38.1248 149.2141 0.0000 0.0000 0.0000
# 4 0.0000 0.0000 0.0000 11.8993 0.0000 0.0000
# 5 0.0000 0.0000 0.0000 0.0000 28.8251 0.0000
# 6 0.0000 0.0000 0.0000 0.0000 0.0000 38.2868
#
#
#
# Elastic Compliance Matrix: (Units=1/GPa)
#
#
# Indices 1 2 3 4 5 6 
#
# 1 0.009952 -0.004756 -0.004355 0.000000 0.000000 0.000000
# 2 -0.004756 0.020753 -0.002641 0.000000 0.000000 0.000000
# 3 -0.004355 -0.002641 0.009814 0.000000 0.000000 0.000000
# 4 0.000000 0.000000 0.000000 0.084038 0.000000 0.000000
# 5 0.000000 0.000000 0.000000 0.000000 0.034692 0.000000
# 6 0.000000 0.000000 0.000000 0.000000 0.000000 0.026119
#
#
# Mechanical properties :
#
#
# Convention : Reuss Voigt Hill
#
# Bulk Modulus (GPa) = 58.76824 78.92369 68.84597
# Shear Modulus (GPa) = 23.30541 29.38972 26.34757
#
# Velocity S-wave (km/s) = 3.57753 4.01747 3.80387
# Velocity P-wave (km/s) = 7.02417 8.05375 7.55652
#
# Compressibility (1/GPa) = 0.01701599
#
# Stress axis : x y z
#
# Youngs Moduli (GPa) = 100.48111 48.18667 101.89606
#
# Poissons Ratio (x) = 0.22916 0.44376
# Poissons Ratio (y) = 0.47785 0.26908
# Poissons Ratio (z) = 0.43759 0.12725
#
# Static dielectric constant tensor:
#      x y z
#    x 1.581170 0.000000 0.000000 
#    y 0.000000 1.633230 0.000000 
#    z 0.000000 0.000000 1.679420 
# 
# From -- ./inp_files/22499.got.cif
#   From: 2010.05.17/outbox.cif.g08.bks.cpg/sg57_12_cif.got.tgz:22499.got - 2010.06.03 13:58:18.
