data_PCOD9436835
_publ_section_title
;
Structure prediction by ZEFSAII (Michael W. Deem and Ramdas Pophale) SiO2 
 PCOD9436835
Probable space group: P B C M
;
_chemical_formula_sum "Si O2"
_cell_formula_units_Z 48
_cell_length_a 21.748935
_cell_length_b 14.480579
_cell_length_c 8.745946
_cell_angle_alpha 90.000000
_cell_angle_beta 90.000000
_cell_angle_gamma 90.000000
_cell_volume 2754.423495
_symmetry_space_group_name_H-M "P B C M"
_symmetry_group_IT_number 57
_symmetry_cell_setting 'orthorhombic'
loop_
_space_group_symop_operation_xyz
x,y,z
-x,-y,1/2+z
x,1/2-y,-z
-x,1/2+y,1/2-z
-x,-y,-z
x,y,1/2-z
-x,1/2+y,z
x,1/2-y,1/2+z
loop_
_atom_site_type_symbol
_atom_site_label
_atom_site_fract_x
_atom_site_fract_y
_atom_site_fract_z
Si Si1 0.595664 0.487803 0.434270
Si Si2 0.497913 0.351668 0.567161
Si Si3 0.832579 0.648182 0.433149
Si Si4 0.738290 0.491081 0.064928
Si Si5 0.836166 0.352478 0.932843
Si Si6 0.931819 0.496421 0.434085
O O1 0.592457 0.479643 0.250000
O O2 0.559108 0.402436 0.506791
O O3 0.558350 0.580460 0.477866
O O4 0.666936 0.491961 0.478235
O O5 0.491404 0.250000 0.500000
O O6 0.499752 0.346772 0.750000
O O7 0.832018 0.750000 0.500000
O O8 0.832121 0.655138 0.250000
O O9 0.773988 0.585300 0.478150
O O10 0.892539 0.587926 0.476434
O O11 0.742836 0.482099 0.250000
O O12 0.775932 0.407847 0.989406
O O13 0.838444 0.350413 0.750000
O O14 0.836307 0.250000 0.000000
O O15 0.893617 0.410714 0.998349
O O16 0.932768 0.489832 0.250000
O O17 0.000000 0.500000 0.500000
#
# Coordination Sequence:
#
# PCOD9436835 Si02
#       6
#     8   8   8   8   8   8
#     4   9  19  36  56  76 103 139 177 219 265 314
#     4  10  20  34  53  78 107 139 176 218 264 315
#     4   9  19  34  53  77 106 137 170 211 258 309
#     4   9  19  37  56  77 106 138 175 221 268 314
#     4  11  22  37  57  81 108 141 179 221 269 320
#     4  10  21  38  57  80 110 143 180 223 267 314
#
# _framework density 17.426514999999998
#
# number of rings (size 3 to 8) (size 9 to 14) (size 15 to 20)
#    0.000    2.333    0.000    3.500    0.000    6.667 
#    0.000    1.667    0.000    0.000    0.000    0.000 
#    0.000    0.000    0.000    0.000    0.000    0.000 
#
# Total GULP energy -267900.669848 kJ/mol
# GULP energy per Si atom -5581.263955 kJ/mol
# Density = 1.738685 g / cm^3
# Si number density = 17.426515 Si / 1000 Ang^3
#
#
#
# Elastic Constant Matrix: (Units=GPa)
#
#
# Indices 1 2 3 4 5 6 
#
# 1 177.0620 87.2935 55.6372 0.0000 0.0000 0.0000
# 2 87.2935 177.2071 54.9674 0.0000 0.0000 0.0000
# 3 55.6372 54.9674 56.4796 0.0000 0.0000 0.0000
# 4 0.0000 0.0000 0.0000 34.7181 0.0000 0.0000
# 5 0.0000 0.0000 0.0000 0.0000 28.7402 0.0000
# 6 0.0000 0.0000 0.0000 0.0000 0.0000 5.5260
#
#
#
# Elastic Compliance Matrix: (Units=1/GPa)
#
#
# Indices 1 2 3 4 5 6 
#
# 1 0.008820 -0.002363 -0.006389 0.000000 0.000000 0.000000
# 2 -0.002363 0.008717 -0.006155 0.000000 0.000000 0.000000
# 3 -0.006389 -0.006155 0.029989 0.000000 0.000000 0.000000
# 4 0.000000 0.000000 0.000000 0.028803 0.000000 0.000000
# 5 0.000000 0.000000 0.000000 0.000000 0.034794 0.000000
# 6 0.000000 0.000000 0.000000 0.000000 0.000000 0.180962
#
#
# Mechanical properties :
#
#
# Convention : Reuss Voigt Hill
#
# Bulk Modulus (GPa) = 56.45940 89.61609 73.03774
# Shear Modulus (GPa) = 15.25299 27.98690 21.61994
#
# Velocity S-wave (km/s) = 2.96171 4.01183 3.52609
# Velocity P-wave (km/s) = 6.64564 8.54380 7.65379
#
# Compressibility (1/GPa) = 0.01771184
#
# Stress axis : x y z
#
# Youngs Moduli (GPa) = 113.37381 114.72475 33.34504
#
# Poissons Ratio (x) = 0.27112 0.21304
# Poissons Ratio (y) = 0.26793 0.20524
# Poissons Ratio (z) = 0.72433 0.70615
#
# Static dielectric constant tensor:
#      x y z
#    x 1.578840 0.000000 0.000000 
#    y 0.000000 1.565030 0.000000 
#    z 0.000000 0.000000 1.583480 
# 
# From -- ./inp_files/7869.got.cif
#   From: 2010.05.17/outbox.cif.g08.bks.cpg/sg57_4_cif.got.tgz:7869.got - 2010.06.03 13:58:18.
