data_PCOD9436535
_publ_section_title
;
Structure prediction by ZEFSAII (Michael W. Deem and Ramdas Pophale) SiO2 
 PCOD9436535
Probable space group: P B C M
;
_chemical_formula_sum "Si O2"
_cell_formula_units_Z 56
_cell_length_a 15.210813
_cell_length_b 21.038826
_cell_length_c 9.011943
_cell_angle_alpha 90.000000
_cell_angle_beta 90.000000
_cell_angle_gamma 90.000000
_cell_volume 2883.980803
_symmetry_space_group_name_H-M "P B C M"
_symmetry_group_IT_number 57
_symmetry_cell_setting 'orthorhombic'
loop_
_space_group_symop_operation_xyz
x,y,z
-x,-y,1/2+z
x,1/2-y,-z
-x,1/2+y,1/2-z
-x,-y,-z
x,y,1/2-z
-x,1/2+y,z
x,1/2-y,1/2+z
loop_
_atom_site_type_symbol
_atom_site_label
_atom_site_fract_x
_atom_site_fract_y
_atom_site_fract_z
Si Si1 0.726418 0.621364 0.581291
Si Si2 0.551122 0.815753 0.071774
Si Si3 0.921803 0.455110 0.069870
Si Si4 0.266651 0.523840 0.422235
Si Si5 0.064355 0.684134 0.421100
Si Si6 0.557089 0.057123 0.571991
Si Si7 0.145442 0.311387 0.913616
O O1 0.743012 0.640826 0.750000
O O2 0.648710 0.664363 0.518090
O O3 0.698848 0.548620 0.580839
O O4 0.817007 0.628127 0.495594
O O5 0.555126 0.809271 0.250000
O O6 0.489816 0.875903 0.039675
O O7 0.522750 0.750000 0.000000
O O8 0.926906 0.458438 0.250000
O O9 0.826136 0.475556 0.007558
O O10 0.925251 0.381251 0.013556
O O11 0.000000 0.500000 0.000000
O O12 0.254545 0.543882 0.250000
O O13 0.344615 0.559966 0.505737
O O14 0.095879 0.750000 0.500000
O O15 0.097417 0.678764 0.250000
O O16 0.958881 0.690462 0.410309
O O17 0.559748 0.047736 0.750000
O O18 0.500000 0.000000 0.500000
O O19 0.181285 0.310461 0.750000
O O20 0.177444 0.250000 0.000000
#
# Coordination Sequence:
#
# PCOD9436535 Si02
#       7
#     8   8   8   8   8   8   8
#     4  10  20  35  54  81 118 155 195 248 308 373
#     4  10  22  39  58  87 123 161 204 255 311 370
#     4  12  25  42  64  95 131 170 216 269 325 385
#     4  11  23  41  64  92 123 160 208 262 321 382
#     4  10  21  39  61  86 119 163 212 265 325 385
#     4  11  22  41  65  91 124 163 210 258 309 374
#     4  10  20  32  50  78 112 152 198 244 300 370
#
# _framework density 19.417605999999999
#
# number of rings (size 3 to 8) (size 9 to 14) (size 15 to 20)
#    0.000    1.429    1.429    4.286    0.000    8.000 
#    0.000    0.714    0.000    1.714    0.000    0.000 
#    0.000    0.000    0.000    0.000    0.000    0.000 
#
# Total GULP energy -312343.378748 kJ/mol
# GULP energy per Si atom -5577.560335 kJ/mol
# Density = 1.937341 g / cm^3
# Si number density = 19.417606 Si / 1000 Ang^3
#
#
#
# Elastic Constant Matrix: (Units=GPa)
#
#
# Indices 1 2 3 4 5 6 
#
# 1 90.7235 35.3237 47.5745 0.0000 0.0000 0.0000
# 2 35.3237 125.1881 56.2098 0.0000 0.0000 0.0000
# 3 47.5745 56.2098 125.2034 0.0000 0.0000 0.0000
# 4 0.0000 0.0000 0.0000 30.4529 0.0000 0.0000
# 5 0.0000 0.0000 0.0000 0.0000 23.7138 0.0000
# 6 0.0000 0.0000 0.0000 0.0000 0.0000 33.5420
#
#
#
# Elastic Compliance Matrix: (Units=1/GPa)
#
#
# Indices 1 2 3 4 5 6 
#
# 1 0.014145 -0.001976 -0.004488 0.000000 0.000000 0.000000
# 2 -0.001976 0.010281 -0.003865 0.000000 0.000000 0.000000
# 3 -0.004488 -0.003865 0.011427 0.000000 0.000000 0.000000
# 4 0.000000 0.000000 0.000000 0.032838 0.000000 0.000000
# 5 0.000000 0.000000 0.000000 0.000000 0.042169 0.000000
# 6 0.000000 0.000000 0.000000 0.000000 0.000000 0.029813
#
#
# Mechanical properties :
#
#
# Convention : Reuss Voigt Hill
#
# Bulk Modulus (GPa) = 65.80589 68.81454 67.31021
# Shear Modulus (GPa) = 30.04876 31.00889 30.52883
#
# Velocity S-wave (km/s) = 3.93810 4.00052 3.96943
# Velocity P-wave (km/s) = 7.39199 7.54023 7.46648
#
# Compressibility (1/GPa) = 0.01519621
#
# Stress axis : x y z
#
# Youngs Moduli (GPa) = 70.69503 97.26817 87.51053
#
# Poissons Ratio (x) = 0.19224 0.39271
# Poissons Ratio (y) = 0.13972 0.33819
# Poissons Ratio (z) = 0.31725 0.37590
#
# Static dielectric constant tensor:
#      x y z
#    x 1.671420 0.000000 0.000000 
#    y 0.000000 1.720890 0.000000 
#    z 0.000000 0.000000 1.684820 
# 
# From -- ./inp_files/5113.got.cif
#   From: 2010.05.17/outbox.cif.g08.bks.cpg/sg57_3_cif.got.tgz:5113.got - 2010.06.03 13:58:18.
