data_PCOD9436946
_publ_section_title
;
Structure prediction by ZEFSAII (Michael W. Deem and Ramdas Pophale) SiO2 
 PCOD9436946
Probable space group: P B C M
;
_chemical_formula_sum "Si O2"
_cell_formula_units_Z 40
_cell_length_a 13.743891
_cell_length_b 18.554027
_cell_length_c 8.836402
_cell_angle_alpha 90.000000
_cell_angle_beta 90.000000
_cell_angle_gamma 90.000000
_cell_volume 2253.322492
_symmetry_space_group_name_H-M "P B C M"
_symmetry_group_IT_number 57
_symmetry_cell_setting 'orthorhombic'
loop_
_space_group_symop_operation_xyz
x,y,z
-x,-y,1/2+z
x,1/2-y,-z
-x,1/2+y,1/2-z
-x,-y,-z
x,y,1/2-z
-x,1/2+y,z
x,1/2-y,1/2+z
loop_
_atom_site_type_symbol
_atom_site_label
_atom_site_fract_x
_atom_site_fract_y
_atom_site_fract_z
Si Si1 0.603013 0.903139 0.430101
Si Si2 0.301411 0.542404 0.931167
Si Si3 0.188971 0.171875 0.571095
Si Si4 0.097014 0.032902 0.069646
Si Si5 0.587674 0.170529 0.068942
O O1 0.585908 0.910668 0.250000
O O2 0.699866 0.854934 0.452760
O O3 0.512355 0.864961 0.508676
O O4 0.627747 0.980483 0.502638
O O5 0.313508 0.546672 0.750000
O O6 0.191856 0.516134 0.965094
O O7 0.328610 0.617424 0.008211
O O8 0.175363 0.250000 0.500000
O O9 0.171700 0.174174 0.750000
O O10 0.121107 0.111430 0.496634
O O11 0.088405 0.037274 0.250000
O O12 0.000000 0.000000 0.000000
O O13 0.587191 0.173540 0.250000
O O14 0.597072 0.250000 0.000000
#
# Coordination Sequence:
#
# PCOD9436946 Si02
#       5
#     8   8   8   8   8
#     4  10  20  35  56  82 112 147 184 223 267 320
#     4  10  21  38  58  81 109 143 182 224 270 323
#     4  10  20  34  55  83 114 144 179 224 274 322
#     4  10  21  38  61  84 109 141 180 225 274 328
#     4  12  24  37  54  78 111 149 186 226 269 319
#
# _framework density 17.751566
#
# number of rings (size 3 to 8) (size 9 to 14) (size 15 to 20)
#    0.000    1.600    0.000    5.400    0.000    6.400 
#    0.000    1.000    0.000    4.800    0.000    0.000 
#    0.000    0.000    0.000    0.000    0.000    0.000 
#
# Total GULP energy -223622.768719 kJ/mol
# GULP energy per Si atom -5590.569218 kJ/mol
# Density = 1.771116 g / cm^3
# Si number density = 17.751566 Si / 1000 Ang^3
#
#
#
# Elastic Constant Matrix: (Units=GPa)
#
#
# Indices 1 2 3 4 5 6 
#
# 1 90.1061 78.3095 68.0717 0.0000 0.0000 0.0000
# 2 78.3095 160.0275 86.5352 0.0000 0.0000 0.0000
# 3 68.0717 86.5352 121.8687 0.0000 0.0000 0.0000
# 4 0.0000 0.0000 0.0000 38.1989 0.0000 0.0000
# 5 0.0000 0.0000 0.0000 0.0000 31.0463 0.0000
# 6 0.0000 0.0000 0.0000 0.0000 0.0000 18.0568
#
#
#
# Elastic Compliance Matrix: (Units=1/GPa)
#
#
# Indices 1 2 3 4 5 6 
#
# 1 0.023272 -0.007076 -0.007975 0.000000 0.000000 0.000000
# 2 -0.007076 0.012295 -0.004778 0.000000 0.000000 0.000000
# 3 -0.007975 -0.004778 0.016053 0.000000 0.000000 0.000000
# 4 0.000000 0.000000 0.000000 0.026179 0.000000 0.000000
# 5 0.000000 0.000000 0.000000 0.000000 0.032210 0.000000
# 6 0.000000 0.000000 0.000000 0.000000 0.000000 0.055381
#
#
# Mechanical properties :
#
#
# Convention : Reuss Voigt Hill
#
# Bulk Modulus (GPa) = 83.59277 93.09278 88.34278
# Shear Modulus (GPa) = 23.91949 26.73280 25.32615
#
# Velocity S-wave (km/s) = 3.67476 3.88486 3.78127
# Velocity P-wave (km/s) = 8.07451 8.52518 8.30290
#
# Compressibility (1/GPa) = 0.01196276
#
# Stress axis : x y z
#
# Youngs Moduli (GPa) = 42.97000 81.33171 62.29470
#
# Poissons Ratio (x) = 0.57549 0.49678
# Poissons Ratio (y) = 0.30405 0.29765
# Poissons Ratio (z) = 0.34267 0.38862
#
# Static dielectric constant tensor:
#      x y z
#    x 1.592710 0.000000 0.000000 
#    y 0.000000 1.577770 0.000000 
#    z 0.000000 0.000000 1.594020 
# 
# From -- ./inp_files/2696.got.cif
#   From: 2010.05.17/outbox.cif.g08.bks.cpg/sg57_2_cif.got.tgz:2696.got - 2010.06.03 13:58:18.
