data_PCOD9436696
_publ_section_title
;
Structure prediction by ZEFSAII (Michael W. Deem and Ramdas Pophale) SiO2 
 PCOD9436696
Probable space group: P B C M
;
_chemical_formula_sum "Si O2"
_cell_formula_units_Z 48
_cell_length_a 10.845488
_cell_length_b 23.340800
_cell_length_c 9.296969
_cell_angle_alpha 90.000000
_cell_angle_beta 90.000000
_cell_angle_gamma 90.000000
_cell_volume 2353.456732
_symmetry_space_group_name_H-M "P B C M"
_symmetry_group_IT_number 57
_symmetry_cell_setting 'orthorhombic'
loop_
_space_group_symop_operation_xyz
x,y,z
-x,-y,1/2+z
x,1/2-y,-z
-x,1/2+y,1/2-z
-x,-y,-z
x,y,1/2-z
-x,1/2+y,z
x,1/2-y,1/2+z
loop_
_atom_site_type_symbol
_atom_site_label
_atom_site_fract_x
_atom_site_fract_y
_atom_site_fract_z
Si Si1 0.948050 0.877735 0.083200
Si Si2 0.432289 0.407208 0.582088
Si Si3 0.822269 0.522066 0.417836
Si Si4 0.689960 0.808677 0.085425
Si Si5 0.161324 0.690744 0.080936
Si Si6 0.704539 0.075890 0.417546
O O1 0.985106 0.885211 0.250000
O O2 0.821314 0.841170 0.081464
O O3 0.914770 0.937999 0.007801
O O4 0.045943 0.841088 0.993350
O O5 0.442833 0.390864 0.750000
O O6 0.312525 0.447417 0.569795
O O7 0.406017 0.351779 0.487145
O O8 0.562644 0.435094 0.541943
O O9 0.856595 0.520330 0.250000
O O10 0.798033 0.460099 0.485489
O O11 0.657385 0.797450 0.250000
O O12 0.698712 0.750000 0.000000
O O13 0.136586 0.701264 0.250000
O O14 0.269102 0.643484 0.070284
O O15 0.186511 0.750000 0.000000
O O16 0.723273 0.059388 0.250000
#
# Coordination Sequence:
#
# PCOD9436696 Si02
#       6
#     8   8   8   8   8   8
#     4  10  21  38  60  84 112 146 185 233 285 335
#     4   9  19  36  56  81 114 149 186 230 279 331
#     4  10  20  35  60  90 116 145 184 231 281 333
#     4  10  20  33  53  81 110 143 184 232 284 334
#     4  11  24  41  60  82 111 149 190 231 276 329
#     4  10  22  39  58  82 115 152 187 227 276 331
#
# _framework density 20.395530999999998
#
# number of rings (size 3 to 8) (size 9 to 14) (size 15 to 20)
#    0.000    2.000    0.000    3.000    0.000    7.333 
#    0.000    1.667    0.000    0.000    0.000    0.000 
#    0.000    0.000    0.000    0.000    0.000    0.000 
#
# Total GULP energy -268284.516744 kJ/mol
# GULP energy per Si atom -5589.260765 kJ/mol
# Density = 2.034911 g / cm^3
# Si number density = 20.395531 Si / 1000 Ang^3
#
#
#
# Elastic Constant Matrix: (Units=GPa)
#
#
# Indices 1 2 3 4 5 6 
#
# 1 52.6158 7.5023 35.6749 0.0000 0.0000 0.0000
# 2 7.5023 102.6894 58.8013 0.0000 0.0000 0.0000
# 3 35.6749 58.8013 112.5528 0.0000 0.0000 0.0000
# 4 0.0000 0.0000 0.0000 40.8548 0.0000 0.0000
# 5 0.0000 0.0000 0.0000 0.0000 20.8245 0.0000
# 6 0.0000 0.0000 0.0000 0.0000 0.0000 15.7995
#
#
#
# Elastic Compliance Matrix: (Units=1/GPa)
#
#
# Indices 1 2 3 4 5 6 
#
# 1 0.025262 0.003909 -0.010049 0.000000 0.000000 0.000000
# 2 0.003909 0.014500 -0.008814 0.000000 0.000000 0.000000
# 3 -0.010049 -0.008814 0.016675 0.000000 0.000000 0.000000
# 4 0.000000 0.000000 0.000000 0.024477 0.000000 0.000000
# 5 0.000000 0.000000 0.000000 0.000000 0.048020 0.000000
# 6 0.000000 0.000000 0.000000 0.000000 0.000000 0.063293
#
#
# Mechanical properties :
#
#
# Convention : Reuss Voigt Hill
#
# Bulk Modulus (GPa) = 37.69697 52.42389 45.06043
# Shear Modulus (GPa) = 21.64710 26.55438 24.10074
#
# Velocity S-wave (km/s) = 3.26139 3.61220 3.44127
# Velocity P-wave (km/s) = 5.71886 6.56938 6.15882
#
# Compressibility (1/GPa) = 0.02652733
#
# Stress axis : x y z
#
# Youngs Moduli (GPa) = 39.58523 68.96783 59.97149
#
# Poissons Ratio (x) = -0.26957 0.60266
# Poissons Ratio (y) = -0.15472 0.52858
# Poissons Ratio (z) = 0.39780 0.60788
#
# Static dielectric constant tensor:
#      x y z
#    x 1.736310 0.000000 0.000000 
#    y 0.000000 1.701850 0.000000 
#    z 0.000000 0.000000 1.690690 
# 
# From -- ./inp_files/3147.got.cif
#   From: 2010.05.17/outbox.cif.g08.bks.cpg/sg57_2_cif.got.tgz:3147.got - 2010.06.03 13:58:18.
