data_PCOD9436162
_publ_section_title
;
Structure prediction by ZEFSAII (Michael W. Deem and Ramdas Pophale) SiO2 
 PCOD9436162
Probable space group: P B C M
;
_chemical_formula_sum "Si O2"
_cell_formula_units_Z 40
_cell_length_a 17.221446
_cell_length_b 5.274657
_cell_length_c 21.270692
_cell_angle_alpha 90.000000
_cell_angle_beta 90.000000
_cell_angle_gamma 90.000000
_cell_volume 1932.170544
_symmetry_space_group_name_H-M "P B C M"
_symmetry_group_IT_number 57
_symmetry_cell_setting 'orthorhombic'
loop_
_space_group_symop_operation_xyz
x,y,z
-x,-y,1/2+z
x,1/2-y,-z
-x,1/2+y,1/2-z
-x,-y,-z
x,y,1/2-z
-x,1/2+y,z
x,1/2-y,1/2+z
loop_
_atom_site_type_symbol
_atom_site_label
_atom_site_fract_x
_atom_site_fract_y
_atom_site_fract_z
Si Si1 0.467018 0.027119 0.429486
Si Si2 0.699936 0.606410 0.389514
Si Si3 0.195461 0.894546 0.889522
Si Si4 0.030046 0.695302 0.429214
Si Si5 0.800277 0.472745 0.750000
Si Si6 0.704361 0.528734 0.250000
O O1 0.512721 0.259408 0.398357
O O2 0.500000 0.000000 0.500000
O O3 0.376031 0.082121 0.431578
O O4 0.748219 0.864543 0.399342
O O5 0.668005 0.591663 0.317407
O O6 0.756198 0.364419 0.397387
O O7 0.163441 0.914971 0.817617
O O8 0.119112 0.889415 0.931538
O O9 0.000546 0.750000 0.500000
O O10 0.980573 0.470732 0.398330
O O11 0.728990 0.267032 0.750000
O O12 0.776071 0.768468 0.750000
#
# Coordination Sequence:
#
# PCOD9436162 Si02
#       6
#     8   8   8   8   4   4
#     4  10  21  38  53  72 110 149 166 215 288 317
#     4  10  19  35  57  80 107 139 186 223 263 326
#     4  10  19  35  57  85 104 142 186 223 263 325
#     4  10  21  38  55  75 113 148 176 224 276 314
#     4   8  16  30  52  78 114 132 168 230 274 302
#     4   8  16  30  52  78 104 138 172 224 270 308
#
# _framework density 20.702105
#
# number of rings (size 3 to 8) (size 9 to 14) (size 15 to 20)
#    0.000    2.400    0.000    2.400    0.000    0.000 
#   10.800    2.000    0.000    0.000    0.000    0.000 
#    0.000    0.000    0.000    0.000    0.000    0.000 
#
# Total GULP energy -222739.189069 kJ/mol
# GULP energy per Si atom -5568.479727 kJ/mol
# Density = 2.065499 g / cm^3
# Si number density = 20.702105 Si / 1000 Ang^3
#
#
#
# Elastic Constant Matrix: (Units=GPa)
#
#
# Indices 1 2 3 4 5 6 
#
# 1 94.5249 46.9230 25.3749 0.0000 0.0000 0.0000
# 2 46.9230 185.3488 7.1653 0.0000 0.0000 0.0000
# 3 25.3749 7.1653 33.5986 0.0000 0.0000 0.0000
# 4 0.0000 0.0000 0.0000 9.4261 0.0000 0.0000
# 5 0.0000 0.0000 0.0000 0.0000 -20.5756 0.0000
# 6 0.0000 0.0000 0.0000 0.0000 0.0000 30.6072
#
#
#
# Elastic Compliance Matrix: (Units=1/GPa)
#
#
# Indices 1 2 3 4 5 6 
#
# 1 0.015155 -0.003422 -0.010715 0.000000 0.000000 0.000000
# 2 -0.003422 0.006213 0.001260 0.000000 0.000000 0.000000
# 3 -0.010715 0.001260 0.037587 0.000000 0.000000 0.000000
# 4 0.000000 0.000000 0.000000 0.106088 0.000000 0.000000
# 5 0.000000 0.000000 0.000000 0.000000 -0.048601 0.000000
# 6 0.000000 0.000000 0.000000 0.000000 0.000000 0.032672
#
#
# Mechanical properties :
#
#
# Convention : Reuss Voigt Hill
#
# Bulk Modulus (GPa) = 30.12179 52.48874 41.30527
# Shear Modulus (GPa) = 26.89091 19.49214 23.19152
#
# Velocity S-wave (km/s) = 3.60800 3.07180 3.35064
# Velocity P-wave (km/s) = 5.65142 6.16365 5.91309
#
# Compressibility (1/GPa) = 0.03319855
#
# Stress axis : x y z
#
# Youngs Moduli (GPa) = 65.98645 160.95462 26.60479
#
# Poissons Ratio (x) = 0.55084 0.28508
# Poissons Ratio (y) = 0.22583 -0.03351
# Poissons Ratio (z) = 0.70708 -0.20275
#
# Static dielectric constant tensor:
#      x y z
#    x 1.691190 0.000000 0.000000 
#    y 0.000000 1.879720 0.000000 
#    z 0.000000 0.000000 1.804310 
# 
# From -- ./inp_files/27359.got.cif
#   From: 2010.05.17/outbox.cif.g08.bks.cpg/sg57_14_cif.got.tgz:27359.got - 2010.06.03 13:58:18.
