data_PCOD9436710
_publ_section_title
;
Structure prediction by ZEFSAII (Michael W. Deem and Ramdas Pophale) SiO2 
 PCOD9436710
Probable space group: P B C M
;
_chemical_formula_sum "Si O2"
_cell_formula_units_Z 60
_cell_length_a 22.156376
_cell_length_b 13.066304
_cell_length_c 9.602470
_cell_angle_alpha 90.000000
_cell_angle_beta 90.000000
_cell_angle_gamma 90.000000
_cell_volume 2779.933736
_symmetry_space_group_name_H-M "P B C M"
_symmetry_group_IT_number 57
_symmetry_cell_setting 'orthorhombic'
loop_
_space_group_symop_operation_xyz
x,y,z
-x,-y,1/2+z
x,1/2-y,-z
-x,1/2+y,1/2-z
-x,-y,-z
x,y,1/2-z
-x,1/2+y,z
x,1/2-y,1/2+z
loop_
_atom_site_type_symbol
_atom_site_label
_atom_site_fract_x
_atom_site_fract_y
_atom_site_fract_z
Si Si1 0.525601 0.501310 0.750000
Si Si2 0.215853 0.574935 0.086528
Si Si3 0.673522 0.156101 0.588069
Si Si4 0.497823 0.867731 0.980806
Si Si5 0.260803 0.347450 0.085864
Si Si6 0.077564 0.924465 0.912700
Si Si7 0.367272 0.075064 0.095786
Si Si8 0.034220 0.153943 0.585588
O O1 0.546074 0.421005 0.627791
O O2 0.502071 0.578954 0.628555
O O3 0.230511 0.593911 0.250000
O O4 0.223802 0.452358 0.065173
O O5 0.146700 0.604547 0.061911
O O6 0.262427 0.629918 0.984859
O O7 0.647411 0.250000 0.500000
O O8 0.680046 0.183987 0.750000
O O9 0.638808 0.047398 0.584562
O O10 0.564261 0.886999 0.911667
O O11 0.488180 0.750000 0.000000
O O12 0.263428 0.326292 0.250000
O O13 0.237722 0.250000 0.000000
O O14 0.327193 0.373854 0.024062
O O15 0.062466 0.902263 0.750000
O O16 0.070425 0.047451 0.929784
O O17 0.030705 0.870912 0.015866
O O18 0.342969 0.102512 0.250000
O O19 0.060015 0.250000 0.500000
O O20 0.029715 0.176534 0.750000
#
# Coordination Sequence:
#
# PCOD9436710 Si02
#       8
#     4   8   8   8   8   8   8   8
#     4  10  24  40  62  96 128 158 212 252 296 366
#     4   9  19  36  56  78 107 146 185 230 279 339
#     4  10  21  38  58  83 116 152 188 239 291 342
#     4  11  22  42  67  91 126 167 201 253 307 355
#     4  10  20  33  53  84 116 146 183 228 279 337
#     4   9  19  36  55  76 104 139 184 231 278 332
#     4  10  21  38  62  88 117 148 199 244 284 351
#     4  10  20  34  53  77 105 138 179 228 281 338
#
# _framework density 21.583248000000001
#
# number of rings (size 3 to 8) (size 9 to 14) (size 15 to 20)
#    0.000    2.133    0.667    2.000    0.933    3.200 
#    0.000    4.000    0.000    0.000    0.000    0.000 
#    0.000    0.000    0.000    0.000    0.000    0.000 
#
# Total GULP energy -334325.533189 kJ/mol
# GULP energy per Si atom -5572.092220 kJ/mol
# Density = 2.153412 g / cm^3
# Si number density = 21.583248 Si / 1000 Ang^3
#
#
#
# Elastic Constant Matrix: (Units=GPa)
#
#
# Indices 1 2 3 4 5 6 
#
# 1 65.5603 -7.6553 15.5451 0.0000 0.0000 0.0000
# 2 -7.6553 119.2264 54.6420 0.0000 0.0000 0.0000
# 3 15.5451 54.6420 170.9949 0.0000 0.0000 0.0000
# 4 0.0000 0.0000 0.0000 17.8536 0.0000 0.0000
# 5 0.0000 0.0000 0.0000 0.0000 -52.6517 0.0000
# 6 0.0000 0.0000 0.0000 0.0000 0.0000 3.4920
#
#
#
# Elastic Compliance Matrix: (Units=1/GPa)
#
#
# Indices 1 2 3 4 5 6 
#
# 1 0.015979 0.001982 -0.002086 0.000000 0.000000 0.000000
# 2 0.001982 0.010072 -0.003399 0.000000 0.000000 0.000000
# 3 -0.002086 -0.003399 0.007124 0.000000 0.000000 0.000000
# 4 0.000000 0.000000 0.000000 0.056011 0.000000 0.000000
# 5 0.000000 0.000000 0.000000 0.000000 -0.018993 0.000000
# 6 0.000000 0.000000 0.000000 0.000000 0.000000 0.286370
#
#
# Mechanical properties :
#
#
# Convention : Reuss Voigt Hill
#
# Bulk Modulus (GPa) = 38.21207 53.42725 45.81966
# Shear Modulus (GPa) = 13.43029 13.28876 13.35953
#
# Velocity S-wave (km/s) = 2.49721 2.48402 2.49062
# Velocity P-wave (km/s) = 5.10467 5.74760 5.43565
#
# Compressibility (1/GPa) = 0.02616974
#
# Stress axis : x y z
#
# Youngs Moduli (GPa) = 62.58140 99.28149 140.37293
#
# Poissons Ratio (x) = -0.19678 0.29282
# Poissons Ratio (y) = -0.12404 0.47711
# Poissons Ratio (z) = 0.13055 0.33744
#
# Static dielectric constant tensor:
#      x y z
#    x 1.816570 0.000000 0.000000 
#    y 0.000000 1.839090 0.000000 
#    z 0.000000 0.000000 1.742530 
# 
# From -- ./inp_files/9749.got.cif
#   From: 2010.05.17/outbox.cif.g08.bks.cpg/sg57_5_cif.got.tgz:9749.got - 2010.06.03 13:58:18.
