data_PCOD9436330
_publ_section_title
;
Structure prediction by ZEFSAII (Michael W. Deem and Ramdas Pophale) SiO2 
 PCOD9436330
Probable space group: P B C M
;
_chemical_formula_sum "Si O2"
_cell_formula_units_Z 64
_cell_length_a 19.990078
_cell_length_b 8.317745
_cell_length_c 16.948580
_cell_angle_alpha 90.000000
_cell_angle_beta 90.000000
_cell_angle_gamma 90.000000
_cell_volume 2818.080587
_symmetry_space_group_name_H-M "P B C M"
_symmetry_group_IT_number 57
_symmetry_cell_setting 'orthorhombic'
loop_
_space_group_symop_operation_xyz
x,y,z
-x,-y,1/2+z
x,1/2-y,-z
-x,1/2+y,1/2-z
-x,-y,-z
x,y,1/2-z
-x,1/2+y,z
x,1/2-y,1/2+z
loop_
_atom_site_type_symbol
_atom_site_label
_atom_site_fract_x
_atom_site_fract_y
_atom_site_fract_z
Si Si1 0.775585 0.809709 0.916818
Si Si2 0.724406 0.201464 0.092032
Si Si3 0.024795 0.019125 0.342723
Si Si4 0.461002 0.299974 0.653848
Si Si5 0.406055 0.640193 0.654987
Si Si6 0.669097 0.875851 0.157570
Si Si7 0.100326 0.356642 0.342275
Si Si8 0.148063 0.652759 0.919868
O O1 0.715741 0.781494 0.855286
O O2 0.834710 0.687341 0.891472
O O3 0.809234 0.984677 0.925435
O O4 0.748480 0.750000 0.000000
O O5 0.667029 0.312664 0.127868
O O6 0.798625 0.234541 0.126081
O O7 0.700803 0.021556 0.109080
O O8 0.728084 0.250000 0.000000
O O9 0.021475 0.978664 0.250000
O O10 0.078949 0.901717 0.381443
O O11 0.948962 0.996022 0.372437
O O12 0.053638 0.197689 0.348830
O O13 0.461987 0.304610 0.750000
O O14 0.431464 0.468032 0.626089
O O15 0.536212 0.263915 0.628263
O O16 0.406574 0.164472 0.633279
O O17 0.406120 0.638944 0.750000
O O18 0.669173 0.919727 0.250000
O O19 0.118728 0.378564 0.250000
O O20 0.134077 0.750000 0.000000
#
# Coordination Sequence:
#
# PCOD9436330 Si02
#       8
#     8   8   8   8   8   8   8   8
#     4  11  22  38  59  84 116 153 193 243 297 350
#     4  11  23  39  57  84 119 155 196 244 298 354
#     4   9  19  35  57  81 108 143 188 238 286 338
#     4   9  19  35  59  87 114 147 192 242 294 349
#     4  10  19  36  60  85 115 153 195 243 294 352
#     4  11  23  40  62  89 118 156 203 248 295 355
#     4   9  19  36  56  81 111 146 187 236 290 348
#     4  10  22  39  56  79 115 153 191 234 291 356
#
# _framework density 22.710491000000001
#
# number of rings (size 3 to 8) (size 9 to 14) (size 15 to 20)
#    0.000    2.000    0.000    3.750    0.000    6.000 
#    0.000    6.875    0.000    0.000    0.000    0.000 
#    0.000    0.000    0.000    0.000    0.000    0.000 
#
# Total GULP energy -357601.141737 kJ/mol
# GULP energy per Si atom -5587.517840 kJ/mol
# Density = 2.265880 g / cm^3
# Si number density = 22.710491 Si / 1000 Ang^3
#
#
#
# Elastic Constant Matrix: (Units=GPa)
#
#
# Indices 1 2 3 4 5 6 
#
# 1 72.2006 -7.1500 8.1672 0.0000 0.0000 0.0000
# 2 -7.1500 60.6154 13.3211 0.0000 0.0000 0.0000
# 3 8.1672 13.3211 29.0054 0.0000 0.0000 0.0000
# 4 0.0000 0.0000 0.0000 14.2858 0.0000 0.0000
# 5 0.0000 0.0000 0.0000 0.0000 45.1009 0.0000
# 6 0.0000 0.0000 0.0000 0.0000 0.0000 42.8438
#
#
#
# Elastic Compliance Matrix: (Units=1/GPa)
#
#
# Indices 1 2 3 4 5 6 
#
# 1 0.014767 0.002954 -0.005514 0.000000 0.000000 0.000000
# 2 0.002954 0.018940 -0.009530 0.000000 0.000000 0.000000
# 3 -0.005514 -0.009530 0.040406 0.000000 0.000000 0.000000
# 4 0.000000 0.000000 0.000000 0.070000 0.000000 0.000000
# 5 0.000000 0.000000 0.000000 0.000000 0.022172 0.000000
# 6 0.000000 0.000000 0.000000 0.000000 0.000000 0.023341
#
#
# Mechanical properties :
#
#
# Convention : Reuss Voigt Hill
#
# Bulk Modulus (GPa) = 20.02770 21.16645 20.59708
# Shear Modulus (GPa) = 21.69661 30.27831 25.98746
#
# Velocity S-wave (km/s) = 3.09424 3.65530 3.38641
# Velocity P-wave (km/s) = 4.64797 5.21108 4.93756
#
# Compressibility (1/GPa) = 0.04993084
#
# Stress axis : x y z
#
# Youngs Moduli (GPa) = 67.72054 52.79761 24.74890
#
# Poissons Ratio (x) = -0.15595 0.13648
# Poissons Ratio (y) = -0.20002 0.23586
# Poissons Ratio (z) = 0.37344 0.50317
#
# Static dielectric constant tensor:
#      x y z
#    x 1.836150 0.000000 0.000000 
#    y 0.000000 1.904400 0.000000 
#    z 0.000000 0.000000 1.822620 
# 
# From -- ./inp_files/23024.got.cif
#   From: 2010.05.17/outbox.cif.g08.bks.cpg/sg57_12_cif.got.tgz:23024.got - 2010.06.03 13:58:18.
