data_PCOD9436227
_publ_section_title
;
Structure prediction by ZEFSAII (Michael W. Deem and Ramdas Pophale) SiO2 
 PCOD9436227
Probable space group: P B C M
;
_chemical_formula_sum "Si O2"
_cell_formula_units_Z 64
_cell_length_a 9.097042
_cell_length_b 20.943070
_cell_length_c 18.476172
_cell_angle_alpha 90.000000
_cell_angle_beta 90.000000
_cell_angle_gamma 90.000000
_cell_volume 3520.080057
_symmetry_space_group_name_H-M "P B C M"
_symmetry_group_IT_number 57
_symmetry_cell_setting 'orthorhombic'
loop_
_space_group_symop_operation_xyz
x,y,z
-x,-y,1/2+z
x,1/2-y,-z
-x,1/2+y,1/2-z
-x,-y,-z
x,y,1/2-z
-x,1/2+y,z
x,1/2-y,1/2+z
loop_
_atom_site_type_symbol
_atom_site_label
_atom_site_fract_x
_atom_site_fract_y
_atom_site_fract_z
Si Si1 0.643043 0.717386 0.922485
Si Si2 0.857576 0.554774 0.389322
Si Si3 0.150111 0.312618 0.833666
Si Si4 0.157899 0.584045 0.911779
Si Si5 0.346592 0.806985 0.334685
Si Si6 0.797034 0.054220 0.419221
Si Si7 0.812860 0.914841 0.441993
Si Si8 0.815338 0.172028 0.333759
O O1 0.747468 0.766861 0.879932
O O2 0.498376 0.701532 0.876928
O O3 0.727038 0.650204 0.930518
O O4 0.609553 0.750000 0.000000
O O5 0.804080 0.613172 0.340996
O O6 0.805165 0.483407 0.373361
O O7 0.820679 0.572263 0.472132
O O8 0.034978 0.551144 0.390114
O O9 0.151156 0.292562 0.750000
O O10 0.981003 0.313135 0.861493
O O11 0.243139 0.641565 0.874541
O O12 0.980614 0.592565 0.913293
O O13 0.200442 0.573503 0.996221
O O14 0.367040 0.823926 0.250000
O O15 0.270721 0.737767 0.337379
O O16 0.735555 0.114605 0.375870
O O17 0.743610 0.981152 0.411228
O O18 0.832399 0.152431 0.250000
#
# Coordination Sequence:
#
# PCOD9436227 Si02
#       8
#     8   8   8   8   8   8   8   8
#     4  12  24  37  55  79 112 152 194 227 275 329
#     4   8  15  32  55  89 115 136 171 229 280 328
#     4  10  19  35  59  85 110 142 183 231 279 327
#     4   9  18  34  62  85 111 142 179 228 283 327
#     4  11  25  41  52  76 117 152 187 231 274 327
#     4   8  16  31  59  88 115 134 175 229 280 325
#     4   9  17  36  58  88 111 138 180 233 275 328
#     4   9  19  36  58  83 112 145 183 226 276 329
#
# _framework density 18.181404000000001
#
# number of rings (size 3 to 8) (size 9 to 14) (size 15 to 20)
#    0.000    2.500    1.250    2.625    1.750    0.500 
#    0.000    7.500    0.000    1.500    0.000    0.000 
#    0.000    0.000    0.000    0.000    0.000    0.000 
#
# Total GULP energy -356555.985212 kJ/mol
# GULP energy per Si atom -5571.187269 kJ/mol
# Density = 1.814002 g / cm^3
# Si number density = 18.181404 Si / 1000 Ang^3
#
#
#
# Elastic Constant Matrix: (Units=GPa)
#
#
# Indices 1 2 3 4 5 6 
#
# 1 57.0477 41.9390 32.3318 0.0000 0.0000 0.0000
# 2 41.9390 139.3020 50.5795 0.0000 0.0000 0.0000
# 3 32.3318 50.5795 57.5235 0.0000 0.0000 0.0000
# 4 0.0000 0.0000 0.0000 25.5162 0.0000 0.0000
# 5 0.0000 0.0000 0.0000 0.0000 19.9486 0.0000
# 6 0.0000 0.0000 0.0000 0.0000 0.0000 -7.6063
#
#
#
# Elastic Compliance Matrix: (Units=1/GPa)
#
#
# Indices 1 2 3 4 5 6 
#
# 1 0.027063 -0.003856 -0.011821 0.000000 0.000000 0.000000
# 2 -0.003856 0.011095 -0.007588 0.000000 0.000000 0.000000
# 3 -0.011821 -0.007588 0.030701 0.000000 0.000000 0.000000
# 4 0.000000 0.000000 0.000000 0.039191 0.000000 0.000000
# 5 0.000000 0.000000 0.000000 0.000000 0.050129 0.000000
# 6 0.000000 0.000000 0.000000 0.000000 0.000000 -0.131470
#
#
# Mechanical properties :
#
#
# Convention : Reuss Voigt Hill
#
# Bulk Modulus (GPa) = 44.78548 55.95263 50.36906
# Shear Modulus (GPa) = 61.97237 16.17323 39.07280
#
# Velocity S-wave (km/s) = 5.84462 2.98576 4.64082
# Velocity P-wave (km/s) = 8.38046 6.53665 7.51532
#
# Compressibility (1/GPa) = 0.02232867
#
# Stress axis : x y z
#
# Youngs Moduli (GPa) = 36.95043 90.13306 32.57272
#
# Poissons Ratio (x) = 0.34753 0.38504
# Poissons Ratio (y) = 0.14247 0.24717
# Poissons Ratio (z) = 0.43679 0.68395
#
# Static dielectric constant tensor:
#      x y z
#    x 1.623480 0.000000 0.000000 
#    y 0.000000 1.652970 0.000000 
#    z 0.000000 0.000000 1.626700 
# 
# From -- ./inp_files/21446.got.cif
#   From: 2010.05.17/outbox.cif.g08.bks.cpg/sg57_11_cif.got.tgz:21446.got - 2010.06.03 13:58:18.
