data_PCOD9436156
_publ_section_title
;
Structure prediction by ZEFSAII (Michael W. Deem and Ramdas Pophale) SiO2 
 PCOD9436156
Probable space group: P B C M
;
_chemical_formula_sum "Si O2"
_cell_formula_units_Z 64
_cell_length_a 17.031660
_cell_length_b 8.178379
_cell_length_c 22.595990
_cell_angle_alpha 90.000000
_cell_angle_beta 90.000000
_cell_angle_gamma 90.000000
_cell_volume 3147.426414
_symmetry_space_group_name_H-M "P B C M"
_symmetry_group_IT_number 57
_symmetry_cell_setting 'orthorhombic'
loop_
_space_group_symop_operation_xyz
x,y,z
-x,-y,1/2+z
x,1/2-y,-z
-x,1/2+y,1/2-z
-x,-y,-z
x,y,1/2-z
-x,1/2+y,z
x,1/2-y,1/2+z
loop_
_atom_site_type_symbol
_atom_site_label
_atom_site_fract_x
_atom_site_fract_y
_atom_site_fract_z
Si Si1 0.115368 0.734166 0.566273
Si Si2 0.366788 0.925271 0.678664
Si Si3 0.005607 0.501990 0.385189
Si Si4 0.399099 0.964873 0.034942
Si Si5 0.726635 0.118725 0.619825
Si Si6 0.522263 0.344468 0.582243
Si Si7 0.097742 0.253651 0.317729
Si Si8 0.279012 0.261892 0.820411
O O1 0.145492 0.750000 0.500000
O O2 0.183230 0.666740 0.609053
O O3 0.039468 0.616250 0.569923
O O4 0.079104 0.905222 0.586953
O O5 0.369686 0.914354 0.750000
O O6 0.331682 0.104438 0.661926
O O7 0.314992 0.773232 0.652451
O O8 0.450879 0.902118 0.646542
O O9 0.041623 0.406886 0.329354
O O10 0.938957 0.621820 0.361356
O O11 0.313527 0.915603 0.055808
O O12 0.454560 0.842924 0.073142
O O13 0.433447 0.133126 0.059881
O O14 0.421547 0.932045 0.967376
O O15 0.712582 0.944568 0.652527
O O16 0.094048 0.198861 0.250000
O O17 0.188324 0.287629 0.331728
O O18 0.290209 0.279441 0.750000
#
# Coordination Sequence:
#
# PCOD9436156 Si02
#       8
#     8   8   8   8   8   8   8   8
#     4  11  23  38  62  82 119 158 202 249 309 362
#     4  10  22  39  61  88 124 162 198 247 304 366
#     4  10  21  38  56  84 113 154 193 249 301 362
#     4   9  20  36  62  87 119 155 199 254 300 349
#     4  11  22  39  63  90 119 159 204 250 303 366
#     4   9  19  38  60  87 119 156 200 248 302 353
#     4  10  19  35  56  83 111 145 194 243 295 358
#     4  10  21  38  58  85 122 155 194 248 302 359
#
# _framework density 20.334074000000001
#
# number of rings (size 3 to 8) (size 9 to 14) (size 15 to 20)
#    0.000    2.000    1.250    1.875    5.250    0.000 
#    0.000    4.375    0.000    0.000    0.000    0.000 
#    0.000    0.000    0.000    0.000    0.000    0.000 
#
# Total GULP energy -356556.971373 kJ/mol
# GULP energy per Si atom -5571.202678 kJ/mol
# Density = 2.028779 g / cm^3
# Si number density = 20.334074 Si / 1000 Ang^3
#
#
#
# Elastic Constant Matrix: (Units=GPa)
#
#
# Indices 1 2 3 4 5 6 
#
# 1 43.2283 11.4664 8.8762 0.0000 0.0000 0.0000
# 2 11.4664 73.2886 20.3325 0.0000 0.0000 0.0000
# 3 8.8762 20.3325 71.5782 0.0000 0.0000 0.0000
# 4 0.0000 0.0000 0.0000 20.1156 0.0000 0.0000
# 5 0.0000 0.0000 0.0000 0.0000 26.8041 0.0000
# 6 0.0000 0.0000 0.0000 0.0000 0.0000 23.7425
#
#
#
# Elastic Compliance Matrix: (Units=1/GPa)
#
#
# Indices 1 2 3 4 5 6 
#
# 1 0.024425 -0.003236 -0.002110 0.000000 0.000000 0.000000
# 2 -0.003236 0.015241 -0.003928 0.000000 0.000000 0.000000
# 3 -0.002110 -0.003928 0.015348 0.000000 0.000000 0.000000
# 4 0.000000 0.000000 0.000000 0.049713 0.000000 0.000000
# 5 0.000000 0.000000 0.000000 0.000000 0.037308 0.000000
# 6 0.000000 0.000000 0.000000 0.000000 0.000000 0.042119
#
#
# Mechanical properties :
#
#
# Convention : Reuss Voigt Hill
#
# Bulk Modulus (GPa) = 27.42271 29.93835 28.68053
# Shear Modulus (GPa) = 23.27151 23.96044 23.61598
#
# Velocity S-wave (km/s) = 3.38666 3.43642 3.41163
# Velocity P-wave (km/s) = 5.36730 5.52273 5.44557
#
# Compressibility (1/GPa) = 0.03646613
#
# Stress axis : x y z
#
# Youngs Moduli (GPa) = 40.94240 65.61368 65.15458
#
# Poissons Ratio (x) = 0.21233 0.13745
# Poissons Ratio (y) = 0.13249 0.25593
# Poissons Ratio (z) = 0.08637 0.25773
#
# Static dielectric constant tensor:
#      x y z
#    x 1.729670 0.000000 0.000000 
#    y 0.000000 1.799740 0.000000 
#    z 0.000000 0.000000 1.698140 
# 
# From -- ./inp_files/25588.got.cif
#   From: 2010.05.17/outbox.cif.g08.bks.cpg/sg57_13_cif.got.tgz:25588.got - 2010.06.03 13:58:18.
