data_PCOD9436874
_publ_section_title
;
Structure prediction by ZEFSAII (Michael W. Deem and Ramdas Pophale) SiO2 
 PCOD9436874
Probable space group: P B C M
;
_chemical_formula_sum "Si O2"
_cell_formula_units_Z 48
_cell_length_a 32.072043
_cell_length_b 9.558573
_cell_length_c 8.664742
_cell_angle_alpha 90.000000
_cell_angle_beta 90.000000
_cell_angle_gamma 90.000000
_cell_volume 2656.288992
_symmetry_space_group_name_H-M "P B C M"
_symmetry_group_IT_number 57
_symmetry_cell_setting 'orthorhombic'
loop_
_space_group_symop_operation_xyz
x,y,z
-x,-y,1/2+z
x,1/2-y,-z
-x,1/2+y,1/2-z
-x,-y,-z
x,y,1/2-z
-x,1/2+y,z
x,1/2-y,1/2+z
loop_
_atom_site_type_symbol
_atom_site_label
_atom_site_fract_x
_atom_site_fract_y
_atom_site_fract_z
Si Si1 0.036677 0.094487 0.565031
Si Si2 0.462879 0.092767 0.565272
Si Si3 0.869414 0.594206 0.564206
Si Si4 0.208777 0.593238 0.064008
Si Si5 0.370784 0.091946 0.935168
Si Si6 0.715832 0.591440 0.065544
O O1 0.031490 0.250000 0.500000
O O2 0.034691 0.096147 0.750000
O O3 0.083692 0.049100 0.518839
O O4 0.000000 0.000000 0.500000
O O5 0.465826 0.250000 0.500000
O O6 0.465457 0.099366 0.750000
O O7 0.416607 0.033061 0.526220
O O8 0.500000 0.000000 0.500000
O O9 0.861747 0.750000 0.500000
O O10 0.868428 0.603286 0.750000
O O11 0.833651 0.486803 0.515821
O O12 0.210638 0.595834 0.250000
O O13 0.209642 0.750000 0.000000
O O14 0.247287 0.503530 0.999625
O O15 0.366093 0.094504 0.750000
O O16 0.372260 0.250000 0.000000
O O17 0.328998 0.031608 0.010170
O O18 0.717067 0.597758 0.250000
O O19 0.719846 0.750000 0.000000
#
# Coordination Sequence:
#
# PCOD9436874 Si02
#       6
#     8   8   8   8   8   8
#     4  10  20  36  56  82 112 145 182 223 269 318
#     4  10  20  34  54  79 109 142 179 221 267 316
#     4   9  20  37  58  81 107 140 182 224 265 315
#     4  11  23  39  56  79 110 143 177 219 269 322
#     4   9  17  31  52  78 105 137 177 221 264 313
#     4  11  21  35  57  83 108 139 177 220 265 316
#
# _framework density 18.070323999999999
#
# number of rings (size 3 to 8) (size 9 to 14) (size 15 to 20)
#    0.000    2.000    0.000    5.000    0.000    6.000 
#    0.000    2.500    0.000    4.000    0.000    0.000 
#    0.000    0.000    0.000    0.000    0.000    0.000 
#
# Total GULP energy -267860.013149 kJ/mol
# GULP energy per Si atom -5580.416941 kJ/mol
# Density = 1.802920 g / cm^3
# Si number density = 18.070324 Si / 1000 Ang^3
#
#
#
# Elastic Constant Matrix: (Units=GPa)
#
#
# Indices 1 2 3 4 5 6 
#
# 1 217.8471 102.1426 71.8968 0.0000 0.0000 0.0000
# 2 102.1426 86.3885 40.0864 0.0000 0.0000 0.0000
# 3 71.8968 40.0864 86.9376 0.0000 0.0000 0.0000
# 4 0.0000 0.0000 0.0000 30.9349 0.0000 0.0000
# 5 0.0000 0.0000 0.0000 0.0000 27.6351 0.0000
# 6 0.0000 0.0000 0.0000 0.0000 0.0000 30.6661
#
#
#
# Elastic Compliance Matrix: (Units=1/GPa)
#
#
# Indices 1 2 3 4 5 6 
#
# 1 0.011326 -0.011507 -0.004061 0.000000 0.000000 0.000000
# 2 -0.011507 0.026418 -0.002665 0.000000 0.000000 0.000000
# 3 -0.004061 -0.002665 0.016089 0.000000 0.000000 0.000000
# 4 0.000000 0.000000 0.000000 0.032326 0.000000 0.000000
# 5 0.000000 0.000000 0.000000 0.000000 0.036186 0.000000
# 6 0.000000 0.000000 0.000000 0.000000 0.000000 0.032609
#
#
# Mechanical properties :
#
#
# Convention : Reuss Voigt Hill
#
# Bulk Modulus (GPa) = 57.57713 91.04720 74.31217
# Shear Modulus (GPa) = 25.35394 29.65038 27.50216
#
# Velocity S-wave (km/s) = 3.74982 4.05511 3.90545
# Velocity P-wave (km/s) = 7.11900 8.50997 7.84537
#
# Compressibility (1/GPa) = 0.01736801
#
# Stress axis : x y z
#
# Youngs Moduli (GPa) = 88.29357 37.85343 62.15322
#
# Poissons Ratio (x) = 0.43558 0.25238
# Poissons Ratio (y) = 1.01600 0.16562
# Poissons Ratio (z) = 0.35852 0.10087
#
# Static dielectric constant tensor:
#      x y z
#    x 1.656830 0.000000 0.000000 
#    y 0.000000 1.573340 0.000000 
#    z 0.000000 0.000000 1.609930 
# 
# From -- ./inp_files/9908.got.cif
#   From: 2010.05.17/outbox.cif.g08.bks.cpg/sg57_5_cif.got.tgz:9908.got - 2010.06.03 13:58:18.
