data_PCOD9436045
_publ_section_title
;
Structure prediction by ZEFSAII (Michael W. Deem and Ramdas Pophale) SiO2 
 PCOD9436045
Probable space group: P B C M
;
_chemical_formula_sum "Si O2"
_cell_formula_units_Z 44
_cell_length_a 8.550417
_cell_length_b 23.612649
_cell_length_c 9.896677
_cell_angle_alpha 90.000000
_cell_angle_beta 90.000000
_cell_angle_gamma 90.000000
_cell_volume 1998.119248
_symmetry_space_group_name_H-M "P B C M"
_symmetry_group_IT_number 57
_symmetry_cell_setting 'orthorhombic'
loop_
_space_group_symop_operation_xyz
x,y,z
-x,-y,1/2+z
x,1/2-y,-z
-x,1/2+y,1/2-z
-x,-y,-z
x,y,1/2-z
-x,1/2+y,z
x,1/2-y,1/2+z
loop_
_atom_site_type_symbol
_atom_site_label
_atom_site_fract_x
_atom_site_fract_y
_atom_site_fract_z
Si Si1 0.865420 0.866618 0.589110
Si Si2 0.017005 0.750000 0.000000
Si Si3 0.488213 0.353363 0.898240
Si Si4 0.292585 0.816507 0.110815
Si Si5 0.361252 0.976123 0.905620
Si Si6 0.107942 0.934093 0.094009
O O1 0.884615 0.880024 0.750000
O O2 0.921267 0.801883 0.562958
O O3 0.966065 0.907481 0.492597
O O4 0.683364 0.869400 0.550332
O O5 0.139683 0.778068 0.102690
O O6 0.464325 0.328981 0.750000
O O7 0.588072 0.410757 0.887821
O O8 0.589740 0.312219 0.988247
O O9 0.379621 0.806938 0.250000
O O10 0.224539 0.880314 0.109615
O O11 0.349795 0.999216 0.750000
O O12 0.202970 0.976954 0.995795
O O13 0.500000 0.000000 0.000000
O O14 0.074185 0.953197 0.250000
#
# Coordination Sequence:
#
# PCOD9436045 Si02
#       6
#     8   4   8   8   8   8
#     4  10  20  36  55  76 107 142 176 216 265 315
#     4  10  20  32  52  78 102 136 178 216 252 306
#     4   9  20  36  54  77 105 137 171 215 268 316
#     4   9  18  32  50  72  99 132 171 211 250 297
#     4  10  19  34  57  82 107 138 179 222 266 320
#     4   9  18  33  53  78 106 137 173 213 261 313
#
# _framework density 22.020707000000002
#
# number of rings (size 3 to 8) (size 9 to 14) (size 15 to 20)
#    0.000    2.545    0.000    1.636    0.000    8.000 
#    0.000    2.727    0.000    0.000    0.000    0.000 
#    0.000    0.000    0.000    0.000    0.000    0.000 
#
# Total GULP energy -245265.077203 kJ/mol
# GULP energy per Si atom -5574.206300 kJ/mol
# Density = 2.197059 g / cm^3
# Si number density = 22.020707 Si / 1000 Ang^3
#
#
#
# Elastic Constant Matrix: (Units=GPa)
#
#
# Indices 1 2 3 4 5 6 
#
# 1 88.4803 -0.1269 42.8112 0.0000 0.0000 0.0000
# 2 -0.1269 52.6410 21.2235 0.0000 0.0000 0.0000
# 3 42.8112 21.2235 126.6298 0.0000 0.0000 0.0000
# 4 0.0000 0.0000 0.0000 -18.9120 0.0000 0.0000
# 5 0.0000 0.0000 0.0000 0.0000 50.1075 0.0000
# 6 0.0000 0.0000 0.0000 0.0000 0.0000 37.2137
#
#
#
# Elastic Compliance Matrix: (Units=1/GPa)
#
#
# Indices 1 2 3 4 5 6 
#
# 1 0.013714 0.002040 -0.004978 0.000000 0.000000 0.000000
# 2 0.002040 0.020677 -0.004155 0.000000 0.000000 0.000000
# 3 -0.004978 -0.004155 0.010277 0.000000 0.000000 0.000000
# 4 0.000000 0.000000 0.000000 -0.052876 0.000000 0.000000
# 5 0.000000 0.000000 0.000000 0.000000 0.019957 0.000000
# 6 0.000000 0.000000 0.000000 0.000000 0.000000 0.026872
#
#
# Mechanical properties :
#
#
# Convention : Reuss Voigt Hill
#
# Bulk Modulus (GPa) = 32.80808 43.95185 38.37996
# Shear Modulus (GPa) = 79.40775 27.27139 53.33957
#
# Velocity S-wave (km/s) = 6.01155 3.52297 4.92697
# Velocity P-wave (km/s) = 7.94457 6.04575 7.05929
#
# Compressibility (1/GPa) = 0.03048030
#
# Stress axis : x y z
#
# Youngs Moduli (GPa) = 72.92024 48.36337 97.30918
#
# Poissons Ratio (x) = -0.09867 0.48443
# Poissons Ratio (y) = -0.14877 0.40434
# Poissons Ratio (z) = 0.36302 0.20096
#
# Static dielectric constant tensor:
#      x y z
#    x 1.762770 0.000000 0.000000 
#    y 0.000000 1.859300 0.000000 
#    z 0.000000 0.000000 1.816140 
# 
# From -- ./inp_files/1901.got.cif
#   From: 2010.05.17/outbox.cif.g08.bks.cpg/sg57_1_cif.got.tgz:1901.got - 2010.06.03 13:58:18.
