data_PCOD9436759
_publ_section_title
;
Structure prediction by ZEFSAII (Michael W. Deem and Ramdas Pophale) SiO2 
 PCOD9436759
Probable space group: P B C M
;
_chemical_formula_sum "Si O2"
_cell_formula_units_Z 56
_cell_length_a 20.576126
_cell_length_b 15.907676
_cell_length_c 9.269704
_cell_angle_alpha 90.000000
_cell_angle_beta 90.000000
_cell_angle_gamma 90.000000
_cell_volume 3034.144179
_symmetry_space_group_name_H-M "P B C M"
_symmetry_group_IT_number 57
_symmetry_cell_setting 'orthorhombic'
loop_
_space_group_symop_operation_xyz
x,y,z
-x,-y,1/2+z
x,1/2-y,-z
-x,1/2+y,1/2-z
-x,-y,-z
x,y,1/2-z
-x,1/2+y,z
x,1/2-y,1/2+z
loop_
_atom_site_type_symbol
_atom_site_label
_atom_site_fract_x
_atom_site_fract_y
_atom_site_fract_z
Si Si1 0.167166 0.160991 0.576706
Si Si2 0.565747 0.507829 0.911296
Si Si3 0.742688 0.382779 0.077957
Si Si4 0.932770 0.988610 0.417385
Si Si5 0.292476 0.054703 0.576086
Si Si6 0.380882 0.819656 0.586006
Si Si7 0.129792 0.673531 0.081352
O O1 0.154341 0.250000 0.500000
O O2 0.161218 0.170552 0.750000
O O3 0.117028 0.085459 0.532810
O O4 0.241579 0.129760 0.548650
O O5 0.550911 0.538820 0.750000
O O6 0.630486 0.558830 0.962814
O O7 0.588476 0.411259 0.904258
O O8 0.500000 0.500000 0.000000
O O9 0.745217 0.384851 0.250000
O O10 0.736090 0.475675 0.010300
O O11 0.680336 0.334834 0.017345
O O12 0.804739 0.339245 0.008768
O O13 0.946403 0.969557 0.250000
O O14 0.901330 0.081186 0.424144
O O15 0.000000 0.000000 0.500000
O O16 0.290709 0.037100 0.750000
O O17 0.422032 0.750000 0.500000
O O18 0.364989 0.794364 0.750000
O O19 0.140496 0.694073 0.250000
O O20 0.093268 0.750000 0.000000
#
# Coordination Sequence:
#
# PCOD9436759 Si02
#       7
#     8   8   8   8   8   8   8
#     4  10  21  40  64  90 119 157 203 252 304 357
#     4   9  19  34  55  79 109 150 188 234 288 347
#     4  11  20  31  53  84 113 144 181 227 279 337
#     4  10  23  42  63  84 117 158 195 244 301 357
#     4   9  18  37  59  80 114 155 194 239 297 349
#     4  10  20  34  51  75 107 144 182 225 278 336
#     4  11  22  38  57  82 116 153 188 230 284 345
#
# _framework density 18.456605
#
# number of rings (size 3 to 8) (size 9 to 14) (size 15 to 20)
#    0.000    2.000    1.429    3.429    0.000    5.714 
#    0.000    3.571    0.000    3.429    0.000    0.000 
#    0.000    0.000    0.000    0.000    0.000    0.000 
#
# Total GULP energy -311848.118202 kJ/mol
# GULP energy per Si atom -5568.716396 kJ/mol
# Density = 1.841460 g / cm^3
# Si number density = 18.456605 Si / 1000 Ang^3
#
#
#
# Elastic Constant Matrix: (Units=GPa)
#
#
# Indices 1 2 3 4 5 6 
#
# 1 109.0071 35.6802 47.8958 0.0000 0.0000 0.0000
# 2 35.6802 98.4452 43.8876 0.0000 0.0000 0.0000
# 3 47.8958 43.8876 93.5398 0.0000 0.0000 0.0000
# 4 0.0000 0.0000 0.0000 35.1024 0.0000 0.0000
# 5 0.0000 0.0000 0.0000 0.0000 27.8183 0.0000
# 6 0.0000 0.0000 0.0000 0.0000 0.0000 1.7132
#
#
#
# Elastic Compliance Matrix: (Units=1/GPa)
#
#
# Indices 1 2 3 4 5 6 
#
# 1 0.012159 -0.002063 -0.005258 0.000000 0.000000 0.000000
# 2 -0.002063 0.013195 -0.005134 0.000000 0.000000 0.000000
# 3 -0.005258 -0.005134 0.015792 0.000000 0.000000 0.000000
# 4 0.000000 0.000000 0.000000 0.028488 0.000000 0.000000
# 5 0.000000 0.000000 0.000000 0.000000 0.035948 0.000000
# 6 0.000000 0.000000 0.000000 0.000000 0.000000 0.583686
#
#
# Mechanical properties :
#
#
# Convention : Reuss Voigt Hill
#
# Bulk Modulus (GPa) = 61.59545 61.76881 61.68213
# Shear Modulus (GPa) = 6.94840 24.49536 15.72188
#
# Velocity S-wave (km/s) = 1.94239 3.64701 2.92178
# Velocity P-wave (km/s) = 6.20291 7.16058 6.69888
#
# Compressibility (1/GPa) = 0.01623497
#
# Stress axis : x y z
#
# Youngs Moduli (GPa) = 82.24195 75.78879 63.32326
#
# Poissons Ratio (x) = 0.15634 0.33296
# Poissons Ratio (y) = 0.16965 0.32513
# Poissons Ratio (z) = 0.43244 0.38913
#
# Static dielectric constant tensor:
#      x y z
#    x 1.665880 0.000000 0.000000 
#    y 0.000000 1.718060 0.000000 
#    z 0.000000 0.000000 1.645660 
# 
# From -- ./inp_files/8000.got.cif
#   From: 2010.05.17/outbox.cif.g08.bks.cpg/sg57_4_cif.got.tgz:8000.got - 2010.06.03 13:58:18.
