data_PCOD9436358
_publ_section_title
;
Structure prediction by ZEFSAII (Michael W. Deem and Ramdas Pophale) SiO2 
 PCOD9436358
Probable space group: P B C M
;
_chemical_formula_sum "Si O2"
_cell_formula_units_Z 32
_cell_length_a 6.808280
_cell_length_b 17.331406
_cell_length_c 11.756898
_cell_angle_alpha 90.000000
_cell_angle_beta 90.000000
_cell_angle_gamma 90.000000
_cell_volume 1387.279456
_symmetry_space_group_name_H-M "P B C M"
_symmetry_group_IT_number 57
_symmetry_cell_setting 'orthorhombic'
loop_
_space_group_symop_operation_xyz
x,y,z
-x,-y,1/2+z
x,1/2-y,-z
-x,1/2+y,1/2-z
-x,-y,-z
x,y,1/2-z
-x,1/2+y,z
x,1/2-y,1/2+z
loop_
_atom_site_type_symbol
_atom_site_label
_atom_site_fract_x
_atom_site_fract_y
_atom_site_fract_z
Si Si1 0.686353 0.541395 0.054995
Si Si2 0.242014 0.294802 0.621023
Si Si3 0.812154 0.250124 0.375266
Si Si4 0.009335 0.579072 0.868565
O O1 0.647637 0.623049 0.115559
O O2 0.806702 0.478084 0.124674
O O3 0.500000 0.500000 0.000000
O O4 0.847026 0.564921 0.961534
O O5 0.279745 0.250000 0.500000
O O6 0.276055 0.260309 0.750000
O O7 0.003428 0.305417 0.619348
O O8 0.709521 0.250000 0.500000
O O9 0.716876 0.237483 0.250000
O O10 0.905764 0.335254 0.371705
O O11 0.903561 0.566065 0.750000
#
# Coordination Sequence:
#
# PCOD9436358 Si02
#       4
#     8   8   8   8
#     4  11  23  39  62  93 129 168 218 273 328 392
#     4  10  19  36  62  91 125 170 213 262 328 393
#     4   9  16  32  59  86 116 161 209 253 314 378
#     4  10  21  39  62  89 123 166 213 266 323 385
#
# _framework density 23.066728000000001
#
# number of rings (size 3 to 8) (size 9 to 14) (size 15 to 20)
#    0.000    2.000    5.000    0.750    0.000    2.000 
#    0.000    1.250    0.000    3.000    0.000    0.000 
#    0.000    0.000    0.000    0.000    0.000    0.000 
#
# Total GULP energy -178169.945209 kJ/mol
# GULP energy per Si atom -5567.810788 kJ/mol
# Density = 2.301423 g / cm^3
# Si number density = 23.066728 Si / 1000 Ang^3
#
#
#
# Elastic Constant Matrix: (Units=GPa)
#
#
# Indices 1 2 3 4 5 6 
#
# 1 68.1144 4.8968 26.4949 0.0000 0.0000 0.0000
# 2 4.8968 78.7900 27.4681 0.0000 0.0000 0.0000
# 3 26.4949 27.4681 234.1887 0.0000 0.0000 0.0000
# 4 0.0000 0.0000 0.0000 13.6789 0.0000 0.0000
# 5 0.0000 0.0000 0.0000 0.0000 -11.3125 0.0000
# 6 0.0000 0.0000 0.0000 0.0000 0.0000 14.2541
#
#
#
# Elastic Compliance Matrix: (Units=1/GPa)
#
#
# Indices 1 2 3 4 5 6 
#
# 1 0.015367 -0.000364 -0.001696 0.000000 0.000000 0.000000
# 2 -0.000364 0.013242 -0.001512 0.000000 0.000000 0.000000
# 3 -0.001696 -0.001512 0.004639 0.000000 0.000000 0.000000
# 4 0.000000 0.000000 0.000000 0.073106 0.000000 0.000000
# 5 0.000000 0.000000 0.000000 0.000000 -0.088398 0.000000
# 6 0.000000 0.000000 0.000000 0.000000 0.000000 0.070155
#
#
# Mechanical properties :
#
#
# Convention : Reuss Voigt Hill
#
# Bulk Modulus (GPa) = 38.30741 55.42361 46.86551
# Shear Modulus (GPa) = 48.09728 24.80630 36.45179
#
# Velocity S-wave (km/s) = 4.57128 3.28291 3.97958
# Velocity P-wave (km/s) = 6.67124 6.20078 6.44031
#
# Compressibility (1/GPa) = 0.02610461
#
# Stress axis : x y z
#
# Youngs Moduli (GPa) = 65.07450 75.51905 215.55156
#
# Poissons Ratio (x) = 0.02748 0.36555
# Poissons Ratio (y) = 0.02368 0.32590
# Poissons Ratio (z) = 0.11036 0.11418
#
# Static dielectric constant tensor:
#      x y z
#    x 1.830700 0.000000 0.000000 
#    y 0.000000 2.137290 0.000000 
#    z 0.000000 0.000000 2.007600 
# 
# From -- ./inp_files/11504.got.cif
#   From: 2010.05.17/outbox.cif.g08.bks.cpg/sg57_6_cif.got.tgz:11504.got - 2010.06.03 13:58:18.
