data_PCOD9436955
_publ_section_title
;
Structure prediction by ZEFSAII (Michael W. Deem and Ramdas Pophale) SiO2 
 PCOD9436955
Probable space group: P B C M
;
_chemical_formula_sum "Si O2"
_cell_formula_units_Z 64
_cell_length_a 12.242954
_cell_length_b 31.951010
_cell_length_c 8.418133
_cell_angle_alpha 90.000000
_cell_angle_beta 90.000000
_cell_angle_gamma 90.000000
_cell_volume 3292.961035
_symmetry_space_group_name_H-M "P B C M"
_symmetry_group_IT_number 57
_symmetry_cell_setting 'orthorhombic'
loop_
_space_group_symop_operation_xyz
x,y,z
-x,-y,1/2+z
x,1/2-y,-z
-x,1/2+y,1/2-z
-x,-y,-z
x,y,1/2-z
-x,1/2+y,z
x,1/2-y,1/2+z
loop_
_atom_site_type_symbol
_atom_site_label
_atom_site_fract_x
_atom_site_fract_y
_atom_site_fract_z
Si Si1 0.235644 0.047677 0.557832
Si Si2 0.233087 0.794774 0.939968
Si Si3 0.767059 0.454243 0.558660
Si Si4 0.624163 0.625518 0.441888
Si Si5 0.999785 0.323690 0.059716
Si Si6 0.626871 0.374892 0.555738
Si Si7 0.233995 0.204798 0.439874
Si Si8 0.996732 0.078586 0.941581
O O1 0.238097 0.048782 0.750000
O O2 0.314819 0.083627 0.495678
O O3 0.111330 0.058281 0.508214
O O4 0.264372 0.000771 0.503839
O O5 0.232961 0.794758 0.750000
O O6 0.306507 0.833812 0.995645
O O7 0.273663 0.750000 0.000000
O O8 0.109704 0.801962 0.998711
O O9 0.761918 0.454300 0.750000
O O10 0.689368 0.416744 0.501299
O O11 0.890950 0.444012 0.510375
O O12 0.624174 0.626422 0.250000
O O13 0.498668 0.626233 0.495763
O O14 0.691442 0.666233 0.498040
O O15 0.002062 0.321768 0.250000
O O16 0.996374 0.372571 0.010658
O O17 0.110136 0.303314 0.995120
O O18 0.627918 0.375109 0.750000
O O19 0.271438 0.250000 0.500000
O O20 0.236260 0.204884 0.250000
O O21 0.991005 0.076878 0.750000
#
# Coordination Sequence:
#
# PCOD9436955 Si02
#       8
#     8   8   8   8   8   8   8   8
#     4  10  21  37  57  86 118 149 185 233 285 331
#     4  11  22  38  60  85 116 150 188 233 282 339
#     4  10  20  36  60  85 114 151 190 228 279 342
#     4  10  22  40  60  81 110 150 194 233 278 335
#     4  11  21  36  59  85 117 150 183 229 281 338
#     4   9  20  39  59  81 111 149 190 235 280 329
#     4  11  23  38  59  85 112 147 187 230 280 337
#     4  10  20  34  55  84 119 148 180 231 285 332
#
# _framework density 19.435396999999998
#
# number of rings (size 3 to 8) (size 9 to 14) (size 15 to 20)
#    0.000    1.750    2.500    1.875    0.000    3.000 
#    0.000    1.875    0.000    0.000    0.000    0.000 
#    0.000    0.000    0.000    0.000    0.000    0.000 
#
# Total GULP energy -357620.337443 kJ/mol
# GULP energy per Si atom -5587.817773 kJ/mol
# Density = 1.939116 g / cm^3
# Si number density = 19.435397 Si / 1000 Ang^3
#
#
#
# Elastic Constant Matrix: (Units=GPa)
#
#
# Indices 1 2 3 4 5 6 
#
# 1 157.9646 92.4916 14.7039 0.0000 0.0000 0.0000
# 2 92.4916 204.7397 25.7140 0.0000 0.0000 0.0000
# 3 14.7039 25.7140 17.4406 0.0000 0.0000 0.0000
# 4 0.0000 0.0000 0.0000 25.5202 0.0000 0.0000
# 5 0.0000 0.0000 0.0000 0.0000 -2.9011 0.0000
# 6 0.0000 0.0000 0.0000 0.0000 0.0000 20.8786
#
#
#
# Elastic Compliance Matrix: (Units=1/GPa)
#
#
# Indices 1 2 3 4 5 6 
#
# 1 0.008657 -0.003675 -0.001881 0.000000 0.000000 0.000000
# 2 -0.003675 0.007554 -0.008039 0.000000 0.000000 0.000000
# 3 -0.001881 -0.008039 0.070776 0.000000 0.000000 0.000000
# 4 0.000000 0.000000 0.000000 0.039185 0.000000 0.000000
# 5 0.000000 0.000000 0.000000 0.000000 -0.344697 0.000000
# 6 0.000000 0.000000 0.000000 0.000000 0.000000 0.047896
#
#
# Mechanical properties :
#
#
# Convention : Reuss Voigt Hill
#
# Bulk Modulus (GPa) = 16.72313 71.77377 44.24845
# Shear Modulus (GPa) = -40.48339 25.18191 -7.65074
#
# Velocity S-wave (km/s) = -4.56891 3.60345 -1.98621
# Velocity P-wave (km/s) = 4.38293 7.37039 4.19002
#
# Compressibility (1/GPa) = 0.05979741
#
# Stress axis : x y z
#
# Youngs Moduli (GPa) = 115.51047 132.38055 14.12908
#
# Poissons Ratio (x) = 0.48646 0.02658
# Poissons Ratio (y) = 0.42446 0.11359
# Poissons Ratio (z) = 0.21727 1.06425
#
# Static dielectric constant tensor:
#      x y z
#    x 1.641840 0.000000 0.000000 
#    y 0.000000 1.686400 0.000000 
#    z 0.000000 0.000000 1.668220 
# 
# From -- ./inp_files/3738.got.cif
#   From: 2010.05.17/outbox.cif.g08.bks.cpg/sg57_2_cif.got.tgz:3738.got - 2010.06.03 13:58:18.
