data_PCOD9436618
_publ_section_title
;
Structure prediction by ZEFSAII (Michael W. Deem and Ramdas Pophale) SiO2 
 PCOD9436618
Probable space group: P B C M
;
_chemical_formula_sum "Si O2"
_cell_formula_units_Z 64
_cell_length_a 29.506503
_cell_length_b 12.559322
_cell_length_c 8.926218
_cell_angle_alpha 90.000000
_cell_angle_beta 90.000000
_cell_angle_gamma 90.000000
_cell_volume 3307.892793
_symmetry_space_group_name_H-M "P B C M"
_symmetry_group_IT_number 57
_symmetry_cell_setting 'orthorhombic'
loop_
_space_group_symop_operation_xyz
x,y,z
-x,-y,1/2+z
x,1/2-y,-z
-x,1/2+y,1/2-z
-x,-y,-z
x,y,1/2-z
-x,1/2+y,z
x,1/2-y,1/2+z
loop_
_atom_site_type_symbol
_atom_site_label
_atom_site_fract_x
_atom_site_fract_y
_atom_site_fract_z
Si Si1 0.807675 0.358237 0.429555
Si Si2 0.517564 0.121053 0.066260
Si Si3 0.288694 0.559228 0.925314
Si Si4 0.376490 0.863112 0.572714
Si Si5 0.151616 0.068706 0.921750
Si Si6 0.938124 0.909469 0.925195
Si Si7 0.967178 0.351432 0.424831
Si Si8 0.748621 0.644254 0.922790
O O1 0.825667 0.250000 0.500000
O O2 0.811026 0.358573 0.250000
O O3 0.753947 0.366900 0.471173
O O4 0.833369 0.460461 0.494832
O O5 0.509328 0.124081 0.250000
O O6 0.571376 0.110656 0.037390
O O7 0.506599 0.250000 0.000000
O O8 0.500000 0.000000 0.000000
O O9 0.296519 0.574953 0.750000
O O10 0.336194 0.566221 0.009425
O O11 0.268316 0.446394 0.967485
O O12 0.366755 0.750000 0.500000
O O13 0.372669 0.857310 0.750000
O O14 0.139658 0.044090 0.750000
O O15 0.196829 0.139351 0.921540
O O16 0.108885 0.121954 0.000566
O O17 0.939065 0.883852 0.750000
O O18 0.941404 0.037664 0.944271
O O19 0.983275 0.866136 0.002280
O O20 0.944354 0.250000 0.500000
O O21 0.972594 0.331801 0.250000
O O22 0.733944 0.629412 0.750000
O O23 0.731976 0.750000 0.000000
#
# Coordination Sequence:
#
# PCOD9436618 Si02
#       8
#     8   8   8   8   8   8   8   8
#     4  10  20  33  50  74 104 137 172 210 256 308
#     4  10  21  38  61  89 123 163 207 258 315 375
#     4  10  20  34  54  79 108 142 180 225 274 324
#     4  10  20  34  55  84 116 151 193 239 290 348
#     4  10  21  36  54  76 103 135 171 211 254 304
#     4  10  21  37  56  78 105 133 165 207 250 299
#     4  10  21  37  57  79 102 131 164 201 250 303
#     4  10  21  37  56  77 104 140 180 223 270 320
#
# _framework density 19.347664999999999
#
# number of rings (size 3 to 8) (size 9 to 14) (size 15 to 20)
#    0.000    2.000    0.000    3.375    0.000    8.000 
#    0.000    3.125    0.000    3.000    0.000    0.000 
#    0.000    0.000    0.000    0.000    0.000    0.000 
#
# Total GULP energy -356335.927362 kJ/mol
# GULP energy per Si atom -5567.748865 kJ/mol
# Density = 1.930363 g / cm^3
# Si number density = 19.347665 Si / 1000 Ang^3
#
#
#
# Elastic Constant Matrix: (Units=GPa)
#
#
# Indices 1 2 3 4 5 6 
#
# 1 69.2218 3.6134 20.3112 0.0000 0.0000 0.0000
# 2 3.6134 81.6821 25.5494 0.0000 0.0000 0.0000
# 3 20.3112 25.5494 36.9389 0.0000 0.0000 0.0000
# 4 0.0000 0.0000 0.0000 28.6864 0.0000 0.0000
# 5 0.0000 0.0000 0.0000 0.0000 70.3519 0.0000
# 6 0.0000 0.0000 0.0000 0.0000 0.0000 -26.8952
#
#
#
# Elastic Compliance Matrix: (Units=1/GPa)
#
#
# Indices 1 2 3 4 5 6 
#
# 1 0.017745 0.002893 -0.011758 0.000000 0.000000 0.000000
# 2 0.002893 0.016094 -0.012722 0.000000 0.000000 0.000000
# 3 -0.011758 -0.012722 0.042337 0.000000 0.000000 0.000000
# 4 0.000000 0.000000 0.000000 0.034860 0.000000 0.000000
# 5 0.000000 0.000000 0.000000 0.000000 0.014214 0.000000
# 6 0.000000 0.000000 0.000000 0.000000 0.000000 -0.037181
#
#
# Mechanical properties :
#
#
# Convention : Reuss Voigt Hill
#
# Bulk Modulus (GPa) = 30.30254 31.86565 31.08410
# Shear Modulus (GPa) = 35.15053 23.65321 29.40187
#
# Velocity S-wave (km/s) = 4.26700 3.50027 3.90251
# Velocity P-wave (km/s) = 6.32238 5.73076 6.03383
#
# Compressibility (1/GPa) = 0.03300053
#
# Stress axis : x y z
#
# Youngs Moduli (GPa) = 56.35233 62.13465 23.62001
#
# Poissons Ratio (x) = -0.17975 0.27774
# Poissons Ratio (y) = -0.16302 0.30050
# Poissons Ratio (z) = 0.66262 0.79051
#
# Static dielectric constant tensor:
#      x y z
#    x 1.683120 0.000000 0.000000 
#    y 0.000000 1.787950 0.000000 
#    z 0.000000 0.000000 1.666500 
# 
# From -- ./inp_files/10276.got.cif
#   From: 2010.05.17/outbox.cif.g08.bks.cpg/sg57_6_cif.got.tgz:10276.got - 2010.06.03 13:58:18.
