data_PCOD9436302
_publ_section_title
;
Structure prediction by ZEFSAII (Michael W. Deem and Ramdas Pophale) SiO2 
 PCOD9436302
Probable space group: P B C M
;
_chemical_formula_sum "Si O2"
_cell_formula_units_Z 36
_cell_length_a 11.879081
_cell_length_b 10.511118
_cell_length_c 14.827908
_cell_angle_alpha 90.000000
_cell_angle_beta 90.000000
_cell_angle_gamma 90.000000
_cell_volume 1851.448508
_symmetry_space_group_name_H-M "P B C M"
_symmetry_group_IT_number 57
_symmetry_cell_setting 'orthorhombic'
loop_
_space_group_symop_operation_xyz
x,y,z
-x,-y,1/2+z
x,1/2-y,-z
-x,1/2+y,1/2-z
-x,-y,-z
x,y,1/2-z
-x,1/2+y,z
x,1/2-y,1/2+z
loop_
_atom_site_type_symbol
_atom_site_label
_atom_site_fract_x
_atom_site_fract_y
_atom_site_fract_z
Si Si1 0.718847 0.856899 0.079022
Si Si2 0.765528 0.049627 0.574713
Si Si3 0.934235 0.250000 0.500000
Si Si4 0.896986 0.679728 0.151509
Si Si5 0.523414 0.124169 0.561874
O O1 0.818926 0.805373 0.140479
O O2 0.712097 0.750000 0.000000
O O3 0.592448 0.637785 0.881792
O O4 0.747988 0.984633 0.024439
O O5 0.855506 0.159351 0.559104
O O6 0.643934 0.099242 0.606622
O O7 0.815289 0.940642 0.638154
O O8 0.015384 0.322983 0.569557
O O9 0.950146 0.677795 0.250000
O O10 0.535599 0.250000 0.500000
O O11 0.500000 0.000000 0.500000
#
# Coordination Sequence:
#
# PCOD9436302 Si02
#       5
#     8   8   4   8   8
#     4   8  16  34  57  84 113 143 185 235 293 355
#     4  10  19  36  58  85 114 146 198 243 293 344
#     4  12  22  38  58  84 120 156 202 244 288 348
#     4  11  23  38  58  82 118 162 197 238 293 353
#     4   9  16  30  59  90 113 146 188 240 299 361
#
# _framework density 19.444234999999999
#
# number of rings (size 3 to 8) (size 9 to 14) (size 15 to 20)
#    0.000    2.222    4.444    2.000    0.000    0.889 
#    0.000    1.111    0.000    0.000    0.000    0.000 
#    0.000    0.000    0.000    0.000    0.000    0.000 
#
# Total GULP energy -200532.783645 kJ/mol
# GULP energy per Si atom -5570.355101 kJ/mol
# Density = 1.939998 g / cm^3
# Si number density = 19.444235 Si / 1000 Ang^3
#
#
#
# Elastic Constant Matrix: (Units=GPa)
#
#
# Indices 1 2 3 4 5 6 
#
# 1 88.2556 -2.6573 -0.8491 0.0000 0.0000 0.0000
# 2 -2.6573 54.3796 -16.2623 0.0000 0.0000 0.0000
# 3 -0.8491 -16.2623 45.2889 0.0000 0.0000 0.0000
# 4 0.0000 0.0000 0.0000 6.0177 0.0000 0.0000
# 5 0.0000 0.0000 0.0000 0.0000 2.5410 0.0000
# 6 0.0000 0.0000 0.0000 0.0000 0.0000 23.6703
#
#
#
# Elastic Compliance Matrix: (Units=1/GPa)
#
#
# Indices 1 2 3 4 5 6 
#
# 1 0.011356 0.000693 0.000462 0.000000 0.000000 0.000000
# 2 0.000693 0.020644 0.007426 0.000000 0.000000 0.000000
# 3 0.000462 0.007426 0.024756 0.000000 0.000000 0.000000
# 4 0.000000 0.000000 0.000000 0.166175 0.000000 0.000000
# 5 0.000000 0.000000 0.000000 0.000000 0.393546 0.000000
# 6 0.000000 0.000000 0.000000 0.000000 0.000000 0.042247
#
#
# Mechanical properties :
#
#
# Convention : Reuss Voigt Hill
#
# Bulk Modulus (GPa) = 13.52883 16.48744 15.00813
# Shear Modulus (GPa) = 7.50524 20.29199 13.89862
#
# Velocity S-wave (km/s) = 1.96679 3.23398 2.67646
# Velocity P-wave (km/s) = 3.48289 4.73736 4.15771
#
# Compressibility (1/GPa) = 0.07391625
#
# Stress axis : x y z
#
# Youngs Moduli (GPa) = 88.05896 48.44077 40.39504
#
# Poissons Ratio (x) = -0.03357 -0.01865
# Poissons Ratio (y) = -0.06103 -0.29996
# Poissons Ratio (z) = -0.04066 -0.35971
#
# Static dielectric constant tensor:
#      x y z
#    x 1.741270 0.000000 0.000000 
#    y 0.000000 1.675480 0.000000 
#    z 0.000000 0.000000 1.647410 
# 
# From -- ./inp_files/17326.got.cif
#   From: 2010.05.17/outbox.cif.g08.bks.cpg/sg57_9_cif.got.tgz:17326.got - 2010.06.03 13:58:18.
