data_PCOD9436806
_publ_section_title
;
Structure prediction by ZEFSAII (Michael W. Deem and Ramdas Pophale) SiO2 
 PCOD9436806
Probable space group: P B C M
;
_chemical_formula_sum "Si O2"
_cell_formula_units_Z 48
_cell_length_a 12.883809
_cell_length_b 24.151448
_cell_length_c 8.719001
_cell_angle_alpha 90.000000
_cell_angle_beta 90.000000
_cell_angle_gamma 90.000000
_cell_volume 2713.027396
_symmetry_space_group_name_H-M "P B C M"
_symmetry_group_IT_number 57
_symmetry_cell_setting 'orthorhombic'
loop_
_space_group_symop_operation_xyz
x,y,z
-x,-y,1/2+z
x,1/2-y,-z
-x,1/2+y,1/2-z
-x,-y,-z
x,y,1/2-z
-x,1/2+y,z
x,1/2-y,1/2+z
loop_
_atom_site_type_symbol
_atom_site_label
_atom_site_fract_x
_atom_site_fract_y
_atom_site_fract_z
Si Si1 0.001571 0.311023 0.065409
Si Si2 0.619314 0.809932 0.434330
Si Si3 0.795836 0.377583 0.064762
Si Si4 0.192346 0.389644 0.065061
Si Si5 0.883620 0.002724 0.566443
Si Si6 0.390963 0.810213 0.932992
O O1 0.004164 0.308198 0.250000
O O2 0.891699 0.337755 0.020593
O O3 0.094495 0.351720 0.017476
O O4 0.014571 0.250000 0.000000
O O5 0.652037 0.750000 0.500000
O O6 0.612923 0.805994 0.250000
O O7 0.703200 0.856574 0.474816
O O8 0.505754 0.821999 0.501897
O O9 0.784873 0.375440 0.250000
O O10 0.828449 0.439817 0.021287
O O11 0.691876 0.355136 0.988199
O O12 0.188441 0.395423 0.250000
O O13 0.179156 0.449521 0.991214
O O14 0.891278 0.002341 0.750000
O O15 0.000000 0.000000 0.500000
O O16 0.394620 0.806875 0.750000
O O17 0.360077 0.750000 0.000000
#
# Coordination Sequence:
#
# PCOD9436806 Si02
#       6
#     8   8   8   8   8   8
#     4  10  20  34  52  79 114 144 178 227 279 333
#     4  10  20  36  60  85 116 152 188 234 284 338
#     4  10  21  38  57  80 113 148 188 234 281 331
#     4  10  21  38  57  82 115 149 188 233 281 334
#     4  11  22  38  60  83 113 152 191 234 280 337
#     4  11  22  37  59  85 115 149 190 234 282 341
#
# _framework density 17.692413999999999
#
# number of rings (size 3 to 8) (size 9 to 14) (size 15 to 20)
#    0.000    1.667    1.667    4.500    0.000    5.333 
#    0.000    0.833    0.000    0.000    0.000    0.000 
#    0.000    0.000    0.000    0.000    0.000    0.000 
#
# Total GULP energy -268184.695124 kJ/mol
# GULP energy per Si atom -5587.181148 kJ/mol
# Density = 1.765214 g / cm^3
# Si number density = 17.692414 Si / 1000 Ang^3
#
#
#
# Elastic Constant Matrix: (Units=GPa)
#
#
# Indices 1 2 3 4 5 6 
#
# 1 95.0460 62.4206 41.4457 0.0000 0.0000 0.0000
# 2 62.4206 115.5442 40.2565 0.0000 0.0000 0.0000
# 3 41.4457 40.2565 53.9836 0.0000 0.0000 0.0000
# 4 0.0000 0.0000 0.0000 33.1093 0.0000 0.0000
# 5 0.0000 0.0000 0.0000 0.0000 19.1047 0.0000
# 6 0.0000 0.0000 0.0000 0.0000 0.0000 24.7886
#
#
#
# Elastic Compliance Matrix: (Units=1/GPa)
#
#
# Indices 1 2 3 4 5 6 
#
# 1 0.019375 -0.007139 -0.009551 0.000000 0.000000 0.000000
# 2 -0.007139 0.014323 -0.005200 0.000000 0.000000 0.000000
# 3 -0.009551 -0.005200 0.029735 0.000000 0.000000 0.000000
# 4 0.000000 0.000000 0.000000 0.030203 0.000000 0.000000
# 5 0.000000 0.000000 0.000000 0.000000 0.052343 0.000000
# 6 0.000000 0.000000 0.000000 0.000000 0.000000 0.040341
#
#
# Mechanical properties :
#
#
# Convention : Reuss Voigt Hill
#
# Bulk Modulus (GPa) = 50.88510 61.42440 56.15475
# Shear Modulus (GPa) = 21.12819 23.43058 22.27939
#
# Velocity S-wave (km/s) = 3.45946 3.64308 3.55246
# Velocity P-wave (km/s) = 6.69183 7.24495 6.97388
#
# Compressibility (1/GPa) = 0.01965212
#
# Stress axis : x y z
#
# Youngs Moduli (GPa) = 51.61406 69.81685 33.63082
#
# Poissons Ratio (x) = 0.49843 0.32121
# Poissons Ratio (y) = 0.36848 0.17488
# Poissons Ratio (z) = 0.49297 0.36305
#
# Static dielectric constant tensor:
#      x y z
#    x 1.586770 0.000000 0.000000 
#    y 0.000000 1.581720 0.000000 
#    z 0.000000 0.000000 1.594850 
# 
# From -- ./inp_files/3139.got.cif
#   From: 2010.05.17/outbox.cif.g08.bks.cpg/sg57_2_cif.got.tgz:3139.got - 2010.06.03 13:58:18.
