data_PCOD9436187
_publ_section_title
;
Structure prediction by ZEFSAII (Michael W. Deem and Ramdas Pophale) SiO2 
 PCOD9436187
Probable space group: P B C M
;
_chemical_formula_sum "Si O2"
_cell_formula_units_Z 64
_cell_length_a 21.380680
_cell_length_b 18.183570
_cell_length_c 8.693210
_cell_angle_alpha 90.000000
_cell_angle_beta 90.000000
_cell_angle_gamma 90.000000
_cell_volume 3379.720899
_symmetry_space_group_name_H-M "P B C M"
_symmetry_group_IT_number 57
_symmetry_cell_setting 'orthorhombic'
loop_
_space_group_symop_operation_xyz
x,y,z
-x,-y,1/2+z
x,1/2-y,-z
-x,1/2+y,1/2-z
-x,-y,-z
x,y,1/2-z
-x,1/2+y,z
x,1/2-y,1/2+z
loop_
_atom_site_type_symbol
_atom_site_label
_atom_site_fract_x
_atom_site_fract_y
_atom_site_fract_z
Si Si1 0.003813 0.583058 0.434747
Si Si2 0.859769 0.434512 0.563561
Si Si3 0.750038 0.328930 0.563809
Si Si4 0.378718 0.898450 0.565220
Si Si5 0.644337 0.929904 0.434953
Si Si6 0.750833 0.828189 0.932640
Si Si7 0.875013 0.895168 0.434702
Si Si8 0.506789 0.582390 0.566262
O O1 0.998738 0.581876 0.250000
O O2 0.074717 0.605208 0.477493
O O3 0.000000 0.500000 0.500000
O O4 0.944225 0.624322 0.504599
O O5 0.857750 0.436555 0.750000
O O6 0.799264 0.390551 0.510359
O O7 0.861808 0.519867 0.515081
O O8 0.768045 0.250000 0.500000
O O9 0.750966 0.328195 0.750000
O O10 0.679772 0.349648 0.515031
O O11 0.384177 0.895914 0.750000
O O12 0.445575 0.876799 0.495359
O O13 0.361946 0.983508 0.525779
O O14 0.652653 0.925474 0.250000
O O15 0.701977 0.890342 0.514397
O O16 0.577130 0.893515 0.476220
O O17 0.753746 0.824754 0.750000
O O18 0.729903 0.750000 0.000000
O O19 0.819185 0.846809 0.999481
O O20 0.874791 0.892573 0.250000
O O21 0.500000 0.500000 0.500000
O O22 0.504420 0.578873 0.750000
#
# Coordination Sequence:
#
# PCOD9436187 Si02
#       8
#     8   8   8   8   8   8   8   8
#     4   9  16  29  51  80 108 136 173 219 268 317
#     4   8  16  32  55  77 103 139 175 213 260 311
#     4  10  20  35  51  72 103 141 179 215 258 306
#     4   9  18  33  55  79 107 141 176 214 261 313
#     4   9  18  35  57  80 104 135 172 213 260 312
#     4  12  25  39  55  77 106 140 175 216 262 316
#     4  10  19  35  58  81 105 136 173 217 267 320
#     4   9  17  30  52  80 109 136 169 213 261 309
#
# _framework density 18.936474
#
# number of rings (size 3 to 8) (size 9 to 14) (size 15 to 20)
#    0.000    2.500    0.000    4.500    0.000    5.000 
#    0.000    6.250    0.000    3.000    0.000    0.000 
#    0.000    0.000    0.000    0.000    0.000    0.000 
#
# Total GULP energy -356843.650693 kJ/mol
# GULP energy per Si atom -5575.682042 kJ/mol
# Density = 1.889337 g / cm^3
# Si number density = 18.936474 Si / 1000 Ang^3
#
#
#
# Elastic Constant Matrix: (Units=GPa)
#
#
# Indices 1 2 3 4 5 6 
#
# 1 76.3345 -6.8264 20.5529 0.0000 0.0000 0.0000
# 2 -6.8264 19.8055 4.0773 0.0000 0.0000 0.0000
# 3 20.5529 4.0773 48.6580 0.0000 0.0000 0.0000
# 4 0.0000 0.0000 0.0000 20.7242 0.0000 0.0000
# 5 0.0000 0.0000 0.0000 0.0000 34.5917 0.0000
# 6 0.0000 0.0000 0.0000 0.0000 0.0000 3.1514
#
#
#
# Elastic Compliance Matrix: (Units=1/GPa)
#
#
# Indices 1 2 3 4 5 6 
#
# 1 0.015650 0.006874 -0.007186 0.000000 0.000000 0.000000
# 2 0.006874 0.054396 -0.007462 0.000000 0.000000 0.000000
# 3 -0.007186 -0.007462 0.024212 0.000000 0.000000 0.000000
# 4 0.000000 0.000000 0.000000 0.048253 0.000000 0.000000
# 5 0.000000 0.000000 0.000000 0.000000 0.028909 0.000000
# 6 0.000000 0.000000 0.000000 0.000000 0.000000 0.317320
#
#
# Mechanical properties :
#
#
# Convention : Reuss Voigt Hill
#
# Bulk Modulus (GPa) = 12.70492 20.04507 16.37499
# Shear Modulus (GPa) = 9.42463 20.15973 14.79218
#
# Velocity S-wave (km/s) = 2.23333 3.26636 2.79793
# Velocity P-wave (km/s) = 3.65707 4.98336 4.37081
#
# Compressibility (1/GPa) = 0.07870965
#
# Stress axis : x y z
#
# Youngs Moduli (GPa) = 63.89843 18.38364 41.30121
#
# Poissons Ratio (x) = -0.12636 0.29681
# Poissons Ratio (y) = -0.43921 0.30817
# Poissons Ratio (z) = 0.45920 0.13717
#
# Static dielectric constant tensor:
#      x y z
#    x 1.676200 0.000000 0.000000 
#    y 0.000000 1.693810 0.000000 
#    z 0.000000 0.000000 1.634170 
# 
# From -- ./inp_files/8615.got.cif
#   From: 2010.05.17/outbox.cif.g08.bks.cpg/sg57_5_cif.got.tgz:8615.got - 2010.06.03 13:58:18.
