data_PCOD9436733
_publ_section_title
;
Structure prediction by ZEFSAII (Michael W. Deem and Ramdas Pophale) SiO2 
 PCOD9436733
Probable space group: P B C M
;
_chemical_formula_sum "Si O2"
_cell_formula_units_Z 52
_cell_length_a 21.679695
_cell_length_b 8.414726
_cell_length_c 14.141743
_cell_angle_alpha 90.000000
_cell_angle_beta 90.000000
_cell_angle_gamma 90.000000
_cell_volume 2579.859695
_symmetry_space_group_name_H-M "P B C M"
_symmetry_group_IT_number 57
_symmetry_cell_setting 'orthorhombic'
loop_
_space_group_symop_operation_xyz
x,y,z
-x,-y,1/2+z
x,1/2-y,-z
-x,1/2+y,1/2-z
-x,-y,-z
x,y,1/2-z
-x,1/2+y,z
x,1/2-y,1/2+z
loop_
_atom_site_type_symbol
_atom_site_label
_atom_site_fract_x
_atom_site_fract_y
_atom_site_fract_z
Si Si1 0.161778 0.250000 0.000000
Si Si2 0.465540 0.800061 0.358447
Si Si3 0.647261 0.071639 0.968989
Si Si4 0.126367 0.701184 0.639880
Si Si5 0.927177 0.013464 0.013967
Si Si6 0.765181 0.983356 0.638985
Si Si7 0.590790 0.555383 0.641793
O O1 0.203802 0.351752 0.928721
O O2 0.112905 0.133440 0.949227
O O3 0.459886 0.856537 0.250000
O O4 0.420331 0.902553 0.423587
O O5 0.442395 0.618617 0.360753
O O6 0.537092 0.820352 0.383097
O O7 0.695258 0.007232 0.893391
O O8 0.666756 0.250000 0.000000
O O9 0.641945 0.960640 0.061226
O O10 0.115098 0.721642 0.750000
O O11 0.097013 0.844860 0.581014
O O12 0.094183 0.548530 0.593434
O O13 0.197941 0.651845 0.625400
O O14 0.000000 0.000000 0.000000
O O15 0.770640 0.943770 0.750000
O O16 0.612165 0.581856 0.750000
#
# Coordination Sequence:
#
# PCOD9436733 Si02
#       7
#     4   8   8   8   8   8   8
#     4  10  22  38  60  86 126 156 186 240 300 348
#     4   9  17  32  52  77 108 143 185 242 299 355
#     4  10  20  33  58  80 108 153 204 245 288 351
#     4   9  20  37  60  84 114 156 200 237 281 339
#     4  10  20  37  62  91 122 153 191 237 290 347
#     4  10  22  41  60  83 116 158 203 248 292 349
#     4   9  18  33  52  79 110 142 188 240 299 356
#
# _framework density 20.156136
#
# number of rings (size 3 to 8) (size 9 to 14) (size 15 to 20)
#    0.000    2.462    0.000    1.846    4.308    1.846 
#    2.769    3.846    0.000    0.000    0.000    0.000 
#    0.000    0.000    0.000    0.000    0.000    0.000 
#
# Total GULP energy -289749.854016 kJ/mol
# GULP energy per Si atom -5572.112577 kJ/mol
# Density = 2.011026 g / cm^3
# Si number density = 20.156136 Si / 1000 Ang^3
#
#
#
# Elastic Constant Matrix: (Units=GPa)
#
#
# Indices 1 2 3 4 5 6 
#
# 1 49.7561 3.3556 34.8050 0.0000 0.0000 0.0000
# 2 3.3556 38.9489 20.6972 0.0000 0.0000 0.0000
# 3 34.8050 20.6972 114.0602 0.0000 0.0000 0.0000
# 4 0.0000 0.0000 0.0000 21.2097 0.0000 0.0000
# 5 0.0000 0.0000 0.0000 0.0000 21.7178 0.0000
# 6 0.0000 0.0000 0.0000 0.0000 0.0000 53.7198
#
#
#
# Elastic Compliance Matrix: (Units=1/GPa)
#
#
# Indices 1 2 3 4 5 6 
#
# 1 0.025716 0.002163 -0.008240 0.000000 0.000000 0.000000
# 2 0.002163 0.028597 -0.005849 0.000000 0.000000 0.000000
# 3 -0.008240 -0.005849 0.012343 0.000000 0.000000 0.000000
# 4 0.000000 0.000000 0.000000 0.047148 0.000000 0.000000
# 5 0.000000 0.000000 0.000000 0.000000 0.046045 0.000000
# 6 0.000000 0.000000 0.000000 0.000000 0.000000 0.018615
#
#
# Mechanical properties :
#
#
# Convention : Reuss Voigt Hill
#
# Bulk Modulus (GPa) = 23.36238 35.60897 29.48567
# Shear Modulus (GPa) = 23.08582 28.92330 26.00456
#
# Velocity S-wave (km/s) = 3.38797 3.79220 3.59577
# Velocity P-wave (km/s) = 5.18848 6.07283 5.64799
#
# Compressibility (1/GPa) = 0.04280386
#
# Stress axis : x y z
#
# Youngs Moduli (GPa) = 38.88650 34.96930 81.01795
#
# Poissons Ratio (x) = -0.07564 0.66755
# Poissons Ratio (y) = -0.08411 0.47388
# Poissons Ratio (z) = 0.32041 0.20454
#
# Static dielectric constant tensor:
#      x y z
#    x 1.738120 0.000000 0.000000 
#    y 0.000000 1.740440 0.000000 
#    z 0.000000 0.000000 1.722360 
# 
# From -- ./inp_files/19283.got.cif
#   From: 2010.05.17/outbox.cif.g08.bks.cpg/sg57_10_cif.got.tgz:19283.got - 2010.06.03 13:58:18.
