data_PCOD9436347
_publ_section_title
;
Structure prediction by ZEFSAII (Michael W. Deem and Ramdas Pophale) SiO2 
 PCOD9436347
Probable space group: P B C M
;
_chemical_formula_sum "Si O2"
_cell_formula_units_Z 56
_cell_length_a 14.633111
_cell_length_b 8.491009
_cell_length_c 22.123162
_cell_angle_alpha 90.000000
_cell_angle_beta 90.000000
_cell_angle_gamma 90.000000
_cell_volume 2748.800162
_symmetry_space_group_name_H-M "P B C M"
_symmetry_group_IT_number 57
_symmetry_cell_setting 'orthorhombic'
loop_
_space_group_symop_operation_xyz
x,y,z
-x,-y,1/2+z
x,1/2-y,-z
-x,1/2+y,1/2-z
-x,-y,-z
x,y,1/2-z
-x,1/2+y,z
x,1/2-y,1/2+z
loop_
_atom_site_type_symbol
_atom_site_label
_atom_site_fract_x
_atom_site_fract_y
_atom_site_fract_z
Si Si1 0.463451 0.808086 0.320399
Si Si2 0.135401 0.829696 0.323188
Si Si3 0.395706 0.560987 0.499968
Si Si4 0.369696 0.010715 0.867091
Si Si5 0.210989 0.300771 0.179432
Si Si6 0.955926 0.998985 0.176927
Si Si7 0.695051 0.494777 0.127331
O O1 0.484062 0.790350 0.250000
O O2 0.416464 0.651115 0.345646
O O3 0.555030 0.853913 0.355528
O O4 0.391411 0.949371 0.331091
O O5 0.151495 0.832167 0.250000
O O6 0.087532 0.665390 0.339969
O O7 0.228390 0.863159 0.358259
O O8 0.060187 0.962950 0.338990
O O9 0.397770 0.750000 0.500000
O O10 0.500000 0.500000 0.500000
O O11 0.350349 0.502398 0.437988
O O12 0.342528 0.506920 0.559520
O O13 0.280483 0.053188 0.828939
O O14 0.204022 0.257296 0.250000
O O15 0.112554 0.359874 0.157377
O O16 0.256966 0.157227 0.144703
O O17 0.954087 0.995641 0.250000
#
# Coordination Sequence:
#
# PCOD9436347 Si02
#       7
#     8   8   8   8   8   8   8
#     4  12  23  38  60  90 122 159 199 263 332 382
#     4  10  19  36  61  96 132 170 210 263 330 391
#     4  12  26  47  65  87 120 172 229 267 311 377
#     4  12  24  42  61  85 124 166 214 262 316 382
#     4  11  23  39  61  97 131 165 207 260 325 393
#     4   9  19  35  61  93 136 174 208 255 324 406
#     4  12  24  38  63  91 128 167 213 268 311 379
#
# _framework density 20.372526000000001
#
# number of rings (size 3 to 8) (size 9 to 14) (size 15 to 20)
#    0.000    0.857    2.857    5.143    2.000    3.429 
#    0.000    0.000    0.000    0.857    0.000    0.000 
#    0.000    0.000    0.000    0.000    0.000    0.000 
#
# Total GULP energy -313349.272426 kJ/mol
# GULP energy per Si atom -5595.522722 kJ/mol
# Density = 2.032616 g / cm^3
# Si number density = 20.372526 Si / 1000 Ang^3
#
#
#
# Elastic Constant Matrix: (Units=GPa)
#
#
# Indices 1 2 3 4 5 6 
#
# 1 99.9137 11.2371 25.3150 0.0000 0.0000 0.0000
# 2 11.2371 63.5346 28.9273 0.0000 0.0000 0.0000
# 3 25.3150 28.9273 111.6944 0.0000 0.0000 0.0000
# 4 0.0000 0.0000 0.0000 29.2855 0.0000 0.0000
# 5 0.0000 0.0000 0.0000 0.0000 14.3736 0.0000
# 6 0.0000 0.0000 0.0000 0.0000 0.0000 35.4471
#
#
#
# Elastic Compliance Matrix: (Units=1/GPa)
#
#
# Indices 1 2 3 4 5 6 
#
# 1 0.010663 -0.000891 -0.002186 0.000000 0.000000 0.000000
# 2 -0.000891 0.017918 -0.004439 0.000000 0.000000 0.000000
# 3 -0.002186 -0.004439 0.010598 0.000000 0.000000 0.000000
# 4 0.000000 0.000000 0.000000 0.034147 0.000000 0.000000
# 5 0.000000 0.000000 0.000000 0.000000 0.069572 0.000000
# 6 0.000000 0.000000 0.000000 0.000000 0.000000 0.028211
#
#
# Mechanical properties :
#
#
# Convention : Reuss Voigt Hill
#
# Bulk Modulus (GPa) = 41.41110 45.12239 43.26675
# Shear Modulus (GPa) = 25.74822 29.79878 27.77350
#
# Velocity S-wave (km/s) = 3.55895 3.82867 3.69627
# Velocity P-wave (km/s) = 6.10404 6.46078 6.28494
#
# Compressibility (1/GPa) = 0.02414811
#
# Stress axis : x y z
#
# Youngs Moduli (GPa) = 93.78520 55.81013 94.35741
#
# Poissons Ratio (x) = 0.04970 0.20626
# Poissons Ratio (y) = 0.08352 0.41882
# Poissons Ratio (z) = 0.20501 0.24772
#
# Static dielectric constant tensor:
#      x y z
#    x 1.724900 0.000000 0.000000 
#    y 0.000000 1.798570 0.000000 
#    z 0.000000 0.000000 1.687470 
# 
# From -- ./inp_files/25376.got.cif
#   From: 2010.05.17/outbox.cif.g08.bks.cpg/sg57_13_cif.got.tgz:25376.got - 2010.06.03 13:58:18.
