data_PCOD9436930
_publ_section_title
;
Structure prediction by ZEFSAII (Michael W. Deem and Ramdas Pophale) SiO2 
 PCOD9436930
Probable space group: P B C M
;
_chemical_formula_sum "Si O2"
_cell_formula_units_Z 64
_cell_length_a 20.054327
_cell_length_b 20.244532
_cell_length_c 8.880097
_cell_angle_alpha 90.000000
_cell_angle_beta 90.000000
_cell_angle_gamma 90.000000
_cell_volume 3605.234708
_symmetry_space_group_name_H-M "P B C M"
_symmetry_group_IT_number 57
_symmetry_cell_setting 'orthorhombic'
loop_
_space_group_symop_operation_xyz
x,y,z
-x,-y,1/2+z
x,1/2-y,-z
-x,1/2+y,1/2-z
-x,-y,-z
x,y,1/2-z
-x,1/2+y,z
x,1/2-y,1/2+z
loop_
_atom_site_type_symbol
_atom_site_label
_atom_site_fract_x
_atom_site_fract_y
_atom_site_fract_z
Si Si1 0.029089 0.320609 0.072004
Si Si2 0.819053 0.044775 0.430150
Si Si3 0.446619 0.047971 0.428125
Si Si4 0.278992 0.318290 0.422996
Si Si5 0.131796 0.679578 0.571999
Si Si6 0.709117 0.542069 0.430870
Si Si7 0.558833 0.683802 0.578413
Si Si8 0.937848 0.540625 0.068949
O O1 0.044510 0.321608 0.250000
O O2 0.948595 0.327333 0.055453
O O3 0.048109 0.250000 0.000000
O O4 0.059764 0.384082 0.989472
O O5 0.824567 0.042157 0.250000
O O6 0.833812 0.118385 0.488972
O O7 0.749399 0.015476 0.487377
O O8 0.873408 0.996959 0.507090
O O9 0.450321 0.043245 0.250000
O O10 0.369213 0.036033 0.470528
O O11 0.462268 0.121317 0.483096
O O12 0.500000 0.000000 0.500000
O O13 0.255360 0.250000 0.500000
O O14 0.255802 0.322609 0.250000
O O15 0.264983 0.386072 0.511998
O O16 0.360050 0.314333 0.420396
O O17 0.150214 0.750000 0.500000
O O18 0.146518 0.678276 0.750000
O O19 0.716385 0.538863 0.250000
O O20 0.535061 0.750000 0.500000
O O21 0.536580 0.678405 0.750000
O O22 0.940519 0.538652 0.250000
O O23 0.000000 0.500000 0.000000
#
# Coordination Sequence:
#
# PCOD9436930 Si02
#       8
#     8   8   8   8   8   8   8   8
#     4  10  20  35  56  82 113 148 186 231 279 329
#     4  12  24  38  58  83 113 148 186 229 279 332
#     4  10  20  34  55  81 110 144 182 226 275 329
#     4   9  16  28  48  74 103 138 178 219 263 313
#     4  10  20  35  57  83 112 143 183 231 277 327
#     4  10  21  37  55  79 111 146 185 228 276 328
#     4   9  16  27  46  73 105 137 174 218 262 313
#     4  12  23  37  57  82 112 146 184 228 276 327
#
# _framework density 17.751964999999998
#
# number of rings (size 3 to 8) (size 9 to 14) (size 15 to 20)
#    0.000    1.750    1.250    4.500    0.000    5.500 
#    0.000    0.625    0.000    0.750    0.000    0.000 
#    0.000    0.000    0.000    0.000    0.000    0.000 
#
# Total GULP energy -357404.152762 kJ/mol
# GULP energy per Si atom -5584.439887 kJ/mol
# Density = 1.771156 g / cm^3
# Si number density = 17.751965 Si / 1000 Ang^3
#
#
#
# Elastic Constant Matrix: (Units=GPa)
#
#
# Indices 1 2 3 4 5 6 
#
# 1 47.3476 56.1961 46.8852 0.0000 0.0000 0.0000
# 2 56.1961 174.2001 81.3178 0.0000 0.0000 0.0000
# 3 46.8852 81.3178 135.0759 0.0000 0.0000 0.0000
# 4 0.0000 0.0000 0.0000 39.8424 0.0000 0.0000
# 5 0.0000 0.0000 0.0000 0.0000 21.7070 0.0000
# 6 0.0000 0.0000 0.0000 0.0000 0.0000 28.8766
#
#
#
# Elastic Compliance Matrix: (Units=1/GPa)
#
#
# Indices 1 2 3 4 5 6 
#
# 1 0.040279 -0.008995 -0.008566 0.000000 0.000000 0.000000
# 2 -0.008995 0.009993 -0.002894 0.000000 0.000000 0.000000
# 3 -0.008566 -0.002894 0.012118 0.000000 0.000000 0.000000
# 4 0.000000 0.000000 0.000000 0.025099 0.000000 0.000000
# 5 0.000000 0.000000 0.000000 0.000000 0.046068 0.000000
# 6 0.000000 0.000000 0.000000 0.000000 0.000000 0.034630
#
#
# Mechanical properties :
#
#
# Convention : Reuss Voigt Hill
#
# Bulk Modulus (GPa) = 46.55251 80.60242 63.57746
# Shear Modulus (GPa) = 23.12068 29.56685 26.34376
#
# Velocity S-wave (km/s) = 3.61283 4.08555 3.85644
# Velocity P-wave (km/s) = 6.60940 8.23158 7.46469
#
# Compressibility (1/GPa) = 0.02148112
#
# Stress axis : x y z
#
# Youngs Moduli (GPa) = 24.82713 100.06827 82.51873
#
# Poissons Ratio (x) = 0.90014 0.70682
# Poissons Ratio (y) = 0.22333 0.23879
# Poissons Ratio (z) = 0.21266 0.28958
#
# Static dielectric constant tensor:
#      x y z
#    x 1.622560 0.000000 0.000000 
#    y 0.000000 1.590870 0.000000 
#    z 0.000000 0.000000 1.590790 
# 
# From -- ./inp_files/8630.got.cif
#   From: 2010.05.17/outbox.cif.g08.bks.cpg/sg57_5_cif.got.tgz:8630.got - 2010.06.03 13:58:18.
