data_PCOD9436223
_publ_section_title
;
Structure prediction by ZEFSAII (Michael W. Deem and Ramdas Pophale) SiO2 
 PCOD9436223
Probable space group: P B C M
;
_chemical_formula_sum "Si O2"
_cell_formula_units_Z 64
_cell_length_a 11.677524
_cell_length_b 30.188257
_cell_length_c 9.315269
_cell_angle_alpha 90.000000
_cell_angle_beta 90.000000
_cell_angle_gamma 90.000000
_cell_volume 3283.856780
_symmetry_space_group_name_H-M "P B C M"
_symmetry_group_IT_number 57
_symmetry_cell_setting 'orthorhombic'
loop_
_space_group_symop_operation_xyz
x,y,z
-x,-y,1/2+z
x,1/2-y,-z
-x,1/2+y,1/2-z
-x,-y,-z
x,y,1/2-z
-x,1/2+y,z
x,1/2-y,1/2+z
loop_
_atom_site_type_symbol
_atom_site_label
_atom_site_fract_x
_atom_site_fract_y
_atom_site_fract_z
Si Si1 0.909338 0.025650 0.093330
Si Si2 0.383695 0.297976 0.578137
Si Si3 0.957897 0.618288 0.412985
Si Si4 0.275806 0.942027 0.093683
Si Si5 0.472194 0.045781 0.581199
Si Si6 0.651050 0.296232 0.581447
Si Si7 0.277358 0.383537 0.424630
Si Si8 0.155861 0.651977 0.912225
O O1 0.902028 0.005403 0.250000
O O2 0.963005 0.074727 0.102419
O O3 0.784150 0.027632 0.023726
O O4 0.000000 0.000000 0.000000
O O5 0.367819 0.250000 0.500000
O O6 0.356627 0.295257 0.750000
O O7 0.518645 0.310413 0.567029
O O8 0.317037 0.336881 0.495033
O O9 0.929403 0.632884 0.250000
O O10 0.845815 0.606918 0.504984
O O11 0.036577 0.652441 0.502076
O O12 0.273159 0.964625 0.250000
O O13 0.406241 0.928796 0.065337
O O14 0.197925 0.898686 0.102110
O O15 0.454916 0.036189 0.750000
O O16 0.368285 0.077576 0.535714
O O17 0.500000 0.000000 0.500000
O O18 0.658415 0.250000 0.500000
O O19 0.675854 0.292023 0.750000
O O20 0.744505 0.326290 0.505179
O O21 0.273100 0.380596 0.250000
O O22 0.146616 0.670125 0.750000
#
# Coordination Sequence:
#
# PCOD9436223 Si02
#       8
#     8   8   8   8   8   8   8   8
#     4  10  21  35  55  80 107 140 184 236 287 340
#     4  10  21  38  62  92 123 158 199 244 295 353
#     4  10  22  39  57  81 112 151 195 240 291 352
#     4   9  19  36  55  77 106 141 182 228 280 333
#     4  10  23  39  56  82 116 154 196 243 293 349
#     4  10  20  34  56  87 120 151 187 232 284 343
#     4  11  23  40  61  86 119 159 202 248 301 359
#     4  10  19  35  59  83 111 145 185 235 289 344
#
# _framework density 19.489277000000001
#
# number of rings (size 3 to 8) (size 9 to 14) (size 15 to 20)
#    0.000    2.000    0.000    3.000    1.750    6.000 
#    0.000    0.625    0.000    0.000    0.000    0.000 
#    0.000    0.000    0.000    0.000    0.000    0.000 
#
# Total GULP energy -356828.345064 kJ/mol
# GULP energy per Si atom -5575.442892 kJ/mol
# Density = 1.944492 g / cm^3
# Si number density = 19.489277 Si / 1000 Ang^3
#
#
#
# Elastic Constant Matrix: (Units=GPa)
#
#
# Indices 1 2 3 4 5 6 
#
# 1 81.2549 10.1903 44.5049 0.0000 0.0000 0.0000
# 2 10.1903 34.7941 19.2965 0.0000 0.0000 0.0000
# 3 44.5049 19.2965 126.3080 0.0000 0.0000 0.0000
# 4 0.0000 0.0000 0.0000 29.7447 0.0000 0.0000
# 5 0.0000 0.0000 0.0000 0.0000 41.0615 0.0000
# 6 0.0000 0.0000 0.0000 0.0000 0.0000 9.1985
#
#
#
# Elastic Compliance Matrix: (Units=1/GPa)
#
#
# Indices 1 2 3 4 5 6 
#
# 1 0.015335 -0.001633 -0.005154 0.000000 0.000000 0.000000
# 2 -0.001633 0.031575 -0.004248 0.000000 0.000000 0.000000
# 3 -0.005154 -0.004248 0.010382 0.000000 0.000000 0.000000
# 4 0.000000 0.000000 0.000000 0.033619 0.000000 0.000000
# 5 0.000000 0.000000 0.000000 0.000000 0.024354 0.000000
# 6 0.000000 0.000000 0.000000 0.000000 0.000000 0.108713
#
#
# Mechanical properties :
#
#
# Convention : Reuss Voigt Hill
#
# Bulk Modulus (GPa) = 28.39178 43.37114 35.88146
# Shear Modulus (GPa) = 19.39574 27.22529 23.31052
#
# Velocity S-wave (km/s) = 3.15810 3.74162 3.46217
# Velocity P-wave (km/s) = 5.28182 6.40066 5.86797
#
# Compressibility (1/GPa) = 0.03522146
#
# Stress axis : x y z
#
# Youngs Moduli (GPa) = 65.21243 31.67072 96.31955
#
# Poissons Ratio (x) = 0.05172 0.49640
# Poissons Ratio (y) = 0.10649 0.40921
# Poissons Ratio (z) = 0.33608 0.13455
#
# Static dielectric constant tensor:
#      x y z
#    x 1.697640 0.000000 0.000000 
#    y 0.000000 1.654450 0.000000 
#    z 0.000000 0.000000 1.701300 
# 
# From -- ./inp_files/3727.got.cif
#   From: 2010.05.17/outbox.cif.g08.bks.cpg/sg57_2_cif.got.tgz:3727.got - 2010.06.03 13:58:18.
