data_PCOD9436298
_publ_section_title
;
Structure prediction by ZEFSAII (Michael W. Deem and Ramdas Pophale) SiO2 
 PCOD9436298
Probable space group: P B C M
;
_chemical_formula_sum "Si O2"
_cell_formula_units_Z 48
_cell_length_a 8.204508
_cell_length_b 34.279384
_cell_length_c 7.431493
_cell_angle_alpha 90.000000
_cell_angle_beta 90.000000
_cell_angle_gamma 90.000000
_cell_volume 2090.073818
_symmetry_space_group_name_H-M "P B C M"
_symmetry_group_IT_number 57
_symmetry_cell_setting 'orthorhombic'
loop_
_space_group_symop_operation_xyz
x,y,z
-x,-y,1/2+z
x,1/2-y,-z
-x,1/2+y,1/2-z
-x,-y,-z
x,y,1/2-z
-x,1/2+y,z
x,1/2-y,1/2+z
loop_
_atom_site_type_symbol
_atom_site_label
_atom_site_fract_x
_atom_site_fract_y
_atom_site_fract_z
Si Si1 0.816981 0.828484 0.953970
Si Si2 0.694720 0.588306 0.960134
Si Si3 0.167348 0.656046 0.470651
Si Si4 0.680023 0.077543 0.467371
Si Si5 0.190798 0.495376 0.464770
Si Si6 0.519009 0.295385 0.534906
O O1 0.829391 0.813056 0.750000
O O2 0.657400 0.808650 0.038290
O O3 0.997184 0.825864 0.035027
O O4 0.775708 0.874495 0.949089
O O5 0.739435 0.590340 0.750000
O O6 0.748286 0.546243 0.034737
O O7 0.500139 0.590408 0.977880
O O8 0.162548 0.656621 0.250000
O O9 0.192913 0.610916 0.524402
O O10 0.326837 0.679721 0.530239
O O11 0.683939 0.076522 0.250000
O O12 0.720117 0.034183 0.534612
O O13 0.218769 0.494528 0.250000
O O14 0.000000 0.500000 0.500000
O O15 0.544581 0.250000 0.500000
O O16 0.513118 0.302390 0.750000
#
# Coordination Sequence:
#
# PCOD9436298 Si02
#       6
#     8   8   8   8   8   8
#     4  10  20  38  63  84 111 155 195 230 276 340
#     4  11  22  35  53  84 119 147 187 242 291 333
#     4   9  18  35  60  86 108 142 196 236 267 332
#     4  10  19  36  58  79 108 152 199 234 277 342
#     4  10  22  36  53  80 114 151 194 242 287 338
#     4  10  21  38  59  86 115 146 186 232 282 342
#
# _framework density 22.965696000000001
#
# number of rings (size 3 to 8) (size 9 to 14) (size 15 to 20)
#    0.000    2.000    1.667    2.000    0.000    4.667 
#    0.000    1.667    0.000    0.000    0.000    0.000 
#    0.000    0.000    0.000    0.000    0.000    0.000 
#
# Total GULP energy -268307.970367 kJ/mol
# GULP energy per Si atom -5589.749383 kJ/mol
# Density = 2.291343 g / cm^3
# Si number density = 22.965696 Si / 1000 Ang^3
#
#
#
# Elastic Constant Matrix: (Units=GPa)
#
#
# Indices 1 2 3 4 5 6 
#
# 1 108.8424 10.0254 -10.9459 0.0000 0.0000 0.0000
# 2 10.0254 89.2397 -6.8590 0.0000 0.0000 0.0000
# 3 -10.9459 -6.8590 77.5576 0.0000 0.0000 0.0000
# 4 0.0000 0.0000 0.0000 9.6326 0.0000 0.0000
# 5 0.0000 0.0000 0.0000 0.0000 1.8370 0.0000
# 6 0.0000 0.0000 0.0000 0.0000 0.0000 18.8320
#
#
#
# Elastic Compliance Matrix: (Units=1/GPa)
#
#
# Indices 1 2 3 4 5 6 
#
# 1 0.009401 -0.000961 0.001242 0.000000 0.000000 0.000000
# 2 -0.000961 0.011381 0.000871 0.000000 0.000000 0.000000
# 3 0.001242 0.000871 0.013146 0.000000 0.000000 0.000000
# 4 0.000000 0.000000 0.000000 0.103814 0.000000 0.000000
# 5 0.000000 0.000000 0.000000 0.000000 0.544375 0.000000
# 6 0.000000 0.000000 0.000000 0.000000 0.000000 0.053101
#
#
# Mechanical properties :
#
#
# Convention : Reuss Voigt Hill
#
# Bulk Modulus (GPa) = 27.60023 28.89786 28.24904
# Shear Modulus (GPa) = 6.71149 24.95493 15.83321
#
# Velocity S-wave (km/s) = 1.71136 3.29996 2.62855
# Velocity P-wave (km/s) = 3.99363 5.20865 4.64108
#
# Compressibility (1/GPa) = 0.03623159
#
# Stress axis : x y z
#
# Youngs Moduli (GPa) = 106.37196 87.86860 76.06923
#
# Poissons Ratio (x) = 0.08441 -0.09446
# Poissons Ratio (y) = 0.10219 -0.06625
# Poissons Ratio (z) = -0.13210 -0.07652
#
# Static dielectric constant tensor:
#      x y z
#    x 1.828620 0.000000 0.000000 
#    y 0.000000 1.826200 0.000000 
#    z 0.000000 0.000000 1.840170 
# 
# From -- ./inp_files/2019.got.cif
#   From: 2010.05.17/outbox.cif.g08.bks.cpg/sg57_2_cif.got.tgz:2019.got - 2010.06.03 13:58:18.
