data_PCOD9436426
_publ_section_title
;
Structure prediction by ZEFSAII (Michael W. Deem and Ramdas Pophale) SiO2 
 PCOD9436426
Probable space group: P B C M
;
_chemical_formula_sum "Si O2"
_cell_formula_units_Z 56
_cell_length_a 19.732015
_cell_length_b 9.041733
_cell_length_c 16.557994
_cell_angle_alpha 90.000000
_cell_angle_beta 90.000000
_cell_angle_gamma 90.000000
_cell_volume 2954.138387
_symmetry_space_group_name_H-M "P B C M"
_symmetry_group_IT_number 57
_symmetry_cell_setting 'orthorhombic'
loop_
_space_group_symop_operation_xyz
x,y,z
-x,-y,1/2+z
x,1/2-y,-z
-x,1/2+y,1/2-z
-x,-y,-z
x,y,1/2-z
-x,1/2+y,z
x,1/2-y,1/2+z
loop_
_atom_site_type_symbol
_atom_site_label
_atom_site_fract_x
_atom_site_fract_y
_atom_site_fract_z
Si Si1 0.711667 0.415585 0.015896
Si Si2 0.324273 0.164817 0.913570
Si Si3 0.460094 0.248315 0.655257
Si Si4 0.444429 0.549545 0.933766
Si Si5 0.927159 0.855429 0.655045
Si Si6 0.772297 0.897654 0.658485
Si Si7 0.026061 0.869666 0.059352
O O1 0.630989 0.423686 0.034838
O O2 0.752793 0.484172 0.090339
O O3 0.732448 0.250000 0.000000
O O4 0.716712 0.519200 0.937218
O O5 0.398403 0.145957 0.876334
O O6 0.282196 0.268392 0.854464
O O7 0.332708 0.250000 0.000000
O O8 0.468151 0.235191 0.750000
O O9 0.526646 0.194648 0.609021
O O10 0.441823 0.414145 0.629272
O O11 0.500000 0.500000 0.000000
O O12 0.944358 0.842082 0.750000
O O13 0.846922 0.832245 0.644319
O O14 0.969771 0.734180 0.603685
O O15 0.938497 0.025954 0.625936
O O16 0.769164 0.955537 0.750000
O O17 0.063029 0.750000 0.000000
O O18 0.000000 0.000000 0.000000
#
# Coordination Sequence:
#
# PCOD9436426 Si02
#       7
#     8   8   8   8   8   8   8
#     4  11  23  39  60  85 113 156 198 246 303 361
#     4  10  19  38  60  80 107 153 196 236 291 361
#     4  12  23  36  56  85 112 144 190 246 300 351
#     4  12  22  39  58  80 113 148 194 241 302 366
#     4  10  20  37  61  91 123 163 198 242 302 356
#     4  10  22  40  63  86 119 159 203 248 296 356
#     4   9  19  34  57  89 125 156 198 246 284 338
#
# _framework density 18.956458000000001
#
# number of rings (size 3 to 8) (size 9 to 14) (size 15 to 20)
#    0.000    1.429    4.286    2.571    0.000    6.286 
#    0.000    2.857    0.000    6.857    0.000    0.000 
#    0.000    0.000    0.000    0.000    0.000    0.000 
#
# Total GULP energy -312280.968574 kJ/mol
# GULP energy per Si atom -5576.445867 kJ/mol
# Density = 1.891331 g / cm^3
# Si number density = 18.956458 Si / 1000 Ang^3
#
#
#
# Elastic Constant Matrix: (Units=GPa)
#
#
# Indices 1 2 3 4 5 6 
#
# 1 52.3995 -5.1228 19.9990 0.0000 0.0000 0.0000
# 2 -5.1228 89.5729 13.4737 0.0000 0.0000 0.0000
# 3 19.9990 13.4737 71.7539 0.0000 0.0000 0.0000
# 4 0.0000 0.0000 0.0000 29.1989 0.0000 0.0000
# 5 0.0000 0.0000 0.0000 0.0000 17.9932 0.0000
# 6 0.0000 0.0000 0.0000 0.0000 0.0000 14.1633
#
#
#
# Elastic Compliance Matrix: (Units=1/GPa)
#
#
# Indices 1 2 3 4 5 6 
#
# 1 0.021777 0.002221 -0.006487 0.000000 0.000000 0.000000
# 2 0.002221 0.011715 -0.002819 0.000000 0.000000 0.000000
# 3 -0.006487 -0.002819 0.016274 0.000000 0.000000 0.000000
# 4 0.000000 0.000000 0.000000 0.034248 0.000000 0.000000
# 5 0.000000 0.000000 0.000000 0.000000 0.055576 0.000000
# 6 0.000000 0.000000 0.000000 0.000000 0.000000 0.070605
#
#
# Mechanical properties :
#
#
# Convention : Reuss Voigt Hill
#
# Bulk Modulus (GPa) = 28.09212 30.04734 29.06973
# Shear Modulus (GPa) = 21.16582 24.62952 22.89767
#
# Velocity S-wave (km/s) = 3.34511 3.60845 3.47927
# Velocity P-wave (km/s) = 5.45629 5.76596 5.61326
#
# Compressibility (1/GPa) = 0.03559717
#
# Stress axis : x y z
#
# Youngs Moduli (GPa) = 45.91983 85.35955 61.44839
#
# Poissons Ratio (x) = -0.18960 0.39860
# Poissons Ratio (y) = -0.10200 0.17322
# Poissons Ratio (z) = 0.29787 0.24062
#
# Static dielectric constant tensor:
#      x y z
#    x 1.653140 0.000000 0.000000 
#    y 0.000000 1.690420 0.000000 
#    z 0.000000 0.000000 1.666430 
# 
# From -- ./inp_files/22994.got.cif
#   From: 2010.05.17/outbox.cif.g08.bks.cpg/sg57_12_cif.got.tgz:22994.got - 2010.06.03 13:58:18.
