data_PCOD9436574
_publ_section_title
;
Structure prediction by ZEFSAII (Michael W. Deem and Ramdas Pophale) SiO2 
 PCOD9436574
Probable space group: P B C M
;
_chemical_formula_sum "Si O2"
_cell_formula_units_Z 56
_cell_length_a 19.436453
_cell_length_b 17.451623
_cell_length_c 8.565966
_cell_angle_alpha 90.000000
_cell_angle_beta 90.000000
_cell_angle_gamma 90.000000
_cell_volume 2905.555539
_symmetry_space_group_name_H-M "P B C M"
_symmetry_group_IT_number 57
_symmetry_cell_setting 'orthorhombic'
loop_
_space_group_symop_operation_xyz
x,y,z
-x,-y,1/2+z
x,1/2-y,-z
-x,1/2+y,1/2-z
-x,-y,-z
x,y,1/2-z
-x,1/2+y,z
x,1/2-y,1/2+z
loop_
_atom_site_type_symbol
_atom_site_label
_atom_site_fract_x
_atom_site_fract_y
_atom_site_fract_z
Si Si1 0.039395 0.575319 0.561697
Si Si2 0.088908 0.332397 0.062671
Si Si3 0.706975 0.430267 0.937403
Si Si4 0.777044 0.911337 0.438118
Si Si5 0.648095 0.668893 0.436345
Si Si6 0.576597 0.990312 0.937307
Si Si7 0.827183 0.165106 0.562495
O O1 0.041399 0.568814 0.750000
O O2 0.115100 0.602574 0.508577
O O3 0.000000 0.500000 0.500000
O O4 0.987189 0.643358 0.515228
O O5 0.090522 0.330977 0.250000
O O6 0.145836 0.393617 0.009376
O O7 0.108157 0.250000 0.000000
O O8 0.706190 0.426225 0.750000
O O9 0.748431 0.506777 0.989478
O O10 0.629969 0.446351 0.997613
O O11 0.751940 0.361020 0.004170
O O12 0.774936 0.910036 0.250000
O O13 0.724688 0.847692 0.500872
O O14 0.622513 0.750000 0.500000
O O15 0.649208 0.671378 0.250000
O O16 0.604576 0.594043 0.485738
O O17 0.577420 0.993808 0.750000
O O18 0.500000 0.000000 0.000000
O O19 0.843562 0.250000 0.500000
O O20 0.828418 0.166487 0.750000
#
# Coordination Sequence:
#
# PCOD9436574 Si02
#       7
#     8   8   8   8   8   8   8
#     4  10  22  38  56  78 106 141 186 237 289 343
#     4  10  20  33  48  72 104 137 174 217 265 318
#     4  10  20  37  61  85 111 146 185 228 279 336
#     4   9  18  32  52  77 107 142 179 219 267 324
#     4  10  20  33  52  79 111 144 180 221 267 323
#     4  10  21  38  60  87 117 149 187 231 279 337
#     4  11  23  39  59  84 114 151 196 247 298 351
#
# _framework density 19.273423000000001
#
# number of rings (size 3 to 8) (size 9 to 14) (size 15 to 20)
#    0.000    2.000    0.000    3.429    0.000    6.857 
#    0.000    0.714    0.000    1.714    0.000    0.000 
#    0.000    0.000    0.000    0.000    0.000    0.000 
#
# Total GULP energy -312507.655681 kJ/mol
# GULP energy per Si atom -5580.493851 kJ/mol
# Density = 1.922956 g / cm^3
# Si number density = 19.273423 Si / 1000 Ang^3
#
#
#
# Elastic Constant Matrix: (Units=GPa)
#
#
# Indices 1 2 3 4 5 6 
#
# 1 132.9040 30.2073 24.2104 0.0000 0.0000 0.0000
# 2 30.2073 71.6382 12.5550 0.0000 0.0000 0.0000
# 3 24.2104 12.5550 24.8988 0.0000 0.0000 0.0000
# 4 0.0000 0.0000 0.0000 30.8010 0.0000 0.0000
# 5 0.0000 0.0000 0.0000 0.0000 24.3705 0.0000
# 6 0.0000 0.0000 0.0000 0.0000 0.0000 23.0451
#
#
#
# Elastic Compliance Matrix: (Units=1/GPa)
#
#
# Indices 1 2 3 4 5 6 
#
# 1 0.009578 -0.002640 -0.007982 0.000000 0.000000 0.000000
# 2 -0.002640 0.016040 -0.005521 0.000000 0.000000 0.000000
# 3 -0.007982 -0.005521 0.050708 0.000000 0.000000 0.000000
# 4 0.000000 0.000000 0.000000 0.032467 0.000000 0.000000
# 5 0.000000 0.000000 0.000000 0.000000 0.041033 0.000000
# 6 0.000000 0.000000 0.000000 0.000000 0.000000 0.043393
#
#
# Mechanical properties :
#
#
# Convention : Reuss Voigt Hill
#
# Bulk Modulus (GPa) = 22.70676 40.37628 31.54152
# Shear Modulus (GPa) = 20.81720 26.47452 23.64586
#
# Velocity S-wave (km/s) = 3.29005 3.71027 3.50646
# Velocity P-wave (km/s) = 5.12245 6.27292 5.72665
#
# Compressibility (1/GPa) = 0.04403975
#
# Stress axis : x y z
#
# Youngs Moduli (GPa) = 104.40213 62.34505 19.72063
#
# Poissons Ratio (x) = 0.16458 0.15742
# Poissons Ratio (y) = 0.27561 0.10888
# Poissons Ratio (z) = 0.83338 0.34421
#
# Static dielectric constant tensor:
#      x y z
#    x 1.678670 0.000000 0.000000 
#    y 0.000000 1.689780 0.000000 
#    z 0.000000 0.000000 1.627800 
# 
# From -- ./inp_files/8079.got.cif
#   From: 2010.05.17/outbox.cif.g08.bks.cpg/sg57_5_cif.got.tgz:8079.got - 2010.06.03 13:58:18.
