data_PCOD9436778
_publ_section_title
;
Structure prediction by ZEFSAII (Michael W. Deem and Ramdas Pophale) SiO2 
 PCOD9436778
Probable space group: P B C M
;
_chemical_formula_sum "Si O2"
_cell_formula_units_Z 56
_cell_length_a 21.494860
_cell_length_b 15.495763
_cell_length_c 8.094410
_cell_angle_alpha 90.000000
_cell_angle_beta 90.000000
_cell_angle_gamma 90.000000
_cell_volume 2696.080063
_symmetry_space_group_name_H-M "P B C M"
_symmetry_group_IT_number 57
_symmetry_cell_setting 'orthorhombic'
loop_
_space_group_symop_operation_xyz
x,y,z
-x,-y,1/2+z
x,1/2-y,-z
-x,1/2+y,1/2-z
-x,-y,-z
x,y,1/2-z
-x,1/2+y,z
x,1/2-y,1/2+z
loop_
_atom_site_type_symbol
_atom_site_label
_atom_site_fract_x
_atom_site_fract_y
_atom_site_fract_z
Si Si1 0.977358 0.350790 0.443538
Si Si2 0.407321 0.571721 0.049139
Si Si3 0.777565 0.520474 0.554549
Si Si4 0.914860 0.973677 0.555424
Si Si5 0.470732 0.159382 0.448609
Si Si6 0.344660 0.101022 0.439952
Si Si7 0.283305 0.842743 0.553349
O O1 0.973896 0.250000 0.500000
O O2 0.964914 0.345669 0.250000
O O3 0.932165 0.429004 0.509796
O O4 0.043841 0.397757 0.474908
O O5 0.405873 0.556770 0.250000
O O6 0.477181 0.592066 0.996227
O O7 0.356413 0.645709 0.013013
O O8 0.379209 0.491101 0.953618
O O9 0.788019 0.514040 0.750000
O O10 0.842328 0.542655 0.471105
O O11 0.721526 0.587830 0.524780
O O12 0.753072 0.427178 0.489767
O O13 0.929896 0.972459 0.750000
O O14 0.498428 0.250000 0.500000
O O15 0.466101 0.152555 0.250000
O O16 0.400736 0.155722 0.518750
O O17 0.333735 0.125466 0.250000
O O18 0.259279 0.750000 0.500000
O O19 0.278786 0.847277 0.750000
#
# Coordination Sequence:
#
# PCOD9436778 Si02
#       7
#     8   8   8   8   8   8   8
#     4  10  21  38  62  92 125 158 190 228 274 324
#     4   9  18  33  50  71  98 130 169 214 268 327
#     4  10  21  37  55  76 106 145 184 224 271 323
#     4  10  21  38  61  89 120 154 193 235 277 326
#     4  10  21  34  50  73 100 129 167 216 268 321
#     4  10  20  34  52  75 100 131 174 219 263 318
#     4   9  18  30  46  70 101 135 173 218 268 326
#
# _framework density 20.770897000000001
#
# number of rings (size 3 to 8) (size 9 to 14) (size 15 to 20)
#    0.000    2.286    0.000    3.429    0.000    6.857 
#    0.000    3.571    0.000    1.714    0.000    0.000 
#    0.000    0.000    0.000    0.000    0.000    0.000 
#
# Total GULP energy -311907.868627 kJ/mol
# GULP energy per Si atom -5569.783368 kJ/mol
# Density = 2.072362 g / cm^3
# Si number density = 20.770897 Si / 1000 Ang^3
#
#
#
# Elastic Constant Matrix: (Units=GPa)
#
#
# Indices 1 2 3 4 5 6 
#
# 1 93.8014 0.4506 -6.1594 0.0000 0.0000 0.0000
# 2 0.4506 46.9402 2.2996 0.0000 0.0000 0.0000
# 3 -6.1594 2.2996 8.7720 0.0000 0.0000 0.0000
# 4 0.0000 0.0000 0.0000 20.9181 0.0000 0.0000
# 5 0.0000 0.0000 0.0000 0.0000 18.2015 0.0000
# 6 0.0000 0.0000 0.0000 0.0000 0.0000 15.8573
#
#
#
# Elastic Compliance Matrix: (Units=1/GPa)
#
#
# Indices 1 2 3 4 5 6 
#
# 1 0.011188 -0.000499 0.007986 0.000000 0.000000 0.000000
# 2 -0.000499 0.021603 -0.006013 0.000000 0.000000 0.000000
# 3 0.007986 -0.006013 0.121184 0.000000 0.000000 0.000000
# 4 0.000000 0.000000 0.000000 0.047805 0.000000 0.000000
# 5 0.000000 0.000000 0.000000 0.000000 0.054941 0.000000
# 6 0.000000 0.000000 0.000000 0.000000 0.000000 0.063063
#
#
# Mechanical properties :
#
#
# Convention : Reuss Voigt Hill
#
# Bulk Modulus (GPa) = 6.37254 15.85500 11.11377
# Shear Modulus (GPa) = 13.54491 21.19023 17.36757
#
# Velocity S-wave (km/s) = 2.55641 3.19750 2.89476
# Velocity P-wave (km/s) = 3.43342 4.61323 4.06634
#
# Compressibility (1/GPa) = 0.15692340
#
# Stress axis : x y z
#
# Youngs Moduli (GPa) = 89.38437 46.28971 8.25192
#
# Poissons Ratio (x) = 0.02308 -0.06590
# Poissons Ratio (y) = 0.04457 0.04962
# Poissons Ratio (z) = -0.71386 0.27836
#
# Static dielectric constant tensor:
#      x y z
#    x 1.761310 0.000000 0.000000 
#    y 0.000000 1.840340 0.000000 
#    z 0.000000 0.000000 1.720960 
# 
# From -- ./inp_files/8134.got.cif
#   From: 2010.05.17/outbox.cif.g08.bks.cpg/sg57_5_cif.got.tgz:8134.got - 2010.06.03 13:58:18.
