data_PCOD9436741
_publ_section_title
;
Structure prediction by ZEFSAII (Michael W. Deem and Ramdas Pophale) SiO2 
 PCOD9436741
Probable space group: P B C M
;
_chemical_formula_sum "Si O2"
_cell_formula_units_Z 56
_cell_length_a 18.803147
_cell_length_b 19.298048
_cell_length_c 7.541006
_cell_angle_alpha 90.000000
_cell_angle_beta 90.000000
_cell_angle_gamma 90.000000
_cell_volume 2736.359853
_symmetry_space_group_name_H-M "P B C M"
_symmetry_group_IT_number 57
_symmetry_cell_setting 'orthorhombic'
loop_
_space_group_symop_operation_xyz
x,y,z
-x,-y,1/2+z
x,1/2-y,-z
-x,1/2+y,1/2-z
-x,-y,-z
x,y,1/2-z
-x,1/2+y,z
x,1/2-y,1/2+z
loop_
_atom_site_type_symbol
_atom_site_label
_atom_site_fract_x
_atom_site_fract_y
_atom_site_fract_z
Si Si1 0.269682 0.089324 0.963902
Si Si2 0.535807 0.074056 0.962894
Si Si3 0.130087 0.332035 0.036818
Si Si4 0.303383 0.930733 0.461743
Si Si5 0.975280 0.167730 0.962210
Si Si6 0.179603 0.831765 0.463284
Si Si7 0.590090 0.830993 0.037454
O O1 0.269128 0.095265 0.750000
O O2 0.197289 0.124802 0.030458
O O3 0.339501 0.130009 0.030007
O O4 0.277273 0.008873 0.008140
O O5 0.540177 0.080900 0.750000
O O6 0.616306 0.077195 0.032784
O O7 0.481535 0.132416 0.030540
O O8 0.500000 0.000000 0.000000
O O9 0.128631 0.338982 0.250000
O O10 0.052303 0.356434 0.969500
O O11 0.138807 0.250000 0.000000
O O12 0.307411 0.919963 0.250000
O O13 0.245389 0.876528 0.532342
O O14 0.975377 0.157434 0.750000
O O15 0.898305 0.143411 0.030160
O O16 0.975288 0.250000 0.000000
O O17 0.187692 0.750000 0.500000
O O18 0.178022 0.839173 0.250000
O O19 0.590041 0.839838 0.250000
O O20 0.592628 0.750000 0.000000
#
# Coordination Sequence:
#
# PCOD9436741 Si02
#       7
#     8   8   8   8   8   8   8
#     4  10  20  34  50  72 103 135 168 205 246 295
#     4  10  20  36  55  74  98 130 168 206 246 297
#     4   9  17  29  48  73  99 131 169 208 248 293
#     4  10  21  35  53  75 100 132 168 204 248 301
#     4   8  14  27  47  69  96 129 164 203 248 293
#     4   9  18  33  52  75 101 129 165 209 252 296
#     4  10  21  35  52  76 103 129 162 205 249 294
#
# _framework density 20.465143999999999
#
# number of rings (size 3 to 8) (size 9 to 14) (size 15 to 20)
#    0.000    2.571    1.429    0.429    0.000    2.857 
#    0.000    0.714    0.000    0.000    0.000    0.000 
#    0.000    0.000    0.000    0.000    0.000    0.000 
#
# Total GULP energy -312360.423720 kJ/mol
# GULP energy per Si atom -5577.864709 kJ/mol
# Density = 2.041856 g / cm^3
# Si number density = 20.465144 Si / 1000 Ang^3
#
#
#
# Elastic Constant Matrix: (Units=GPa)
#
#
# Indices 1 2 3 4 5 6 
#
# 1 265.7908 103.5781 14.5135 0.0000 0.0000 0.0000
# 2 103.5781 108.7357 -6.2473 0.0000 0.0000 0.0000
# 3 14.5135 -6.2473 53.1591 0.0000 0.0000 0.0000
# 4 0.0000 0.0000 0.0000 22.3546 0.0000 0.0000
# 5 0.0000 0.0000 0.0000 0.0000 -536.9453 0.0000
# 6 0.0000 0.0000 0.0000 0.0000 0.0000 22.7902
#
#
#
# Elastic Compliance Matrix: (Units=1/GPa)
#
#
# Indices 1 2 3 4 5 6 
#
# 1 0.006282 -0.006124 -0.002435 0.000000 0.000000 0.000000
# 2 -0.006124 0.015229 0.003462 0.000000 0.000000 0.000000
# 3 -0.002435 0.003462 0.019883 0.000000 0.000000 0.000000
# 4 0.000000 0.000000 0.000000 0.044733 0.000000 0.000000
# 5 0.000000 0.000000 0.000000 0.000000 -0.001862 0.000000
# 6 0.000000 0.000000 0.000000 0.000000 0.000000 0.043879
#
#
# Mechanical properties :
#
#
# Convention : Reuss Voigt Hill
#
# Bulk Modulus (GPa) = 32.05146 72.37490 52.21318
# Shear Modulus (GPa) = 33.61657 -77.30401 -21.84372
#
# Velocity S-wave (km/s) = 4.05733 -6.15268 -3.27060
# Velocity P-wave (km/s) = 6.13553 3.87715 3.36247
#
# Compressibility (1/GPa) = 0.03119982
#
# Stress axis : x y z
#
# Youngs Moduli (GPa) = 159.19403 65.66592 50.29432
#
# Poissons Ratio (x) = 0.40211 0.12245
# Poissons Ratio (y) = 0.97484 -0.17410
# Poissons Ratio (z) = 0.38758 -0.22731
#
# Static dielectric constant tensor:
#      x y z
#    x 1.785300 0.000000 0.000000 
#    y 0.000000 1.661690 0.000000 
#    z 0.000000 0.000000 1.835630 
# 
# From -- ./inp_files/13787.got.cif
#   From: 2010.05.17/outbox.cif.g08.bks.cpg/sg57_7_cif.got.tgz:13787.got - 2010.06.03 13:58:18.
