data_PCOD9436378
_publ_section_title
;
Structure prediction by ZEFSAII (Michael W. Deem and Ramdas Pophale) SiO2 
 PCOD9436378
Probable space group: P B C M
;
_chemical_formula_sum "Si O2"
_cell_formula_units_Z 40
_cell_length_a 20.314628
_cell_length_b 5.185617
_cell_length_c 20.923034
_cell_angle_alpha 90.000000
_cell_angle_beta 90.000000
_cell_angle_gamma 90.000000
_cell_volume 2204.113589
_symmetry_space_group_name_H-M "P B C M"
_symmetry_group_IT_number 57
_symmetry_cell_setting 'orthorhombic'
loop_
_space_group_symop_operation_xyz
x,y,z
-x,-y,1/2+z
x,1/2-y,-z
-x,1/2+y,1/2-z
-x,-y,-z
x,y,1/2-z
-x,1/2+y,z
x,1/2-y,1/2+z
loop_
_atom_site_type_symbol
_atom_site_label
_atom_site_fract_x
_atom_site_fract_y
_atom_site_fract_z
Si Si1 0.727926 0.250000 0.500000
Si Si2 0.046742 0.750000 0.000000
Si Si3 0.463176 0.757317 0.326860
Si Si4 0.769323 0.860960 0.176108
Si Si5 0.686412 0.365745 0.363191
Si Si6 0.152296 0.444156 0.056004
O O1 0.688880 0.360798 0.440264
O O2 0.777773 0.458057 0.529489
O O3 0.099362 0.677435 0.056226
O O4 0.000000 0.500000 0.000000
O O5 0.468145 0.749609 0.250000
O O6 0.488215 0.481480 0.350847
O O7 0.388213 0.823346 0.342351
O O8 0.789710 0.849979 0.250000
O O9 0.718389 0.629909 0.161650
O O10 0.829695 0.837717 0.125656
O O11 0.731521 0.130775 0.162966
O O12 0.129447 0.250000 0.000000
#
# Coordination Sequence:
#
# PCOD9436378 Si02
#       6
#     4   4   8   8   8   8
#     4   9  20  34  56  84 110 149 180 234 298 345
#     4  11  22  36  60  90 114 151 196 228 254 317
#     4  10  20  34  50  70 101 143 187 234 285 342
#     4  11  22  35  58  88 115 146 187 239 296 345
#     4  11  21  36  56  80 112 144 190 235 294 354
#     4  10  19  37  59  86 118 149 183 236 283 329
#
# _framework density 18.147884000000001
#
# number of rings (size 3 to 8) (size 9 to 14) (size 15 to 20)
#    0.000    1.600    3.000    3.000    0.000    1.600 
#    0.000    1.000    0.000    1.200    0.000    0.000 
#    0.000    0.000    0.000    0.000    0.000    0.000 
#
# Total GULP energy -222872.405603 kJ/mol
# GULP energy per Si atom -5571.810140 kJ/mol
# Density = 1.810658 g / cm^3
# Si number density = 18.147884 Si / 1000 Ang^3
#
#
#
# Elastic Constant Matrix: (Units=GPa)
#
#
# Indices 1 2 3 4 5 6 
#
# 1 49.9435 -1.7363 8.1265 0.0000 0.0000 0.0000
# 2 -1.7363 55.3449 16.7123 0.0000 0.0000 0.0000
# 3 8.1265 16.7123 109.4980 0.0000 0.0000 0.0000
# 4 0.0000 0.0000 0.0000 18.1843 0.0000 0.0000
# 5 0.0000 0.0000 0.0000 0.0000 -0.4441 0.0000
# 6 0.0000 0.0000 0.0000 0.0000 0.0000 28.8222
#
#
#
# Elastic Compliance Matrix: (Units=1/GPa)
#
#
# Indices 1 2 3 4 5 6 
#
# 1 0.020337 0.001147 -0.001684 0.000000 0.000000 0.000000
# 2 0.001147 0.019006 -0.002986 0.000000 0.000000 0.000000
# 3 -0.001684 -0.002986 0.009713 0.000000 0.000000 0.000000
# 4 0.000000 0.000000 0.000000 0.054992 0.000000 0.000000
# 5 0.000000 0.000000 0.000000 0.000000 -2.251539 0.000000
# 6 0.000000 0.000000 0.000000 0.000000 0.000000 0.034695
#
#
# Mechanical properties :
#
#
# Convention : Reuss Voigt Hill
#
# Bulk Modulus (GPa) = 23.80457 28.99905 26.40181
# Shear Modulus (GPa) = -2.39035 22.09141 9.85053
#
# Velocity S-wave (km/s) = -1.14892 3.49277 2.33232
# Velocity P-wave (km/s) = 3.37423 5.68154 4.67254
#
# Compressibility (1/GPa) = 0.04200874
#
# Stress axis : x y z
#
# Youngs Moduli (GPa) = 49.17257 52.61460 102.95136
#
# Poissons Ratio (x) = -0.06033 0.17340
# Poissons Ratio (y) = -0.05638 0.30741
# Poissons Ratio (z) = 0.08282 0.15710
#
# Static dielectric constant tensor:
#      x y z
#    x 1.609600 0.000000 0.000000 
#    y 0.000000 1.697960 0.000000 
#    z 0.000000 0.000000 1.651650 
# 
# From -- ./inp_files/25537.got.cif
#   From: 2010.05.17/outbox.cif.g08.bks.cpg/sg57_13_cif.got.tgz:25537.got - 2010.06.03 13:58:18.
