data_PCOD9436792
_publ_section_title
;
Structure prediction by ZEFSAII (Michael W. Deem and Ramdas Pophale) SiO2 
 PCOD9436792
Probable space group: P B C M
;
_chemical_formula_sum "Si O2"
_cell_formula_units_Z 64
_cell_length_a 20.945013
_cell_length_b 18.730120
_cell_length_c 7.599920
_cell_angle_alpha 90.000000
_cell_angle_beta 90.000000
_cell_angle_gamma 90.000000
_cell_volume 2981.468428
_symmetry_space_group_name_H-M "P B C M"
_symmetry_group_IT_number 57
_symmetry_cell_setting 'orthorhombic'
loop_
_space_group_symop_operation_xyz
x,y,z
-x,-y,1/2+z
x,1/2-y,-z
-x,1/2+y,1/2-z
-x,-y,-z
x,y,1/2-z
-x,1/2+y,z
x,1/2-y,1/2+z
loop_
_atom_site_type_symbol
_atom_site_label
_atom_site_fract_x
_atom_site_fract_y
_atom_site_fract_z
Si Si1 0.944514 0.407416 0.463183
Si Si2 0.289979 0.933744 0.454047
Si Si3 0.549256 0.832931 0.539030
Si Si4 0.180119 0.668742 0.538709
Si Si5 0.675741 0.590720 0.466129
Si Si6 0.405663 0.666943 0.039815
Si Si7 0.914503 0.932942 0.542718
Si Si8 0.197490 0.332139 0.961034
O O1 0.945741 0.408375 0.250000
O O2 0.890939 0.351713 0.522567
O O3 0.923309 0.486547 0.527230
O O4 0.016915 0.395266 0.521771
O O5 0.272977 0.946992 0.250000
O O6 0.231571 0.888143 0.531528
O O7 0.352352 0.884292 0.462041
O O8 0.306033 0.011429 0.528074
O O9 0.563178 0.750000 0.500000
O O10 0.546717 0.840333 0.750000
O O11 0.606717 0.881984 0.472992
O O12 0.477585 0.848625 0.473501
O O13 0.197717 0.750000 0.500000
O O14 0.180098 0.662274 0.750000
O O15 0.673469 0.590288 0.250000
O O16 0.732386 0.643754 0.521577
O O17 0.404254 0.657870 0.250000
O O18 0.392131 0.750000 0.000000
O O19 0.901914 0.941886 0.750000
O O20 0.856963 0.885732 0.469301
O O21 0.197746 0.339240 0.750000
O O22 0.183939 0.250000 0.000000
#
# Coordination Sequence:
#
# PCOD9436792 Si02
#       8
#     8   8   8   8   8   8   8   8
#     4   9  18  34  54  74  98 130 167 204 244 294
#     4  10  20  35  55  76 100 133 171 210 254 303
#     4   9  18  33  53  76 103 135 170 207 248 298
#     4  10  21  35  52  74  99 129 166 207 248 293
#     4   9  18  34  55  76 100 134 172 208 251 302
#     4  10  20  34  52  76 105 135 168 207 251 299
#     4   9  18  33  53  76 101 130 164 203 247 294
#     4  10  20  34  53  76 103 134 169 209 251 299
#
# _framework density 21.465933
#
# number of rings (size 3 to 8) (size 9 to 14) (size 15 to 20)
#    0.000    2.500    0.000    1.875    0.000    7.000 
#    0.000    3.750    0.000    3.000    0.000    0.000 
#    0.000    0.000    0.000    0.000    0.000    0.000 
#
# Total GULP energy -357362.671139 kJ/mol
# GULP energy per Si atom -5583.791737 kJ/mol
# Density = 2.141708 g / cm^3
# Si number density = 21.465933 Si / 1000 Ang^3
#
#
#
# Elastic Constant Matrix: (Units=GPa)
#
#
# Indices 1 2 3 4 5 6 
#
# 1 51.2353 0.4199 -12.7553 0.0000 0.0000 0.0000
# 2 0.4199 29.3165 -13.6531 0.0000 0.0000 0.0000
# 3 -12.7553 -13.6531 44.7975 0.0000 0.0000 0.0000
# 4 0.0000 0.0000 0.0000 18.5414 0.0000 0.0000
# 5 0.0000 0.0000 0.0000 0.0000 -23.7972 0.0000
# 6 0.0000 0.0000 0.0000 0.0000 0.0000 49.7646
#
#
#
# Elastic Compliance Matrix: (Units=1/GPa)
#
#
# Indices 1 2 3 4 5 6 
#
# 1 0.021220 0.002925 0.006933 0.000000 0.000000 0.000000
# 2 0.002925 0.040156 0.013071 0.000000 0.000000 0.000000
# 3 0.006933 0.013071 0.028281 0.000000 0.000000 0.000000
# 4 0.000000 0.000000 0.000000 0.053933 0.000000 0.000000
# 5 0.000000 0.000000 0.000000 0.000000 -0.042022 0.000000
# 6 0.000000 0.000000 0.000000 0.000000 0.000000 0.020095
#
#
# Mechanical properties :
#
#
# Convention : Reuss Voigt Hill
#
# Bulk Modulus (GPa) = 7.37917 8.15248 7.76583
# Shear Modulus (GPa) = 41.33076 18.99095 30.16085
#
# Velocity S-wave (km/s) = 4.39271 2.97762 3.75248
# Velocity P-wave (km/s) = 5.40120 3.95319 4.73290
#
# Compressibility (1/GPa) = 0.13551664
#
# Stress axis : x y z
#
# Youngs Moduli (GPa) = 47.12550 24.90284 35.35984
#
# Poissons Ratio (x) = -0.07284 -0.24517
# Poissons Ratio (y) = -0.13785 -0.46220
# Poissons Ratio (z) = -0.32674 -0.32551
#
# Static dielectric constant tensor:
#      x y z
#    x 1.776490 0.000000 0.000000 
#    y 0.000000 1.738090 0.000000 
#    z 0.000000 0.000000 1.808810 
# 
# From -- ./inp_files/8484.got.cif
#   From: 2010.05.17/outbox.cif.g08.bks.cpg/sg57_5_cif.got.tgz:8484.got - 2010.06.03 13:58:18.
