data_PCOD9436155
_publ_section_title
;
Structure prediction by ZEFSAII (Michael W. Deem and Ramdas Pophale) SiO2 
 PCOD9436155
Probable space group: P B C M
;
_chemical_formula_sum "Si O2"
_cell_formula_units_Z 64
_cell_length_a 24.819630
_cell_length_b 14.554731
_cell_length_c 8.896252
_cell_angle_alpha 90.000000
_cell_angle_beta 90.000000
_cell_angle_gamma 90.000000
_cell_volume 3213.709101
_symmetry_space_group_name_H-M "P B C M"
_symmetry_group_IT_number 57
_symmetry_cell_setting 'orthorhombic'
loop_
_space_group_symop_operation_xyz
x,y,z
-x,-y,1/2+z
x,1/2-y,-z
-x,1/2+y,1/2-z
-x,-y,-z
x,y,1/2-z
-x,1/2+y,z
x,1/2-y,1/2+z
loop_
_atom_site_type_symbol
_atom_site_label
_atom_site_fract_x
_atom_site_fract_y
_atom_site_fract_z
Si Si1 0.372537 0.052469 0.930600
Si Si2 0.761060 0.155004 0.071450
Si Si3 0.943848 0.977484 0.922439
Si Si4 0.153253 0.351248 0.567562
Si Si5 0.521315 0.593707 0.073506
Si Si6 0.596658 0.156442 0.074466
Si Si7 0.737421 0.538778 0.069610
Si Si8 0.877074 0.164329 0.923756
O O1 0.370885 0.053958 0.750000
O O2 0.383782 0.944966 0.978674
O O3 0.422906 0.112435 0.989040
O O4 0.316204 0.083770 0.001275
O O5 0.754121 0.154450 0.250000
O O6 0.740486 0.250000 0.000000
O O7 0.737610 0.063686 0.997813
O O8 0.823887 0.151717 0.023500
O O9 0.955333 0.951680 0.750000
O O10 0.901849 0.901802 0.984500
O O11 0.910595 0.072052 0.924058
O O12 0.000000 0.000000 0.000000
O O13 0.156976 0.250000 0.500000
O O14 0.151786 0.347991 0.750000
O O15 0.206705 0.410253 0.527744
O O16 0.532437 0.581278 0.250000
O O17 0.468543 0.656424 0.060450
O O18 0.500000 0.500000 0.000000
O O19 0.610540 0.159858 0.250000
O O20 0.617022 0.250000 0.000000
O O21 0.734780 0.535200 0.250000
O O22 0.861991 0.184079 0.750000
O O23 0.907232 0.250000 0.000000
#
# Coordination Sequence:
#
# PCOD9436155 Si02
#       8
#     8   8   8   8   8   8   8   8
#     4  10  21  36  54  82 113 146 194 243 288 353
#     4  11  21  34  56  85 115 151 194 237 287 352
#     4  10  22  40  61  88 123 156 193 244 295 353
#     4  10  23  44  66  89 120 156 201 251 301 357
#     4   9  17  32  52  76 105 143 187 234 286 339
#     4   9  19  33  52  79 113 146 184 232 284 346
#     4  11  22  40  62  85 119 159 199 251 306 357
#     4  10  19  35  56  82 117 151 187 232 285 343
#
# _framework density 19.914684000000001
#
# number of rings (size 3 to 8) (size 9 to 14) (size 15 to 20)
#    0.000    2.000    1.250    4.125    0.000    6.500 
#    0.000    4.375    0.000    0.000    0.000    0.000 
#    0.000    0.000    0.000    0.000    0.000    0.000 
#
# Total GULP energy -357022.501997 kJ/mol
# GULP energy per Si atom -5578.476594 kJ/mol
# Density = 1.986936 g / cm^3
# Si number density = 19.914684 Si / 1000 Ang^3
#
#
#
# Elastic Constant Matrix: (Units=GPa)
#
#
# Indices 1 2 3 4 5 6 
#
# 1 147.3764 27.4784 51.3391 0.0000 0.0000 0.0000
# 2 27.4784 58.7468 33.1161 0.0000 0.0000 0.0000
# 3 51.3391 33.1161 80.8355 0.0000 0.0000 0.0000
# 4 0.0000 0.0000 0.0000 30.3461 0.0000 0.0000
# 5 0.0000 0.0000 0.0000 0.0000 27.4182 0.0000
# 6 0.0000 0.0000 0.0000 0.0000 0.0000 0.2539
#
#
#
# Elastic Compliance Matrix: (Units=1/GPa)
#
#
# Indices 1 2 3 4 5 6 
#
# 1 0.008783 -0.001253 -0.005065 0.000000 0.000000 0.000000
# 2 -0.001253 0.022312 -0.008345 0.000000 0.000000 0.000000
# 3 -0.005065 -0.008345 0.019006 0.000000 0.000000 0.000000
# 4 0.000000 0.000000 0.000000 0.032953 0.000000 0.000000
# 5 0.000000 0.000000 0.000000 0.000000 0.036472 0.000000
# 6 0.000000 0.000000 0.000000 0.000000 0.000000 3.938574
#
#
# Mechanical properties :
#
#
# Convention : Reuss Voigt Hill
#
# Bulk Modulus (GPa) = 48.13250 56.75844 52.44547
# Shear Modulus (GPa) = 1.22119 23.27197 12.24658
#
# Velocity S-wave (km/s) = 0.78393 3.42216 2.48251
# Velocity P-wave (km/s) = 5.00412 6.64662 5.88298
#
# Compressibility (1/GPa) = 0.02077598
#
# Stress axis : x y z
#
# Youngs Moduli (GPa) = 113.85091 44.81798 52.61408
#
# Poissons Ratio (x) = 0.05617 0.26649
# Poissons Ratio (y) = 0.14268 0.43906
# Poissons Ratio (z) = 0.57666 0.37400
#
# Static dielectric constant tensor:
#      x y z
#    x 1.746980 0.000000 0.000000 
#    y 0.000000 1.724480 0.000000 
#    z 0.000000 0.000000 1.697450 
# 
# From -- ./inp_files/9506.got.cif
#   From: 2010.05.17/outbox.cif.g08.bks.cpg/sg57_5_cif.got.tgz:9506.got - 2010.06.03 13:58:18.
