data_PCOD9436671
_publ_section_title
;
Structure prediction by ZEFSAII (Michael W. Deem and Ramdas Pophale) SiO2 
 PCOD9436671
Probable space group: P B C M
;
_chemical_formula_sum "Si O2"
_cell_formula_units_Z 64
_cell_length_a 17.466775
_cell_length_b 12.538479
_cell_length_c 14.926950
_cell_angle_alpha 90.000000
_cell_angle_beta 90.000000
_cell_angle_gamma 90.000000
_cell_volume 3269.103427
_symmetry_space_group_name_H-M "P B C M"
_symmetry_group_IT_number 57
_symmetry_cell_setting 'orthorhombic'
loop_
_space_group_symop_operation_xyz
x,y,z
-x,-y,1/2+z
x,1/2-y,-z
-x,1/2+y,1/2-z
-x,-y,-z
x,y,1/2-z
-x,1/2+y,z
x,1/2-y,1/2+z
loop_
_atom_site_type_symbol
_atom_site_label
_atom_site_fract_x
_atom_site_fract_y
_atom_site_fract_z
Si Si1 0.460942 0.287837 0.642999
Si Si2 0.224164 0.693317 0.093860
Si Si3 0.884570 0.013919 0.351542
Si Si4 0.895386 0.361463 0.351269
Si Si5 0.061029 0.219011 0.858501
Si Si6 0.622657 0.411140 0.649480
Si Si7 0.955052 0.942603 0.919194
Si Si8 0.568376 0.581430 0.522573
O O1 0.440472 0.285730 0.750000
O O2 0.546677 0.338065 0.637790
O O3 0.412563 0.362241 0.572835
O O4 0.457175 0.172717 0.593949
O O5 0.168895 0.589769 0.089535
O O6 0.173745 0.781219 0.144194
O O7 0.302418 0.660324 0.139742
O O8 0.240445 0.750000 0.000000
O O9 0.854643 0.021670 0.250000
O O10 0.891129 0.888952 0.376462
O O11 0.972212 0.056672 0.351201
O O12 0.913867 0.387917 0.250000
O O13 0.888211 0.474535 0.397788
O O14 0.973142 0.306771 0.385969
O O15 0.065020 0.236948 0.750000
O O16 0.078784 0.325117 0.913484
O O17 0.618243 0.457065 0.750000
O O18 0.626693 0.504681 0.575470
O O19 0.000000 0.000000 0.000000
O O20 0.500000 0.500000 0.500000
#
# Coordination Sequence:
#
# PCOD9436671 Si02
#       8
#     8   8   8   8   8   8   8   8
#     4   9  18  34  59  93 126 159 200 247 305 353
#     4  12  24  36  56  81 122 154 200 247 309 370
#     4  10  20  36  56  77 106 151 197 246 297 361
#     4  10  20  33  52  76 108 149 189 244 305 365
#     4   9  18  33  56  80 104 141 198 252 303 360
#     4  10  21  36  59  90 122 163 201 243 301 372
#     4  11  20  31  53  81 111 137 189 250 317 366
#     4   9  18  32  59  87 126 157 203 251 294 338
#
# _framework density 19.577231999999999
#
# number of rings (size 3 to 8) (size 9 to 14) (size 15 to 20)
#    0.000    2.000    1.250    4.125    3.500    2.000 
#    0.000    0.000    0.000    6.000    0.000    0.000 
#    0.000    0.000    0.000    0.000    0.000    0.000 
#
# Total GULP energy -356354.072369 kJ/mol
# GULP energy per Si atom -5568.032381 kJ/mol
# Density = 1.953267 g / cm^3
# Si number density = 19.577232 Si / 1000 Ang^3
#
#
#
# Elastic Constant Matrix: (Units=GPa)
#
#
# Indices 1 2 3 4 5 6 
#
# 1 44.0604 18.4421 11.7913 0.0000 0.0000 0.0000
# 2 18.4421 145.6287 45.9171 0.0000 0.0000 0.0000
# 3 11.7913 45.9171 100.8664 0.0000 0.0000 0.0000
# 4 0.0000 0.0000 0.0000 34.5282 0.0000 0.0000
# 5 0.0000 0.0000 0.0000 0.0000 20.2799 0.0000
# 6 0.0000 0.0000 0.0000 0.0000 0.0000 19.4693
#
#
#
# Elastic Compliance Matrix: (Units=1/GPa)
#
#
# Indices 1 2 3 4 5 6 
#
# 1 0.024206 -0.002537 -0.001675 0.000000 0.000000 0.000000
# 2 -0.002537 0.008284 -0.003474 0.000000 0.000000 0.000000
# 3 -0.001675 -0.003474 0.011691 0.000000 0.000000 0.000000
# 4 0.000000 0.000000 0.000000 0.028962 0.000000 0.000000
# 5 0.000000 0.000000 0.000000 0.000000 0.049310 0.000000
# 6 0.000000 0.000000 0.000000 0.000000 0.000000 0.051363
#
#
# Mechanical properties :
#
#
# Convention : Reuss Voigt Hill
#
# Bulk Modulus (GPa) = 34.71171 49.20627 41.95899
# Shear Modulus (GPa) = 25.15195 29.14914 27.15055
#
# Velocity S-wave (km/s) = 3.58824 3.86285 3.72807
# Velocity P-wave (km/s) = 5.91070 6.71450 6.32538
#
# Compressibility (1/GPa) = 0.02880872
#
# Stress axis : x y z
#
# Youngs Moduli (GPa) = 41.31147 120.72100 85.53265
#
# Poissons Ratio (x) = 0.30632 0.14323
# Poissons Ratio (y) = 0.10483 0.29716
# Poissons Ratio (z) = 0.06918 0.41942
#
# Static dielectric constant tensor:
#      x y z
#    x 1.654050 0.000000 0.000000 
#    y 0.000000 1.728040 0.000000 
#    z 0.000000 0.000000 1.826310 
# 
# From -- ./inp_files/19132.got.cif
#   From: 2010.05.17/outbox.cif.g08.bks.cpg/sg57_10_cif.got.tgz:19132.got - 2010.06.03 13:58:18.
