data_PCOD9436400
_publ_section_title
;
Structure prediction by ZEFSAII (Michael W. Deem and Ramdas Pophale) SiO2 
 PCOD9436400
Probable space group: P B C M
;
_chemical_formula_sum "Si O2"
_cell_formula_units_Z 40
_cell_length_a 10.380725
_cell_length_b 9.647089
_cell_length_c 18.321160
_cell_angle_alpha 90.000000
_cell_angle_beta 90.000000
_cell_angle_gamma 90.000000
_cell_volume 1834.750179
_symmetry_space_group_name_H-M "P B C M"
_symmetry_group_IT_number 57
_symmetry_cell_setting 'orthorhombic'
loop_
_space_group_symop_operation_xyz
x,y,z
-x,-y,1/2+z
x,1/2-y,-z
-x,1/2+y,1/2-z
-x,-y,-z
x,y,1/2-z
-x,1/2+y,z
x,1/2-y,1/2+z
loop_
_atom_site_type_symbol
_atom_site_label
_atom_site_fract_x
_atom_site_fract_y
_atom_site_fract_z
Si Si1 0.693119 0.791061 0.666563
Si Si2 0.364030 0.978978 0.044539
Si Si3 0.106255 0.599019 0.031964
Si Si4 0.793032 0.492997 0.666669
Si Si5 0.607392 0.243233 0.670184
O O1 0.731830 0.836693 0.750000
O O2 0.770980 0.652696 0.645134
O O3 0.545337 0.744434 0.674355
O O4 0.681180 0.899774 0.600340
O O5 0.363990 0.846089 0.098559
O O6 0.248610 0.955544 0.988305
O O7 0.500000 0.000000 0.000000
O O8 0.103725 0.588105 0.118720
O O9 0.089702 0.750000 0.000000
O O10 0.000000 0.500000 0.000000
O O11 0.833288 0.495968 0.750000
O O12 0.663569 0.398519 0.663374
O O13 0.655534 0.189472 0.750000
#
# Coordination Sequence:
#
# PCOD9436400 Si02
#       5
#     8   8   8   8   8
#     4  10  21  37  63 102 139 177 225 281 347 414
#     4  12  25  40  69 103 140 176 233 285 346 410
#     4  12  28  49  70 100 139 183 230 286 350 407
#     4  10  22  43  68  95 134 181 231 283 340 412
#     4  10  19  37  62  95 137 180 222 281 346 404
#
# _framework density 21.801334000000001
#
# number of rings (size 3 to 8) (size 9 to 14) (size 15 to 20)
#    0.000    1.200    2.000    4.200    2.800    4.800 
#    0.000    4.000    0.000    0.000    0.000    0.000 
#    0.000    0.000    0.000    0.000    0.000    0.000 
#
# Total GULP energy -223237.945139 kJ/mol
# GULP energy per Si atom -5580.948628 kJ/mol
# Density = 2.175171 g / cm^3
# Si number density = 21.801334 Si / 1000 Ang^3
#
#
#
# Elastic Constant Matrix: (Units=GPa)
#
#
# Indices 1 2 3 4 5 6 
#
# 1 50.9747 21.3291 10.6514 0.0000 0.0000 0.0000
# 2 21.3291 131.7944 66.8520 0.0000 0.0000 0.0000
# 3 10.6514 66.8520 113.2257 0.0000 0.0000 0.0000
# 4 0.0000 0.0000 0.0000 42.2907 0.0000 0.0000
# 5 0.0000 0.0000 0.0000 0.0000 -20.6003 0.0000
# 6 0.0000 0.0000 0.0000 0.0000 0.0000 9.6973
#
#
#
# Elastic Compliance Matrix: (Units=1/GPa)
#
#
# Indices 1 2 3 4 5 6 
#
# 1 0.021043 -0.003428 0.000044 0.000000 0.000000 0.000000
# 2 -0.003428 0.011390 -0.006403 0.000000 0.000000 0.000000
# 3 0.000044 -0.006403 0.012608 0.000000 0.000000 0.000000
# 4 0.000000 0.000000 0.000000 0.023646 0.000000 0.000000
# 5 0.000000 0.000000 0.000000 0.000000 -0.048543 0.000000
# 6 0.000000 0.000000 0.000000 0.000000 0.000000 0.103121
#
#
# Mechanical properties :
#
#
# Convention : Reuss Voigt Hill
#
# Bulk Modulus (GPa) = 39.26421 54.85109 47.05765
# Shear Modulus (GPa) = 33.04113 19.42171 26.23142
#
# Velocity S-wave (km/s) = 3.89724 2.98795 3.47248
# Velocity P-wave (km/s) = 6.18873 6.09245 6.14078
#
# Compressibility (1/GPa) = 0.02546848
#
# Stress axis : x y z
#
# Youngs Moduli (GPa) = 47.52257 87.79637 79.31484
#
# Poissons Ratio (x) = 0.30097 -0.00353
# Poissons Ratio (y) = 0.16291 0.50782
# Poissons Ratio (z) = -0.00211 0.56212
#
# Static dielectric constant tensor:
#      x y z
#    x 1.690520 0.000000 0.000000 
#    y 0.000000 1.833220 0.000000 
#    z 0.000000 0.000000 1.986490 
# 
# From -- ./inp_files/21579.got.cif
#   From: 2010.05.17/outbox.cif.g08.bks.cpg/sg57_11_cif.got.tgz:21579.got - 2010.06.03 13:58:18.
