data_PCOD9436051
_publ_section_title
;
Structure prediction by ZEFSAII (Michael W. Deem and Ramdas Pophale) SiO2 
 PCOD9436051
Probable space group: P B C M
;
_chemical_formula_sum "Si O2"
_cell_formula_units_Z 48
_cell_length_a 10.534149
_cell_length_b 29.043807
_cell_length_c 8.708731
_cell_angle_alpha 90.000000
_cell_angle_beta 90.000000
_cell_angle_gamma 90.000000
_cell_volume 2664.451842
_symmetry_space_group_name_H-M "P B C M"
_symmetry_group_IT_number 57
_symmetry_cell_setting 'orthorhombic'
loop_
_space_group_symop_operation_xyz
x,y,z
-x,-y,1/2+z
x,1/2-y,-z
-x,1/2+y,1/2-z
-x,-y,-z
x,y,1/2-z
-x,1/2+y,z
x,1/2-y,1/2+z
loop_
_atom_site_type_symbol
_atom_site_label
_atom_site_fract_x
_atom_site_fract_y
_atom_site_fract_z
Si Si1 0.899785 0.700767 0.066100
Si Si2 0.496489 0.603950 0.064455
Si Si3 0.985646 0.606354 0.934019
Si Si4 0.766630 0.442812 0.564311
Si Si5 0.397456 0.201078 0.065409
Si Si6 0.735265 0.549377 0.935196
O O1 0.906786 0.701294 0.250000
O O2 0.750870 0.694755 0.020975
O O3 0.941363 0.750000 0.000000
O O4 0.975929 0.657686 0.000460
O O5 0.501064 0.603279 0.250000
O O6 0.359884 0.584700 0.017019
O O7 0.524991 0.656296 0.013885
O O8 0.609022 0.571719 0.003697
O O9 0.987515 0.608073 0.750000
O O10 0.858501 0.578799 0.982541
O O11 0.108553 0.579854 0.994310
O O12 0.775818 0.441157 0.750000
O O13 0.752370 0.496237 0.518921
O O14 0.401943 0.203296 0.250000
O O15 0.441134 0.250000 0.000000
O O16 0.726678 0.550917 0.750000
#
# Coordination Sequence:
#
# PCOD9436051 Si02
#       6
#     8   8   8   8   8   8
#     4  10  19  34  57  83 111 141 179 227 276 325
#     4  10  20  36  57  82 110 143 183 226 279 336
#     4  11  22  36  55  82 113 146 188 230 274 328
#     4  10  22  38  55  78 113 151 186 228 279 332
#     4   9  18  32  53  81 107 136 174 219 269 321
#     4  10  21  36  56  82 109 144 189 233 276 327
#
# _framework density 18.014963000000002
#
# number of rings (size 3 to 8) (size 9 to 14) (size 15 to 20)
#    0.000    2.000    1.667    2.000    0.000    3.333 
#    0.000    0.833    0.000    2.000    0.000    0.000 
#    0.000    0.000    0.000    0.000    0.000    0.000 
#
# Total GULP energy -268046.814922 kJ/mol
# GULP energy per Si atom -5584.308644 kJ/mol
# Density = 1.797396 g / cm^3
# Si number density = 18.014963 Si / 1000 Ang^3
#
#
#
# Elastic Constant Matrix: (Units=GPa)
#
#
# Indices 1 2 3 4 5 6 
#
# 1 65.8184 16.2844 14.6803 0.0000 0.0000 0.0000
# 2 16.2844 118.3569 19.3441 0.0000 0.0000 0.0000
# 3 14.6803 19.3441 14.1353 0.0000 0.0000 0.0000
# 4 0.0000 0.0000 0.0000 28.3957 0.0000 0.0000
# 5 0.0000 0.0000 0.0000 0.0000 20.6152 0.0000
# 6 0.0000 0.0000 0.0000 0.0000 0.0000 -0.3706
#
#
#
# Elastic Compliance Matrix: (Units=1/GPa)
#
#
# Indices 1 2 3 4 5 6 
#
# 1 0.019836 0.000822 -0.021724 0.000000 0.000000 0.000000
# 2 0.000822 0.010917 -0.015793 0.000000 0.000000 0.000000
# 3 -0.021724 -0.015793 0.114920 0.000000 0.000000 0.000000
# 4 0.000000 0.000000 0.000000 0.035217 0.000000 0.000000
# 5 0.000000 0.000000 0.000000 0.000000 0.048508 0.000000
# 6 0.000000 0.000000 0.000000 0.000000 0.000000 -2.698020
#
#
# Mechanical properties :
#
#
# Convention : Reuss Voigt Hill
#
# Bulk Modulus (GPa) = 13.83509 33.21423 23.52466
# Shear Modulus (GPa) = -2.10869 19.59486 8.74308
#
# Velocity S-wave (km/s) = -1.08308 3.30161 2.20540
# Velocity P-wave (km/s) = 2.47636 5.74554 4.42400
#
# Compressibility (1/GPa) = 0.07227996
#
# Stress axis : x y z
#
# Youngs Moduli (GPa) = 50.41463 91.59821 8.70173
#
# Poissons Ratio (x) = -0.07525 0.18904
# Poissons Ratio (y) = -0.04142 0.13743
# Poissons Ratio (z) = 1.09523 1.44664
#
# Static dielectric constant tensor:
#      x y z
#    x 1.586030 0.000000 0.000000 
#    y 0.000000 1.607960 0.000000 
#    z 0.000000 0.000000 1.612400 
# 
# From -- ./inp_files/2065.got.cif
#   From: 2010.05.17/outbox.cif.g08.bks.cpg/sg57_2_cif.got.tgz:2065.got - 2010.06.03 13:58:18.
