data_PCOD9436250
_publ_section_title
;
Structure prediction by ZEFSAII (Michael W. Deem and Ramdas Pophale) SiO2 
 PCOD9436250
Probable space group: P B C M
;
_chemical_formula_sum "Si O2"
_cell_formula_units_Z 48
_cell_length_a 10.371715
_cell_length_b 28.761344
_cell_length_c 8.347552
_cell_angle_alpha 90.000000
_cell_angle_beta 90.000000
_cell_angle_gamma 90.000000
_cell_volume 2490.112017
_symmetry_space_group_name_H-M "P B C M"
_symmetry_group_IT_number 57
_symmetry_cell_setting 'orthorhombic'
loop_
_space_group_symop_operation_xyz
x,y,z
-x,-y,1/2+z
x,1/2-y,-z
-x,1/2+y,1/2-z
-x,-y,-z
x,y,1/2-z
-x,1/2+y,z
x,1/2-y,1/2+z
loop_
_atom_site_type_symbol
_atom_site_label
_atom_site_fract_x
_atom_site_fract_y
_atom_site_fract_z
Si Si1 0.895468 0.800369 0.942685
Si Si2 0.465864 0.606305 0.936375
Si Si3 0.974611 0.600215 0.054691
Si Si4 0.766333 0.449680 0.561494
Si Si5 0.405402 0.199172 0.057806
Si Si6 0.708188 0.550834 0.060623
O O1 0.896847 0.800096 0.750000
O O2 0.971833 0.846016 0.998273
O O3 0.745205 0.805982 0.992401
O O4 0.941482 0.750000 0.000000
O O5 0.432756 0.604693 0.750000
O O6 0.344256 0.588433 0.036179
O O7 0.512586 0.657447 0.985618
O O8 0.585811 0.572080 0.971410
O O9 0.978224 0.600298 0.250000
O O10 0.840022 0.576292 0.008488
O O11 0.097885 0.570893 0.001221
O O12 0.778360 0.460674 0.750000
O O13 0.725270 0.496401 0.471367
O O14 0.409807 0.196568 0.250000
O O15 0.448015 0.250000 0.000000
O O16 0.690455 0.559751 0.250000
#
# Coordination Sequence:
#
# PCOD9436250 Si02
#       6
#     8   8   8   8   8   8
#     4   9  17  33  56  85 114 144 181 228 280 333
#     4  12  24  39  58  85 117 154 198 238 283 341
#     4   9  19  37  60  84 115 151 188 233 289 346
#     4  11  23  39  58  83 116 155 193 237 292 346
#     4  10  19  35  60  88 118 148 187 238 288 338
#     4  11  21  39  62  85 113 149 193 243 291 342
#
# _framework density 19.276242
#
# number of rings (size 3 to 8) (size 9 to 14) (size 15 to 20)
#    0.000    1.667    1.667    4.000    0.000    0.667 
#    0.000    5.000    0.000    2.000    0.000    0.000 
#    0.000    0.000    0.000    0.000    0.000    0.000 
#
# Total GULP energy -268207.085916 kJ/mol
# GULP energy per Si atom -5587.647623 kJ/mol
# Density = 1.923237 g / cm^3
# Si number density = 19.276242 Si / 1000 Ang^3
#
#
#
# Elastic Constant Matrix: (Units=GPa)
#
#
# Indices 1 2 3 4 5 6 
#
# 1 30.0640 -17.0988 -6.0901 0.0000 0.0000 0.0000
# 2 -17.0988 77.7382 -5.1836 0.0000 0.0000 0.0000
# 3 -6.0901 -5.1836 21.3099 0.0000 0.0000 0.0000
# 4 0.0000 0.0000 0.0000 28.3974 0.0000 0.0000
# 5 0.0000 0.0000 0.0000 0.0000 5.4344 0.0000
# 6 0.0000 0.0000 0.0000 0.0000 0.0000 -5.5864
#
#
#
# Elastic Compliance Matrix: (Units=1/GPa)
#
#
# Indices 1 2 3 4 5 6 
#
# 1 0.042000 0.010204 0.014485 0.000000 0.000000 0.000000
# 2 0.010204 0.015555 0.006700 0.000000 0.000000 0.000000
# 3 0.014485 0.006700 0.052696 0.000000 0.000000 0.000000
# 4 0.000000 0.000000 0.000000 0.035215 0.000000 0.000000
# 5 0.000000 0.000000 0.000000 0.000000 0.184014 0.000000
# 6 0.000000 0.000000 0.000000 0.000000 0.000000 -0.179006
#
#
# Mechanical properties :
#
#
# Convention : Reuss Voigt Hill
#
# Bulk Modulus (GPa) = 5.77938 8.04079 6.91008
# Shear Modulus (GPa) = 34.39444 16.14803 25.27123
#
# Velocity S-wave (km/s) = 4.22867 2.89747 3.62471
# Velocity P-wave (km/s) = 5.18140 3.92100 4.59462
#
# Compressibility (1/GPa) = 0.17302887
#
# Stress axis : x y z
#
# Youngs Moduli (GPa) = 23.80944 64.28868 18.97679
#
# Poissons Ratio (x) = -0.65600 -0.27488
# Poissons Ratio (y) = -0.24295 -0.12714
# Poissons Ratio (z) = -0.34488 -0.43073
#
# Static dielectric constant tensor:
#      x y z
#    x 1.649180 0.000000 0.000000 
#    y 0.000000 1.664430 0.000000 
#    z 0.000000 0.000000 1.661870 
# 
# From -- ./inp_files/2107.got.cif
#   From: 2010.05.17/outbox.cif.g08.bks.cpg/sg57_2_cif.got.tgz:2107.got - 2010.06.03 13:58:18.
