data_PCOD9436544
_publ_section_title
;
Structure prediction by ZEFSAII (Michael W. Deem and Ramdas Pophale) SiO2 
 PCOD9436544
Probable space group: P B C M
;
_chemical_formula_sum "Si O2"
_cell_formula_units_Z 32
_cell_length_a 7.891685
_cell_length_b 15.401155
_cell_length_c 11.170499
_cell_angle_alpha 90.000000
_cell_angle_beta 90.000000
_cell_angle_gamma 90.000000
_cell_volume 1357.674333
_symmetry_space_group_name_H-M "P B C M"
_symmetry_group_IT_number 57
_symmetry_cell_setting 'orthorhombic'
loop_
_space_group_symop_operation_xyz
x,y,z
-x,-y,1/2+z
x,1/2-y,-z
-x,1/2+y,1/2-z
-x,-y,-z
x,y,1/2-z
-x,1/2+y,z
x,1/2-y,1/2+z
loop_
_atom_site_type_symbol
_atom_site_label
_atom_site_fract_x
_atom_site_fract_y
_atom_site_fract_z
Si Si1 0.700595 0.848695 0.501164
Si Si2 0.787917 0.337099 0.750000
Si Si3 0.282269 0.365227 0.250000
Si Si4 0.393779 0.334314 0.750000
Si Si5 0.890378 0.357125 0.250000
Si Si6 0.924662 0.095931 0.497574
O O1 0.631804 0.750000 0.500000
O O2 0.644299 0.893422 0.377723
O O3 0.651405 0.885361 0.629450
O O4 0.904858 0.845735 0.498531
O O5 0.590983 0.314229 0.750000
O O6 0.888142 0.246695 0.750000
O O7 0.831616 0.386399 0.627111
O O8 0.295926 0.259004 0.250000
O O9 0.084846 0.390499 0.250000
O O10 0.821383 0.386310 0.379817
O O11 0.000000 0.000000 0.500000
#
# Coordination Sequence:
#
# PCOD9436544 Si02
#       6
#     8   4   4   4   4   8
#     4   9  17  34  57  79 106 149 192 229 279 346
#     4  12  23  37  58  88 118 146 191 246 286 334
#     4   8  16  31  53  78 103 140 187 228 273 332
#     4  10  20  32  54  84 112 146 188 232 283 338
#     4  10  21  38  61  88 113 148 200 246 284 332
#     4  11  22  38  61  88 116 151 193 242 291 338
#
# _framework density 23.569718999999999
#
# number of rings (size 3 to 8) (size 9 to 14) (size 15 to 20)
#    0.000    2.000    0.000    6.750    0.000    6.000 
#    0.000    1.250    0.000    9.000    0.000    0.000 
#    0.000    0.000    0.000    0.000    0.000    0.000 
#
# Total GULP energy -178545.219081 kJ/mol
# GULP energy per Si atom -5579.538096 kJ/mol
# Density = 2.351607 g / cm^3
# Si number density = 23.569719 Si / 1000 Ang^3
#
#
#
# Elastic Constant Matrix: (Units=GPa)
#
#
# Indices 1 2 3 4 5 6 
#
# 1 39.1288 -10.6915 18.9317 0.0000 0.0000 0.0000
# 2 -10.6915 63.7242 12.0844 0.0000 0.0000 0.0000
# 3 18.9317 12.0844 299.8609 0.0000 0.0000 0.0000
# 4 0.0000 0.0000 0.0000 16.8826 0.0000 0.0000
# 5 0.0000 0.0000 0.0000 0.0000 -12.4052 0.0000
# 6 0.0000 0.0000 0.0000 0.0000 0.0000 -5.4924
#
#
#
# Elastic Compliance Matrix: (Units=1/GPa)
#
#
# Indices 1 2 3 4 5 6 
#
# 1 0.027887 0.005051 -0.001964 0.000000 0.000000 0.000000
# 2 0.005051 0.016728 -0.000993 0.000000 0.000000 0.000000
# 3 -0.001964 -0.000993 0.003499 0.000000 0.000000 0.000000
# 4 0.000000 0.000000 0.000000 0.059232 0.000000 0.000000
# 5 0.000000 0.000000 0.000000 0.000000 -0.080612 0.000000
# 6 0.000000 0.000000 0.000000 0.000000 0.000000 -0.182071
#
#
# Mechanical properties :
#
#
# Convention : Reuss Voigt Hill
#
# Bulk Modulus (GPa) = 19.11951 49.26259 34.19105
# Shear Modulus (GPa) = -35.18906 25.28964 -4.94971
#
# Velocity S-wave (km/s) = -3.86810 3.27918 -1.45072
# Velocity P-wave (km/s) = 3.43803 5.93999 3.42516
#
# Compressibility (1/GPa) = 0.05230259
#
# Stress axis : x y z
#
# Youngs Moduli (GPa) = 35.85876 59.77839 285.80314
#
# Poissons Ratio (x) = -0.30196 0.56138
# Poissons Ratio (y) = -0.18113 0.28382
# Poissons Ratio (z) = 0.07043 0.05936
#
# Static dielectric constant tensor:
#      x y z
#    x 1.855790 0.000000 0.000000 
#    y 0.000000 1.827990 0.000000 
#    z 0.000000 0.000000 2.062640 
# 
# From -- ./inp_files/11350.got.cif
#   From: 2010.05.17/outbox.cif.g08.bks.cpg/sg57_6_cif.got.tgz:11350.got - 2010.06.03 13:58:18.
