data_PCOD9436320
_publ_section_title
;
Structure prediction by ZEFSAII (Michael W. Deem and Ramdas Pophale) SiO2 
 PCOD9436320
Probable space group: P B C M
;
_chemical_formula_sum "Si O2"
_cell_formula_units_Z 64
_cell_length_a 9.976766
_cell_length_b 24.340781
_cell_length_c 14.095663
_cell_angle_alpha 90.000000
_cell_angle_beta 90.000000
_cell_angle_gamma 90.000000
_cell_volume 3423.022889
_symmetry_space_group_name_H-M "P B C M"
_symmetry_group_IT_number 57
_symmetry_cell_setting 'orthorhombic'
loop_
_space_group_symop_operation_xyz
x,y,z
-x,-y,1/2+z
x,1/2-y,-z
-x,1/2+y,1/2-z
-x,-y,-z
x,y,1/2-z
-x,1/2+y,z
x,1/2-y,1/2+z
loop_
_atom_site_type_symbol
_atom_site_label
_atom_site_fract_x
_atom_site_fract_y
_atom_site_fract_z
Si Si1 0.714461 0.630253 0.572298
Si Si2 0.118292 0.856954 0.642602
Si Si3 0.535952 0.436416 0.009664
Si Si4 0.138800 0.200284 0.424656
Si Si5 0.607885 0.745963 0.854510
Si Si6 0.905541 0.541302 0.860253
Si Si7 0.573922 0.158352 0.360665
Si Si8 0.161321 0.949520 0.010830
O O1 0.586674 0.590652 0.565560
O O2 0.796011 0.647483 0.477446
O O3 0.649210 0.687874 0.603220
O O4 0.826287 0.599230 0.634583
O O5 0.106983 0.879625 0.750000
O O6 0.267074 0.832103 0.634371
O O7 0.110141 0.902319 0.560558
O O8 0.999351 0.814789 0.624230
O O9 0.542380 0.398073 0.915406
O O10 0.689362 0.435253 0.046330
O O11 0.500000 0.500000 0.000000
O O12 0.119010 0.250000 0.500000
O O13 0.252680 0.221239 0.354405
O O14 0.553830 0.735160 0.750000
O O15 0.505064 0.789005 0.901664
O O16 0.903870 0.522621 0.750000
O O17 0.834509 0.501981 0.939254
O O18 0.055782 0.544350 0.903748
O O19 0.536093 0.152272 0.250000
#
# Coordination Sequence:
#
# PCOD9436320 Si02
#       8
#     8   8   8   8   8   8   8   8
#     4  11  21  38  60  87 118 158 204 246 307 367
#     4  10  19  36  59  86 117 154 198 245 296 354
#     4  11  21  39  60  85 122 160 197 248 302 358
#     4  10  20  35  56  85 117 153 197 250 298 352
#     4  10  20  37  58  85 117 153 200 251 302 363
#     4  11  22  40  63  87 121 159 196 248 303 357
#     4   9  20  37  58  86 119 155 199 248 304 360
#     4  10  22  39  61  88 120 154 202 241 297 367
#
# _framework density 18.696925
#
# number of rings (size 3 to 8) (size 9 to 14) (size 15 to 20)
#    0.000    1.750    3.750    1.125    0.000    0.500 
#    4.500    1.875    0.000    0.000    0.000    0.000 
#    0.000    0.000    0.000    0.000    0.000    0.000 
#
# Total GULP energy -356310.104744 kJ/mol
# GULP energy per Si atom -5567.345387 kJ/mol
# Density = 1.865437 g / cm^3
# Si number density = 18.696925 Si / 1000 Ang^3
#
#
#
# Elastic Constant Matrix: (Units=GPa)
#
#
# Indices 1 2 3 4 5 6 
#
# 1 99.4026 46.8123 26.2762 0.0000 0.0000 0.0000
# 2 46.8123 99.0428 16.8825 0.0000 0.0000 0.0000
# 3 26.2762 16.8825 60.0829 0.0000 0.0000 0.0000
# 4 0.0000 0.0000 0.0000 14.8245 0.0000 0.0000
# 5 0.0000 0.0000 0.0000 0.0000 13.8859 0.0000
# 6 0.0000 0.0000 0.0000 0.0000 0.0000 28.0851
#
#
#
# Elastic Compliance Matrix: (Units=1/GPa)
#
#
# Indices 1 2 3 4 5 6 
#
# 1 0.014001 -0.005854 -0.004478 0.000000 0.000000 0.000000
# 2 -0.005854 0.013052 -0.001107 0.000000 0.000000 0.000000
# 3 -0.004478 -0.001107 0.018913 0.000000 0.000000 0.000000
# 4 0.000000 0.000000 0.000000 0.067456 0.000000 0.000000
# 5 0.000000 0.000000 0.000000 0.000000 0.072016 0.000000
# 6 0.000000 0.000000 0.000000 0.000000 0.000000 0.035606
#
#
# Mechanical properties :
#
#
# Convention : Reuss Voigt Hill
#
# Bulk Modulus (GPa) = 43.31388 48.71893 46.01640
# Shear Modulus (GPa) = 19.87133 22.59623 21.23378
#
# Velocity S-wave (km/s) = 3.26362 3.48020 3.37365
# Velocity P-wave (km/s) = 6.11704 6.50098 6.31193
#
# Compressibility (1/GPa) = 0.02308729
#
# Stress axis : x y z
#
# Youngs Moduli (GPa) = 71.42474 76.61468 52.87300
#
# Poissons Ratio (x) = 0.44851 0.23677
# Poissons Ratio (y) = 0.41813 0.05855
# Poissons Ratio (z) = 0.31984 0.08484
#
# Static dielectric constant tensor:
#      x y z
#    x 1.647200 0.000000 0.000000 
#    y 0.000000 1.677460 0.000000 
#    z 0.000000 0.000000 1.681610 
# 
# From -- ./inp_files/16942.got.cif
#   From: 2010.05.17/outbox.cif.g08.bks.cpg/sg57_9_cif.got.tgz:16942.got - 2010.06.03 13:58:18.
