data_PCOD9436049
_publ_section_title
;
Structure prediction by ZEFSAII (Michael W. Deem and Ramdas Pophale) SiO2 
 PCOD9436049
Probable space group: P B C M
;
_chemical_formula_sum "Si O2"
_cell_formula_units_Z 56
_cell_length_a 21.918393
_cell_length_b 14.872220
_cell_length_c 9.241172
_cell_angle_alpha 90.000000
_cell_angle_beta 90.000000
_cell_angle_gamma 90.000000
_cell_volume 3012.392547
_symmetry_space_group_name_H-M "P B C M"
_symmetry_group_IT_number 57
_symmetry_cell_setting 'orthorhombic'
loop_
_space_group_symop_operation_xyz
x,y,z
-x,-y,1/2+z
x,1/2-y,-z
-x,1/2+y,1/2-z
-x,-y,-z
x,y,1/2-z
-x,1/2+y,z
x,1/2-y,1/2+z
loop_
_atom_site_type_symbol
_atom_site_label
_atom_site_fract_x
_atom_site_fract_y
_atom_site_fract_z
Si Si1 0.911781 0.993715 0.421696
Si Si2 0.994192 0.848066 0.924020
Si Si3 0.695562 0.839575 0.577606
Si Si4 0.768466 0.990723 0.417779
Si Si5 0.438302 0.891493 0.083791
Si Si6 0.441133 0.390611 0.916887
Si Si7 0.316183 0.664038 0.418423
O O1 0.921484 0.975779 0.250000
O O2 0.940045 0.910928 0.512039
O O3 0.839871 0.002718 0.447769
O O4 0.947053 0.087351 0.453790
O O5 0.988531 0.837175 0.750000
O O6 0.996819 0.750000 0.000000
O O7 0.717240 0.750000 0.500000
O O8 0.697055 0.831916 0.750000
O O9 0.737081 0.920361 0.523432
O O10 0.624980 0.856933 0.534083
O O11 0.762199 0.960142 0.250000
O O12 0.730474 0.082119 0.431587
O O13 0.433032 0.862533 0.250000
O O14 0.438262 0.000509 0.080556
O O15 0.502328 0.861762 0.014934
O O16 0.380654 0.859498 0.992227
O O17 0.451333 0.363418 0.750000
O O18 0.290443 0.750000 0.500000
O O19 0.326053 0.682841 0.250000
#
# Coordination Sequence:
#
# PCOD9436049 Si02
#       7
#     8   8   8   8   8   8   8
#     4   9  20  39  61  87 119 155 196 236 280 332
#     4  10  20  36  61  92 124 156 191 234 281 330
#     4  11  23  39  59  84 114 149 192 239 290 348
#     4  10  22  41  62  84 115 154 194 239 284 333
#     4  10  19  34  57  82 109 144 187 237 292 347
#     4   9  19  35  55  80 110 145 186 235 292 349
#     4  11  23  38  58  83 113 149 191 237 290 347
#
# _framework density 18.589874999999999
#
# number of rings (size 3 to 8) (size 9 to 14) (size 15 to 20)
#    0.000    2.000    1.429    1.714    0.000    5.143 
#    0.000    1.429    0.000    0.000    0.000    0.000 
#    0.000    0.000    0.000    0.000    0.000    0.000 
#
# Total GULP energy -312730.443636 kJ/mol
# GULP energy per Si atom -5584.472208 kJ/mol
# Density = 1.854756 g / cm^3
# Si number density = 18.589875 Si / 1000 Ang^3
#
#
#
# Elastic Constant Matrix: (Units=GPa)
#
#
# Indices 1 2 3 4 5 6 
#
# 1 109.5225 38.6604 64.9239 0.0000 0.0000 0.0000
# 2 38.6604 101.0866 65.7720 0.0000 0.0000 0.0000
# 3 64.9239 65.7720 105.8515 0.0000 0.0000 0.0000
# 4 0.0000 0.0000 0.0000 25.4865 0.0000 0.0000
# 5 0.0000 0.0000 0.0000 0.0000 31.4830 0.0000
# 6 0.0000 0.0000 0.0000 0.0000 0.0000 -282.5240
#
#
#
# Elastic Compliance Matrix: (Units=1/GPa)
#
#
# Indices 1 2 3 4 5 6 
#
# 1 0.014357 0.000401 -0.009055 0.000000 0.000000 0.000000
# 2 0.000401 0.016617 -0.010571 0.000000 0.000000 0.000000
# 3 -0.009055 -0.010571 0.021569 0.000000 0.000000 0.000000
# 4 0.000000 0.000000 0.000000 0.039236 0.000000 0.000000
# 5 0.000000 0.000000 0.000000 0.000000 0.031763 0.000000
# 6 0.000000 0.000000 0.000000 0.000000 0.000000 -0.003540
#
#
# Mechanical properties :
#
#
# Convention : Reuss Voigt Hill
#
# Bulk Modulus (GPa) = 70.95614 72.79701 71.87658
# Shear Modulus (GPa) = 30.64642 -35.30395 -2.32877
#
# Velocity S-wave (km/s) = 4.06464 -4.36259 -1.12046
# Velocity P-wave (km/s) = 7.76405 3.72401 6.08888
#
# Compressibility (1/GPa) = 0.01409321
#
# Stress axis : x y z
#
# Youngs Moduli (GPa) = 69.65461 60.17790 46.36212
#
# Poissons Ratio (x) = -0.02411 0.41979
# Poissons Ratio (y) = -0.02791 0.49010
# Poissons Ratio (z) = 0.63069 0.63615
#
# Static dielectric constant tensor:
#      x y z
#    x 1.614370 0.000000 0.000000 
#    y 0.000000 1.653940 0.000000 
#    z 0.000000 0.000000 1.627330 
# 
# From -- ./inp_files/8176.got.cif
#   From: 2010.05.17/outbox.cif.g08.bks.cpg/sg57_5_cif.got.tgz:8176.got - 2010.06.03 13:58:18.
