data_PCOD9436899
_publ_section_title
;
Structure prediction by ZEFSAII (Michael W. Deem and Ramdas Pophale) SiO2 
 PCOD9436899
Probable space group: P B C M
;
_chemical_formula_sum "Si O2"
_cell_formula_units_Z 56
_cell_length_a 18.400714
_cell_length_b 19.423879
_cell_length_c 8.676962
_cell_angle_alpha 90.000000
_cell_angle_beta 90.000000
_cell_angle_gamma 90.000000
_cell_volume 3101.261121
_symmetry_space_group_name_H-M "P B C M"
_symmetry_group_IT_number 57
_symmetry_cell_setting 'orthorhombic'
loop_
_space_group_symop_operation_xyz
x,y,z
-x,-y,1/2+z
x,1/2-y,-z
-x,1/2+y,1/2-z
-x,-y,-z
x,y,1/2-z
-x,1/2+y,z
x,1/2-y,1/2+z
loop_
_atom_site_type_symbol
_atom_site_label
_atom_site_fract_x
_atom_site_fract_y
_atom_site_fract_z
Si Si1 0.366400 0.172270 0.565116
Si Si2 0.527852 0.172396 0.565585
Si Si3 0.200320 0.564127 0.436292
Si Si4 0.322276 0.827321 0.565321
Si Si5 0.766931 0.585901 0.434949
Si Si6 0.966524 0.070534 0.063716
Si Si7 0.908742 0.673501 0.435738
O O1 0.359294 0.250000 0.500000
O O2 0.360613 0.175742 0.750000
O O3 0.447654 0.144579 0.526853
O O4 0.303869 0.124468 0.497818
O O5 0.526406 0.250000 0.500000
O O6 0.535080 0.174115 0.750000
O O7 0.600993 0.141722 0.493833
O O8 0.201389 0.560431 0.250000
O O9 0.255535 0.624429 0.482767
O O10 0.225507 0.491056 0.501996
O O11 0.117157 0.577806 0.485132
O O12 0.314551 0.750000 0.500000
O O13 0.324676 0.823210 0.750000
O O14 0.764916 0.584528 0.250000
O O15 0.838400 0.629157 0.483379
O O16 0.968221 0.067540 0.250000
O O17 0.018775 0.132909 0.014657
O O18 0.000000 0.000000 0.000000
O O19 0.905275 0.750000 0.500000
O O20 0.908543 0.676640 0.250000
#
# Coordination Sequence:
#
# PCOD9436899 Si02
#       7
#     8   8   8   8   8   8   8
#     4  10  20  34  54  81 112 146 187 229 275 328
#     4   9  17  31  53  79 107 143 183 226 275 327
#     4  10  22  38  58  81 110 147 183 225 279 333
#     4  10  20  35  56  83 111 142 182 228 278 330
#     4  11  22  36  55  81 112 147 188 229 274 330
#     4  10  20  38  59  80 108 143 184 226 271 326
#     4  10  22  37  55  83 113 142 182 226 270 323
#
# _framework density 18.057171
#
# number of rings (size 3 to 8) (size 9 to 14) (size 15 to 20)
#    0.000    2.000    1.429    3.000    0.000    6.286 
#    0.000    0.714    0.000    0.000    0.000    0.000 
#    0.000    0.000    0.000    0.000    0.000    0.000 
#
# Total GULP energy -312519.923048 kJ/mol
# GULP energy per Si atom -5580.712912 kJ/mol
# Density = 1.801607 g / cm^3
# Si number density = 18.057171 Si / 1000 Ang^3
#
#
#
# Elastic Constant Matrix: (Units=GPa)
#
#
# Indices 1 2 3 4 5 6 
#
# 1 206.8699 89.3566 46.1584 0.0000 0.0000 0.0000
# 2 89.3566 114.9179 29.0692 0.0000 0.0000 0.0000
# 3 46.1584 29.0692 30.3586 0.0000 0.0000 0.0000
# 4 0.0000 0.0000 0.0000 28.6979 0.0000 0.0000
# 5 0.0000 0.0000 0.0000 0.0000 7.4372 0.0000
# 6 0.0000 0.0000 0.0000 0.0000 0.0000 27.9017
#
#
#
# Elastic Compliance Matrix: (Units=1/GPa)
#
#
# Indices 1 2 3 4 5 6 
#
# 1 0.008828 -0.004578 -0.009039 0.000000 0.000000 0.000000
# 2 -0.004578 0.013857 -0.006308 0.000000 0.000000 0.000000
# 3 -0.009039 -0.006308 0.052723 0.000000 0.000000 0.000000
# 4 0.000000 0.000000 0.000000 0.034846 0.000000 0.000000
# 5 0.000000 0.000000 0.000000 0.000000 0.134460 0.000000
# 6 0.000000 0.000000 0.000000 0.000000 0.000000 0.035840
#
#
# Mechanical properties :
#
#
# Convention : Reuss Voigt Hill
#
# Bulk Modulus (GPa) = 28.12289 75.70162 51.91225
# Shear Modulus (GPa) = 15.04852 25.31151 20.18002
#
# Velocity S-wave (km/s) = 2.88997 3.74805 3.34662
# Velocity P-wave (km/s) = 5.17147 7.79389 6.61396
#
# Compressibility (1/GPa) = 0.03555822
#
# Stress axis : x y z
#
# Youngs Moduli (GPa) = 113.27109 72.16402 18.96689
#
# Poissons Ratio (x) = 0.33038 0.17145
# Poissons Ratio (y) = 0.51857 0.11964
# Poissons Ratio (z) = 1.02389 0.45521
#
# Static dielectric constant tensor:
#      x y z
#    x 1.649300 0.000000 0.000000 
#    y 0.000000 1.572250 0.000000 
#    z 0.000000 0.000000 1.612100 
# 
# From -- ./inp_files/7069.got.cif
#   From: 2010.05.17/outbox.cif.g08.bks.cpg/sg57_4_cif.got.tgz:7069.got - 2010.06.03 13:58:18.
