data_PCOD9436659
_publ_section_title
;
Structure prediction by ZEFSAII (Michael W. Deem and Ramdas Pophale) SiO2 
 PCOD9436659
Probable space group: P B C M
;
_chemical_formula_sum "Si O2"
_cell_formula_units_Z 64
_cell_length_a 16.360759
_cell_length_b 23.856525
_cell_length_c 8.400541
_cell_angle_alpha 90.000000
_cell_angle_beta 90.000000
_cell_angle_gamma 90.000000
_cell_volume 3278.822349
_symmetry_space_group_name_H-M "P B C M"
_symmetry_group_IT_number 57
_symmetry_cell_setting 'orthorhombic'
loop_
_space_group_symop_operation_xyz
x,y,z
-x,-y,1/2+z
x,1/2-y,-z
-x,1/2+y,1/2-z
-x,-y,-z
x,y,1/2-z
-x,1/2+y,z
x,1/2-y,1/2+z
loop_
_atom_site_type_symbol
_atom_site_label
_atom_site_fract_x
_atom_site_fract_y
_atom_site_fract_z
Si Si1 0.548159 0.089919 0.559602
Si Si2 0.908190 0.004400 0.063565
Si Si3 0.664817 0.185269 0.440735
Si Si4 0.156983 0.312441 0.439396
Si Si5 0.821556 0.386197 0.938330
Si Si6 0.032283 0.812957 0.059544
Si Si7 0.387805 0.468928 0.942358
Si Si8 0.785508 0.921282 0.563029
O O1 0.553192 0.094163 0.750000
O O2 0.587654 0.146161 0.488199
O O3 0.456308 0.073019 0.510033
O O4 0.596690 0.033323 0.506905
O O5 0.915560 0.015554 0.250000
O O6 0.848141 0.053015 0.994042
O O7 0.860811 0.947321 0.031566
O O8 0.000000 0.000000 0.000000
O O9 0.663041 0.250000 0.500000
O O10 0.669584 0.188229 0.250000
O O11 0.744326 0.149615 0.502040
O O12 0.170603 0.250000 0.500000
O O13 0.167433 0.315524 0.250000
O O14 0.062006 0.326821 0.476147
O O15 0.214748 0.355752 0.527786
O O16 0.805547 0.392778 0.750000
O O17 0.903286 0.350916 0.968980
O O18 0.044412 0.817007 0.250000
O O19 0.045650 0.750000 0.000000
O O20 0.393986 0.467468 0.750000
O O21 0.298364 0.449458 0.990476
O O22 0.796968 0.931824 0.750000
#
# Coordination Sequence:
#
# PCOD9436659 Si02
#       8
#     8   8   8   8   8   8   8   8
#     4  10  20  37  62  89 115 146 185 229 280 338
#     4  11  23  38  56  82 117 156 197 242 294 346
#     4  11  23  39  58  83 117 155 194 239 292 350
#     4  10  21  37  56  79 107 142 183 227 276 326
#     4  10  22  37  54  78 110 149 192 237 284 337
#     4  10  20  33  52  75 102 139 183 230 275 322
#     4   9  20  38  61  89 118 148 184 229 281 338
#     4  11  22  37  58  84 114 147 184 227 276 332
#
# _framework density 19.519203000000001
#
# number of rings (size 3 to 8) (size 9 to 14) (size 15 to 20)
#    0.000    1.750    0.000    4.125    0.000    8.000 
#    0.000    0.625    0.000    3.000    0.000    0.000 
#    0.000    0.000    0.000    0.000    0.000    0.000 
#
# Total GULP energy -357270.890936 kJ/mol
# GULP energy per Si atom -5582.357671 kJ/mol
# Density = 1.947478 g / cm^3
# Si number density = 19.519203 Si / 1000 Ang^3
#
#
#
# Elastic Constant Matrix: (Units=GPa)
#
#
# Indices 1 2 3 4 5 6 
#
# 1 81.1998 52.3135 17.9622 0.0000 0.0000 0.0000
# 2 52.3135 118.6567 10.1970 0.0000 0.0000 0.0000
# 3 17.9622 10.1970 22.0506 0.0000 0.0000 0.0000
# 4 0.0000 0.0000 0.0000 28.3205 0.0000 0.0000
# 5 0.0000 0.0000 0.0000 0.0000 25.5802 0.0000
# 6 0.0000 0.0000 0.0000 0.0000 0.0000 46.8855
#
#
#
# Elastic Compliance Matrix: (Units=1/GPa)
#
#
# Indices 1 2 3 4 5 6 
#
# 1 0.020173 -0.007791 -0.012830 0.000000 0.000000 0.000000
# 2 -0.007791 0.011786 0.000897 0.000000 0.000000 0.000000
# 3 -0.012830 0.000897 0.055386 0.000000 0.000000 0.000000
# 4 0.000000 0.000000 0.000000 0.035310 0.000000 0.000000
# 5 0.000000 0.000000 0.000000 0.000000 0.039093 0.000000
# 6 0.000000 0.000000 0.000000 0.000000 0.000000 0.021329
#
#
# Mechanical properties :
#
#
# Convention : Reuss Voigt Hill
#
# Bulk Modulus (GPa) = 20.87844 42.53917 31.70881
# Shear Modulus (GPa) = 20.96516 29.58619 25.27568
#
# Velocity S-wave (km/s) = 3.28087 3.89748 3.60239
# Velocity P-wave (km/s) = 5.00717 6.48804 5.79510
#
# Compressibility (1/GPa) = 0.04789630
#
# Stress axis : x y z
#
# Youngs Moduli (GPa) = 49.57123 84.84871 18.05495
#
# Poissons Ratio (x) = 0.66109 0.23164
# Poissons Ratio (y) = 0.38623 -0.01619
# Poissons Ratio (z) = 0.63598 -0.07608
#
# Static dielectric constant tensor:
#      x y z
#    x 1.670360 0.000000 0.000000 
#    y 0.000000 1.907230 0.000000 
#    z 0.000000 0.000000 1.685270 
# 
# From -- ./inp_files/5627.got.cif
#   From: 2010.05.17/outbox.cif.g08.bks.cpg/sg57_3_cif.got.tgz:5627.got - 2010.06.03 13:58:18.
