data_PCOD9436752
_publ_section_title
;
Structure prediction by ZEFSAII (Michael W. Deem and Ramdas Pophale) SiO2 
 PCOD9436752
Probable space group: P B C M
;
_chemical_formula_sum "Si O2"
_cell_formula_units_Z 64
_cell_length_a 20.366805
_cell_length_b 20.943856
_cell_length_c 8.427260
_cell_angle_alpha 90.000000
_cell_angle_beta 90.000000
_cell_angle_gamma 90.000000
_cell_volume 3594.727231
_symmetry_space_group_name_H-M "P B C M"
_symmetry_group_IT_number 57
_symmetry_cell_setting 'orthorhombic'
loop_
_space_group_symop_operation_xyz
x,y,z
-x,-y,1/2+z
x,1/2-y,-z
-x,1/2+y,1/2-z
-x,-y,-z
x,y,1/2-z
-x,1/2+y,z
x,1/2-y,1/2+z
loop_
_atom_site_type_symbol
_atom_site_label
_atom_site_fract_x
_atom_site_fract_y
_atom_site_fract_z
Si Si1 0.423087 0.320290 0.439879
Si Si2 0.176437 0.071263 0.559711
Si Si3 0.674497 0.428325 0.056775
Si Si4 0.175147 0.929467 0.058047
Si Si5 0.323586 0.426824 0.940104
Si Si6 0.075274 0.820293 0.058279
Si Si7 0.075553 0.179711 0.558358
Si Si8 0.573957 0.320326 0.441864
O O1 0.403632 0.250000 0.500000
O O2 0.422336 0.319923 0.250000
O O3 0.374562 0.374630 0.500187
O O4 0.498528 0.331681 0.493341
O O5 0.176786 0.071234 0.750000
O O6 0.249847 0.085889 0.500045
O O7 0.124791 0.124525 0.503678
O O8 0.158608 0.000385 0.500851
O O9 0.673275 0.427374 0.250000
O O10 0.749740 0.415038 0.008385
O O11 0.658457 0.500892 0.007355
O O12 0.623134 0.375369 0.001151
O O13 0.174313 0.930670 0.250000
O O14 0.124358 0.875638 0.003243
O O15 0.322540 0.426328 0.750000
O O16 0.076014 0.820084 0.250000
O O17 0.999867 0.831643 0.006399
O O18 0.094932 0.750000 0.000000
O O19 0.095233 0.250000 0.500000
O O20 0.075984 0.180014 0.750000
O O21 0.593535 0.250000 0.500000
O O22 0.574705 0.320228 0.250000
#
# Coordination Sequence:
#
# PCOD9436752 Si02
#       8
#     8   8   8   8   8   8   8   8
#     4  10  20  34  52  74 100 130 164 203 245 291
#     4  10  20  34  51  73 101 130 166 210 250 294
#     4   8  16  32  51  71  98 132 164 197 242 292
#     4   9  18  33  52  73 101 135 167 202 247 297
#     4  10  20  35  54  74  99 131 165 203 250 301
#     4   9  18  33  51  73 101 132 167 205 247 295
#     4   9  19  34  51  72  99 130 164 205 249 294
#     4   9  18  33  51  72 100 131 164 202 243 289
#
# _framework density 17.803854999999999
#
# number of rings (size 3 to 8) (size 9 to 14) (size 15 to 20)
#    0.000    2.750    0.000    1.875    0.000    4.000 
#    0.000    4.375    0.000    0.000    0.000    0.000 
#    0.000    0.000    0.000    0.000    0.000    0.000 
#
# Total GULP energy -356909.513600 kJ/mol
# GULP energy per Si atom -5576.711150 kJ/mol
# Density = 1.776333 g / cm^3
# Si number density = 17.803855 Si / 1000 Ang^3
#
#
#
# Elastic Constant Matrix: (Units=GPa)
#
#
# Indices 1 2 3 4 5 6 
#
# 1 120.4633 139.3308 22.0072 0.0000 0.0000 0.0000
# 2 139.3308 191.5344 24.5078 0.0000 0.0000 0.0000
# 3 22.0072 24.5078 17.1299 0.0000 0.0000 0.0000
# 4 0.0000 0.0000 0.0000 29.6666 0.0000 0.0000
# 5 0.0000 0.0000 0.0000 0.0000 9.6854 0.0000
# 6 0.0000 0.0000 0.0000 0.0000 0.0000 45.4311
#
#
#
# Elastic Compliance Matrix: (Units=1/GPa)
#
#
# Indices 1 2 3 4 5 6 
#
# 1 0.055992 -0.038591 -0.016721 0.000000 0.000000 0.000000
# 2 -0.038591 0.032989 0.002381 0.000000 0.000000 0.000000
# 3 -0.016721 0.002381 0.076452 0.000000 0.000000 0.000000
# 4 0.000000 0.000000 0.000000 0.033708 0.000000 0.000000
# 5 0.000000 0.000000 0.000000 0.000000 0.103248 0.000000
# 6 0.000000 0.000000 0.000000 0.000000 0.000000 0.022011
#
#
# Mechanical properties :
#
#
# Convention : Reuss Voigt Hill
#
# Bulk Modulus (GPa) = 16.78666 77.86879 47.32772
# Shear Modulus (GPa) = 11.10814 26.50874 18.80844
#
# Velocity S-wave (km/s) = 2.50054 3.86286 3.25380
# Velocity P-wave (km/s) = 4.21736 7.98295 6.38411
#
# Compressibility (1/GPa) = 0.05957112
#
# Stress axis : x y z
#
# Youngs Moduli (GPa) = 17.85978 30.31273 13.08002
#
# Poissons Ratio (x) = 1.16981 0.21871
# Poissons Ratio (y) = 0.68923 -0.03115
# Poissons Ratio (z) = 0.29863 -0.07218
#
# Static dielectric constant tensor:
#      x y z
#    x 1.603630 0.000000 0.000000 
#    y 0.000000 1.586840 0.000000 
#    z 0.000000 0.000000 1.608530 
# 
# From -- ./inp_files/7226.got.cif
#   From: 2010.05.17/outbox.cif.g08.bks.cpg/sg57_4_cif.got.tgz:7226.got - 2010.06.03 13:58:18.
