data_PCOD9436267
_publ_section_title
;
Structure prediction by ZEFSAII (Michael W. Deem and Ramdas Pophale) SiO2 
 PCOD9436267
Probable space group: P B C M
;
_chemical_formula_sum "Si O2"
_cell_formula_units_Z 40
_cell_length_a 10.022381
_cell_length_b 8.622823
_cell_length_c 19.357916
_cell_angle_alpha 90.000000
_cell_angle_beta 90.000000
_cell_angle_gamma 90.000000
_cell_volume 1672.934667
_symmetry_space_group_name_H-M "P B C M"
_symmetry_group_IT_number 57
_symmetry_cell_setting 'orthorhombic'
loop_
_space_group_symop_operation_xyz
x,y,z
-x,-y,1/2+z
x,1/2-y,-z
-x,1/2+y,1/2-z
-x,-y,-z
x,y,1/2-z
-x,1/2+y,z
x,1/2-y,1/2+z
loop_
_atom_site_type_symbol
_atom_site_label
_atom_site_fract_x
_atom_site_fract_y
_atom_site_fract_z
Si Si1 0.176326 0.162648 0.565390
Si Si2 0.685869 0.252792 0.670236
Si Si3 0.615478 0.408783 0.538484
Si Si4 0.949048 0.455754 0.826299
Si Si5 0.736794 0.894505 0.828860
O O1 0.116372 0.250000 0.500000
O O2 0.279191 0.267866 0.610747
O O3 0.259661 0.021297 0.535225
O O4 0.072563 0.085182 0.616572
O O5 0.646506 0.272755 0.750000
O O6 0.598145 0.355741 0.618263
O O7 0.837135 0.321972 0.664027
O O8 0.686116 0.068723 0.655108
O O9 0.643133 0.250000 0.500000
O O10 0.500000 0.500000 0.500000
O O11 0.921878 0.523252 0.750000
O O12 0.101354 0.405032 0.827510
O O13 0.694283 0.853009 0.750000
#
# Coordination Sequence:
#
# PCOD9436267 Si02
#       5
#     8   8   8   8   8
#     4  11  22  35  57  90 125 162 204 251 299 355
#     4   9  19  36  60  90 123 159 205 255 298 359
#     4  11  24  44  66  85 113 155 204 259 325 379
#     4   9  18  34  57  88 129 172 205 237 287 354
#     4  10  19  35  61  93 129 167 202 240 294 358
#
# _framework density 23.910080000000001
#
# number of rings (size 3 to 8) (size 9 to 14) (size 15 to 20)
#    0.000    2.000    0.000    3.600    0.000    4.800 
#    0.000    6.000    0.000    7.200    0.000    0.000 
#    0.000    0.000    0.000    0.000    0.000    0.000 
#
# Total GULP energy -223768.571816 kJ/mol
# GULP energy per Si atom -5594.214295 kJ/mol
# Density = 2.385566 g / cm^3
# Si number density = 23.910080 Si / 1000 Ang^3
#
#
#
# Elastic Constant Matrix: (Units=GPa)
#
#
# Indices 1 2 3 4 5 6 
#
# 1 55.5319 20.6528 17.1159 0.0000 0.0000 0.0000
# 2 20.6528 128.5854 65.4544 0.0000 0.0000 0.0000
# 3 17.1159 65.4544 101.3372 0.0000 0.0000 0.0000
# 4 0.0000 0.0000 0.0000 46.3762 0.0000 0.0000
# 5 0.0000 0.0000 0.0000 0.0000 17.3165 0.0000
# 6 0.0000 0.0000 0.0000 0.0000 0.0000 27.1480
#
#
#
# Elastic Compliance Matrix: (Units=1/GPa)
#
#
# Indices 1 2 3 4 5 6 
#
# 1 0.019390 -0.002156 -0.001882 0.000000 0.000000 0.000000
# 2 -0.002156 0.011826 -0.007274 0.000000 0.000000 0.000000
# 3 -0.001882 -0.007274 0.014885 0.000000 0.000000 0.000000
# 4 0.000000 0.000000 0.000000 0.021563 0.000000 0.000000
# 5 0.000000 0.000000 0.000000 0.000000 0.057748 0.000000
# 6 0.000000 0.000000 0.000000 0.000000 0.000000 0.036835
#
#
# Mechanical properties :
#
#
# Convention : Reuss Voigt Hill
#
# Bulk Modulus (GPa) = 42.59892 54.65563 48.62727
# Shear Modulus (GPa) = 25.94743 30.31690 28.13217
#
# Velocity S-wave (km/s) = 3.29782 3.56470 3.43386
# Velocity P-wave (km/s) = 5.68822 6.31278 6.00862
#
# Compressibility (1/GPa) = 0.02347478
#
# Stress axis : x y z
#
# Youngs Moduli (GPa) = 51.57374 84.55817 67.18373
#
# Poissons Ratio (x) = 0.18232 0.12646
# Poissons Ratio (y) = 0.11120 0.48872
# Poissons Ratio (z) = 0.09707 0.61511
#
# Static dielectric constant tensor:
#      x y z
#    x 1.879390 0.000000 0.000000 
#    y 0.000000 1.901150 0.000000 
#    z 0.000000 0.000000 1.997320 
# 
# From -- ./inp_files/21614.got.cif
#   From: 2010.05.17/outbox.cif.g08.bks.cpg/sg57_11_cif.got.tgz:21614.got - 2010.06.03 13:58:18.
