data_PCOD9436969
_publ_section_title
;
Structure prediction by ZEFSAII (Michael W. Deem and Ramdas Pophale) SiO2 
 PCOD9436969
Probable space group: P B C M
;
_chemical_formula_sum "Si O2"
_cell_formula_units_Z 48
_cell_length_a 28.826063
_cell_length_b 5.127865
_cell_length_c 15.261655
_cell_angle_alpha 90.000000
_cell_angle_beta 90.000000
_cell_angle_gamma 90.000000
_cell_volume 2255.919230
_symmetry_space_group_name_H-M "P B C M"
_symmetry_group_IT_number 57
_symmetry_cell_setting 'orthorhombic'
loop_
_space_group_symop_operation_xyz
x,y,z
-x,-y,1/2+z
x,1/2-y,-z
-x,1/2+y,1/2-z
-x,-y,-z
x,y,1/2-z
-x,1/2+y,z
x,1/2-y,1/2+z
loop_
_atom_site_type_symbol
_atom_site_label
_atom_site_fract_x
_atom_site_fract_y
_atom_site_fract_z
Si Si1 0.224451 0.500570 0.063084
Si Si2 0.025736 0.100196 0.854988
Si Si3 0.322035 0.139161 0.598372
Si Si4 0.624107 0.132913 0.850009
Si Si5 0.526551 0.587481 0.357201
Si Si6 0.122528 0.998544 0.562262
O O1 0.269944 0.454489 0.121371
O O2 0.173597 0.524888 0.105959
O O3 0.232224 0.750000 0.000000
O O4 0.221408 0.250000 0.000000
O O5 0.021369 0.110571 0.750000
O O6 0.078144 0.025233 0.876696
O O7 0.990521 0.880106 0.889448
O O8 0.320907 0.250000 0.500000
O O9 0.341246 0.386369 0.650775
O O10 0.354561 0.885603 0.603985
O O11 0.614961 0.218628 0.750000
O O12 0.576102 0.019513 0.887625
O O13 0.528179 0.592248 0.250000
O O14 0.512340 0.877356 0.384217
O O15 0.117380 0.750000 0.500000
O O16 0.122443 0.250000 0.500000
#
# Coordination Sequence:
#
# PCOD9436969 Si02
#       6
#     8   8   8   8   8   8
#     4   9  18  34  55  79 105 138 179 220 263 318
#     4  10  21  36  52  74 109 146 174 208 265 329
#     4  11  21  37  59  80 110 151 184 214 272 345
#     4  11  22  36  57  86 113 137 181 238 274 309
#     4   9  17  31  52  76 103 139 179 218 266 322
#     4  10  20  34  56  81 103 132 180 232 263 297
#
# _framework density 21.277360000000002
#
# number of rings (size 3 to 8) (size 9 to 14) (size 15 to 20)
#    0.000    2.000    0.000    5.000    0.000    4.667 
#    0.000    1.667    0.000   12.000    0.000    0.000 
#    0.000    0.000    0.000    0.000    0.000    0.000 
#
# Total GULP energy -268000.742324 kJ/mol
# GULP energy per Si atom -5583.348798 kJ/mol
# Density = 2.122893 g / cm^3
# Si number density = 21.277360 Si / 1000 Ang^3
#
#
#
# Elastic Constant Matrix: (Units=GPa)
#
#
# Indices 1 2 3 4 5 6 
#
# 1 95.2169 5.3384 1.6558 0.0000 0.0000 0.0000
# 2 5.3384 126.4791 2.0923 0.0000 0.0000 0.0000
# 3 1.6558 2.0923 15.1150 0.0000 0.0000 0.0000
# 4 0.0000 0.0000 0.0000 18.9645 0.0000 0.0000
# 5 0.0000 0.0000 0.0000 0.0000 34.6791 0.0000
# 6 0.0000 0.0000 0.0000 0.0000 0.0000 35.3946
#
#
#
# Elastic Compliance Matrix: (Units=1/GPa)
#
#
# Indices 1 2 3 4 5 6 
#
# 1 0.010545 -0.000427 -0.001096 0.000000 0.000000 0.000000
# 2 -0.000427 0.007942 -0.001053 0.000000 0.000000 0.000000
# 3 -0.001096 -0.001053 0.066425 0.000000 0.000000 0.000000
# 4 0.000000 0.000000 0.000000 0.052730 0.000000 0.000000
# 5 0.000000 0.000000 0.000000 0.000000 0.028836 0.000000
# 6 0.000000 0.000000 0.000000 0.000000 0.000000 0.028253
#
#
# Mechanical properties :
#
#
# Convention : Reuss Voigt Hill
#
# Bulk Modulus (GPa) = 12.53744 28.33154 20.43449
# Shear Modulus (GPa) = 22.07803 32.98927 27.53365
#
# Velocity S-wave (km/s) = 3.22472 3.94183 3.60117
# Velocity P-wave (km/s) = 4.44638 5.83624 5.18806
#
# Compressibility (1/GPa) = 0.07976109
#
# Stress axis : x y z
#
# Youngs Moduli (GPa) = 94.82864 125.91479 15.05454
#
# Poissons Ratio (x) = 0.05376 0.01650
# Poissons Ratio (y) = 0.04049 0.01585
# Poissons Ratio (z) = 0.10394 0.13253
#
# Static dielectric constant tensor:
#      x y z
#    x 1.824020 0.000000 0.000000 
#    y 0.000000 1.749070 0.000000 
#    z 0.000000 0.000000 1.776970 
# 
# From -- ./inp_files/19564.got.cif
#   From: 2010.05.17/outbox.cif.g08.bks.cpg/sg57_10_cif.got.tgz:19564.got - 2010.06.03 13:58:18.
