data_PCOD9436961
_publ_section_title
;
Structure prediction by ZEFSAII (Michael W. Deem and Ramdas Pophale) SiO2 
 PCOD9436961
Probable space group: P B C M
;
_chemical_formula_sum "Si O2"
_cell_formula_units_Z 64
_cell_length_a 11.446863
_cell_length_b 22.193718
_cell_length_c 14.178558
_cell_angle_alpha 90.000000
_cell_angle_beta 90.000000
_cell_angle_gamma 90.000000
_cell_volume 3602.040675
_symmetry_space_group_name_H-M "P B C M"
_symmetry_group_IT_number 57
_symmetry_cell_setting 'orthorhombic'
loop_
_space_group_symop_operation_xyz
x,y,z
-x,-y,1/2+z
x,1/2-y,-z
-x,1/2+y,1/2-z
-x,-y,-z
x,y,1/2-z
-x,1/2+y,z
x,1/2-y,1/2+z
loop_
_atom_site_type_symbol
_atom_site_label
_atom_site_fract_x
_atom_site_fract_y
_atom_site_fract_z
Si Si1 0.496901 0.428733 0.993311
Si Si2 0.045327 0.095906 0.002092
Si Si3 0.298469 0.604793 0.359464
Si Si4 0.905516 0.490118 0.639118
Si Si5 0.714816 0.846271 0.518818
Si Si6 0.604556 0.336581 0.138318
Si Si7 0.829270 0.181410 0.513618
Si Si8 0.375447 0.236248 0.638736
O O1 0.422912 0.592683 0.093545
O O2 0.552575 0.394700 0.083877
O O3 0.500000 0.500000 0.000000
O O4 0.366019 0.404932 0.981982
O O5 0.152177 0.136810 0.036079
O O6 0.937891 0.137296 0.968472
O O7 0.089722 0.052191 0.918584
O O8 0.997774 0.053663 0.086531
O O9 0.306931 0.620325 0.250000
O O10 0.218217 0.544775 0.369317
O O11 0.233535 0.656303 0.419208
O O12 0.489674 0.783041 0.379485
O O13 0.930440 0.497691 0.750000
O O14 0.659493 0.799615 0.593303
O O15 0.610855 0.346265 0.250000
O O16 0.300126 0.313164 0.081988
O O17 0.729794 0.322307 0.093620
O O18 0.867346 0.250000 0.500000
O O19 0.355789 0.234837 0.750000
#
# Coordination Sequence:
#
# PCOD9436961 Si02
#       8
#     8   8   8   8   8   8   8   8
#     4  10  20  34  55  86 114 144 185 229 277 333
#     4  10  21  37  57  83 114 150 187 230 279 328
#     4   9  19  36  57  81 109 145 187 231 280 329
#     4   9  19  38  60  80 109 150 190 231 280 332
#     4  10  21  35  57  80 114 149 185 227 276 338
#     4   9  20  38  58  80 111 146 185 233 283 328
#     4  10  22  35  56  81 111 145 187 234 278 329
#     4   9  20  37  57  79 107 146 185 227 281 336
#
# _framework density 17.767704999999999
#
# number of rings (size 3 to 8) (size 9 to 14) (size 15 to 20)
#    0.000    2.500    0.000    0.750    7.000    4.000 
#    0.000    2.500    0.000    0.000    0.000    0.000 
#    0.000    0.000    0.000    0.000    0.000    0.000 
#
# Total GULP energy -357076.334187 kJ/mol
# GULP energy per Si atom -5579.317722 kJ/mol
# Density = 1.772726 g / cm^3
# Si number density = 17.767705 Si / 1000 Ang^3
#
#
#
# Elastic Constant Matrix: (Units=GPa)
#
#
# Indices 1 2 3 4 5 6 
#
# 1 82.5487 25.8907 31.0949 0.0000 0.0000 0.0000
# 2 25.8907 91.9259 25.0974 0.0000 0.0000 0.0000
# 3 31.0949 25.0974 111.8472 0.0000 0.0000 0.0000
# 4 0.0000 0.0000 0.0000 13.6648 0.0000 0.0000
# 5 0.0000 0.0000 0.0000 0.0000 13.1842 0.0000
# 6 0.0000 0.0000 0.0000 0.0000 0.0000 15.3677
#
#
#
# Elastic Compliance Matrix: (Units=1/GPa)
#
#
# Indices 1 2 3 4 5 6 
#
# 1 0.014335 -0.003142 -0.003280 0.000000 0.000000 0.000000
# 2 -0.003142 0.012277 -0.001881 0.000000 0.000000 0.000000
# 3 -0.003280 -0.001881 0.010275 0.000000 0.000000 0.000000
# 4 0.000000 0.000000 0.000000 0.073181 0.000000 0.000000
# 5 0.000000 0.000000 0.000000 0.000000 0.075849 0.000000
# 6 0.000000 0.000000 0.000000 0.000000 0.000000 0.065071
#
#
# Mechanical properties :
#
#
# Convention : Reuss Voigt Hill
#
# Bulk Modulus (GPa) = 49.31009 50.05420 49.68215
# Shear Modulus (GPa) = 18.22459 22.05925 20.14192
#
# Velocity S-wave (km/s) = 3.20615 3.52737 3.37059
# Velocity P-wave (km/s) = 6.44351 6.69495 6.57043
#
# Compressibility (1/GPa) = 0.02027982
#
# Stress axis : x y z
#
# Youngs Moduli (GPa) = 69.75865 81.45399 97.32458
#
# Poissons Ratio (x) = 0.25592 0.31926
# Poissons Ratio (y) = 0.21917 0.18310
# Poissons Ratio (z) = 0.22883 0.15324
#
# Static dielectric constant tensor:
#      x y z
#    x 1.600850 0.000000 0.000000 
#    y 0.000000 1.603950 0.000000 
#    z 0.000000 0.000000 1.582440 
# 
# From -- ./inp_files/17989.got.cif
#   From: 2010.05.17/outbox.cif.g08.bks.cpg/sg57_9_cif.got.tgz:17989.got - 2010.06.03 13:58:18.
