data_PCOD9436337
_publ_section_title
;
Structure prediction by ZEFSAII (Michael W. Deem and Ramdas Pophale) SiO2 
 PCOD9436337
Probable space group: P B C M
;
_chemical_formula_sum "Si O2"
_cell_formula_units_Z 32
_cell_length_a 3.836676
_cell_length_b 22.567407
_cell_length_c 11.451580
_cell_angle_alpha 90.000000
_cell_angle_beta 90.000000
_cell_angle_gamma 90.000000
_cell_volume 991.521642
_symmetry_space_group_name_H-M "P B C M"
_symmetry_group_IT_number 57
_symmetry_cell_setting 'orthorhombic'
loop_
_space_group_symop_operation_xyz
x,y,z
-x,-y,1/2+z
x,1/2-y,-z
-x,1/2+y,1/2-z
-x,-y,-z
x,y,1/2-z
-x,1/2+y,z
x,1/2-y,1/2+z
loop_
_atom_site_type_symbol
_atom_site_label
_atom_site_fract_x
_atom_site_fract_y
_atom_site_fract_z
Si Si1 0.780662 0.815393 0.001005
Si Si2 0.740568 0.687895 0.750000
Si Si3 0.796582 0.684564 0.250000
Si Si4 0.218885 0.938190 0.007899
Si Si5 0.744864 0.434064 0.750000
Si Si6 0.341974 0.439167 0.250000
O O1 0.600805 0.816261 0.873821
O O2 0.959533 0.750000 0.000000
O O3 0.566744 0.812458 0.122246
O O4 0.003868 0.875966 0.006628
O O5 0.884375 0.621083 0.750000
O O6 0.958534 0.749009 0.750000
O O7 0.015019 0.624040 0.250000
O O8 0.446223 0.939199 0.126876
O O9 0.416779 0.935035 0.881085
O O10 0.000000 0.000000 0.000000
O O11 0.888398 0.501224 0.750000
#
# Coordination Sequence:
#
# PCOD9436337 Si02
#       6
#     8   4   4   8   4   4
#     4   9  18  36  62  87 119 170 218 252 315 399
#     4  10  19  36  60  92 125 164 213 268 322 381
#     4   8  18  36  62  87 124 175 211 249 321 401
#     4  11  22  39  62  90 129 176 215 262 332 395
#     4  10  21  38  60  94 129 166 216 268 319 381
#     4  12  24  38  62  97 132 163 220 283 316 375
#
# _framework density 32.273622000000003
#
# number of rings (size 3 to 8) (size 9 to 14) (size 15 to 20)
#    0.000    2.000    0.000    3.750    0.000    0.000 
#    0.000    5.000    0.000   33.000    0.000    0.000 
#    0.000    0.000    0.000    0.000    0.000    0.000 
#
# Total GULP energy -178380.232308 kJ/mol
# GULP energy per Si atom -5574.382260 kJ/mol
# Density = 3.220017 g / cm^3
# Si number density = 32.273622 Si / 1000 Ang^3
#
#
#
# Elastic Constant Matrix: (Units=GPa)
#
#
# Indices 1 2 3 4 5 6 
#
# 1 76.7253 99.3097 84.4315 0.0000 0.0000 0.0000
# 2 99.3097 458.0662 17.5694 0.0000 0.0000 0.0000
# 3 84.4315 17.5694 487.5262 0.0000 0.0000 0.0000
# 4 0.0000 0.0000 0.0000 53.7290 0.0000 0.0000
# 5 0.0000 0.0000 0.0000 0.0000 60.3234 0.0000
# 6 0.0000 0.0000 0.0000 0.0000 0.0000 89.9097
#
#
#
# Elastic Compliance Matrix: (Units=1/GPa)
#
#
# Indices 1 2 3 4 5 6 
#
# 1 0.023898 -0.005029 -0.003958 0.000000 0.000000 0.000000
# 2 -0.005029 0.003245 0.000754 0.000000 0.000000 0.000000
# 3 -0.003958 0.000754 0.002709 0.000000 0.000000 0.000000
# 4 0.000000 0.000000 0.000000 0.018612 0.000000 0.000000
# 5 0.000000 0.000000 0.000000 0.000000 0.016577 0.000000
# 6 0.000000 0.000000 0.000000 0.000000 0.000000 0.011122
#
#
# Mechanical properties :
#
#
# Convention : Reuss Voigt Hill
#
# Bulk Modulus (GPa) = 74.70184 158.32654 116.51419
# Shear Modulus (GPa) = 51.49762 95.52623 73.51192
#
# Velocity S-wave (km/s) = 3.99890 5.44639 4.77778
# Velocity P-wave (km/s) = 6.67220 9.41886 8.16190
#
# Compressibility (1/GPa) = 0.01338655
#
# Stress axis : x y z
#
# Youngs Moduli (GPa) = 41.84375 308.20829 369.08804
#
# Poissons Ratio (x) = 1.55011 1.46069
# Poissons Ratio (y) = 0.21045 -0.27832
# Poissons Ratio (z) = 0.16560 -0.23242
#
# Static dielectric constant tensor:
#      x y z
#    x 2.639980 0.000000 0.000000 
#    y 0.000000 2.426920 0.000000 
#    z 0.000000 0.000000 2.398160 
# 
# From -- ./inp_files/10794.got.cif
#   From: 2010.05.17/outbox.cif.g08.bks.cpg/sg57_6_cif.got.tgz:10794.got - 2010.06.03 13:58:18.
