data_PCOD9436319
_publ_section_title
;
Structure prediction by ZEFSAII (Michael W. Deem and Ramdas Pophale) SiO2 
 PCOD9436319
Probable space group: P B C M
;
_chemical_formula_sum "Si O2"
_cell_formula_units_Z 48
_cell_length_a 14.287522
_cell_length_b 8.365820
_cell_length_c 16.237769
_cell_angle_alpha 90.000000
_cell_angle_beta 90.000000
_cell_angle_gamma 90.000000
_cell_volume 1940.849173
_symmetry_space_group_name_H-M "P B C M"
_symmetry_group_IT_number 57
_symmetry_cell_setting 'orthorhombic'
loop_
_space_group_symop_operation_xyz
x,y,z
-x,-y,1/2+z
x,1/2-y,-z
-x,1/2+y,1/2-z
-x,-y,-z
x,y,1/2-z
-x,1/2+y,z
x,1/2-y,1/2+z
loop_
_atom_site_type_symbol
_atom_site_label
_atom_site_fract_x
_atom_site_fract_y
_atom_site_fract_z
Si Si1 0.300207 0.446928 0.155285
Si Si2 0.642049 0.088494 0.849817
Si Si3 0.139052 0.243337 0.594024
Si Si4 0.535217 0.771586 0.649980
Si Si5 0.185040 0.737876 0.092874
Si Si6 0.021416 0.548783 0.155228
O O1 0.305041 0.503892 0.250000
O O2 0.227650 0.298441 0.150359
O O3 0.400151 0.380759 0.129410
O O4 0.252752 0.583445 0.101894
O O5 0.647234 0.085478 0.750000
O O6 0.570556 0.231800 0.874280
O O7 0.745559 0.119054 0.883294
O O8 0.589752 0.928200 0.879129
O O9 0.170114 0.250000 0.500000
O O10 0.077438 0.393553 0.621067
O O11 0.068483 0.092922 0.604039
O O12 0.534541 0.781906 0.750000
O O13 0.096269 0.695000 0.148732
O O14 0.150816 0.750000 0.000000
O O15 0.015264 0.500000 0.250000
#
# Coordination Sequence:
#
# PCOD9436319 Si02
#       6
#     8   8   8   8   8   8
#     4  10  21  41  62  85 117 159 201 242 290 352
#     4  10  19  36  59  86 115 152 196 243 293 350
#     4  11  23  39  61  90 122 156 193 245 301 349
#     4   9  19  34  60  88 113 148 197 244 288 343
#     4  11  23  38  57  85 118 154 194 242 297 350
#     4  11  23  42  64  88 118 159 201 242 289 352
#
# _framework density 24.731439999999999
#
# number of rings (size 3 to 8) (size 9 to 14) (size 15 to 20)
#    0.000    1.667    0.000    6.000    0.000    8.000 
#    0.000    7.500    0.000    0.000    0.000    0.000 
#    0.000    0.000    0.000    0.000    0.000    0.000 
#
# Total GULP energy -268768.373661 kJ/mol
# GULP energy per Si atom -5599.341118 kJ/mol
# Density = 2.467515 g / cm^3
# Si number density = 24.731440 Si / 1000 Ang^3
#
#
#
# Elastic Constant Matrix: (Units=GPa)
#
#
# Indices 1 2 3 4 5 6 
#
# 1 111.2066 12.7945 -7.0830 0.0000 0.0000 0.0000
# 2 12.7945 60.2616 9.3418 0.0000 0.0000 0.0000
# 3 -7.0830 9.3418 65.5319 0.0000 0.0000 0.0000
# 4 0.0000 0.0000 0.0000 -144.0451 0.0000 0.0000
# 5 0.0000 0.0000 0.0000 0.0000 398.7132 0.0000
# 6 0.0000 0.0000 0.0000 0.0000 0.0000 47.5138
#
#
#
# Elastic Compliance Matrix: (Units=1/GPa)
#
#
# Indices 1 2 3 4 5 6 
#
# 1 0.009328 -0.002185 0.001320 0.000000 0.000000 0.000000
# 2 -0.002185 0.017481 -0.002728 0.000000 0.000000 0.000000
# 3 0.001320 -0.002728 0.015791 0.000000 0.000000 0.000000
# 4 0.000000 0.000000 0.000000 -0.006942 0.000000 0.000000
# 5 0.000000 0.000000 0.000000 0.000000 0.002508 0.000000
# 6 0.000000 0.000000 0.000000 0.000000 0.000000 0.021046
#
#
# Mechanical properties :
#
#
# Convention : Reuss Voigt Hill
#
# Bulk Modulus (GPa) = 28.23809 29.67851 28.95830
# Shear Modulus (GPa) = 63.93551 75.23284 69.58417
#
# Velocity S-wave (km/s) = 5.08999 5.52141 5.31008
# Velocity P-wave (km/s) = 6.78135 7.25771 7.02357
#
# Compressibility (1/GPa) = 0.03541317
#
# Stress axis : x y z
#
# Youngs Moduli (GPa) = 107.20738 57.20451 63.32606
#
# Poissons Ratio (x) = 0.12499 -0.08357
# Poissons Ratio (y) = 0.23425 0.17276
# Poissons Ratio (z) = -0.14148 0.15606
#
# Static dielectric constant tensor:
#      x y z
#    x 1.923770 0.000000 0.000000 
#    y 0.000000 2.069610 0.000000 
#    z 0.000000 0.000000 1.839940 
# 
# From -- ./inp_files/18924.got.cif
#   From: 2010.05.17/outbox.cif.g08.bks.cpg/sg57_10_cif.got.tgz:18924.got - 2010.06.03 13:58:18.
