data_PCOD9436550
_publ_section_title
;
Structure prediction by ZEFSAII (Michael W. Deem and Ramdas Pophale) SiO2 
 PCOD9436550
Probable space group: P B C M
;
_chemical_formula_sum "Si O2"
_cell_formula_units_Z 52
_cell_length_a 9.317201
_cell_length_b 13.679354
_cell_length_c 17.197790
_cell_angle_alpha 90.000000
_cell_angle_beta 90.000000
_cell_angle_gamma 90.000000
_cell_volume 2191.914929
_symmetry_space_group_name_H-M "P B C M"
_symmetry_group_IT_number 57
_symmetry_cell_setting 'orthorhombic'
loop_
_space_group_symop_operation_xyz
x,y,z
-x,-y,1/2+z
x,1/2-y,-z
-x,1/2+y,1/2-z
-x,-y,-z
x,y,1/2-z
-x,1/2+y,z
x,1/2-y,1/2+z
loop_
_atom_site_type_symbol
_atom_site_label
_atom_site_fract_x
_atom_site_fract_y
_atom_site_fract_z
Si Si1 0.534562 0.833620 0.341416
Si Si2 0.403837 0.113407 0.160603
Si Si3 0.896879 0.346190 0.551817
Si Si4 0.192504 0.816462 0.342036
Si Si5 0.936286 0.469725 0.750000
Si Si6 0.305898 0.515171 0.383177
Si Si7 0.132144 0.477366 0.601728
O O1 0.547190 0.863767 0.250000
O O2 0.608739 0.729004 0.350212
O O3 0.364073 0.821598 0.355392
O O4 0.613474 0.912880 0.394304
O O5 0.372865 0.087866 0.250000
O O6 0.567996 0.085451 0.146207
O O7 0.296834 0.054209 0.106506
O O8 0.884178 0.250000 0.500000
O O9 0.867765 0.289838 0.634926
O O10 0.772901 0.428372 0.546958
O O11 0.043572 0.406825 0.544219
O O12 0.164983 0.833573 0.250000
O O13 0.122825 0.904772 0.391243
O O14 0.816760 0.497159 0.818440
O O15 0.056048 0.448110 0.682474
#
# Coordination Sequence:
#
# PCOD9436550 Si02
#       7
#     8   8   8   8   4   8   8
#     4  10  20  32  62 102 131 162 209 270 334 386
#     4  11  19  34  62  99 132 165 208 272 336 392
#     4  11  28  47  64  91 136 187 225 263 331 409
#     4  11  22  39  70 102 129 167 220 281 345 390
#     4  10  20  32  56  98 126 168 192 264 332 390
#     4  11  20  38  63  87 133 168 216 266 324 390
#     4  11  23  39  64  95 136 163 214 276 338 389
#
# _framework density 23.723549999999999
#
# number of rings (size 3 to 8) (size 9 to 14) (size 15 to 20)
#    0.000    1.231    6.154    0.000    4.308    3.077 
#    0.000    1.538    0.000    0.000    0.000    0.000 
#    0.000    0.000    0.000    0.000    0.000    0.000 
#
# Total GULP energy -289559.705024 kJ/mol
# GULP energy per Si atom -5568.455866 kJ/mol
# Density = 2.366955 g / cm^3
# Si number density = 23.723550 Si / 1000 Ang^3
#
#
#
# Elastic Constant Matrix: (Units=GPa)
#
#
# Indices 1 2 3 4 5 6 
#
# 1 66.1400 0.2558 -3.3533 0.0000 0.0000 0.0000
# 2 0.2558 126.1415 6.0361 0.0000 0.0000 0.0000
# 3 -3.3533 6.0361 37.5140 0.0000 0.0000 0.0000
# 4 0.0000 0.0000 0.0000 30.9761 0.0000 0.0000
# 5 0.0000 0.0000 0.0000 0.0000 17.6846 0.0000
# 6 0.0000 0.0000 0.0000 0.0000 0.0000 39.0474
#
#
#
# Elastic Compliance Matrix: (Units=1/GPa)
#
#
# Indices 1 2 3 4 5 6 
#
# 1 0.015189 -0.000097 0.001373 0.000000 0.000000 0.000000
# 2 -0.000097 0.007990 -0.001294 0.000000 0.000000 0.000000
# 3 0.001373 -0.001294 0.026988 0.000000 0.000000 0.000000
# 4 0.000000 0.000000 0.000000 0.032283 0.000000 0.000000
# 5 0.000000 0.000000 0.000000 0.000000 0.056546 0.000000
# 6 0.000000 0.000000 0.000000 0.000000 0.000000 0.025610
#
#
# Mechanical properties :
#
#
# Convention : Reuss Voigt Hill
#
# Bulk Modulus (GPa) = 19.94731 26.18584 23.06658
# Shear Modulus (GPa) = 27.57076 32.66543 30.11809
#
# Velocity S-wave (km/s) = 3.41276 3.71471 3.56693
# Velocity P-wave (km/s) = 4.89446 5.42777 5.16800
#
# Compressibility (1/GPa) = 0.05013206
#
# Stress axis : x y z
#
# Youngs Moduli (GPa) = 65.83519 125.16072 37.05387
#
# Poissons Ratio (x) = 0.01208 -0.05089
# Poissons Ratio (y) = 0.00635 0.04795
# Poissons Ratio (z) = -0.09041 0.16198
#
# Static dielectric constant tensor:
#      x y z
#    x 1.854490 0.000000 0.000000 
#    y 0.000000 1.929750 0.000000 
#    z 0.000000 0.000000 2.020710 
# 
# From -- ./inp_files/24346.got.cif
#   From: 2010.05.17/outbox.cif.g08.bks.cpg/sg57_13_cif.got.tgz:24346.got - 2010.06.03 13:58:18.
