data_PCOD9436842
_publ_section_title
;
Structure prediction by ZEFSAII (Michael W. Deem and Ramdas Pophale) SiO2 
 PCOD9436842
Probable space group: P B C M
;
_chemical_formula_sum "Si O2"
_cell_formula_units_Z 64
_cell_length_a 12.623553
_cell_length_b 29.494674
_cell_length_c 9.200108
_cell_angle_alpha 90.000000
_cell_angle_beta 90.000000
_cell_angle_gamma 90.000000
_cell_volume 3425.453952
_symmetry_space_group_name_H-M "P B C M"
_symmetry_group_IT_number 57
_symmetry_cell_setting 'orthorhombic'
loop_
_space_group_symop_operation_xyz
x,y,z
-x,-y,1/2+z
x,1/2-y,-z
-x,1/2+y,1/2-z
-x,-y,-z
x,y,1/2-z
-x,1/2+y,z
x,1/2-y,1/2+z
loop_
_atom_site_type_symbol
_atom_site_label
_atom_site_fract_x
_atom_site_fract_y
_atom_site_fract_z
Si Si1 0.505138 0.562482 0.918285
Si Si2 0.328095 0.009518 0.424523
Si Si3 0.946986 0.701101 0.077031
Si Si4 0.493804 0.166531 0.918771
Si Si5 0.098012 0.974268 0.073958
Si Si6 0.701967 0.702142 0.078996
Si Si7 0.106624 0.632784 0.924593
Si Si8 0.714677 0.295517 0.424313
O O1 0.526804 0.550806 0.750000
O O2 0.406827 0.531659 0.967531
O O3 0.472257 0.614373 0.924267
O O4 0.611527 0.552176 0.007240
O O5 0.328154 0.012934 0.250000
O O6 0.208606 0.998422 0.469406
O O7 0.966394 0.705660 0.250000
O O8 0.823570 0.688066 0.055351
O O9 0.964241 0.750000 0.000000
O O10 0.018486 0.662288 0.006622
O O11 0.471784 0.178173 0.750000
O O12 0.593257 0.196030 0.970425
O O13 0.388159 0.171332 0.010869
O O14 0.088824 0.976971 0.250000
O O15 0.104829 0.920515 0.036506
O O16 0.000000 0.000000 0.000000
O O17 0.685657 0.707172 0.250000
O O18 0.688846 0.750000 0.000000
O O19 0.090366 0.635484 0.750000
O O20 0.215425 0.659979 0.956662
O O21 0.756569 0.250000 0.500000
O O22 0.716349 0.289559 0.250000
#
# Coordination Sequence:
#
# PCOD9436842 Si02
#       8
#     8   8   8   8   8   8   8   8
#     4   9  18  33  55  80 104 136 177 219 262 312
#     4   9  18  35  56  77 105 139 175 217 268 320
#     4  10  21  37  57  81 109 142 182 228 275 325
#     4  10  20  34  53  78 109 142 176 215 261 315
#     4  10  22  39  58  80 109 146 184 227 280 334
#     4  10  21  36  53  74 103 138 174 213 258 308
#     4  10  21  38  59  81 108 144 185 227 275 332
#     4  10  21  36  55  81 112 145 180 220 268 323
#
# _framework density 18.683655000000002
#
# number of rings (size 3 to 8) (size 9 to 14) (size 15 to 20)
#    0.000    2.250    0.000    2.250    0.000   10.000 
#    0.000    5.000    0.000    4.500    0.000    0.000 
#    0.000    0.000    0.000    0.000    0.000    0.000 
#
# Total GULP energy -357011.883768 kJ/mol
# GULP energy per Si atom -5578.310684 kJ/mol
# Density = 1.864113 g / cm^3
# Si number density = 18.683655 Si / 1000 Ang^3
#
#
#
# Elastic Constant Matrix: (Units=GPa)
#
#
# Indices 1 2 3 4 5 6 
#
# 1 114.0976 49.0944 44.0331 0.0000 0.0000 0.0000
# 2 49.0944 77.2555 24.2351 0.0000 0.0000 0.0000
# 3 44.0331 24.2351 30.7554 0.0000 0.0000 0.0000
# 4 0.0000 0.0000 0.0000 30.4007 0.0000 0.0000
# 5 0.0000 0.0000 0.0000 0.0000 -23.3307 0.0000
# 6 0.0000 0.0000 0.0000 0.0000 0.0000 21.2500
#
#
#
# Elastic Compliance Matrix: (Units=1/GPa)
#
#
# Indices 1 2 3 4 5 6 
#
# 1 0.021057 -0.005212 -0.026040 0.000000 0.000000 0.000000
# 2 -0.005212 0.018485 -0.007103 0.000000 0.000000 0.000000
# 3 -0.026040 -0.007103 0.075394 0.000000 0.000000 0.000000
# 4 0.000000 0.000000 0.000000 0.032894 0.000000 0.000000
# 5 0.000000 0.000000 0.000000 0.000000 -0.042862 0.000000
# 6 0.000000 0.000000 0.000000 0.000000 0.000000 0.047059
#
#
# Mechanical properties :
#
#
# Convention : Reuss Voigt Hill
#
# Bulk Modulus (GPa) = 26.16148 50.75930 38.46039
# Shear Modulus (GPa) = 20.70580 12.64706 16.67643
#
# Velocity S-wave (km/s) = 3.33262 2.60456 2.99083
# Velocity P-wave (km/s) = 5.37040 6.02260 5.70583
#
# Compressibility (1/GPa) = 0.03822414
#
# Stress axis : x y z
#
# Youngs Moduli (GPa) = 47.49083 54.09886 13.26371
#
# Poissons Ratio (x) = 0.28198 0.34539
# Poissons Ratio (y) = 0.24754 0.09421
# Poissons Ratio (z) = 1.23666 0.38427
#
# Static dielectric constant tensor:
#      x y z
#    x 1.658580 0.000000 0.000000 
#    y 0.000000 1.653340 0.000000 
#    z 0.000000 0.000000 1.634650 
# 
# From -- ./inp_files/3883.got.cif
#   From: 2010.05.17/outbox.cif.g08.bks.cpg/sg57_2_cif.got.tgz:3883.got - 2010.06.03 13:58:18.
