data_PCOD9436926
_publ_section_title
;
Structure prediction by ZEFSAII (Michael W. Deem and Ramdas Pophale) SiO2 
 PCOD9436926
Probable space group: P B C M
;
_chemical_formula_sum "Si O2"
_cell_formula_units_Z 56
_cell_length_a 18.377424
_cell_length_b 19.415179
_cell_length_c 8.849323
_cell_angle_alpha 90.000000
_cell_angle_beta 90.000000
_cell_angle_gamma 90.000000
_cell_volume 3157.447088
_symmetry_space_group_name_H-M "P B C M"
_symmetry_group_IT_number 57
_symmetry_cell_setting 'orthorhombic'
loop_
_space_group_symop_operation_xyz
x,y,z
-x,-y,1/2+z
x,1/2-y,-z
-x,1/2+y,1/2-z
-x,-y,-z
x,y,1/2-z
-x,1/2+y,z
x,1/2-y,1/2+z
loop_
_atom_site_type_symbol
_atom_site_label
_atom_site_fract_x
_atom_site_fract_y
_atom_site_fract_z
Si Si1 0.503664 0.173619 0.431543
Si Si2 0.629737 0.420124 0.069226
Si Si3 0.916738 0.674038 0.431012
Si Si4 0.919408 0.174387 0.431959
Si Si5 0.365475 0.080492 0.431671
Si Si6 0.785558 0.079320 0.430896
Si Si7 0.209685 0.417245 0.429239
O O1 0.503357 0.250000 0.500000
O O2 0.506945 0.177685 0.250000
O O3 0.571447 0.129407 0.492190
O O4 0.430759 0.131302 0.474006
O O5 0.624167 0.414763 0.250000
O O6 0.617648 0.500771 0.026140
O O7 0.711080 0.401950 0.015018
O O8 0.907410 0.750000 0.500000
O O9 0.912324 0.677758 0.250000
O O10 0.854422 0.625017 0.493665
O O11 0.998863 0.650527 0.473185
O O12 0.908855 0.250000 0.500000
O O13 0.917240 0.179051 0.250000
O O14 0.854642 0.124128 0.479806
O O15 0.357179 0.081906 0.250000
O O16 0.289185 0.101022 0.506346
O O17 0.774998 0.088033 0.250000
O O18 0.800028 0.998678 0.458571
O O19 0.208319 0.405777 0.250000
#
# Coordination Sequence:
#
# PCOD9436926 Si02
#       7
#     8   8   8   8   8   8   8
#     4  11  23  38  56  80 109 140 175 218 265 313
#     4  10  20  36  58  82 107 139 178 218 265 318
#     4  10  20  35  54  76 105 140 178 220 266 317
#     4   9  19  35  54  76 104 140 179 219 264 314
#     4   9  20  38  58  79 106 141 180 220 263 314
#     4   9  19  36  55  78 109 142 178 219 264 314
#     4  10  20  34  55  81 108 140 177 218 265 316
#
# _framework density 17.735847
#
# number of rings (size 3 to 8) (size 9 to 14) (size 15 to 20)
#    0.000    2.286    0.000    2.143    0.000    5.143 
#    0.000    2.857    0.000    0.000    0.000    0.000 
#    0.000    0.000    0.000    0.000    0.000    0.000 
#
# Total GULP energy -312594.480589 kJ/mol
# GULP energy per Si atom -5582.044296 kJ/mol
# Density = 1.769548 g / cm^3
# Si number density = 17.735847 Si / 1000 Ang^3
#
#
#
# Elastic Constant Matrix: (Units=GPa)
#
#
# Indices 1 2 3 4 5 6 
#
# 1 190.9339 114.4641 71.9284 0.0000 0.0000 0.0000
# 2 114.4641 97.5371 51.9333 0.0000 0.0000 0.0000
# 3 71.9284 51.9333 46.8868 0.0000 0.0000 0.0000
# 4 0.0000 0.0000 0.0000 28.1666 0.0000 0.0000
# 5 0.0000 0.0000 0.0000 0.0000 -363.6288 0.0000
# 6 0.0000 0.0000 0.0000 0.0000 0.0000 177.5602
#
#
#
# Elastic Compliance Matrix: (Units=1/GPa)
#
#
# Indices 1 2 3 4 5 6 
#
# 1 0.019867 -0.017275 -0.011343 0.000000 0.000000 0.000000
# 2 -0.017275 0.040013 -0.017818 0.000000 0.000000 0.000000
# 3 -0.011343 -0.017818 0.058465 0.000000 0.000000 0.000000
# 4 0.000000 0.000000 0.000000 0.035503 0.000000 0.000000
# 5 0.000000 0.000000 0.000000 0.000000 -0.002750 0.000000
# 6 0.000000 0.000000 0.000000 0.000000 0.000000 0.005632
#
#
# Mechanical properties :
#
#
# Convention : Reuss Voigt Hill
#
# Bulk Modulus (GPa) = 39.25814 90.22325 64.74070
# Shear Modulus (GPa) = 19.37289 -25.11160 -2.86936
#
# Velocity S-wave (km/s) = 3.30858 -3.76688 -1.27332
# Velocity P-wave (km/s) = 6.06454 5.66231 5.86687
#
# Compressibility (1/GPa) = 0.02547242
#
# Stress axis : x y z
#
# Youngs Moduli (GPa) = 50.33485 24.99207 17.10424
#
# Poissons Ratio (x) = 0.43174 0.19402
# Poissons Ratio (y) = 0.86954 0.30476
# Poissons Ratio (z) = 0.57096 0.44531
#
# Static dielectric constant tensor:
#      x y z
#    x 1.588070 0.000000 0.000000 
#    y 0.000000 1.578950 0.000000 
#    z 0.000000 0.000000 1.593630 
# 
# From -- ./inp_files/5154.got.cif
#   From: 2010.05.17/outbox.cif.g08.bks.cpg/sg57_3_cif.got.tgz:5154.got - 2010.06.03 13:58:18.
