data_PCOD9436614
_publ_section_title
;
Structure prediction by ZEFSAII (Michael W. Deem and Ramdas Pophale) SiO2 
 PCOD9436614
Probable space group: P B C M
;
_chemical_formula_sum "Si O2"
_cell_formula_units_Z 64
_cell_length_a 21.757041
_cell_length_b 14.989809
_cell_length_c 8.966609
_cell_angle_alpha 90.000000
_cell_angle_beta 90.000000
_cell_angle_gamma 90.000000
_cell_volume 2924.315064
_symmetry_space_group_name_H-M "P B C M"
_symmetry_group_IT_number 57
_symmetry_cell_setting 'orthorhombic'
loop_
_space_group_symop_operation_xyz
x,y,z
-x,-y,1/2+z
x,1/2-y,-z
-x,1/2+y,1/2-z
-x,-y,-z
x,y,1/2-z
-x,1/2+y,z
x,1/2-y,1/2+z
loop_
_atom_site_type_symbol
_atom_site_label
_atom_site_fract_x
_atom_site_fract_y
_atom_site_fract_z
Si Si1 0.069934 0.603299 0.426305
Si Si2 0.439247 0.347846 0.572870
Si Si3 0.684073 0.106010 0.415279
Si Si4 0.683099 0.604654 0.585934
Si Si5 0.936190 0.907867 0.929721
Si Si6 0.560137 0.152003 0.572474
Si Si7 0.197293 0.390421 0.921032
Si Si8 0.194241 0.609646 0.578653
O O1 0.081149 0.609607 0.250000
O O2 0.065195 0.499287 0.475864
O O3 0.128804 0.639514 0.513436
O O4 0.001349 0.639191 0.459811
O O5 0.437101 0.250000 0.500000
O O6 0.446542 0.345164 0.750000
O O7 0.373880 0.386695 0.525301
O O8 0.499456 0.392710 0.499154
O O9 0.671241 0.144216 0.250000
O O10 0.625482 0.114635 0.521665
O O11 0.747112 0.141564 0.484978
O O12 0.693574 0.000587 0.399000
O O13 0.667455 0.641956 0.750000
O O14 0.747071 0.641503 0.523352
O O15 0.935361 0.928842 0.750000
O O16 0.871543 0.860493 0.962460
O O17 0.560948 0.250000 0.500000
O O18 0.554202 0.154055 0.750000
O O19 0.210200 0.366054 0.750000
O O20 0.194694 0.499983 0.925739
O O21 0.200512 0.636016 0.750000
#
# Coordination Sequence:
#
# PCOD9436614 Si02
#       8
#     8   8   8   8   8   8   8   8
#     4   9  14  20  32  51  77 113 155 196 237 283
#     4  11  22  38  58  77 100 129 162 200 243 291
#     4  10  20  34  52  75 102 132 167 205 245 291
#     4  10  20  33  50  74 102 131 165 204 246 293
#     4   8  14  22  32  49  77 114 155 195 236 285
#     4  11  22  38  58  78 102 130 162 200 243 291
#     4   8  14  25  39  57  85 121 158 196 240 287
#     4   9  16  26  39  58  87 122 158 197 242 289
#
# _framework density 21.885466000000001
#
# number of rings (size 3 to 8) (size 9 to 14) (size 15 to 20)
#    0.000    2.500    0.000    5.250    0.000    5.500 
#    0.000    0.000    0.000    0.000    0.000    0.000 
#    0.000    1.000    0.000    8.000    0.000   14.250 
#
# Total GULP energy -357038.254964 kJ/mol
# GULP energy per Si atom -5578.722734 kJ/mol
# Density = 2.183565 g / cm^3
# Si number density = 21.885466 Si / 1000 Ang^3
#
#
#
# Elastic Constant Matrix: (Units=GPa)
#
#
# Indices 1 2 3 4 5 6 
#
# 1 191.0855 4.7036 90.5842 0.0000 0.0000 0.0000
# 2 4.7036 36.1351 9.1117 0.0000 0.0000 0.0000
# 3 90.5842 9.1117 162.1347 0.0000 0.0000 0.0000
# 4 0.0000 0.0000 0.0000 9.5314 0.0000 0.0000
# 5 0.0000 0.0000 0.0000 0.0000 -11.7285 0.0000
# 6 0.0000 0.0000 0.0000 0.0000 0.0000 14.8122
#
#
#
# Elastic Compliance Matrix: (Units=1/GPa)
#
#
# Indices 1 2 3 4 5 6 
#
# 1 0.007119 0.000077 -0.003982 0.000000 0.000000 0.000000
# 2 0.000077 0.028073 -0.001621 0.000000 0.000000 0.000000
# 3 -0.003982 -0.001621 0.008483 0.000000 0.000000 0.000000
# 4 0.000000 0.000000 0.000000 0.104916 0.000000 0.000000
# 5 0.000000 0.000000 0.000000 0.000000 -0.085263 0.000000
# 6 0.000000 0.000000 0.000000 0.000000 0.000000 0.067512
#
#
# Mechanical properties :
#
#
# Convention : Reuss Voigt Hill
#
# Bulk Modulus (GPa) = 30.65185 66.46159 48.55672
# Shear Modulus (GPa) = 32.72996 21.52008 27.12502
#
# Velocity S-wave (km/s) = 3.87138 3.13917 3.52434
# Velocity P-wave (km/s) = 5.83262 6.60099 6.22866
#
# Compressibility (1/GPa) = 0.03262446
#
# Stress axis : x y z
#
# Youngs Moduli (GPa) = 140.47213 35.62203 117.87836
#
# Poissons Ratio (x) = -0.00276 0.46935
# Poissons Ratio (y) = -0.01086 0.19106
# Poissons Ratio (z) = 0.55931 0.05774
#
# Static dielectric constant tensor:
#      x y z
#    x 1.856650 0.000000 0.000000 
#    y 0.000000 1.906240 0.000000 
#    z 0.000000 0.000000 1.774170 
# 
# From -- ./inp_files/7168.got.cif
#   From: 2010.05.17/outbox.cif.g08.bks.cpg/sg57_4_cif.got.tgz:7168.got - 2010.06.03 13:58:18.
