data_PCOD9436122
_publ_section_title
;
Structure prediction by ZEFSAII (Michael W. Deem and Ramdas Pophale) SiO2 
 PCOD9436122
Probable space group: P B C M
;
_chemical_formula_sum "Si O2"
_cell_formula_units_Z 48
_cell_length_a 10.178719
_cell_length_b 14.533974
_cell_length_c 14.380705
_cell_angle_alpha 90.000000
_cell_angle_beta 90.000000
_cell_angle_gamma 90.000000
_cell_volume 2127.441768
_symmetry_space_group_name_H-M "P B C M"
_symmetry_group_IT_number 57
_symmetry_cell_setting 'orthorhombic'
loop_
_space_group_symop_operation_xyz
x,y,z
-x,-y,1/2+z
x,1/2-y,-z
-x,1/2+y,1/2-z
-x,-y,-z
x,y,1/2-z
-x,1/2+y,z
x,1/2-y,1/2+z
loop_
_atom_site_type_symbol
_atom_site_label
_atom_site_fract_x
_atom_site_fract_y
_atom_site_fract_z
Si Si1 0.065841 0.499568 0.900067
Si Si2 0.398494 0.003119 0.864410
Si Si3 0.983222 0.203609 0.859984
Si Si4 0.285264 0.197995 0.863711
Si Si5 0.662447 0.902569 0.637069
Si Si6 0.167174 0.876281 0.853232
O O1 0.082960 0.604566 0.869513
O O2 0.200003 0.444137 0.895570
O O3 0.952745 0.447408 0.843592
O O4 0.000000 0.500000 0.000000
O O5 0.393306 0.003852 0.750000
O O6 0.359762 0.105890 0.894747
O O7 0.540164 0.965231 0.892013
O O8 0.287083 0.931407 0.897939
O O9 0.997089 0.225060 0.750000
O O10 0.896731 0.286867 0.899839
O O11 0.132882 0.196945 0.895390
O O12 0.284422 0.195119 0.750000
O O13 0.347223 0.295618 0.891186
O O14 0.666124 0.903753 0.750000
O O15 0.214535 0.848278 0.750000
#
# Coordination Sequence:
#
# PCOD9436122 Si02
#       6
#     8   8   8   8   8   8
#     4  12  24  36  54  85 117 156 195 239 290 351
#     4   9  18  32  57  89 119 146 190 252 306 353
#     4  10  19  34  61  86 108 146 199 248 290 344
#     4   9  16  30  56  85 110 146 190 240 298 346
#     4  10  20  36  57  85 119 153 195 245 297 354
#     4  10  19  36  60  85 110 147 195 244 290 341
#
# _framework density 22.562308999999999
#
# number of rings (size 3 to 8) (size 9 to 14) (size 15 to 20)
#    0.000    2.000    3.333    1.500    0.000    2.000 
#    0.000    5.833    0.000    0.000    0.000    0.000 
#    0.000    0.000    0.000    0.000    0.000    0.000 
#
# Total GULP energy -268339.621323 kJ/mol
# GULP energy per Si atom -5590.408778 kJ/mol
# Density = 2.251096 g / cm^3
# Si number density = 22.562309 Si / 1000 Ang^3
#
#
#
# Elastic Constant Matrix: (Units=GPa)
#
#
# Indices 1 2 3 4 5 6 
#
# 1 147.9681 54.2797 8.0320 0.0000 0.0000 0.0000
# 2 54.2797 130.0549 7.1414 0.0000 0.0000 0.0000
# 3 8.0320 7.1414 57.8737 0.0000 0.0000 0.0000
# 4 0.0000 0.0000 0.0000 15.6567 0.0000 0.0000
# 5 0.0000 0.0000 0.0000 0.0000 18.1145 0.0000
# 6 0.0000 0.0000 0.0000 0.0000 0.0000 34.7798
#
#
#
# Elastic Compliance Matrix: (Units=1/GPa)
#
#
# Indices 1 2 3 4 5 6 
#
# 1 0.008008 -0.003304 -0.000704 0.000000 0.000000 0.000000
# 2 -0.003304 0.009104 -0.000665 0.000000 0.000000 0.000000
# 3 -0.000704 -0.000665 0.017459 0.000000 0.000000 0.000000
# 4 0.000000 0.000000 0.000000 0.063871 0.000000 0.000000
# 5 0.000000 0.000000 0.000000 0.000000 0.055204 0.000000
# 6 0.000000 0.000000 0.000000 0.000000 0.000000 0.028752
#
#
# Mechanical properties :
#
#
# Convention : Reuss Voigt Hill
#
# Bulk Modulus (GPa) = 39.64068 52.75590 46.19829
# Shear Modulus (GPa) = 24.98094 31.47309 28.22702
#
# Velocity S-wave (km/s) = 3.33107 3.73894 3.54088
# Velocity P-wave (km/s) = 5.69230 6.48634 6.10225
#
# Compressibility (1/GPa) = 0.02522661
#
# Stress axis : x y z
#
# Youngs Moduli (GPa) = 124.86997 109.83690 57.27791
#
# Poissons Ratio (x) = 0.36287 0.04031
# Poissons Ratio (y) = 0.41253 0.03809
# Poissons Ratio (z) = 0.08788 0.07304
#
# Static dielectric constant tensor:
#      x y z
#    x 1.771490 0.000000 0.000000 
#    y 0.000000 1.838920 0.000000 
#    z 0.000000 0.000000 1.951670 
# 
# From -- ./inp_files/20916.got.cif
#   From: 2010.05.17/outbox.cif.g08.bks.cpg/sg57_11_cif.got.tgz:20916.got - 2010.06.03 13:58:18.
