data_PCOD9436623
_publ_section_title
;
Structure prediction by ZEFSAII (Michael W. Deem and Ramdas Pophale) SiO2 
 PCOD9436623
Probable space group: P B C M
;
_chemical_formula_sum "Si O2"
_cell_formula_units_Z 48
_cell_length_a 12.870314
_cell_length_b 18.640826
_cell_length_c 9.282056
_cell_angle_alpha 90.000000
_cell_angle_beta 90.000000
_cell_angle_gamma 90.000000
_cell_volume 2226.888536
_symmetry_space_group_name_H-M "P B C M"
_symmetry_group_IT_number 57
_symmetry_cell_setting 'orthorhombic'
loop_
_space_group_symop_operation_xyz
x,y,z
-x,-y,1/2+z
x,1/2-y,-z
-x,1/2+y,1/2-z
-x,-y,-z
x,y,1/2-z
-x,1/2+y,z
x,1/2-y,1/2+z
loop_
_atom_site_type_symbol
_atom_site_label
_atom_site_fract_x
_atom_site_fract_y
_atom_site_fract_z
Si Si1 0.738163 0.458859 0.589019
Si Si2 0.514775 0.320669 0.414525
Si Si3 0.619402 0.928671 0.916561
Si Si4 0.064214 0.441335 0.088160
Si Si5 0.233734 0.820839 0.084444
Si Si6 0.822363 0.675410 0.417882
O O1 0.703129 0.437158 0.750000
O O2 0.651301 0.497542 0.493303
O O3 0.824762 0.519849 0.604018
O O4 0.788931 0.392250 0.505473
O O5 0.479847 0.250000 0.500000
O O6 0.477206 0.319303 0.250000
O O7 0.470197 0.388452 0.497484
O O8 0.639825 0.319602 0.413019
O O9 0.593228 0.941071 0.750000
O O10 0.718581 0.874140 0.921219
O O11 0.022844 0.428411 0.250000
O O12 0.087128 0.369560 0.998261
O O13 0.000000 0.500000 0.000000
O O14 0.198235 0.822662 0.250000
O O15 0.198142 0.750000 0.000000
O O16 0.804952 0.750000 0.500000
O O17 0.847661 0.687535 0.250000
#
# Coordination Sequence:
#
# PCOD9436623 Si02
#       6
#     8   8   8   8   8   8
#     4  10  21  37  57  80 106 137 174 216 264 318
#     4  10  20  33  50  74 105 142 182 223 266 311
#     4  10  20  33  52  78 108 143 180 219 264 314
#     4  10  21  38  60  84 110 140 174 215 265 320
#     4  10  21  37  56  77 104 140 181 224 268 312
#     4  10  20  34  54  81 112 144 178 217 263 315
#
# _framework density 21.554739999999999
#
# number of rings (size 3 to 8) (size 9 to 14) (size 15 to 20)
#    0.000    2.000    0.000    3.500    0.000    8.000 
#    0.000    0.833    0.000    4.000    0.000    0.000 
#    0.000    0.000    0.000    0.000    0.000    0.000 
#
# Total GULP energy -268254.591712 kJ/mol
# GULP energy per Si atom -5588.637327 kJ/mol
# Density = 2.150568 g / cm^3
# Si number density = 21.554740 Si / 1000 Ang^3
#
#
#
# Elastic Constant Matrix: (Units=GPa)
#
#
# Indices 1 2 3 4 5 6 
#
# 1 21.6601 -3.0952 15.7416 0.0000 0.0000 0.0000
# 2 -3.0952 105.1052 60.4935 0.0000 0.0000 0.0000
# 3 15.7416 60.4935 208.9041 0.0000 0.0000 0.0000
# 4 0.0000 0.0000 0.0000 37.2782 0.0000 0.0000
# 5 0.0000 0.0000 0.0000 0.0000 21.2529 0.0000
# 6 0.0000 0.0000 0.0000 0.0000 0.0000 30.9703
#
#
#
# Elastic Compliance Matrix: (Units=1/GPa)
#
#
# Indices 1 2 3 4 5 6 
#
# 1 0.050492 0.004412 -0.005082 0.000000 0.000000 0.000000
# 2 0.004412 0.011803 -0.003750 0.000000 0.000000 0.000000
# 3 -0.005082 -0.003750 0.006256 0.000000 0.000000 0.000000
# 4 0.000000 0.000000 0.000000 0.026825 0.000000 0.000000
# 5 0.000000 0.000000 0.000000 0.000000 0.047052 0.000000
# 6 0.000000 0.000000 0.000000 0.000000 0.000000 0.032289
#
#
# Mechanical properties :
#
#
# Convention : Reuss Voigt Hill
#
# Bulk Modulus (GPa) = 16.74778 53.54990 35.14884
# Shear Modulus (GPa) = 24.57470 35.40225 29.98847
#
# Velocity S-wave (km/s) = 3.38021 4.05709 3.73402
# Velocity P-wave (km/s) = 4.79804 6.84429 5.91039
#
# Compressibility (1/GPa) = 0.05970941
#
# Stress axis : x y z
#
# Youngs Moduli (GPa) = 19.80515 84.72675 159.85087
#
# Poissons Ratio (x) = -0.37382 0.81242
# Poissons Ratio (y) = -0.08738 0.59948
# Poissons Ratio (z) = 0.10066 0.31774
#
# Static dielectric constant tensor:
#      x y z
#    x 1.821490 0.000000 0.000000 
#    y 0.000000 1.751840 0.000000 
#    z 0.000000 0.000000 1.764580 
# 
# From -- ./inp_files/4547.got.cif
#   From: 2010.05.17/outbox.cif.g08.bks.cpg/sg57_3_cif.got.tgz:4547.got - 2010.06.03 13:58:18.
