data_PCOD9436364
_publ_section_title
;
Structure prediction by ZEFSAII (Michael W. Deem and Ramdas Pophale) SiO2 
 PCOD9436364
Probable space group: P B C M
;
_chemical_formula_sum "Si O2"
_cell_formula_units_Z 48
_cell_length_a 4.886255
_cell_length_b 16.615614
_cell_length_c 26.948270
_cell_angle_alpha 90.000000
_cell_angle_beta 90.000000
_cell_angle_gamma 90.000000
_cell_volume 2187.879567
_symmetry_space_group_name_H-M "P B C M"
_symmetry_group_IT_number 57
_symmetry_cell_setting 'orthorhombic'
loop_
_space_group_symop_operation_xyz
x,y,z
-x,-y,1/2+z
x,1/2-y,-z
-x,1/2+y,1/2-z
-x,-y,-z
x,y,1/2-z
-x,1/2+y,z
x,1/2-y,1/2+z
loop_
_atom_site_type_symbol
_atom_site_label
_atom_site_fract_x
_atom_site_fract_y
_atom_site_fract_z
Si Si1 0.359373 0.392280 0.445655
Si Si2 0.148395 0.354741 0.944513
Si Si3 0.624273 0.057875 0.095679
Si Si4 0.103586 0.790116 0.805176
Si Si5 0.604066 0.593450 0.305287
Si Si6 0.890596 0.193992 0.594581
O O1 0.230793 0.374830 0.499317
O O2 0.456985 0.483453 0.438916
O O3 0.606918 0.334334 0.429593
O O4 0.106537 0.378530 0.408493
O O5 0.433578 0.365167 0.915836
O O6 0.927765 0.416028 0.920469
O O7 0.020868 0.267129 0.937175
O O8 0.531361 0.038747 0.151961
O O9 0.033134 0.758956 0.750000
O O10 0.398123 0.831273 0.803107
O O11 0.114301 0.726984 0.849520
O O12 0.894900 0.864246 0.816085
O O13 0.616184 0.556596 0.250000
#
# Coordination Sequence:
#
# PCOD9436364 Si02
#       6
#     8   8   8   8   8   8
#     4  12  27  40  63  97 136 166 210 276 327 384
#     4  12  24  42  67  88 126 180 226 255 311 393
#     4  12  22  43  64  94 128 169 218 266 325 382
#     4  10  20  38  65  94 123 165 219 267 313 383
#     4  10  19  36  64  95 121 162 218 269 312 379
#     4  12  23  43  62  95 129 169 216 268 328 378
#
# _framework density 21.939049000000001
#
# number of rings (size 3 to 8) (size 9 to 14) (size 15 to 20)
#    0.000    0.667    3.333    5.500    0.000    1.333 
#    0.000    1.667    0.000    0.000    0.000    0.000 
#    0.000    0.000    0.000    0.000    0.000    0.000 
#
# Total GULP energy -268131.734859 kJ/mol
# GULP energy per Si atom -5586.077810 kJ/mol
# Density = 2.188912 g / cm^3
# Si number density = 21.939049 Si / 1000 Ang^3
#
#
#
# Elastic Constant Matrix: (Units=GPa)
#
#
# Indices 1 2 3 4 5 6 
#
# 1 115.4909 19.1500 37.8131 0.0000 0.0000 0.0000
# 2 19.1500 53.7860 32.3906 0.0000 0.0000 0.0000
# 3 37.8131 32.3906 166.8941 0.0000 0.0000 0.0000
# 4 0.0000 0.0000 0.0000 20.5322 0.0000 0.0000
# 5 0.0000 0.0000 0.0000 0.0000 32.5627 0.0000
# 6 0.0000 0.0000 0.0000 0.0000 0.0000 29.5215
#
#
#
# Elastic Compliance Matrix: (Units=1/GPa)
#
#
# Indices 1 2 3 4 5 6 
#
# 1 0.009617 -0.002391 -0.001715 0.000000 0.000000 0.000000
# 2 -0.002391 0.021647 -0.003660 0.000000 0.000000 0.000000
# 3 -0.001715 -0.003660 0.007091 0.000000 0.000000 0.000000
# 4 0.000000 0.000000 0.000000 0.048704 0.000000 0.000000
# 5 0.000000 0.000000 0.000000 0.000000 0.030710 0.000000
# 6 0.000000 0.000000 0.000000 0.000000 0.000000 0.033874
#
#
# Mechanical properties :
#
#
# Convention : Reuss Voigt Hill
#
# Bulk Modulus (GPa) = 43.81444 57.20873 50.51158
# Shear Modulus (GPa) = 28.60722 32.97776 30.79249
#
# Velocity S-wave (km/s) = 3.61493 3.88126 3.75046
# Velocity P-wave (km/s) = 6.11866 6.79841 6.46747
#
# Compressibility (1/GPa) = 0.02282353
#
# Stress axis : x y z
#
# Youngs Moduli (GPa) = 103.98664 46.19495 141.03252
#
# Poissons Ratio (x) = 0.11046 0.24183
# Poissons Ratio (y) = 0.24866 0.51611
# Poissons Ratio (z) = 0.17831 0.16905
#
# Static dielectric constant tensor:
#      x y z
#    x 1.800160 0.000000 0.000000 
#    y 0.000000 1.798690 0.000000 
#    z 0.000000 0.000000 1.914740 
# 
# From -- ./inp_files/27969.got.cif
#   From: 2010.05.17/outbox.cif.g08.bks.cpg/sg57_14_cif.got.tgz:27969.got - 2010.06.03 13:58:18.
