data_PCOD9436672
_publ_section_title
;
Structure prediction by ZEFSAII (Michael W. Deem and Ramdas Pophale) SiO2 
 PCOD9436672
Probable space group: P B C M
;
_chemical_formula_sum "Si O2"
_cell_formula_units_Z 64
_cell_length_a 30.882664
_cell_length_b 5.085831
_cell_length_c 21.376274
_cell_angle_alpha 90.000000
_cell_angle_beta 90.000000
_cell_angle_gamma 90.000000
_cell_volume 3357.443312
_symmetry_space_group_name_H-M "P B C M"
_symmetry_group_IT_number 57
_symmetry_cell_setting 'orthorhombic'
loop_
_space_group_symop_operation_xyz
x,y,z
-x,-y,1/2+z
x,1/2-y,-z
-x,1/2+y,1/2-z
-x,-y,-z
x,y,1/2-z
-x,1/2+y,z
x,1/2-y,1/2+z
loop_
_atom_site_type_symbol
_atom_site_label
_atom_site_fract_x
_atom_site_fract_y
_atom_site_fract_z
Si Si1 0.973868 0.220907 0.825381
Si Si2 0.468716 0.481237 0.320879
Si Si3 0.211654 0.655468 0.817604
Si Si4 0.853059 0.920214 0.059779
Si Si5 0.680304 0.007617 0.041885
Si Si6 0.879052 0.078696 0.871767
Si Si7 0.579942 0.008644 0.455155
Si Si8 0.762645 0.851160 0.114835
O O1 0.972169 0.218410 0.750000
O O2 0.926899 0.140976 0.849412
O O3 0.990640 0.505646 0.845601
O O4 0.447219 0.479703 0.250000
O O5 0.499608 0.733108 0.322525
O O6 0.442100 0.481624 0.386610
O O7 0.225682 0.563498 0.750000
O O8 0.159833 0.644687 0.824440
O O9 0.231695 0.453687 0.867830
O O10 0.225131 0.954037 0.829046
O O11 0.871951 0.728924 0.113761
O O12 0.800738 0.916981 0.065037
O O13 0.868730 0.216520 0.071421
O O14 0.866089 0.750000 0.000000
O O15 0.630735 0.063235 0.060292
O O16 0.715343 0.935863 0.093615
O O17 0.678096 0.750000 0.000000
O O18 0.696176 0.250000 0.000000
O O19 0.576031 0.750000 0.500000
O O20 0.564461 0.250000 0.500000
#
# Coordination Sequence:
#
# PCOD9436672 Si02
#       8
#     8   8   8   8   8   8   8   8
#     4  10  20  34  54  77  98 123 158 197 240 296
#     4  10  21  37  57  82 115 152 189 234 289 345
#     4  10  20  34  51  75 106 135 169 210 257 313
#     4  10  20  33  52  76  99 128 168 207 244 292
#     4  10  20  35  55  78 109 142 178 227 274 318
#     4  10  20  34  53  74 100 130 158 203 255 296
#     4  10  21  36  57  85 113 146 190 238 285 333
#     4  10  20  33  53  77 102 138 175 211 259 307
#
# _framework density 19.062121999999999
#
# number of rings (size 3 to 8) (size 9 to 14) (size 15 to 20)
#    0.000    2.000    0.000    3.750    0.000    3.500 
#    0.000    5.000    0.000    9.000    0.000    0.000 
#    0.000    0.000    0.000    0.000    0.000    0.000 
#
# Total GULP energy -356523.798167 kJ/mol
# GULP energy per Si atom -5570.684346 kJ/mol
# Density = 1.901874 g / cm^3
# Si number density = 19.062122 Si / 1000 Ang^3
#
#
#
# Elastic Constant Matrix: (Units=GPa)
#
#
# Indices 1 2 3 4 5 6 
#
# 1 57.7416 4.0685 37.0786 0.0000 0.0000 0.0000
# 2 4.0685 92.5549 6.2571 0.0000 0.0000 0.0000
# 3 37.0786 6.2571 75.4044 0.0000 0.0000 0.0000
# 4 0.0000 0.0000 0.0000 19.2068 0.0000 0.0000
# 5 0.0000 0.0000 0.0000 0.0000 -15.6794 0.0000
# 6 0.0000 0.0000 0.0000 0.0000 0.0000 21.1346
#
#
#
# Elastic Compliance Matrix: (Units=1/GPa)
#
#
# Indices 1 2 3 4 5 6 
#
# 1 0.025318 -0.000273 -0.012427 0.000000 0.000000 0.000000
# 2 -0.000273 0.010868 -0.000768 0.000000 0.000000 0.000000
# 3 -0.012427 -0.000768 0.019436 0.000000 0.000000 0.000000
# 4 0.000000 0.000000 0.000000 0.052065 0.000000 0.000000
# 5 0.000000 0.000000 0.000000 0.000000 -0.063778 0.000000
# 6 0.000000 0.000000 0.000000 0.000000 0.000000 0.047316
#
#
# Mechanical properties :
#
#
# Convention : Reuss Voigt Hill
#
# Bulk Modulus (GPa) = 34.85845 35.61213 35.23529
# Shear Modulus (GPa) = 39.14765 16.81887 27.98326
#
# Velocity S-wave (km/s) = 4.53668 2.97361 3.83561
# Velocity P-wave (km/s) = 6.76524 5.52381 6.17580
#
# Compressibility (1/GPa) = 0.02868745
#
# Stress axis : x y z
#
# Youngs Moduli (GPa) = 39.49824 92.01084 51.45049
#
# Poissons Ratio (x) = 0.02510 0.63936
# Poissons Ratio (y) = 0.01077 0.03950
# Poissons Ratio (z) = 0.49084 0.07064
#
# Static dielectric constant tensor:
#      x y z
#    x 1.652710 0.000000 0.000000 
#    y 0.000000 1.643530 0.000000 
#    z 0.000000 0.000000 1.710890 
# 
# From -- ./inp_files/25908.got.cif
#   From: 2010.05.17/outbox.cif.g08.bks.cpg/sg57_13_cif.got.tgz:25908.got - 2010.06.03 13:58:18.
