data_PCOD9436170
_publ_section_title
;
Structure prediction by ZEFSAII (Michael W. Deem and Ramdas Pophale) SiO2 
 PCOD9436170
Probable space group: P B C M
;
_chemical_formula_sum "Si O2"
_cell_formula_units_Z 40
_cell_length_a 7.024899
_cell_length_b 14.518060
_cell_length_c 16.837152
_cell_angle_alpha 90.000000
_cell_angle_beta 90.000000
_cell_angle_gamma 90.000000
_cell_volume 1717.185862
_symmetry_space_group_name_H-M "P B C M"
_symmetry_group_IT_number 57
_symmetry_cell_setting 'orthorhombic'
loop_
_space_group_symop_operation_xyz
x,y,z
-x,-y,1/2+z
x,1/2-y,-z
-x,1/2+y,1/2-z
-x,-y,-z
x,y,1/2-z
-x,1/2+y,z
x,1/2-y,1/2+z
loop_
_atom_site_type_symbol
_atom_site_label
_atom_site_fract_x
_atom_site_fract_y
_atom_site_fract_z
Si Si1 0.523187 0.646694 0.344280
Si Si2 0.002389 0.902729 0.044432
Si Si3 0.749543 0.510443 0.659304
Si Si4 0.032501 0.154172 0.126629
Si Si5 0.255937 0.809188 0.160207
O O1 0.481255 0.645350 0.250000
O O2 0.422335 0.552784 0.373777
O O3 0.745830 0.648244 0.356941
O O4 0.420340 0.740812 0.371531
O O5 0.187809 0.885884 0.098437
O O6 0.819840 0.907621 0.102742
O O7 0.995776 0.838576 0.967938
O O8 0.000000 0.000000 0.000000
O O9 0.715190 0.540650 0.750000
O O10 0.923695 0.436433 0.658614
O O11 0.927267 0.241573 0.163440
O O12 0.297179 0.842619 0.250000
#
# Coordination Sequence:
#
# PCOD9436170 Si02
#       5
#     8   8   8   8   8
#     4   9  18  34  59  85 107 141 188 232 274 322
#     4  10  21  36  54  80 115 148 178 220 279 334
#     4   9  18  34  56  80 111 150 187 226 273 331
#     4  10  19  35  57  82 112 143 184 234 280 324
#     4  10  20  37  60  82 107 142 186 231 273 327
#
# _framework density 23.293925999999999
#
# number of rings (size 3 to 8) (size 9 to 14) (size 15 to 20)
#    0.000    2.400    0.000    4.200    0.000    0.800 
#    0.000   16.000    0.000   12.000    0.000    0.000 
#    0.000    0.000    0.000    0.000    0.000    0.000 
#
# Total GULP energy -223320.397413 kJ/mol
# GULP energy per Si atom -5583.009935 kJ/mol
# Density = 2.324091 g / cm^3
# Si number density = 23.293926 Si / 1000 Ang^3
#
#
#
# Elastic Constant Matrix: (Units=GPa)
#
#
# Indices 1 2 3 4 5 6 
#
# 1 136.4832 4.7229 -7.9299 0.0000 0.0000 0.0000
# 2 4.7229 20.9559 24.1518 0.0000 0.0000 0.0000
# 3 -7.9299 24.1518 97.8756 0.0000 0.0000 0.0000
# 4 0.0000 0.0000 0.0000 27.9673 0.0000 0.0000
# 5 0.0000 0.0000 0.0000 0.0000 15.3996 0.0000
# 6 0.0000 0.0000 0.0000 0.0000 0.0000 6.7512
#
#
#
# Elastic Compliance Matrix: (Units=1/GPa)
#
#
# Indices 1 2 3 4 5 6 
#
# 1 0.007526 -0.003352 0.001437 0.000000 0.000000 0.000000
# 2 -0.003352 0.068177 -0.017095 0.000000 0.000000 0.000000
# 3 0.001437 -0.017095 0.014552 0.000000 0.000000 0.000000
# 4 0.000000 0.000000 0.000000 0.035756 0.000000 0.000000
# 5 0.000000 0.000000 0.000000 0.000000 0.064937 0.000000
# 6 0.000000 0.000000 0.000000 0.000000 0.000000 0.148121
#
#
# Mechanical properties :
#
#
# Convention : Reuss Voigt Hill
#
# Bulk Modulus (GPa) = 19.14450 33.02271 26.08361
# Shear Modulus (GPa) = 12.67423 25.64829 19.16126
#
# Velocity S-wave (km/s) = 2.33513 3.32184 2.87119
# Velocity P-wave (km/s) = 3.93788 5.37774 4.71312
#
# Compressibility (1/GPa) = 0.05223431
#
# Stress axis : x y z
#
# Youngs Moduli (GPa) = 132.86545 14.66777 68.71991
#
# Poissons Ratio (x) = 0.04917 -0.09875
# Poissons Ratio (y) = 0.44542 1.17476
# Poissons Ratio (z) = -0.19093 0.25074
#
# Static dielectric constant tensor:
#      x y z
#    x 1.854730 0.000000 0.000000 
#    y 0.000000 1.973460 0.000000 
#    z 0.000000 0.000000 1.771840 
# 
# From -- ./inp_files/19960.got.cif
#   From: 2010.05.17/outbox.cif.g08.bks.cpg/sg57_10_cif.got.tgz:19960.got - 2010.06.03 13:58:18.
