data_PCOD9436850
_publ_section_title
;
Structure prediction by ZEFSAII (Michael W. Deem and Ramdas Pophale) SiO2 
 PCOD9436850
Probable space group: P B C M
;
_chemical_formula_sum "Si O2"
_cell_formula_units_Z 64
_cell_length_a 23.271900
_cell_length_b 18.147816
_cell_length_c 8.630242
_cell_angle_alpha 90.000000
_cell_angle_beta 90.000000
_cell_angle_gamma 90.000000
_cell_volume 3644.845999
_symmetry_space_group_name_H-M "P B C M"
_symmetry_group_IT_number 57
_symmetry_cell_setting 'orthorhombic'
loop_
_space_group_symop_operation_xyz
x,y,z
-x,-y,1/2+z
x,1/2-y,-z
-x,1/2+y,1/2-z
-x,-y,-z
x,y,1/2-z
-x,1/2+y,z
x,1/2-y,1/2+z
loop_
_atom_site_type_symbol
_atom_site_label
_atom_site_fract_x
_atom_site_fract_y
_atom_site_fract_z
Si Si1 0.242746 0.512005 0.063372
Si Si2 0.462107 0.932377 0.436010
Si Si3 0.045353 0.327376 0.935105
Si Si4 0.205483 0.827158 0.563044
Si Si5 0.079531 0.624861 0.438141
Si Si6 0.116191 0.037088 0.936887
Si Si7 0.554310 0.831188 0.935868
Si Si8 0.362654 0.034040 0.063717
O O1 0.244468 0.511700 0.250000
O O2 0.237948 0.598012 0.014220
O O3 0.182807 0.473477 0.017367
O O4 0.298927 0.472394 0.000420
O O5 0.465831 0.929154 0.250000
O O6 0.492196 0.860552 0.506039
O O7 0.500000 0.000000 0.500000
O O8 0.398326 0.959825 0.479591
O O9 0.043794 0.325097 0.750000
O O10 0.979994 0.341039 0.993955
O O11 0.066476 0.250000 0.000000
O O12 0.085189 0.393866 0.989194
O O13 0.228239 0.750000 0.500000
O O14 0.205786 0.825400 0.750000
O O15 0.138872 0.837258 0.510573
O O16 0.079700 0.627998 0.250000
O O17 0.084295 0.538900 0.480845
O O18 0.114162 0.043012 0.750000
O O19 0.554204 0.829793 0.750000
O O20 0.601187 0.893346 0.986634
O O21 0.566497 0.750000 0.000000
O O22 0.361031 0.036669 0.250000
#
# Coordination Sequence:
#
# PCOD9436850 Si02
#       8
#     8   8   8   8   8   8   8   8
#     4   9  19  34  53  73  97 133 173 207 247 294
#     4   9  17  31  51  76 104 134 164 199 243 292
#     4  11  21  32  48  72  98 127 160 200 251 305
#     4   9  17  31  49  72  99 127 159 200 248 299
#     4   8  16  31  51  72  96 123 157 200 248 303
#     4   9  18  35  53  70  95 128 164 206 250 296
#     4  10  20  34  53  80 109 137 168 209 256 299
#     4   9  19  34  53  77 104 133 171 211 246 288
#
# _framework density 17.559041000000001
#
# number of rings (size 3 to 8) (size 9 to 14) (size 15 to 20)
#    0.000    2.750    0.000    4.125    0.000    4.000 
#    0.000    4.375    0.000    3.000    0.000    0.000 
#    0.000    0.000    0.000    0.000    0.000    0.000 
#
# Total GULP energy -356654.070747 kJ/mol
# GULP energy per Si atom -5572.719855 kJ/mol
# Density = 1.751908 g / cm^3
# Si number density = 17.559041 Si / 1000 Ang^3
#
#
#
# Elastic Constant Matrix: (Units=GPa)
#
#
# Indices 1 2 3 4 5 6 
#
# 1 65.8099 39.8154 15.5483 0.0000 0.0000 0.0000
# 2 39.8154 113.0968 22.5152 0.0000 0.0000 0.0000
# 3 15.5483 22.5152 23.5052 0.0000 0.0000 0.0000
# 4 0.0000 0.0000 0.0000 29.1951 0.0000 0.0000
# 5 0.0000 0.0000 0.0000 0.0000 25.0349 0.0000
# 6 0.0000 0.0000 0.0000 0.0000 0.0000 17.1940
#
#
#
# Elastic Compliance Matrix: (Units=1/GPa)
#
#
# Indices 1 2 3 4 5 6 
#
# 1 0.020517 -0.005587 -0.008221 0.000000 0.000000 0.000000
# 2 -0.005587 0.012447 -0.008227 0.000000 0.000000 0.000000
# 3 -0.008221 -0.008227 0.055862 0.000000 0.000000 0.000000
# 4 0.000000 0.000000 0.000000 0.034252 0.000000 0.000000
# 5 0.000000 0.000000 0.000000 0.000000 0.039944 0.000000
# 6 0.000000 0.000000 0.000000 0.000000 0.000000 0.058160
#
#
# Mechanical properties :
#
#
# Convention : Reuss Voigt Hill
#
# Bulk Modulus (GPa) = 22.34252 39.79664 31.06958
# Shear Modulus (GPa) = 17.84634 22.58701 20.21667
#
# Velocity S-wave (km/s) = 3.19150 3.59046 3.39684
# Velocity P-wave (km/s) = 5.13155 6.31682 5.75478
#
# Compressibility (1/GPa) = 0.04475771
#
# Stress axis : x y z
#
# Youngs Moduli (GPa) = 48.73917 80.34385 17.90127
#
# Poissons Ratio (x) = 0.44884 0.14716
# Poissons Ratio (y) = 0.27228 0.14727
# Poissons Ratio (z) = 0.40067 0.66098
#
# Static dielectric constant tensor:
#      x y z
#    x 1.599440 0.000000 0.000000 
#    y 0.000000 1.587860 0.000000 
#    z 0.000000 0.000000 1.598980 
# 
# From -- ./inp_files/8437.got.cif
#   From: 2010.05.17/outbox.cif.g08.bks.cpg/sg57_5_cif.got.tgz:8437.got - 2010.06.03 13:58:18.
