data_PCOD9436807
_publ_section_title
;
Structure prediction by ZEFSAII (Michael W. Deem and Ramdas Pophale) SiO2 
 PCOD9436807
Probable space group: P B C M
;
_chemical_formula_sum "Si O2"
_cell_formula_units_Z 56
_cell_length_a 13.762333
_cell_length_b 22.142315
_cell_length_c 7.622560
_cell_angle_alpha 90.000000
_cell_angle_beta 90.000000
_cell_angle_gamma 90.000000
_cell_volume 2322.822041
_symmetry_space_group_name_H-M "P B C M"
_symmetry_group_IT_number 57
_symmetry_cell_setting 'orthorhombic'
loop_
_space_group_symop_operation_xyz
x,y,z
-x,-y,1/2+z
x,1/2-y,-z
-x,1/2+y,1/2-z
-x,-y,-z
x,y,1/2-z
-x,1/2+y,z
x,1/2-y,1/2+z
loop_
_atom_site_type_symbol
_atom_site_label
_atom_site_fract_x
_atom_site_fract_y
_atom_site_fract_z
Si Si1 0.724409 0.315656 0.538929
Si Si2 0.587032 0.547513 0.538374
Si Si3 0.646350 0.679829 0.546442
Si Si4 0.707663 0.058887 0.047895
Si Si5 0.054464 0.817091 0.540799
Si Si6 0.113000 0.502075 0.958283
Si Si7 0.145232 0.129269 0.037053
O O1 0.681768 0.250000 0.500000
O O2 0.727814 0.320007 0.750000
O O3 0.674490 0.376943 0.471795
O O4 0.835539 0.317760 0.468775
O O5 0.500000 0.500000 0.500000
O O6 0.593042 0.553440 0.750000
O O7 0.596304 0.617196 0.469966
O O8 0.671334 0.503105 0.465405
O O9 0.622508 0.750000 0.500000
O O10 0.624418 0.677367 0.750000
O O11 0.762513 0.668842 0.518731
O O12 0.676130 0.058060 0.250000
O O13 0.824699 0.055453 0.042376
O O14 0.019172 0.750000 0.500000
O O15 0.061554 0.826454 0.750000
O O16 0.963886 0.855555 0.474170
O O17 0.123519 0.507174 0.750000
O O18 0.157302 0.439137 0.024176
O O19 0.000000 0.500000 0.000000
O O20 0.143309 0.131033 0.250000
#
# Coordination Sequence:
#
# PCOD9436807 Si02
#       7
#     8   8   8   8   8   8   8
#     4   9  18  33  54  77 111 153 196 247 298 350
#     4  10  23  43  68  94 122 158 202 252 314 378
#     4  11  23  40  63  93 125 160 200 251 312 377
#     4  10  20  39  61  84 116 155 199 251 304 362
#     4   9  17  29  44  68 103 147 193 234 281 338
#     4  11  22  34  53  83 121 165 209 254 302 358
#     4  10  20  34  52  79 115 158 207 255 304 358
#
# _framework density 24.108606999999999
#
# number of rings (size 3 to 8) (size 9 to 14) (size 15 to 20)
#    0.000    2.000    1.429    2.143    0.000    6.857 
#    0.000    3.571    0.000    3.429    0.000    0.000 
#    0.000    0.000    0.000    0.000    0.000    0.000 
#
# Total GULP energy -311947.106272 kJ/mol
# GULP energy per Si atom -5570.484041 kJ/mol
# Density = 2.405373 g / cm^3
# Si number density = 24.108607 Si / 1000 Ang^3
#
#
#
# Elastic Constant Matrix: (Units=GPa)
#
#
# Indices 1 2 3 4 5 6 
#
# 1 41.6970 23.3064 -5.8686 0.0000 0.0000 0.0000
# 2 23.3064 225.4876 26.4005 0.0000 0.0000 0.0000
# 3 -5.8686 26.4005 63.2362 0.0000 0.0000 0.0000
# 4 0.0000 0.0000 0.0000 22.1463 0.0000 0.0000
# 5 0.0000 0.0000 0.0000 0.0000 -9.0575 0.0000
# 6 0.0000 0.0000 0.0000 0.0000 0.0000 21.1507
#
#
#
# Elastic Compliance Matrix: (Units=1/GPa)
#
#
# Indices 1 2 3 4 5 6 
#
# 1 0.026275 -0.003156 0.003756 0.000000 0.000000 0.000000
# 2 -0.003156 0.005042 -0.002398 0.000000 0.000000 0.000000
# 3 0.003756 -0.002398 0.017163 0.000000 0.000000 0.000000
# 4 0.000000 0.000000 0.000000 0.045154 0.000000 0.000000
# 5 0.000000 0.000000 0.000000 0.000000 -0.110406 0.000000
# 6 0.000000 0.000000 0.000000 0.000000 0.000000 0.047280
#
#
# Mechanical properties :
#
#
# Convention : Reuss Voigt Hill
#
# Bulk Modulus (GPa) = 22.27905 46.45525 34.36715
# Shear Modulus (GPa) = 101.90600 25.95340 63.92970
#
# Velocity S-wave (km/s) = 6.50856 3.28460 5.15509
# Velocity P-wave (km/s) = 8.10820 5.80480 7.05119
#
# Compressibility (1/GPa) = 0.04488521
#
# Stress axis : x y z
#
# Youngs Moduli (GPa) = 38.05906 198.34508 58.26380
#
# Poissons Ratio (x) = 0.62588 -0.21883
# Poissons Ratio (y) = 0.12010 0.13970
# Poissons Ratio (z) = -0.14294 0.47558
#
# Static dielectric constant tensor:
#      x y z
#    x 2.023050 0.000000 0.000000 
#    y 0.000000 2.023240 0.000000 
#    z 0.000000 0.000000 1.885480 
# 
# From -- ./inp_files/5218.got.cif
#   From: 2010.05.17/outbox.cif.g08.bks.cpg/sg57_3_cif.got.tgz:5218.got - 2010.06.03 13:58:18.
