data_PCOD9436233
_publ_section_title
;
Structure prediction by ZEFSAII (Michael W. Deem and Ramdas Pophale) SiO2 
 PCOD9436233
Probable space group: P B C M
;
_chemical_formula_sum "Si O2"
_cell_formula_units_Z 64
_cell_length_a 23.871201
_cell_length_b 15.609920
_cell_length_c 8.841107
_cell_angle_alpha 90.000000
_cell_angle_beta 90.000000
_cell_angle_gamma 90.000000
_cell_volume 3294.439934
_symmetry_space_group_name_H-M "P B C M"
_symmetry_group_IT_number 57
_symmetry_cell_setting 'orthorhombic'
loop_
_space_group_symop_operation_xyz
x,y,z
-x,-y,1/2+z
x,1/2-y,-z
-x,1/2+y,1/2-z
-x,-y,-z
x,y,1/2-z
-x,1/2+y,z
x,1/2-y,1/2+z
loop_
_atom_site_type_symbol
_atom_site_label
_atom_site_fract_x
_atom_site_fract_y
_atom_site_fract_z
Si Si1 0.364861 0.977220 0.568263
Si Si2 0.587011 0.836915 0.069532
Si Si3 0.945194 0.108235 0.924748
Si Si4 0.243827 0.515848 0.931816
Si Si5 0.527304 0.085736 0.931345
Si Si6 0.184882 0.340851 0.932094
Si Si7 0.938769 0.598745 0.427315
Si Si8 0.833603 0.339068 0.928617
O O1 0.365172 0.973316 0.750000
O O2 0.383587 0.074206 0.521763
O O3 0.303793 0.962318 0.501786
O O4 0.411354 0.911861 0.503605
O O5 0.591714 0.832654 0.250000
O O6 0.520730 0.845479 0.031882
O O7 0.610373 0.750000 0.000000
O O8 0.935518 0.132147 0.750000
O O9 0.937394 0.004984 0.937342
O O10 0.898977 0.150306 0.030774
O O11 0.008152 0.128738 0.976320
O O12 0.245581 0.519617 0.750000
O O13 0.224244 0.420175 0.977066
O O14 0.198488 0.582664 0.993065
O O15 0.531555 0.079294 0.750000
O O16 0.500000 0.000000 0.000000
O O17 0.185512 0.336218 0.750000
O O18 0.120856 0.363763 0.977509
O O19 0.201619 0.250000 0.000000
O O20 0.947261 0.619689 0.250000
O O21 0.824962 0.340341 0.750000
O O22 0.813580 0.250000 0.000000
#
# Coordination Sequence:
#
# PCOD9436233 Si02
#       8
#     8   8   8   8   8   8   8   8
#     4  10  21  37  57  84 113 150 197 240 284 347
#     4   9  19  33  53  83 120 152 189 233 281 337
#     4  10  19  35  59  87 118 151 192 242 297 360
#     4  11  23  43  64  86 118 158 201 253 304 352
#     4   9  17  32  53  80 110 145 184 227 275 330
#     4  10  22  39  59  84 118 157 199 245 296 357
#     4   9  18  35  56  83 119 156 194 239 295 358
#     4  12  25  42  65  90 116 151 195 247 305 366
#
# _framework density 19.426670999999999
#
# number of rings (size 3 to 8) (size 9 to 14) (size 15 to 20)
#    0.000    2.000    1.250    3.375    0.000    6.000 
#    0.000    4.375    0.000    1.500    0.000    0.000 
#    0.000    0.000    0.000    0.000    0.000    0.000 
#
# Total GULP energy -357351.559236 kJ/mol
# GULP energy per Si atom -5583.618113 kJ/mol
# Density = 1.938245 g / cm^3
# Si number density = 19.426671 Si / 1000 Ang^3
#
#
#
# Elastic Constant Matrix: (Units=GPa)
#
#
# Indices 1 2 3 4 5 6 
#
# 1 74.5759 -9.8233 15.4311 0.0000 0.0000 0.0000
# 2 -9.8233 39.1187 12.2974 0.0000 0.0000 0.0000
# 3 15.4311 12.2974 51.8488 0.0000 0.0000 0.0000
# 4 0.0000 0.0000 0.0000 26.5494 0.0000 0.0000
# 5 0.0000 0.0000 0.0000 0.0000 24.7270 0.0000
# 6 0.0000 0.0000 0.0000 0.0000 0.0000 3.7551
#
#
#
# Elastic Compliance Matrix: (Units=1/GPa)
#
#
# Indices 1 2 3 4 5 6 
#
# 1 0.015394 0.005733 -0.005941 0.000000 0.000000 0.000000
# 2 0.005733 0.029758 -0.008764 0.000000 0.000000 0.000000
# 3 -0.005941 -0.008764 0.023134 0.000000 0.000000 0.000000
# 4 0.000000 0.000000 0.000000 0.037666 0.000000 0.000000
# 5 0.000000 0.000000 0.000000 0.000000 0.040442 0.000000
# 6 0.000000 0.000000 0.000000 0.000000 0.000000 0.266306
#
#
# Mechanical properties :
#
#
# Convention : Reuss Voigt Hill
#
# Bulk Modulus (GPa) = 19.86449 22.37266 21.11858
# Shear Modulus (GPa) = 11.17508 20.84885 16.01197
#
# Velocity S-wave (km/s) = 2.40103 3.27954 2.87405
# Velocity P-wave (km/s) = 4.23487 5.08743 4.68060
#
# Compressibility (1/GPa) = 0.05034108
#
# Stress axis : x y z
#
# Youngs Moduli (GPa) = 64.96156 33.60425 43.22684
#
# Poissons Ratio (x) = -0.19266 0.25682
# Poissons Ratio (y) = -0.37245 0.37885
# Poissons Ratio (z) = 0.38595 0.29452
#
# Static dielectric constant tensor:
#      x y z
#    x 1.665880 0.000000 0.000000 
#    y 0.000000 1.679440 0.000000 
#    z 0.000000 0.000000 1.649290 
# 
# From -- ./inp_files/9376.got.cif
#   From: 2010.05.17/outbox.cif.g08.bks.cpg/sg57_5_cif.got.tgz:9376.got - 2010.06.03 13:58:18.
