data_PCOD9436871
_publ_section_title
;
Structure prediction by ZEFSAII (Michael W. Deem and Ramdas Pophale) SiO2 
 PCOD9436871
Probable space group: P B C M
;
_chemical_formula_sum "Si O2"
_cell_formula_units_Z 48
_cell_length_a 15.566190
_cell_length_b 19.747987
_cell_length_c 8.394703
_cell_angle_alpha 90.000000
_cell_angle_beta 90.000000
_cell_angle_gamma 90.000000
_cell_volume 2580.539407
_symmetry_space_group_name_H-M "P B C M"
_symmetry_group_IT_number 57
_symmetry_cell_setting 'orthorhombic'
loop_
_space_group_symop_operation_xyz
x,y,z
-x,-y,1/2+z
x,1/2-y,-z
-x,1/2+y,1/2-z
-x,-y,-z
x,y,1/2-z
-x,1/2+y,z
x,1/2-y,1/2+z
loop_
_atom_site_type_symbol
_atom_site_label
_atom_site_fract_x
_atom_site_fract_y
_atom_site_fract_z
Si Si1 0.390899 0.326696 0.059101
Si Si2 0.734055 0.435910 0.444605
Si Si3 0.537935 0.428643 0.442574
Si Si4 0.772881 0.911142 0.942644
Si Si5 0.127002 0.826043 0.059027
Si Si6 0.063320 0.173824 0.441144
O O1 0.390039 0.326640 0.250000
O O2 0.474649 0.368748 0.004041
O O3 0.391552 0.250000 0.000000
O O4 0.306850 0.366183 0.999488
O O5 0.734510 0.435608 0.250000
O O6 0.636442 0.421419 0.496195
O O7 0.760757 0.511419 0.496013
O O8 0.801859 0.379444 0.497517
O O9 0.500000 0.500000 0.500000
O O10 0.538101 0.429265 0.250000
O O11 0.772426 0.911140 0.750000
O O12 0.861974 0.876927 0.995420
O O13 0.126909 0.825313 0.250000
O O14 0.144930 0.750000 0.000000
O O15 0.031342 0.844821 0.001963
O O16 0.082276 0.250000 0.500000
O O17 0.061652 0.174761 0.250000
#
# Coordination Sequence:
#
# PCOD9436871 Si02
#       6
#     8   8   8   8   8   8
#     4  11  23  36  55  85 114 146 186 228 273 324
#     4   9  19  36  58  81 109 145 180 221 280 333
#     4  10  20  37  59  81 109 145 185 224 273 329
#     4  10  20  36  58  81 110 147 182 224 278 332
#     4  10  20  36  57  79 107 145 184 226 275 326
#     4  10  20  34  54  79 107 143 183 224 275 327
#
# _framework density 18.600760999999999
#
# number of rings (size 3 to 8) (size 9 to 14) (size 15 to 20)
#    0.000    2.000    1.667    3.000    0.000    4.667 
#    0.000    3.333    0.000    0.000    0.000    0.000 
#    0.000    0.000    0.000    0.000    0.000    0.000 
#
# Total GULP energy -268039.855862 kJ/mol
# GULP energy per Si atom -5584.163664 kJ/mol
# Density = 1.855842 g / cm^3
# Si number density = 18.600761 Si / 1000 Ang^3
#
#
#
# Elastic Constant Matrix: (Units=GPa)
#
#
# Indices 1 2 3 4 5 6 
#
# 1 207.1034 140.9303 25.9124 0.0000 0.0000 0.0000
# 2 140.9303 170.5737 20.9688 0.0000 0.0000 0.0000
# 3 25.9124 20.9688 21.4921 0.0000 0.0000 0.0000
# 4 0.0000 0.0000 0.0000 22.2622 0.0000 0.0000
# 5 0.0000 0.0000 0.0000 0.0000 4.3082 0.0000
# 6 0.0000 0.0000 0.0000 0.0000 0.0000 43.6390
#
#
#
# Elastic Compliance Matrix: (Units=1/GPa)
#
#
# Indices 1 2 3 4 5 6 
#
# 1 0.011525 -0.008879 -0.005233 0.000000 0.000000 0.000000
# 2 -0.008879 0.013502 -0.002468 0.000000 0.000000 0.000000
# 3 -0.005233 -0.002468 0.055246 0.000000 0.000000 0.000000
# 4 0.000000 0.000000 0.000000 0.044919 0.000000 0.000000
# 5 0.000000 0.000000 0.000000 0.000000 0.232117 0.000000
# 6 0.000000 0.000000 0.000000 0.000000 0.000000 0.022915
#
#
# Mechanical properties :
#
#
# Convention : Reuss Voigt Hill
#
# Bulk Modulus (GPa) = 21.22543 86.08801 53.65672
# Shear Modulus (GPa) = 11.65259 28.13237 19.89248
#
# Velocity S-wave (km/s) = 2.50563 3.89322 3.27378
# Velocity P-wave (km/s) = 4.45048 8.16039 6.57262
#
# Compressibility (1/GPa) = 0.04711329
#
# Stress axis : x y z
#
# Youngs Moduli (GPa) = 86.76571 74.06330 18.10092
#
# Poissons Ratio (x) = 0.65761 0.09472
# Poissons Ratio (y) = 0.77040 0.04467
# Poissons Ratio (z) = 0.45403 0.18278
#
# Static dielectric constant tensor:
#      x y z
#    x 1.633000 0.000000 0.000000 
#    y 0.000000 1.614120 0.000000 
#    z 0.000000 0.000000 1.646690 
# 
# From -- ./inp_files/4702.got.cif
#   From: 2010.05.17/outbox.cif.g08.bks.cpg/sg57_3_cif.got.tgz:4702.got - 2010.06.03 13:58:18.
