data_PCOD9436799
_publ_section_title
;
Structure prediction by ZEFSAII (Michael W. Deem and Ramdas Pophale) SiO2 
 PCOD9436799
Probable space group: P B C M
;
_chemical_formula_sum "Si O2"
_cell_formula_units_Z 48
_cell_length_a 15.741458
_cell_length_b 19.632177
_cell_length_c 7.609286
_cell_angle_alpha 90.000000
_cell_angle_beta 90.000000
_cell_angle_gamma 90.000000
_cell_volume 2351.566819
_symmetry_space_group_name_H-M "P B C M"
_symmetry_group_IT_number 57
_symmetry_cell_setting 'orthorhombic'
loop_
_space_group_symop_operation_xyz
x,y,z
-x,-y,1/2+z
x,1/2-y,-z
-x,1/2+y,1/2-z
-x,-y,-z
x,y,1/2-z
-x,1/2+y,z
x,1/2-y,1/2+z
loop_
_atom_site_type_symbol
_atom_site_label
_atom_site_fract_x
_atom_site_fract_y
_atom_site_fract_z
Si Si1 0.767392 0.433445 0.960372
Si Si2 0.959286 0.426578 0.961292
Si Si3 0.435506 0.171192 0.461041
Si Si4 0.626743 0.171347 0.461260
Si Si5 0.273425 0.410617 0.962107
Si Si6 0.107462 0.170330 0.460992
O O1 0.771446 0.423916 0.750000
O O2 0.863052 0.423114 0.029948
O O3 0.698003 0.380100 0.029573
O O4 0.738656 0.510672 0.992827
O O5 0.954849 0.420273 0.750000
O O6 0.023737 0.368753 0.027616
O O7 0.000000 0.500000 0.000000
O O8 0.414712 0.250000 0.500000
O O9 0.438345 0.164157 0.250000
O O10 0.530953 0.157544 0.528439
O O11 0.361248 0.122188 0.527776
O O12 0.647112 0.250000 0.500000
O O13 0.623707 0.164125 0.250000
O O14 0.274198 0.405453 0.750000
O O15 0.192306 0.367457 0.026856
O O16 0.107859 0.250000 0.500000
O O17 0.107723 0.162801 0.250000
#
# Coordination Sequence:
#
# PCOD9436799 Si02
#       6
#     8   8   8   8   8   8
#     4  10  21  35  54  78 105 137 173 215 262 311
#     4  10  20  36  55  75 102 137 174 213 258 309
#     4   9  18  33  53  75 104 140 175 214 259 306
#     4   9  19  36  54  76 105 137 175 217 259 307
#     4  10  20  34  52  77 107 138 173 214 258 309
#     4  10  21  35  52  77 106 133 170 215 257 306
#
# _framework density 20.411923999999999
#
# number of rings (size 3 to 8) (size 9 to 14) (size 15 to 20)
#    0.000    2.333    1.667    0.500    0.000    4.000 
#    0.000    0.000    0.000    0.000    0.000    0.000 
#    0.000    0.000    0.000    0.000    0.000    0.000 
#
# Total GULP energy -268020.830826 kJ/mol
# GULP energy per Si atom -5583.767309 kJ/mol
# Density = 2.036547 g / cm^3
# Si number density = 20.411924 Si / 1000 Ang^3
#
#
#
# Elastic Constant Matrix: (Units=GPa)
#
#
# Indices 1 2 3 4 5 6 
#
# 1 225.9171 148.3134 11.1603 0.0000 0.0000 0.0000
# 2 148.3134 174.4907 -5.1894 0.0000 0.0000 0.0000
# 3 11.1603 -5.1894 42.5034 0.0000 0.0000 0.0000
# 4 0.0000 0.0000 0.0000 27.8695 0.0000 0.0000
# 5 0.0000 0.0000 0.0000 0.0000 -27.3077 0.0000
# 6 0.0000 0.0000 0.0000 0.0000 0.0000 38.4943
#
#
#
# Elastic Compliance Matrix: (Units=1/GPa)
#
#
# Indices 1 2 3 4 5 6 
#
# 1 0.010624 -0.009146 -0.003906 0.000000 0.000000 0.000000
# 2 -0.009146 0.013626 0.004065 0.000000 0.000000 0.000000
# 3 -0.003906 0.004065 0.025050 0.000000 0.000000 0.000000
# 4 0.000000 0.000000 0.000000 0.035882 0.000000 0.000000
# 5 0.000000 0.000000 0.000000 0.000000 -0.036620 0.000000
# 6 0.000000 0.000000 0.000000 0.000000 0.000000 0.025978
#
#
# Mechanical properties :
#
#
# Convention : Reuss Voigt Hill
#
# Bulk Modulus (GPa) = 31.92354 83.49775 57.71064
# Shear Modulus (GPa) = 48.56498 27.05302 37.80900
#
# Velocity S-wave (km/s) = 4.88304 3.64449 4.30850
# Velocity P-wave (km/s) = 6.88954 7.66191 7.28597
#
# Compressibility (1/GPa) = 0.03132485
#
# Stress axis : x y z
#
# Youngs Moduli (GPa) = 94.12863 73.38971 39.92087
#
# Poissons Ratio (x) = 0.67123 0.15594
# Poissons Ratio (y) = 0.86091 -0.16229
# Poissons Ratio (z) = 0.36769 -0.29834
#
# Static dielectric constant tensor:
#      x y z
#    x 1.748750 0.000000 0.000000 
#    y 0.000000 1.659690 0.000000 
#    z 0.000000 0.000000 1.772760 
# 
# From -- ./inp_files/4661.got.cif
#   From: 2010.05.17/outbox.cif.g08.bks.cpg/sg57_3_cif.got.tgz:4661.got - 2010.06.03 13:58:18.
