data_PCOD9436356
_publ_section_title
;
Structure prediction by ZEFSAII (Michael W. Deem and Ramdas Pophale) SiO2 
 PCOD9436356
Probable space group: P B C M
;
_chemical_formula_sum "Si O2"
_cell_formula_units_Z 56
_cell_length_a 20.037204
_cell_length_b 15.885261
_cell_length_c 9.167600
_cell_angle_alpha 90.000000
_cell_angle_beta 90.000000
_cell_angle_gamma 90.000000
_cell_volume 2918.012383
_symmetry_space_group_name_H-M "P B C M"
_symmetry_group_IT_number 57
_symmetry_cell_setting 'orthorhombic'
loop_
_space_group_symop_operation_xyz
x,y,z
-x,-y,1/2+z
x,1/2-y,-z
-x,1/2+y,1/2-z
-x,-y,-z
x,y,1/2-z
-x,1/2+y,z
x,1/2-y,1/2+z
loop_
_atom_site_type_symbol
_atom_site_label
_atom_site_fract_x
_atom_site_fract_y
_atom_site_fract_z
Si Si1 0.704326 0.067513 0.075898
Si Si2 0.172882 0.840322 0.073186
Si Si3 0.736286 0.625430 0.910531
Si Si4 0.569995 0.010836 0.582384
Si Si5 0.927655 0.496773 0.074844
Si Si6 0.112766 0.166590 0.916874
Si Si7 0.383311 0.180129 0.090496
O O1 0.699384 0.086059 0.250000
O O2 0.738007 0.974755 0.060564
O O3 0.755746 0.129587 0.993894
O O4 0.630379 0.058724 0.002982
O O5 0.177008 0.832988 0.250000
O O6 0.117778 0.914044 0.040036
O O7 0.155659 0.750000 0.000000
O O8 0.704457 0.631678 0.750000
O O9 0.807433 0.668424 0.905183
O O10 0.690249 0.666953 0.029133
O O11 0.563561 0.042412 0.750000
O O12 0.500000 0.000000 0.500000
O O13 0.590388 0.913372 0.589750
O O14 0.933075 0.500151 0.250000
O O15 0.897453 0.582826 0.011326
O O16 0.000000 0.500000 0.000000
O O17 0.086011 0.159989 0.750000
O O18 0.087972 0.250000 0.000000
O O19 0.381139 0.214196 0.250000
O O20 0.421987 0.250000 0.000000
#
# Coordination Sequence:
#
# PCOD9436356 Si02
#       7
#     8   8   8   8   8   8   8
#     4  10  19  36  62  90 121 159 202 254 310 369
#     4  11  24  42  67  97 127 166 216 270 326 385
#     4   9  18  32  54  83 115 151 187 230 287 347
#     4  10  21  37  57  84 117 158 204 253 309 373
#     4  11  25  44  66  91 124 166 210 263 322 384
#     4  11  22  37  58  88 123 159 199 244 300 365
#     4  10  20  32  50  77 110 145 185 232 284 346
#
# _framework density 19.191146
#
# number of rings (size 3 to 8) (size 9 to 14) (size 15 to 20)
#    0.000    1.714    1.429    3.000    0.000    6.857 
#    0.000    2.143    0.000    1.714    0.000    0.000 
#    0.000    0.000    0.000    0.000    0.000    0.000 
#
# Total GULP energy -311928.217890 kJ/mol
# GULP energy per Si atom -5570.146748 kJ/mol
# Density = 1.914747 g / cm^3
# Si number density = 19.191146 Si / 1000 Ang^3
#
#
#
# Elastic Constant Matrix: (Units=GPa)
#
#
# Indices 1 2 3 4 5 6 
#
# 1 96.7954 38.2571 57.6449 0.0000 0.0000 0.0000
# 2 38.2571 120.0721 62.4121 0.0000 0.0000 0.0000
# 3 57.6449 62.4121 151.4107 0.0000 0.0000 0.0000
# 4 0.0000 0.0000 0.0000 121.1149 0.0000 0.0000
# 5 0.0000 0.0000 0.0000 0.0000 18.1044 0.0000
# 6 0.0000 0.0000 0.0000 0.0000 0.0000 2.4371
#
#
#
# Elastic Compliance Matrix: (Units=1/GPa)
#
#
# Indices 1 2 3 4 5 6 
#
# 1 0.013770 -0.002116 -0.004370 0.000000 0.000000 0.000000
# 2 -0.002116 0.010924 -0.003698 0.000000 0.000000 0.000000
# 3 -0.004370 -0.003698 0.009793 0.000000 0.000000 0.000000
# 4 0.000000 0.000000 0.000000 0.008257 0.000000 0.000000
# 5 0.000000 0.000000 0.000000 0.000000 0.055235 0.000000
# 6 0.000000 0.000000 0.000000 0.000000 0.000000 0.410332
#
#
# Mechanical properties :
#
#
# Convention : Reuss Voigt Hill
#
# Bulk Modulus (GPa) = 70.82338 76.10072 73.46205
# Shear Modulus (GPa) = 9.37410 42.32888 25.85149
#
# Velocity S-wave (km/s) = 2.21251 4.70153 3.67420
# Velocity P-wave (km/s) = 6.59631 8.31941 7.50746
#
# Compressibility (1/GPa) = 0.01411963
#
# Stress axis : x y z
#
# Youngs Moduli (GPa) = 72.62179 91.53822 102.11779
#
# Poissons Ratio (x) = 0.19366 0.44630
# Poissons Ratio (y) = 0.15364 0.37759
# Poissons Ratio (z) = 0.31739 0.33847
#
# Static dielectric constant tensor:
#      x y z
#    x 1.717340 0.000000 0.000000 
#    y 0.000000 1.782630 0.000000 
#    z 0.000000 0.000000 1.720400 
# 
# From -- ./inp_files/8043.got.cif
#   From: 2010.05.17/outbox.cif.g08.bks.cpg/sg57_5_cif.got.tgz:8043.got - 2010.06.03 13:58:18.
