data_PCOD9436056
_publ_section_title
;
Structure prediction by ZEFSAII (Michael W. Deem and Ramdas Pophale) SiO2 
 PCOD9436056
Probable space group: P B C M
;
_chemical_formula_sum "Si O2"
_cell_formula_units_Z 64
_cell_length_a 24.121872
_cell_length_b 15.058113
_cell_length_c 9.075084
_cell_angle_alpha 90.000000
_cell_angle_beta 90.000000
_cell_angle_gamma 90.000000
_cell_volume 3296.341621
_symmetry_space_group_name_H-M "P B C M"
_symmetry_group_IT_number 57
_symmetry_cell_setting 'orthorhombic'
loop_
_space_group_symop_operation_xyz
x,y,z
-x,-y,1/2+z
x,1/2-y,-z
-x,1/2+y,1/2-z
-x,-y,-z
x,y,1/2-z
-x,1/2+y,z
x,1/2-y,1/2+z
loop_
_atom_site_type_symbol
_atom_site_label
_atom_site_fract_x
_atom_site_fract_y
_atom_site_fract_z
Si Si1 0.559522 0.019877 0.429177
Si Si2 0.960700 0.344430 0.574151
Si Si3 0.251732 0.972797 0.073950
Si Si4 0.356221 0.652891 0.571521
Si Si5 0.741222 0.837573 0.416072
Si Si6 0.870732 0.467926 0.426627
Si Si7 0.608375 0.834411 0.086274
Si Si8 0.910142 0.657342 0.425233
O O1 0.557505 0.028940 0.250000
O O2 0.590560 0.103224 0.502052
O O3 0.500000 0.000000 0.500000
O O4 0.594723 0.931863 0.471122
O O5 0.948129 0.250000 0.500000
O O6 0.955232 0.338824 0.750000
O O7 0.918760 0.415703 0.508833
O O8 0.025282 0.364303 0.540150
O O9 0.254446 0.987063 0.250000
O O10 0.302484 0.908399 0.033703
O O11 0.190930 0.933122 0.040390
O O12 0.253039 0.068821 0.997795
O O13 0.350412 0.750000 0.500000
O O14 0.360273 0.658193 0.750000
O O15 0.762726 0.750000 0.500000
O O16 0.763641 0.841468 0.250000
O O17 0.674560 0.825611 0.406210
O O18 0.879917 0.462245 0.250000
O O19 0.874475 0.571975 0.468131
O O20 0.584808 0.830512 0.250000
O O21 0.585951 0.750000 0.000000
O O22 0.895935 0.750000 0.500000
O O23 0.905727 0.668779 0.250000
#
# Coordination Sequence:
#
# PCOD9436056 Si02
#       8
#     8   8   8   8   8   8   8   8
#     4  11  23  41  63  92 125 157 196 242 291 346
#     4  10  20  35  56  82 110 148 195 243 297 355
#     4  10  22  39  59  85 118 156 199 244 295 350
#     4  11  24  43  66  89 117 159 204 248 297 351
#     4  10  19  34  57  84 113 148 188 232 284 342
#     4  10  21  37  56  83 118 152 192 246 297 349
#     4   9  19  34  56  84 114 146 183 226 275 332
#     4   9  19  35  56  81 114 153 193 240 295 354
#
# _framework density 19.415462000000002
#
# number of rings (size 3 to 8) (size 9 to 14) (size 15 to 20)
#    0.000    2.000    1.250    1.875    0.000    5.000 
#    0.000    3.750    0.000    0.000    0.000    0.000 
#    0.000    0.000    0.000    0.000    0.000    0.000 
#
# Total GULP energy -357188.267151 kJ/mol
# GULP energy per Si atom -5581.066674 kJ/mol
# Density = 1.937127 g / cm^3
# Si number density = 19.415462 Si / 1000 Ang^3
#
#
#
# Elastic Constant Matrix: (Units=GPa)
#
#
# Indices 1 2 3 4 5 6 
#
# 1 100.4493 52.7083 46.2385 0.0000 0.0000 0.0000
# 2 52.7083 127.8269 53.4162 0.0000 0.0000 0.0000
# 3 46.2385 53.4162 54.0532 0.0000 0.0000 0.0000
# 4 0.0000 0.0000 0.0000 39.6425 0.0000 0.0000
# 5 0.0000 0.0000 0.0000 0.0000 8.4746 0.0000
# 6 0.0000 0.0000 0.0000 0.0000 0.0000 -1.0606
#
#
#
# Elastic Compliance Matrix: (Units=1/GPa)
#
#
# Indices 1 2 3 4 5 6 
#
# 1 0.016600 -0.001552 -0.012667 0.000000 0.000000 0.000000
# 2 -0.001552 0.013471 -0.011985 0.000000 0.000000 0.000000
# 3 -0.012667 -0.011985 0.041180 0.000000 0.000000 0.000000
# 4 0.000000 0.000000 0.000000 0.025225 0.000000 0.000000
# 5 0.000000 0.000000 0.000000 0.000000 0.118000 0.000000
# 6 0.000000 0.000000 0.000000 0.000000 0.000000 -0.942875
#
#
# Mechanical properties :
#
#
# Convention : Reuss Voigt Hill
#
# Bulk Modulus (GPa) = 53.06769 65.22838 59.14803
# Shear Modulus (GPa) = -7.46593 18.07572 5.30490
#
# Velocity S-wave (km/s) = -1.96308 3.05453 1.65476
# Velocity P-wave (km/s) = 4.71739 6.79038 5.84650
#
# Compressibility (1/GPa) = 0.01884386
#
# Stress axis : x y z
#
# Youngs Moduli (GPa) = 60.24000 74.23208 24.28384
#
# Poissons Ratio (x) = 0.11519 0.30760
# Poissons Ratio (y) = 0.09348 0.29104
# Poissons Ratio (z) = 0.76305 0.88968
#
# Static dielectric constant tensor:
#      x y z
#    x 1.695530 0.000000 0.000000 
#    y 0.000000 1.671950 0.000000 
#    z 0.000000 0.000000 1.666240 
# 
# From -- ./inp_files/9509.got.cif
#   From: 2010.05.17/outbox.cif.g08.bks.cpg/sg57_5_cif.got.tgz:9509.got - 2010.06.03 13:58:18.
