data_PCOD9436663
_publ_section_title
;
Structure prediction by ZEFSAII (Michael W. Deem and Ramdas Pophale) SiO2 
 PCOD9436663
Probable space group: P B C M
;
_chemical_formula_sum "Si O2"
_cell_formula_units_Z 48
_cell_length_a 18.766570
_cell_length_b 16.621713
_cell_length_c 8.889110
_cell_angle_alpha 90.000000
_cell_angle_beta 90.000000
_cell_angle_gamma 90.000000
_cell_volume 2772.802665
_symmetry_space_group_name_H-M "P B C M"
_symmetry_group_IT_number 57
_symmetry_cell_setting 'orthorhombic'
loop_
_space_group_symop_operation_xyz
x,y,z
-x,-y,1/2+z
x,1/2-y,-z
-x,1/2+y,1/2-z
-x,-y,-z
x,y,1/2-z
-x,1/2+y,z
x,1/2-y,1/2+z
loop_
_atom_site_type_symbol
_atom_site_label
_atom_site_fract_x
_atom_site_fract_y
_atom_site_fract_z
Si Si1 0.577493 0.014243 0.567858
Si Si2 0.205241 0.584301 0.576660
Si Si3 0.290524 0.414319 0.578556
Si Si4 0.662996 0.335769 0.930240
Si Si5 0.078216 0.495585 0.430897
Si Si6 0.163120 0.166468 0.572210
O O1 0.576479 0.020762 0.750000
O O2 0.630481 0.939795 0.529574
O O3 0.500000 0.000000 0.500000
O O4 0.612829 0.094225 0.497837
O O5 0.197059 0.610494 0.750000
O O6 0.248160 0.499433 0.578866
O O7 0.256641 0.643182 0.484575
O O8 0.130366 0.563465 0.499485
O O9 0.292232 0.384221 0.750000
O O10 0.243283 0.355471 0.479320
O O11 0.659092 0.335270 0.750000
O O12 0.642888 0.250000 0.000000
O O13 0.076607 0.502131 0.250000
O O14 0.113628 0.409260 0.471118
O O15 0.000000 0.500000 0.500000
O O16 0.140142 0.250000 0.500000
O O17 0.161014 0.173727 0.750000
#
# Coordination Sequence:
#
# PCOD9436663 Si02
#       6
#     8   8   8   8   8   8
#     4  10  20  35  55  80 108 141 177 215 262 316
#     4   9  17  32  53  76 101 132 170 211 254 308
#     4   8  16  31  51  73  99 130 166 205 248 299
#     4  11  21  35  55  79 107 139 176 221 267 314
#     4  10  20  34  53  78 105 138 176 215 261 315
#     4  10  20  33  52  76 102 132 170 213 259 306
#
# _framework density 17.311004000000001
#
# number of rings (size 3 to 8) (size 9 to 14) (size 15 to 20)
#    0.000    2.333    0.000    4.500    0.000    6.667 
#    0.000    1.667    0.000    6.000    0.000    0.000 
#    0.000    0.000    0.000    0.000    0.000    0.000 
#
# Total GULP energy -267672.919148 kJ/mol
# GULP energy per Si atom -5576.519149 kJ/mol
# Density = 1.727160 g / cm^3
# Si number density = 17.311004 Si / 1000 Ang^3
#
#
#
# Elastic Constant Matrix: (Units=GPa)
#
#
# Indices 1 2 3 4 5 6 
#
# 1 144.6515 36.6666 54.7811 0.0000 0.0000 0.0000
# 2 36.6666 73.2163 46.0425 0.0000 0.0000 0.0000
# 3 54.7811 46.0425 97.5588 0.0000 0.0000 0.0000
# 4 0.0000 0.0000 0.0000 27.5180 0.0000 0.0000
# 5 0.0000 0.0000 0.0000 0.0000 32.0732 0.0000
# 6 0.0000 0.0000 0.0000 0.0000 0.0000 14.8597
#
#
#
# Elastic Compliance Matrix: (Units=1/GPa)
#
#
# Indices 1 2 3 4 5 6 
#
# 1 0.008959 -0.001881 -0.004143 0.000000 0.000000 0.000000
# 2 -0.001881 0.019818 -0.008296 0.000000 0.000000 0.000000
# 3 -0.004143 -0.008296 0.016492 0.000000 0.000000 0.000000
# 4 0.000000 0.000000 0.000000 0.036340 0.000000 0.000000
# 5 0.000000 0.000000 0.000000 0.000000 0.031179 0.000000
# 6 0.000000 0.000000 0.000000 0.000000 0.000000 0.067296
#
#
# Mechanical properties :
#
#
# Convention : Reuss Voigt Hill
#
# Bulk Modulus (GPa) = 60.14168 65.60077 62.87123
# Shear Modulus (GPa) = 23.33544 26.75262 25.04403
#
# Velocity S-wave (km/s) = 3.67551 3.93544 3.80769
# Velocity P-wave (km/s) = 7.26841 7.65689 7.46518
#
# Compressibility (1/GPa) = 0.01662740
#
# Stress axis : x y z
#
# Youngs Moduli (GPa) = 111.62009 50.46017 60.63609
#
# Poissons Ratio (x) = 0.09494 0.25119
# Poissons Ratio (y) = 0.21001 0.50306
# Poissons Ratio (z) = 0.46240 0.41864
#
# Static dielectric constant tensor:
#      x y z
#    x 1.584410 0.000000 0.000000 
#    y 0.000000 1.590790 0.000000 
#    z 0.000000 0.000000 1.579610 
# 
# From -- ./inp_files/6477.got.cif
#   From: 2010.05.17/outbox.cif.g08.bks.cpg/sg57_4_cif.got.tgz:6477.got - 2010.06.03 13:58:18.
