data_PCOD9436103
_publ_section_title
;
Structure prediction by ZEFSAII (Michael W. Deem and Ramdas Pophale) SiO2 
 PCOD9436103
Probable space group: P B C M
;
_chemical_formula_sum "Si O2"
_cell_formula_units_Z 48
_cell_length_a 9.786231
_cell_length_b 19.378790
_cell_length_c 13.410656
_cell_angle_alpha 90.000000
_cell_angle_beta 90.000000
_cell_angle_gamma 90.000000
_cell_volume 2543.268087
_symmetry_space_group_name_H-M "P B C M"
_symmetry_group_IT_number 57
_symmetry_cell_setting 'orthorhombic'
loop_
_space_group_symop_operation_xyz
x,y,z
-x,-y,1/2+z
x,1/2-y,-z
-x,1/2+y,1/2-z
-x,-y,-z
x,y,1/2-z
-x,1/2+y,z
x,1/2-y,1/2+z
loop_
_atom_site_type_symbol
_atom_site_label
_atom_site_fract_x
_atom_site_fract_y
_atom_site_fract_z
Si Si1 0.524205 0.471944 0.866406
Si Si2 0.199417 0.944906 0.981032
Si Si3 0.368231 0.199707 0.637518
Si Si4 0.073630 0.443982 0.634671
Si Si5 0.638806 0.117511 0.861959
Si Si6 0.312565 0.353810 0.570014
O O1 0.546702 0.457545 0.750000
O O2 0.444361 0.544797 0.872108
O O3 0.428041 0.411449 0.909719
O O4 0.668713 0.473655 0.922414
O O5 0.253558 0.882173 0.048996
O O6 0.140055 0.998779 0.061969
O O7 0.078073 0.929396 0.904799
O O8 0.322300 0.182706 0.750000
O O9 0.525895 0.176628 0.629749
O O10 0.355133 0.280588 0.615967
O O11 0.294375 0.158690 0.548366
O O12 0.074135 0.465615 0.750000
O O13 0.173850 0.379436 0.620308
O O14 0.697790 0.118635 0.750000
#
# Coordination Sequence:
#
# PCOD9436103 Si02
#       6
#     8   8   8   8   8   8
#     4  11  20  34  60  90 117 151 198 246 294 349
#     4  11  21  35  56  87 122 151 194 243 295 352
#     4  10  21  36  60  90 117 150 198 249 297 349
#     4  11  23  38  57  85 123 162 198 241 299 364
#     4  10  19  34  58  89 121 149 190 252 305 344
#     4  11  21  38  62  87 117 160 200 245 292 355
#
# _framework density 18.873353999999999
#
# number of rings (size 3 to 8) (size 9 to 14) (size 15 to 20)
#    0.000    1.333    3.333    4.000    0.000    0.000 
#    0.000    4.167    7.333    0.000    0.000    0.000 
#    0.000    0.000    0.000    0.000    0.000    0.000 
#
# Total GULP energy -268064.159535 kJ/mol
# GULP energy per Si atom -5584.669990 kJ/mol
# Density = 1.883040 g / cm^3
# Si number density = 18.873354 Si / 1000 Ang^3
#
#
#
# Elastic Constant Matrix: (Units=GPa)
#
#
# Indices 1 2 3 4 5 6 
#
# 1 94.4723 24.2780 45.0516 0.0000 0.0000 0.0000
# 2 24.2780 68.4959 22.3620 0.0000 0.0000 0.0000
# 3 45.0516 22.3620 153.6442 0.0000 0.0000 0.0000
# 4 0.0000 0.0000 0.0000 17.1704 0.0000 0.0000
# 5 0.0000 0.0000 0.0000 0.0000 30.8322 0.0000
# 6 0.0000 0.0000 0.0000 0.0000 0.0000 12.0021
#
#
#
# Elastic Compliance Matrix: (Units=1/GPa)
#
#
# Indices 1 2 3 4 5 6 
#
# 1 0.013081 -0.003553 -0.003318 0.000000 0.000000 0.000000
# 2 -0.003553 0.016293 -0.001330 0.000000 0.000000 0.000000
# 3 -0.003318 -0.001330 0.007675 0.000000 0.000000 0.000000
# 4 0.000000 0.000000 0.000000 0.058240 0.000000 0.000000
# 5 0.000000 0.000000 0.000000 0.000000 0.032434 0.000000
# 6 0.000000 0.000000 0.000000 0.000000 0.000000 0.083319
#
#
# Mechanical properties :
#
#
# Convention : Reuss Voigt Hill
#
# Bulk Modulus (GPa) = 48.43384 55.55504 51.99444
# Shear Modulus (GPa) = 21.33788 26.99565 24.16677
#
# Velocity S-wave (km/s) = 3.36606 3.78611 3.58225
# Velocity P-wave (km/s) = 6.38948 6.97226 6.68722
#
# Compressibility (1/GPa) = 0.02064672
#
# Stress axis : x y z
#
# Youngs Moduli (GPa) = 76.44882 61.37677 130.29203
#
# Poissons Ratio (x) = 0.21807 0.43236
# Poissons Ratio (y) = 0.27162 0.17322
# Poissons Ratio (z) = 0.25369 0.08160
#
# Static dielectric constant tensor:
#      x y z
#    x 1.643080 0.000000 0.000000 
#    y 0.000000 1.645670 0.000000 
#    z 0.000000 0.000000 1.709090 
# 
# From -- ./inp_files/16571.got.cif
#   From: 2010.05.17/outbox.cif.g08.bks.cpg/sg57_9_cif.got.tgz:16571.got - 2010.06.03 13:58:18.
