data_PCOD9436684
_publ_section_title
;
Structure prediction by ZEFSAII (Michael W. Deem and Ramdas Pophale) SiO2 
 PCOD9436684
Probable space group: P B C M
;
_chemical_formula_sum "Si O2"
_cell_formula_units_Z 64
_cell_length_a 21.547449
_cell_length_b 19.284645
_cell_length_c 8.554902
_cell_angle_alpha 90.000000
_cell_angle_beta 90.000000
_cell_angle_gamma 90.000000
_cell_volume 3554.860387
_symmetry_space_group_name_H-M "P B C M"
_symmetry_group_IT_number 57
_symmetry_cell_setting 'orthorhombic'
loop_
_space_group_symop_operation_xyz
x,y,z
-x,-y,1/2+z
x,1/2-y,-z
-x,1/2+y,1/2-z
-x,-y,-z
x,y,1/2-z
-x,1/2+y,z
x,1/2-y,1/2+z
loop_
_atom_site_type_symbol
_atom_site_label
_atom_site_fract_x
_atom_site_fract_y
_atom_site_fract_z
Si Si1 0.892248 0.175736 0.438316
Si Si2 0.376414 0.174421 0.562552
Si Si3 0.749581 0.892257 0.562413
Si Si4 0.306546 0.969558 0.560764
Si Si5 0.881639 0.828119 0.939038
Si Si6 0.250690 0.824604 0.561440
Si Si7 0.998098 0.922382 0.938910
Si Si8 0.562524 0.533654 0.561965
O O1 0.913917 0.250000 0.500000
O O2 0.892302 0.177049 0.250000
O O3 0.821085 0.165971 0.489738
O O4 0.939676 0.117221 0.490890
O O5 0.392763 0.250000 0.500000
O O6 0.374792 0.175565 0.750000
O O7 0.308212 0.151969 0.503127
O O8 0.423292 0.112953 0.512424
O O9 0.747086 0.890966 0.750000
O O10 0.815308 0.860186 0.511607
O O11 0.738652 0.970813 0.504388
O O12 0.303198 0.972659 0.750000
O O13 0.288317 0.892350 0.510369
O O14 0.376259 0.990578 0.513649
O O15 0.882224 0.825922 0.750000
O O16 0.938031 0.878016 0.989829
O O17 0.888884 0.750000 0.000000
O O18 0.272526 0.750000 0.500000
O O19 0.251818 0.822392 0.750000
O O20 0.997323 0.923707 0.750000
O O21 0.000000 0.000000 0.000000
O O22 0.500000 0.500000 0.500000
O O23 0.560310 0.533033 0.750000
#
# Coordination Sequence:
#
# PCOD9436684 Si02
#       8
#     8   8   8   8   8   8   8   8
#     4   9  18  33  53  74  96 128 170 211 256 308
#     4  10  20  35  55  81 110 140 177 219 261 308
#     4  10  20  33  52  79 108 139 174 215 263 314
#     4   9  19  35  54  77 107 139 174 216 261 310
#     4  10  22  37  52  75 106 136 171 214 259 311
#     4   9  18  33  53  77 103 132 170 216 262 310
#     4  10  22  37  51  73 102 132 172 216 257 307
#     4   9  19  35  54  77 106 140 175 213 254 301
#
# _framework density 18.003520000000002
#
# number of rings (size 3 to 8) (size 9 to 14) (size 15 to 20)
#    0.000    2.500    0.000    2.250    1.750    6.000 
#    0.000    0.625    0.000    3.000    0.000    0.000 
#    0.000    0.000    0.000    0.000    0.000    0.000 
#
# Total GULP energy -357066.033633 kJ/mol
# GULP energy per Si atom -5579.156776 kJ/mol
# Density = 1.796254 g / cm^3
# Si number density = 18.003520 Si / 1000 Ang^3
#
#
#
# Elastic Constant Matrix: (Units=GPa)
#
#
# Indices 1 2 3 4 5 6 
#
# 1 94.0560 98.6616 21.5270 0.0000 0.0000 0.0000
# 2 98.6616 207.9299 28.9901 0.0000 0.0000 0.0000
# 3 21.5270 28.9901 13.2684 0.0000 0.0000 0.0000
# 4 0.0000 0.0000 0.0000 34.6711 0.0000 0.0000
# 5 0.0000 0.0000 0.0000 0.0000 20.8498 0.0000
# 6 0.0000 0.0000 0.0000 0.0000 0.0000 26.7977
#
#
#
# Elastic Compliance Matrix: (Units=1/GPa)
#
#
# Indices 1 2 3 4 5 6 
#
# 1 0.024572 -0.008774 -0.020697 0.000000 0.000000 0.000000
# 2 -0.008774 0.010049 -0.007721 0.000000 0.000000 0.000000
# 3 -0.020697 -0.007721 0.125816 0.000000 0.000000 0.000000
# 4 0.000000 0.000000 0.000000 0.028842 0.000000 0.000000
# 5 0.000000 0.000000 0.000000 0.000000 0.047962 0.000000
# 6 0.000000 0.000000 0.000000 0.000000 0.000000 0.037317
#
#
# Mechanical properties :
#
#
# Convention : Reuss Voigt Hill
#
# Bulk Modulus (GPa) = 11.62065 68.17908 39.89987
# Shear Modulus (GPa) = 13.24058 27.53543 20.38800
#
# Velocity S-wave (km/s) = 2.71485 3.91506 3.36883
# Velocity P-wave (km/s) = 4.03681 7.64127 6.11084
#
# Compressibility (1/GPa) = 0.08605372
#
# Stress axis : x y z
#
# Youngs Moduli (GPa) = 40.69592 99.51304 7.94811
#
# Poissons Ratio (x) = 0.87311 0.16450
# Poissons Ratio (y) = 0.35706 0.06137
# Poissons Ratio (z) = 0.84229 0.76833
#
# Static dielectric constant tensor:
#      x y z
#    x 1.607090 0.000000 0.000000 
#    y 0.000000 1.665790 0.000000 
#    z 0.000000 0.000000 1.610160 
# 
# From -- ./inp_files/8545.got.cif
#   From: 2010.05.17/outbox.cif.g08.bks.cpg/sg57_5_cif.got.tgz:8545.got - 2010.06.03 13:58:18.
