data_PCOD9436519
_publ_section_title
;
Structure prediction by ZEFSAII (Michael W. Deem and Ramdas Pophale) SiO2 
 PCOD9436519
Probable space group: P B C M
;
_chemical_formula_sum "Si O2"
_cell_formula_units_Z 56
_cell_length_a 14.199258
_cell_length_b 7.346996
_cell_length_c 23.543948
_cell_angle_alpha 90.000000
_cell_angle_beta 90.000000
_cell_angle_gamma 90.000000
_cell_volume 2456.149194
_symmetry_space_group_name_H-M "P B C M"
_symmetry_group_IT_number 57
_symmetry_cell_setting 'orthorhombic'
loop_
_space_group_symop_operation_xyz
x,y,z
-x,-y,1/2+z
x,1/2-y,-z
-x,1/2+y,1/2-z
-x,-y,-z
x,y,1/2-z
-x,1/2+y,z
x,1/2-y,1/2+z
loop_
_atom_site_type_symbol
_atom_site_label
_atom_site_fract_x
_atom_site_fract_y
_atom_site_fract_z
Si Si1 0.871029 0.543660 0.187304
Si Si2 0.382292 0.020372 0.814557
Si Si3 0.584201 0.946941 0.684708
Si Si4 0.269237 0.524430 0.900257
Si Si5 0.766136 0.424718 0.599553
Si Si6 0.386157 0.531890 0.004637
Si Si7 0.909422 0.387630 0.814089
O O1 0.832200 0.596273 0.250000
O O2 0.807638 0.594424 0.133038
O O3 0.876471 0.323089 0.186450
O O4 0.977335 0.612382 0.182829
O O5 0.385495 0.959604 0.750000
O O6 0.383099 0.238779 0.816653
O O7 0.480432 0.957050 0.841653
O O8 0.291954 0.941334 0.842769
O O9 0.580122 0.008981 0.750000
O O10 0.655116 0.065366 0.648899
O O11 0.224664 0.714821 0.920516
O O12 0.332855 0.445666 0.950388
O O13 0.688450 0.511830 0.556086
O O14 0.867273 0.476707 0.627848
O O15 0.382098 0.750000 0.000000
O O16 0.500000 0.500000 0.000000
O O17 0.886834 0.464248 0.750000
#
# Coordination Sequence:
#
# PCOD9436519 Si02
#       7
#     8   8   8   8   8   8   8
#     4   9  18  33  54  79 106 136 170 212 264 319
#     4  10  20  32  48  73 103 133 167 211 263 318
#     4  10  20  32  48  73 103 133 167 211 263 318
#     4  10  20  35  54  75 102 138 178 218 262 311
#     4  10  20  35  54  75 102 138 178 218 262 311
#     4  10  22  38  55  76 104 140 181 224 265 308
#     4   9  18  33  54  79 106 136 170 212 264 319
#
# _framework density 22.799918000000002
#
# number of rings (size 3 to 8) (size 9 to 14) (size 15 to 20)
#    0.000    2.286    0.000    2.571    0.000    7.429 
#    0.000    3.571    0.000    0.000    0.000    0.000 
#    0.000    0.000    0.000    0.000    0.000    0.000 
#
# Total GULP energy -311868.643777 kJ/mol
# GULP energy per Si atom -5569.082925 kJ/mol
# Density = 2.274802 g / cm^3
# Si number density = 22.799918 Si / 1000 Ang^3
#
#
#
# Elastic Constant Matrix: (Units=GPa)
#
#
# Indices 1 2 3 4 5 6 
#
# 1 106.2351 -15.0887 55.1599 0.0000 0.0000 0.0000
# 2 -15.0887 42.6530 -16.3913 0.0000 0.0000 0.0000
# 3 55.1599 -16.3913 91.2930 0.0000 0.0000 0.0000
# 4 0.0000 0.0000 0.0000 6.5481 0.0000 0.0000
# 5 0.0000 0.0000 0.0000 0.0000 33.9633 0.0000
# 6 0.0000 0.0000 0.0000 0.0000 0.0000 23.3567
#
#
#
# Elastic Compliance Matrix: (Units=1/GPa)
#
#
# Indices 1 2 3 4 5 6 
#
# 1 0.013845 0.001808 -0.008040 0.000000 0.000000 0.000000
# 2 0.001808 0.025419 0.003472 0.000000 0.000000 0.000000
# 3 -0.008040 0.003472 0.016435 0.000000 0.000000 0.000000
# 4 0.000000 0.000000 0.000000 0.152715 0.000000 0.000000
# 5 0.000000 0.000000 0.000000 0.000000 0.029444 0.000000
# 6 0.000000 0.000000 0.000000 0.000000 0.000000 0.042814
#
#
# Mechanical properties :
#
#
# Convention : Reuss Voigt Hill
#
# Bulk Modulus (GPa) = 19.92984 31.94900 25.93942
# Shear Modulus (GPa) = 16.50606 27.20703 21.85655
#
# Velocity S-wave (km/s) = 2.69356 3.45816 3.09952
# Velocity P-wave (km/s) = 4.29346 5.47616 4.92048
#
# Compressibility (1/GPa) = 0.05017601
#
# Stress axis : x y z
#
# Youngs Moduli (GPa) = 72.23001 39.34130 60.84507
#
# Poissons Ratio (x) = -0.07112 0.48922
# Poissons Ratio (y) = -0.13057 -0.21123
# Poissons Ratio (z) = 0.58076 -0.13658
#
# Static dielectric constant tensor:
#      x y z
#    x 1.891480 0.000000 0.000000 
#    y 0.000000 1.920850 0.000000 
#    z 0.000000 0.000000 1.926160 
# 
# From -- ./inp_files/25420.got.cif
#   From: 2010.05.17/outbox.cif.g08.bks.cpg/sg57_13_cif.got.tgz:25420.got - 2010.06.03 13:58:18.
