data_PCOD9436907
_publ_section_title
;
Structure prediction by ZEFSAII (Michael W. Deem and Ramdas Pophale) SiO2 
 PCOD9436907
Probable space group: P B C M
;
_chemical_formula_sum "Si O2"
_cell_formula_units_Z 56
_cell_length_a 15.076944
_cell_length_b 23.112405
_cell_length_c 8.690112
_cell_angle_alpha 90.000000
_cell_angle_beta 90.000000
_cell_angle_gamma 90.000000
_cell_volume 3028.194976
_symmetry_space_group_name_H-M "P B C M"
_symmetry_group_IT_number 57
_symmetry_cell_setting 'orthorhombic'
loop_
_space_group_symop_operation_xyz
x,y,z
-x,-y,1/2+z
x,1/2-y,-z
-x,1/2+y,1/2-z
-x,-y,-z
x,y,1/2-z
-x,1/2+y,z
x,1/2-y,1/2+z
loop_
_atom_site_type_symbol
_atom_site_label
_atom_site_fract_x
_atom_site_fract_y
_atom_site_fract_z
Si Si1 0.578422 0.187845 0.934524
Si Si2 0.194674 0.310991 0.565825
Si Si3 0.594814 0.981350 0.435057
Si Si4 0.708663 0.409299 0.565607
Si Si5 0.082128 0.423498 0.935886
Si Si6 0.110991 0.945014 0.065706
Si Si7 0.379658 0.349512 0.064216
O O1 0.582385 0.187056 0.750000
O O2 0.476175 0.174915 0.979733
O O3 0.603693 0.250000 0.000000
O O4 0.644047 0.139580 0.000118
O O5 0.160302 0.250000 0.500000
O O6 0.191897 0.308834 0.750000
O O7 0.139918 0.368115 0.514242
O O8 0.295978 0.318761 0.510978
O O9 0.588526 0.981017 0.250000
O O10 0.665962 0.029207 0.481461
O O11 0.500000 0.000000 0.500000
O O12 0.620442 0.916892 0.483405
O O13 0.710072 0.405811 0.750000
O O14 0.807542 0.408803 0.500614
O O15 0.077914 0.422575 0.750000
O O16 0.119891 0.486901 0.981237
O O17 0.982911 0.422735 0.002463
O O18 0.110982 0.942626 0.250000
O O19 0.371727 0.345772 0.250000
#
# Coordination Sequence:
#
# PCOD9436907 Si02
#       7
#     8   8   8   8   8   8   8
#     4  11  23  39  57  77 109 150 195 240 280 330
#     4  11  23  38  58  84 116 154 193 236 284 340
#     4  10  20  34  54  83 115 149 186 231 283 332
#     4  11  22  36  57  85 117 151 188 231 282 338
#     4   9  20  39  60  86 117 148 185 232 289 348
#     4  10  20  36  62  90 115 146 185 233 290 346
#     4  10  21  37  57  83 115 151 192 235 282 337
#
# _framework density 18.492864999999998
#
# number of rings (size 3 to 8) (size 9 to 14) (size 15 to 20)
#    0.000    1.714    1.429    3.000    0.000    5.143 
#    0.000    0.714    0.000    1.714    0.000    0.000 
#    0.000    0.000    0.000    0.000    0.000    0.000 
#
# Total GULP energy -312851.800747 kJ/mol
# GULP energy per Si atom -5586.639299 kJ/mol
# Density = 1.845077 g / cm^3
# Si number density = 18.492865 Si / 1000 Ang^3
#
#
#
# Elastic Constant Matrix: (Units=GPa)
#
#
# Indices 1 2 3 4 5 6 
#
# 1 118.9429 49.8966 29.2802 0.0000 0.0000 0.0000
# 2 49.8966 108.9847 25.0759 0.0000 0.0000 0.0000
# 3 29.2802 25.0759 23.4806 0.0000 0.0000 0.0000
# 4 0.0000 0.0000 0.0000 26.0576 0.0000 0.0000
# 5 0.0000 0.0000 0.0000 0.0000 32.3673 0.0000
# 6 0.0000 0.0000 0.0000 0.0000 0.0000 20.2388
#
#
#
# Elastic Compliance Matrix: (Units=1/GPa)
#
#
# Indices 1 2 3 4 5 6 
#
# 1 0.012786 -0.002897 -0.012850 0.000000 0.000000 0.000000
# 2 -0.002897 0.012821 -0.010079 0.000000 0.000000 0.000000
# 3 -0.012850 -0.010079 0.069377 0.000000 0.000000 0.000000
# 4 0.000000 0.000000 0.000000 0.038377 0.000000 0.000000
# 5 0.000000 0.000000 0.000000 0.000000 0.030895 0.000000
# 6 0.000000 0.000000 0.000000 0.000000 0.000000 0.049410
#
#
# Mechanical properties :
#
#
# Convention : Reuss Voigt Hill
#
# Bulk Modulus (GPa) = 23.07850 51.10152 37.09001
# Shear Modulus (GPa) = 17.87226 25.54310 21.70768
#
# Velocity S-wave (km/s) = 3.11214 3.72054 3.42985
# Velocity P-wave (km/s) = 5.04189 6.79335 5.98207
#
# Compressibility (1/GPa) = 0.04333037
#
# Stress axis : x y z
#
# Youngs Moduli (GPa) = 78.20995 77.99589 14.41405
#
# Poissons Ratio (x) = 0.22597 0.18522
# Poissons Ratio (y) = 0.22659 0.14529
# Poissons Ratio (z) = 1.00501 0.78616
#
# Static dielectric constant tensor:
#      x y z
#    x 1.613290 0.000000 0.000000 
#    y 0.000000 1.615920 0.000000 
#    z 0.000000 0.000000 1.613210 
# 
# From -- ./inp_files/5254.got.cif
#   From: 2010.05.17/outbox.cif.g08.bks.cpg/sg57_3_cif.got.tgz:5254.got - 2010.06.03 13:58:18.
