data_PCOD9436898
_publ_section_title
;
Structure prediction by ZEFSAII (Michael W. Deem and Ramdas Pophale) SiO2 
 PCOD9436898
Probable space group: P B C M
;
_chemical_formula_sum "Si O2"
_cell_formula_units_Z 48
_cell_length_a 15.433149
_cell_length_b 19.842166
_cell_length_c 8.492036
_cell_angle_alpha 90.000000
_cell_angle_beta 90.000000
_cell_angle_gamma 90.000000
_cell_volume 2600.491594
_symmetry_space_group_name_H-M "P B C M"
_symmetry_group_IT_number 57
_symmetry_cell_setting 'orthorhombic'
loop_
_space_group_symop_operation_xyz
x,y,z
-x,-y,1/2+z
x,1/2-y,-z
-x,1/2+y,1/2-z
-x,-y,-z
x,y,1/2-z
-x,1/2+y,z
x,1/2-y,1/2+z
loop_
_atom_site_type_symbol
_atom_site_label
_atom_site_fract_x
_atom_site_fract_y
_atom_site_fract_z
Si Si1 0.568391 0.175483 0.061475
Si Si2 0.274769 0.589233 0.940177
Si Si3 0.630249 0.824338 0.559743
Si Si4 0.964066 0.571408 0.439194
Si Si5 0.765573 0.562871 0.057842
Si Si6 0.893831 0.326040 0.061061
O O1 0.570622 0.176350 0.250000
O O2 0.469178 0.161751 0.010122
O O3 0.592037 0.250000 0.000000
O O4 0.636551 0.121573 0.999381
O O5 0.275494 0.589315 0.750000
O O6 0.260126 0.512436 0.993138
O O7 0.193566 0.635226 0.991617
O O8 0.653748 0.750000 0.500000
O O9 0.631412 0.823528 0.750000
O O10 0.697042 0.881166 0.504601
O O11 0.966423 0.570854 0.250000
O O12 0.864030 0.578436 0.490118
O O13 0.000000 0.500000 0.500000
O O14 0.024730 0.630869 0.501505
O O15 0.764427 0.562767 0.250000
O O16 0.894571 0.325643 0.250000
O O17 0.895045 0.250000 0.000000
#
# Coordination Sequence:
#
# PCOD9436898 Si02
#       6
#     8   8   8   8   8   8
#     4  10  20  34  54  81 110 146 186 228 277 329
#     4  10  20  36  57  81 112 148 185 227 280 339
#     4   9  19  37  58  79 110 146 185 229 276 330
#     4  11  21  38  61  84 113 151 190 232 283 340
#     4   9  19  37  59  82 110 148 184 225 283 336
#     4  11  23  39  58  85 115 150 192 235 285 338
#
# _framework density 18.458048000000002
#
# number of rings (size 3 to 8) (size 9 to 14) (size 15 to 20)
#    0.000    2.000    1.667    2.000    0.000    4.667 
#    0.000    4.167    0.000    0.000    0.000    0.000 
#    0.000    0.000    0.000    0.000    0.000    0.000 
#
# Total GULP energy -268060.799509 kJ/mol
# GULP energy per Si atom -5584.599990 kJ/mol
# Density = 1.841604 g / cm^3
# Si number density = 18.458048 Si / 1000 Ang^3
#
#
#
# Elastic Constant Matrix: (Units=GPa)
#
#
# Indices 1 2 3 4 5 6 
#
# 1 155.7150 126.2952 26.0092 0.0000 0.0000 0.0000
# 2 126.2952 191.3469 29.9528 0.0000 0.0000 0.0000
# 3 26.0092 29.9528 23.9292 0.0000 0.0000 0.0000
# 4 0.0000 0.0000 0.0000 30.7666 0.0000 0.0000
# 5 0.0000 0.0000 0.0000 0.0000 14.7417 0.0000
# 6 0.0000 0.0000 0.0000 0.0000 0.0000 41.2018
#
#
#
# Elastic Compliance Matrix: (Units=1/GPa)
#
#
# Indices 1 2 3 4 5 6 
#
# 1 0.014218 -0.008663 -0.004611 0.000000 0.000000 0.000000
# 2 -0.008663 0.011778 -0.005327 0.000000 0.000000 0.000000
# 3 -0.004611 -0.005327 0.053469 0.000000 0.000000 0.000000
# 4 0.000000 0.000000 0.000000 0.032503 0.000000 0.000000
# 5 0.000000 0.000000 0.000000 0.000000 0.067835 0.000000
# 6 0.000000 0.000000 0.000000 0.000000 0.000000 0.024271
#
#
# Mechanical properties :
#
#
# Convention : Reuss Voigt Hill
#
# Bulk Modulus (GPa) = 23.66051 81.72284 52.69168
# Shear Modulus (GPa) = 19.58013 29.92429 24.75221
#
# Velocity S-wave (km/s) = 3.26051 4.03079 3.66594
# Velocity P-wave (km/s) = 5.19817 8.12613 6.82111
#
# Compressibility (1/GPa) = 0.04226452
#
# Stress axis : x y z
#
# Youngs Moduli (GPa) = 70.33281 84.90705 18.70249
#
# Poissons Ratio (x) = 0.73552 0.08623
# Poissons Ratio (y) = 0.60927 0.09962
# Poissons Ratio (z) = 0.32428 0.45227
#
# Static dielectric constant tensor:
#      x y z
#    x 1.628870 0.000000 0.000000 
#    y 0.000000 1.598990 0.000000 
#    z 0.000000 0.000000 1.639450 
# 
# From -- ./inp_files/4557.got.cif
#   From: 2010.05.17/outbox.cif.g08.bks.cpg/sg57_3_cif.got.tgz:4557.got - 2010.06.03 13:58:18.
