data_PCOD9436027
_publ_section_title
;
Structure prediction by ZEFSAII (Michael W. Deem and Ramdas Pophale) SiO2 
 PCOD9436027
Probable space group: P B C M
;
_chemical_formula_sum "Si O2"
_cell_formula_units_Z 56
_cell_length_a 16.288035
_cell_length_b 12.673857
_cell_length_c 14.545097
_cell_angle_alpha 90.000000
_cell_angle_beta 90.000000
_cell_angle_gamma 90.000000
_cell_volume 3002.576757
_symmetry_space_group_name_H-M "P B C M"
_symmetry_group_IT_number 57
_symmetry_cell_setting 'orthorhombic'
loop_
_space_group_symop_operation_xyz
x,y,z
-x,-y,1/2+z
x,1/2-y,-z
-x,1/2+y,1/2-z
-x,-y,-z
x,y,1/2-z
-x,1/2+y,z
x,1/2-y,1/2+z
loop_
_atom_site_type_symbol
_atom_site_label
_atom_site_fract_x
_atom_site_fract_y
_atom_site_fract_z
Si Si1 0.442595 0.597172 0.021568
Si Si2 0.897069 0.123212 0.507820
Si Si3 0.490017 0.261458 0.357486
Si Si4 0.824911 0.815965 0.409045
Si Si5 0.968017 0.534205 0.856153
Si Si6 0.729291 0.496572 0.495749
Si Si7 0.318945 0.328589 0.647025
O O1 0.473420 0.647897 0.116526
O O2 0.500000 0.500000 0.000000
O O3 0.460919 0.667914 0.930849
O O4 0.348212 0.567134 0.031914
O O5 0.901956 0.250000 0.500000
O O6 0.952335 0.077350 0.590671
O O7 0.932030 0.063526 0.416333
O O8 0.804493 0.082042 0.524090
O O9 0.497583 0.289782 0.250000
O O10 0.393468 0.248354 0.383880
O O11 0.851650 0.750000 0.500000
O O12 0.902038 0.870128 0.361538
O O13 0.767395 0.913940 0.438374
O O14 0.765961 0.735979 0.356000
O O15 0.982638 0.506091 0.750000
O O16 0.694339 0.567334 0.412431
O O17 0.340809 0.358888 0.750000
#
# Coordination Sequence:
#
# PCOD9436027 Si02
#       7
#     8   8   8   8   8   8   8
#     4  11  21  37  62  80 112 159 197 242 297 356
#     4  10  23  41  61  87 123 157 193 241 289 344
#     4  10  23  37  54  84 115 148 196 249 292 345
#     4   9  18  34  60  87 115 148 188 244 297 350
#     4  10  21  40  63  89 118 154 197 237 288 349
#     4  10  21  36  58  82 113 155 197 236 293 356
#     4  10  19  34  56  85 117 145 190 249 297 345
#
# _framework density 18.650646999999999
#
# number of rings (size 3 to 8) (size 9 to 14) (size 15 to 20)
#    0.000    2.000    1.429    1.714    6.000    3.429 
#    0.000    3.571    0.000    0.000    0.000    0.000 
#    0.000    0.000    0.000    0.000    0.000    0.000 
#
# Total GULP energy -312066.135019 kJ/mol
# GULP energy per Si atom -5572.609554 kJ/mol
# Density = 1.860820 g / cm^3
# Si number density = 18.650647 Si / 1000 Ang^3
#
#
#
# Elastic Constant Matrix: (Units=GPa)
#
#
# Indices 1 2 3 4 5 6 
#
# 1 93.5808 13.9588 10.5572 0.0000 0.0000 0.0000
# 2 13.9588 69.3816 9.4516 0.0000 0.0000 0.0000
# 3 10.5572 9.4516 89.4769 0.0000 0.0000 0.0000
# 4 0.0000 0.0000 0.0000 7.8481 0.0000 0.0000
# 5 0.0000 0.0000 0.0000 0.0000 -0.3572 0.0000
# 6 0.0000 0.0000 0.0000 0.0000 0.0000 13.8293
#
#
#
# Elastic Compliance Matrix: (Units=1/GPa)
#
#
# Indices 1 2 3 4 5 6 
#
# 1 0.011121 -0.002089 -0.001091 0.000000 0.000000 0.000000
# 2 -0.002089 0.015016 -0.001340 0.000000 0.000000 0.000000
# 3 -0.001091 -0.001340 0.011446 0.000000 0.000000 0.000000
# 4 0.000000 0.000000 0.000000 0.127420 0.000000 0.000000
# 5 0.000000 0.000000 0.000000 0.000000 -2.799497 0.000000
# 6 0.000000 0.000000 0.000000 0.000000 0.000000 0.072310
#
#
# Mechanical properties :
#
#
# Convention : Reuss Voigt Hill
#
# Bulk Modulus (GPa) = 35.03475 35.59717 35.31596
# Shear Modulus (GPa) = -1.96569 18.82880 8.43155
#
# Velocity S-wave (km/s) = -1.02774 3.18079 2.12852
# Velocity P-wave (km/s) = 4.17339 5.71119 5.00174
#
# Compressibility (1/GPa) = 0.02854309
#
# Stress axis : x y z
#
# Youngs Moduli (GPa) = 89.92289 66.59665 87.36399
#
# Poissons Ratio (x) = 0.13910 0.09536
# Poissons Ratio (y) = 0.18782 0.11704
# Poissons Ratio (z) = 0.09815 0.08922
#
# Static dielectric constant tensor:
#      x y z
#    x 1.660090 0.000000 0.000000 
#    y 0.000000 1.669250 0.000000 
#    z 0.000000 0.000000 1.651190 
# 
# From -- ./inp_files/18530.got.cif
#   From: 2010.05.17/outbox.cif.g08.bks.cpg/sg57_10_cif.got.tgz:18530.got - 2010.06.03 13:58:18.
