data_PCOD9436843
_publ_section_title
;
Structure prediction by ZEFSAII (Michael W. Deem and Ramdas Pophale) SiO2 
 PCOD9436843
Probable space group: P B C M
;
_chemical_formula_sum "Si O2"
_cell_formula_units_Z 48
_cell_length_a 16.783903
_cell_length_b 18.376858
_cell_length_c 8.768936
_cell_angle_alpha 90.000000
_cell_angle_beta 90.000000
_cell_angle_gamma 90.000000
_cell_volume 2704.650301
_symmetry_space_group_name_H-M "P B C M"
_symmetry_group_IT_number 57
_symmetry_cell_setting 'orthorhombic'
loop_
_space_group_symop_operation_xyz
x,y,z
-x,-y,1/2+z
x,1/2-y,-z
-x,1/2+y,1/2-z
-x,-y,-z
x,y,1/2-z
-x,1/2+y,z
x,1/2-y,1/2+z
loop_
_atom_site_type_symbol
_atom_site_label
_atom_site_fract_x
_atom_site_fract_y
_atom_site_fract_z
Si Si1 0.019806 0.669017 0.932142
Si Si2 0.823894 0.395153 0.930098
Si Si3 0.851205 0.830457 0.568130
Si Si4 0.739879 0.549856 0.569772
Si Si5 0.415073 0.521585 0.932753
Si Si6 0.333227 0.673468 0.932418
O O1 0.015290 0.672772 0.750000
O O2 0.032288 0.750000 0.000000
O O3 0.093826 0.620959 0.985869
O O4 0.935540 0.642676 0.999389
O O5 0.832429 0.380441 0.750000
O O6 0.794403 0.477863 0.950315
O O7 0.753322 0.345454 0.998037
O O8 0.838735 0.750000 0.500000
O O9 0.856900 0.826466 0.750000
O O10 0.781616 0.883870 0.515475
O O11 0.733820 0.564703 0.750000
O O12 0.654154 0.528864 0.502372
O O13 0.415407 0.514912 0.750000
O O14 0.389818 0.604877 0.970516
O O15 0.500000 0.500000 0.000000
O O16 0.326746 0.678193 0.750000
O O17 0.361283 0.750000 0.000000
#
# Coordination Sequence:
#
# PCOD9436843 Si02
#       6
#     8   8   8   8   8   8
#     4  11  21  34  52  75 107 145 186 228 270 317
#     4  10  20  34  53  78 109 144 181 222 268 319
#     4  11  22  38  58  79 107 142 183 228 272 319
#     4  10  21  38  59  82 108 140 179 221 270 326
#     4  10  21  38  60  85 112 143 179 222 272 326
#     4  10  20  34  54  81 112 144 179 219 266 321
#
# _framework density 17.747209999999999
#
# number of rings (size 3 to 8) (size 9 to 14) (size 15 to 20)
#    0.000    1.667    0.000    6.500    0.000    4.667 
#    0.000    0.833    0.000    2.000    0.000    0.000 
#    0.000    0.000    0.000    0.000    0.000    0.000 
#
# Total GULP energy -268231.137294 kJ/mol
# GULP energy per Si atom -5588.148694 kJ/mol
# Density = 1.770682 g / cm^3
# Si number density = 17.747210 Si / 1000 Ang^3
#
#
#
# Elastic Constant Matrix: (Units=GPa)
#
#
# Indices 1 2 3 4 5 6 
#
# 1 152.7249 75.3901 82.7663 0.0000 0.0000 0.0000
# 2 75.3901 73.1563 63.5641 0.0000 0.0000 0.0000
# 3 82.7663 63.5641 146.7902 0.0000 0.0000 0.0000
# 4 0.0000 0.0000 0.0000 30.0392 0.0000 0.0000
# 5 0.0000 0.0000 0.0000 0.0000 34.4902 0.0000
# 6 0.0000 0.0000 0.0000 0.0000 0.0000 16.4090
#
#
#
# Elastic Compliance Matrix: (Units=1/GPa)
#
#
# Indices 1 2 3 4 5 6 
#
# 1 0.013932 -0.012075 -0.002626 0.000000 0.000000 0.000000
# 2 -0.012075 0.032381 -0.007213 0.000000 0.000000 0.000000
# 3 -0.002626 -0.007213 0.011417 0.000000 0.000000 0.000000
# 4 0.000000 0.000000 0.000000 0.033290 0.000000 0.000000
# 5 0.000000 0.000000 0.000000 0.000000 0.028994 0.000000
# 6 0.000000 0.000000 0.000000 0.000000 0.000000 0.060942
#
#
# Mechanical properties :
#
#
# Convention : Reuss Voigt Hill
#
# Bulk Modulus (GPa) = 71.94417 90.67917 81.31167
# Shear Modulus (GPa) = 21.79433 26.25109 24.02271
#
# Velocity S-wave (km/s) = 3.50815 3.85017 3.68313
# Velocity P-wave (km/s) = 7.55220 8.42442 8.00021
#
# Compressibility (1/GPa) = 0.01389967
#
# Stress axis : x y z
#
# Youngs Moduli (GPa) = 71.77860 30.88269 87.58960
#
# Poissons Ratio (x) = 0.37291 0.23005
# Poissons Ratio (y) = 0.86673 0.63181
# Poissons Ratio (z) = 0.18852 0.22276
#
# Static dielectric constant tensor:
#      x y z
#    x 1.576310 0.000000 0.000000 
#    y 0.000000 1.601510 0.000000 
#    z 0.000000 0.000000 1.589320 
# 
# From -- ./inp_files/4634.got.cif
#   From: 2010.05.17/outbox.cif.g08.bks.cpg/sg57_3_cif.got.tgz:4634.got - 2010.06.03 13:58:18.
