data_PCOD9436409
_publ_section_title
;
Structure prediction by ZEFSAII (Michael W. Deem and Ramdas Pophale) SiO2 
 PCOD9436409
Probable space group: P B C M
;
_chemical_formula_sum "Si O2"
_cell_formula_units_Z 32
_cell_length_a 10.060566
_cell_length_b 8.701001
_cell_length_c 15.835125
_cell_angle_alpha 90.000000
_cell_angle_beta 90.000000
_cell_angle_gamma 90.000000
_cell_volume 1386.159255
_symmetry_space_group_name_H-M "P B C M"
_symmetry_group_IT_number 57
_symmetry_cell_setting 'orthorhombic'
loop_
_space_group_symop_operation_xyz
x,y,z
-x,-y,1/2+z
x,1/2-y,-z
-x,1/2+y,1/2-z
-x,-y,-z
x,y,1/2-z
-x,1/2+y,z
x,1/2-y,1/2+z
loop_
_atom_site_type_symbol
_atom_site_label
_atom_site_fract_x
_atom_site_fract_y
_atom_site_fract_z
Si Si1 0.580970 0.027609 0.353199
Si Si2 0.945205 0.978678 0.907015
Si Si3 0.681839 0.362089 0.147542
Si Si4 0.174649 0.334954 0.346232
O O1 0.584287 0.025710 0.250000
O O2 0.630818 0.194671 0.379474
O O3 0.432071 0.983672 0.377746
O O4 0.687236 0.899693 0.381562
O O5 0.823003 0.092199 0.889167
O O6 0.890654 0.691830 0.107157
O O7 0.068702 0.026047 0.848064
O O8 0.000000 0.000000 0.000000
O O9 0.692128 0.363193 0.250000
O O10 0.198314 0.283725 0.250000
#
# Coordination Sequence:
#
# PCOD9436409 Si02
#       4
#     8   8   8   8
#     4   9  19  35  64 100 130 162 216 275 324 380
#     4  12  25  40  60  91 132 172 212 264 321 379
#     4  10  19  37  63  95 130 169 215 270 327 389
#     4  11  22  40  64  92 123 167 218 265 315 380
#
# _framework density 23.085369
#
# number of rings (size 3 to 8) (size 9 to 14) (size 15 to 20)
#    0.000    1.500    0.000    6.000    0.000    6.000 
#    0.000    1.250    0.000    3.000    0.000    0.000 
#    0.000    0.000    0.000    0.000    0.000    0.000 
#
# Total GULP energy -179217.148650 kJ/mol
# GULP energy per Si atom -5600.535895 kJ/mol
# Density = 2.303283 g / cm^3
# Si number density = 23.085369 Si / 1000 Ang^3
#
#
#
# Elastic Constant Matrix: (Units=GPa)
#
#
# Indices 1 2 3 4 5 6 
#
# 1 118.9226 3.8888 27.1484 0.0000 0.0000 0.0000
# 2 3.8888 69.5432 24.1047 0.0000 0.0000 0.0000
# 3 27.1484 24.1047 52.2309 0.0000 0.0000 0.0000
# 4 0.0000 0.0000 0.0000 21.9050 0.0000 0.0000
# 5 0.0000 0.0000 0.0000 0.0000 -230.8829 0.0000
# 6 0.0000 0.0000 0.0000 0.0000 0.0000 48.3911
#
#
#
# Elastic Compliance Matrix: (Units=1/GPa)
#
#
# Indices 1 2 3 4 5 6 
#
# 1 0.009659 0.001429 -0.005680 0.000000 0.000000 0.000000
# 2 0.001429 0.017329 -0.008740 0.000000 0.000000 0.000000
# 3 -0.005680 -0.008740 0.026131 0.000000 0.000000 0.000000
# 4 0.000000 0.000000 0.000000 0.045652 0.000000 0.000000
# 5 0.000000 0.000000 0.000000 0.000000 -0.004331 0.000000
# 6 0.000000 0.000000 0.000000 0.000000 0.000000 0.020665
#
#
# Mechanical properties :
#
#
# Convention : Reuss Voigt Hill
#
# Bulk Modulus (GPa) = 36.84993 38.99784 37.92388
# Shear Modulus (GPa) = 33.30400 -19.74702 6.77849
#
# Velocity S-wave (km/s) = 3.80234 -2.92788 1.71541
# Velocity P-wave (km/s) = 5.93920 2.34512 4.51518
#
# Compressibility (1/GPa) = 0.02713709
#
# Stress axis : x y z
#
# Youngs Moduli (GPa) = 103.53365 57.70660 38.26819
#
# Poissons Ratio (x) = -0.08244 0.21735
# Poissons Ratio (y) = -0.14790 0.33446
# Poissons Ratio (z) = 0.58803 0.50435
#
# Static dielectric constant tensor:
#      x y z
#    x 1.813080 0.000000 0.000000 
#    y 0.000000 1.865700 0.000000 
#    z 0.000000 0.000000 1.933230 
# 
# From -- ./inp_files/15517.got.cif
#   From: 2010.05.17/outbox.cif.g08.bks.cpg/sg57_8_cif.got.tgz:15517.got - 2010.06.03 13:58:18.
