data_PCOD9436462
_publ_section_title
;
Structure prediction by ZEFSAII (Michael W. Deem and Ramdas Pophale) SiO2 
 PCOD9436462
Probable space group: P B C M
;
_chemical_formula_sum "Si O2"
_cell_formula_units_Z 64
_cell_length_a 13.271652
_cell_length_b 8.871900
_cell_length_c 26.235414
_cell_angle_alpha 90.000000
_cell_angle_beta 90.000000
_cell_angle_gamma 90.000000
_cell_volume 3089.082771
_symmetry_space_group_name_H-M "P B C M"
_symmetry_group_IT_number 57
_symmetry_cell_setting 'orthorhombic'
loop_
_space_group_symop_operation_xyz
x,y,z
-x,-y,1/2+z
x,1/2-y,-z
-x,1/2+y,1/2-z
-x,-y,-z
x,y,1/2-z
-x,1/2+y,z
x,1/2-y,1/2+z
loop_
_atom_site_type_symbol
_atom_site_label
_atom_site_fract_x
_atom_site_fract_y
_atom_site_fract_z
Si Si1 0.950755 0.320466 0.447060
Si Si2 0.210290 0.084999 0.809487
Si Si3 0.721315 0.224853 0.945156
Si Si4 0.643198 0.002821 0.394465
Si Si5 0.835871 0.941239 0.692429
Si Si6 0.471167 0.271860 0.629087
Si Si7 0.030202 0.952394 0.623087
Si Si8 0.361155 0.561104 0.653042
O O1 0.987520 0.250000 0.500000
O O2 0.831388 0.347018 0.453944
O O3 0.955394 0.215779 0.396769
O O4 0.019339 0.457945 0.429925
O O5 0.209684 0.044849 0.750000
O O6 0.199350 0.266670 0.813331
O O7 0.310031 0.025879 0.838442
O O8 0.117000 0.012634 0.840091
O O9 0.726882 0.396871 0.923224
O O10 0.666946 0.116775 0.904311
O O11 0.670899 0.250000 0.000000
O O12 0.548912 0.115807 0.398365
O O13 0.595787 0.839112 0.406055
O O14 0.873736 0.959534 0.750000
O O15 0.743624 0.056940 0.683042
O O16 0.924650 0.966000 0.652560
O O17 0.399882 0.390670 0.656580
O O18 0.543861 0.169353 0.664810
#
# Coordination Sequence:
#
# PCOD9436462 Si02
#       8
#     8   8   8   8   8   8   8   8
#     4  11  23  38  61  93 126 165 206 247 302 365
#     4  11  23  39  62  91 125 162 205 251 306 364
#     4  10  21  38  62  90 123 161 203 252 307 366
#     4  10  19  40  60  88 121 159 195 257 303 354
#     4  11  23  39  62  91 125 162 205 251 306 364
#     4   9  20  36  65  87 117 158 201 245 315 359
#     4  12  22  42  62  92 128 164 200 254 304 358
#     4  10  19  40  60  88 121 159 195 257 303 354
#
# _framework density 20.718124
#
# number of rings (size 3 to 8) (size 9 to 14) (size 15 to 20)
#    0.000    1.500    5.000    0.750    0.000    0.000 
#    0.000   19.375    0.000    0.000    0.000    0.000 
#    0.000    0.000    0.000    0.000    0.000    0.000 
#
# Total GULP energy -356330.171320 kJ/mol
# GULP energy per Si atom -5567.658927 kJ/mol
# Density = 2.067097 g / cm^3
# Si number density = 20.718124 Si / 1000 Ang^3
#
#
#
# Elastic Constant Matrix: (Units=GPa)
#
#
# Indices 1 2 3 4 5 6 
#
# 1 55.7898 10.7571 18.8338 0.0000 0.0000 0.0000
# 2 10.7571 81.1743 21.3614 0.0000 0.0000 0.0000
# 3 18.8338 21.3614 96.4745 0.0000 0.0000 0.0000
# 4 0.0000 0.0000 0.0000 25.8490 0.0000 0.0000
# 5 0.0000 0.0000 0.0000 0.0000 9.4673 0.0000
# 6 0.0000 0.0000 0.0000 0.0000 0.0000 27.2300
#
#
#
# Elastic Compliance Matrix: (Units=1/GPa)
#
#
# Indices 1 2 3 4 5 6 
#
# 1 0.019400 -0.001672 -0.003417 0.000000 0.000000 0.000000
# 2 -0.001672 0.013225 -0.002602 0.000000 0.000000 0.000000
# 3 -0.003417 -0.002602 0.011609 0.000000 0.000000 0.000000
# 4 0.000000 0.000000 0.000000 0.038686 0.000000 0.000000
# 5 0.000000 0.000000 0.000000 0.000000 0.105627 0.000000
# 6 0.000000 0.000000 0.000000 0.000000 0.000000 0.036724
#
#
# Mechanical properties :
#
#
# Convention : Reuss Voigt Hill
#
# Bulk Modulus (GPa) = 34.65884 37.26037 35.95961
# Shear Modulus (GPa) = 19.97833 24.67499 22.32666
#
# Velocity S-wave (km/s) = 3.10867 3.45481 3.28630
# Velocity P-wave (km/s) = 5.44520 5.82561 5.63862
#
# Compressibility (1/GPa) = 0.02885266
#
# Stress axis : x y z
#
# Youngs Moduli (GPa) = 51.54544 75.61191 86.14234
#
# Poissons Ratio (x) = 0.12640 0.29437
# Poissons Ratio (y) = 0.08617 0.22415
# Poissons Ratio (z) = 0.17614 0.19675
#
# Static dielectric constant tensor:
#      x y z
#    x 1.803790 0.000000 0.000000 
#    y 0.000000 1.792620 0.000000 
#    z 0.000000 0.000000 1.718420 
# 
# From -- ./inp_files/27468.got.cif
#   From: 2010.05.17/outbox.cif.g08.bks.cpg/sg57_14_cif.got.tgz:27468.got - 2010.06.03 13:58:18.
