data_PCOD9436814
_publ_section_title
;
Structure prediction by ZEFSAII (Michael W. Deem and Ramdas Pophale) SiO2 
 PCOD9436814
Probable space group: P B C M
;
_chemical_formula_sum "Si O2"
_cell_formula_units_Z 48
_cell_length_a 7.670047
_cell_length_b 38.582386
_cell_length_c 7.577630
_cell_angle_alpha 90.000000
_cell_angle_beta 90.000000
_cell_angle_gamma 90.000000
_cell_volume 2242.438301
_symmetry_space_group_name_H-M "P B C M"
_symmetry_group_IT_number 57
_symmetry_cell_setting 'orthorhombic'
loop_
_space_group_symop_operation_xyz
x,y,z
-x,-y,1/2+z
x,1/2-y,-z
-x,1/2+y,1/2-z
-x,-y,-z
x,y,1/2-z
-x,1/2+y,z
x,1/2-y,1/2+z
loop_
_atom_site_type_symbol
_atom_site_label
_atom_site_fract_x
_atom_site_fract_y
_atom_site_fract_z
Si Si1 0.629241 0.454759 0.959910
Si Si2 0.250580 0.470758 0.454811
Si Si3 0.738346 0.210910 0.538544
Si Si4 0.971287 0.416938 0.037851
Si Si5 0.958342 0.839570 0.466716
Si Si6 0.343724 0.210826 0.961672
O O1 0.607258 0.458102 0.750000
O O2 0.709516 0.491170 0.031396
O O3 0.435413 0.450772 0.035327
O O4 0.770874 0.425528 0.997588
O O5 0.206175 0.476700 0.250000
O O6 0.096083 0.447634 0.532602
O O7 0.799014 0.250000 0.500000
O O8 0.730321 0.207546 0.750000
O O9 0.541114 0.207305 0.469040
O O10 0.873314 0.182304 0.474809
O O11 0.990404 0.416711 0.250000
O O12 0.029359 0.379198 0.974281
O O13 0.957607 0.839694 0.250000
O O14 0.788645 0.818357 0.525808
O O15 0.350968 0.207703 0.750000
O O16 0.282619 0.250000 0.000000
#
# Coordination Sequence:
#
# PCOD9436814 Si02
#       6
#     8   8   8   8   8   8
#     4  10  20  34  53  77 104 133 167 210 257 303
#     4   9  19  35  55  77 100 132 173 212 251 299
#     4   9  17  30  49  71  94 122 157 198 240 284
#     4  10  20  34  53  76 102 134 171 209 250 299
#     4   9  18  31  48  71  96 124 159 197 239 288
#     4   9  17  30  48  69  92 120 156 196 236 280
#
# _framework density 21.405270999999999
#
# number of rings (size 3 to 8) (size 9 to 14) (size 15 to 20)
#    0.000    2.667    0.000    1.500    0.000    2.667 
#    0.000    6.667    0.000    4.000    0.000    0.000 
#    0.000    0.000    0.000    0.000    0.000    0.000 
#
# Total GULP energy -267984.260535 kJ/mol
# GULP energy per Si atom -5583.005428 kJ/mol
# Density = 2.135655 g / cm^3
# Si number density = 21.405271 Si / 1000 Ang^3
#
#
#
# Elastic Constant Matrix: (Units=GPa)
#
#
# Indices 1 2 3 4 5 6 
#
# 1 54.2898 7.1873 -6.1390 0.0000 0.0000 0.0000
# 2 7.1873 29.1946 1.4569 0.0000 0.0000 0.0000
# 3 -6.1390 1.4569 49.9192 0.0000 0.0000 0.0000
# 4 0.0000 0.0000 0.0000 12.1061 0.0000 0.0000
# 5 0.0000 0.0000 0.0000 0.0000 3.3505 0.0000
# 6 0.0000 0.0000 0.0000 0.0000 0.0000 -155.0178
#
#
#
# Elastic Compliance Matrix: (Units=1/GPa)
#
#
# Indices 1 2 3 4 5 6 
#
# 1 0.019352 -0.004890 0.002523 0.000000 0.000000 0.000000
# 2 -0.004890 0.035539 -0.001639 0.000000 0.000000 0.000000
# 3 0.002523 -0.001639 0.020390 0.000000 0.000000 0.000000
# 4 0.000000 0.000000 0.000000 0.082603 0.000000 0.000000
# 5 0.000000 0.000000 0.000000 0.000000 0.298459 0.000000
# 6 0.000000 0.000000 0.000000 0.000000 0.000000 -0.006451
#
#
# Mechanical properties :
#
#
# Convention : Reuss Voigt Hill
#
# Bulk Modulus (GPa) = 14.86567 15.37934 15.12251
# Shear Modulus (GPa) = 10.40955 -19.18567 -4.38806
#
# Velocity S-wave (km/s) = 2.20763 -2.99708 -1.43333
# Velocity P-wave (km/s) = 3.66853 2.18546 2.08349
#
# Compressibility (1/GPa) = 0.06726908
#
# Stress axis : x y z
#
# Youngs Moduli (GPa) = 51.67338 28.13845 49.04264
#
# Poissons Ratio (x) = 0.13760 -0.12372
# Poissons Ratio (y) = 0.25269 0.08036
# Poissons Ratio (z) = -0.13035 0.04611
#
# Static dielectric constant tensor:
#      x y z
#    x 1.771730 0.000000 0.000000 
#    y 0.000000 1.752120 0.000000 
#    z 0.000000 0.000000 1.815830 
# 
# From -- ./inp_files/2134.got.cif
#   From: 2010.05.17/outbox.cif.g08.bks.cpg/sg57_2_cif.got.tgz:2134.got - 2010.06.03 13:58:18.
