data_PCOD9436922
_publ_section_title
;
Structure prediction by ZEFSAII (Michael W. Deem and Ramdas Pophale) SiO2 
 PCOD9436922
Probable space group: P B C M
;
_chemical_formula_sum "Si O2"
_cell_formula_units_Z 56
_cell_length_a 16.938144
_cell_length_b 21.673450
_cell_length_c 8.839220
_cell_angle_alpha 90.000000
_cell_angle_beta 90.000000
_cell_angle_gamma 90.000000
_cell_volume 3244.948527
_symmetry_space_group_name_H-M "P B C M"
_symmetry_group_IT_number 57
_symmetry_cell_setting 'orthorhombic'
loop_
_space_group_symop_operation_xyz
x,y,z
-x,-y,1/2+z
x,1/2-y,-z
-x,1/2+y,1/2-z
-x,-y,-z
x,y,1/2-z
-x,1/2+y,z
x,1/2-y,1/2+z
loop_
_atom_site_type_symbol
_atom_site_label
_atom_site_fract_x
_atom_site_fract_y
_atom_site_fract_z
Si Si1 0.361336 0.184483 0.071978
Si Si2 0.954190 0.059335 0.931316
Si Si3 0.202974 0.516438 0.430289
Si Si4 0.373399 0.524667 0.929793
Si Si5 0.049793 0.184525 0.568453
Si Si6 0.531404 0.589676 0.570570
Si Si7 0.195388 0.381731 0.929105
O O1 0.376121 0.189879 0.250000
O O2 0.284540 0.141671 0.051019
O O3 0.343529 0.250000 0.000000
O O4 0.435387 0.153582 0.989685
O O5 0.953961 0.052735 0.750000
O O6 0.996095 0.124506 0.968286
O O7 0.865730 0.057170 0.995722
O O8 0.000000 0.000000 0.000000
O O9 0.198743 0.519063 0.250000
O O10 0.290453 0.533115 0.487732
O O11 0.186529 0.446600 0.486308
O O12 0.359656 0.519367 0.750000
O O13 0.439149 0.577084 0.958895
O O14 0.417114 0.462899 0.987471
O O15 0.022837 0.250000 0.500000
O O16 0.054985 0.189490 0.750000
O O17 0.134727 0.167272 0.498170
O O18 0.544113 0.583542 0.750000
O O19 0.180361 0.389697 0.750000
#
# Coordination Sequence:
#
# PCOD9436922 Si02
#       7
#     8   8   8   8   8   8   8
#     4  11  23  36  53  78 113 154 192 230 278 334
#     4  11  23  39  60  86 117 153 195 240 290 347
#     4  12  23  35  57  86 117 152 190 237 289 341
#     4  10  20  35  55  81 111 144 181 227 280 330
#     4  11  24  40  60  85 115 154 196 239 289 348
#     4  10  20  34  55  80 109 144 185 229 274 330
#     4  11  22  36  56  82 116 154 191 235 283 340
#
# _framework density 17.257591999999999
#
# number of rings (size 3 to 8) (size 9 to 14) (size 15 to 20)
#    0.000    1.143    2.857    4.286    0.000    6.286 
#    0.000    0.000    0.000    0.857    0.000    4.000 
#    0.000    0.000    0.000    0.000    0.000    0.000 
#
# Total GULP energy -312908.648325 kJ/mol
# GULP energy per Si atom -5587.654434 kJ/mol
# Density = 1.721831 g / cm^3
# Si number density = 17.257592 Si / 1000 Ang^3
#
#
#
# Elastic Constant Matrix: (Units=GPa)
#
#
# Indices 1 2 3 4 5 6 
#
# 1 97.5876 38.9533 48.3902 0.0000 0.0000 0.0000
# 2 38.9533 79.9319 52.0936 0.0000 0.0000 0.0000
# 3 48.3902 52.0936 83.7094 0.0000 0.0000 0.0000
# 4 0.0000 0.0000 0.0000 29.5820 0.0000 0.0000
# 5 0.0000 0.0000 0.0000 0.0000 26.9708 0.0000
# 6 0.0000 0.0000 0.0000 0.0000 0.0000 23.0788
#
#
#
# Elastic Compliance Matrix: (Units=1/GPa)
#
#
# Indices 1 2 3 4 5 6 
#
# 1 0.014712 -0.002737 -0.006801 0.000000 0.000000 0.000000
# 2 -0.002737 0.021556 -0.011832 0.000000 0.000000 0.000000
# 3 -0.006801 -0.011832 0.023241 0.000000 0.000000 0.000000
# 4 0.000000 0.000000 0.000000 0.033804 0.000000 0.000000
# 5 0.000000 0.000000 0.000000 0.000000 0.037077 0.000000
# 6 0.000000 0.000000 0.000000 0.000000 0.000000 0.043330
#
#
# Mechanical properties :
#
#
# Convention : Reuss Voigt Hill
#
# Bulk Modulus (GPa) = 59.63833 60.01148 59.82491
# Shear Modulus (GPa) = 22.51723 24.04576 23.28150
#
# Velocity S-wave (km/s) = 3.61608 3.73680 3.67694
# Velocity P-wave (km/s) = 7.21578 7.31216 7.26413
#
# Compressibility (1/GPa) = 0.01676774
#
# Stress axis : x y z
#
# Youngs Moduli (GPa) = 67.96998 46.39088 43.02684
#
# Poissons Ratio (x) = 0.12698 0.29265
# Poissons Ratio (y) = 0.18604 0.50911
# Poissons Ratio (z) = 0.46230 0.54891
#
# Static dielectric constant tensor:
#      x y z
#    x 1.588250 0.000000 0.000000 
#    y 0.000000 1.572730 0.000000 
#    z 0.000000 0.000000 1.573490 
# 
# From -- ./inp_files/5136.got.cif
#   From: 2010.05.17/outbox.cif.g08.bks.cpg/sg57_3_cif.got.tgz:5136.got - 2010.06.03 13:58:18.
