data_PCOD9436197
_publ_section_title
;
Structure prediction by ZEFSAII (Michael W. Deem and Ramdas Pophale) SiO2 
 PCOD9436197
Probable space group: P B C M
;
_chemical_formula_sum "Si O2"
_cell_formula_units_Z 56
_cell_length_a 12.701840
_cell_length_b 14.848535
_cell_length_c 13.817916
_cell_angle_alpha 90.000000
_cell_angle_beta 90.000000
_cell_angle_gamma 90.000000
_cell_volume 2606.110302
_symmetry_space_group_name_H-M "P B C M"
_symmetry_group_IT_number 57
_symmetry_cell_setting 'orthorhombic'
loop_
_space_group_symop_operation_xyz
x,y,z
-x,-y,1/2+z
x,1/2-y,-z
-x,1/2+y,1/2-z
-x,-y,-z
x,y,1/2-z
-x,1/2+y,z
x,1/2-y,1/2+z
loop_
_atom_site_type_symbol
_atom_site_label
_atom_site_fract_x
_atom_site_fract_y
_atom_site_fract_z
Si Si1 0.906980 0.626003 0.632818
Si Si2 0.657723 0.059652 0.954745
Si Si3 0.319419 0.456210 0.363994
Si Si4 0.114634 0.521288 0.867615
Si Si5 0.155406 0.322389 0.866996
Si Si6 0.500373 0.192130 0.866193
Si Si7 0.392535 0.127929 0.133380
O O1 0.910685 0.625721 0.750000
O O2 0.798338 0.575545 0.609178
O O3 0.894625 0.729043 0.601066
O O4 0.013500 0.577853 0.601406
O O5 0.598633 0.147172 0.918225
O O6 0.776555 0.054647 0.914235
O O7 0.598990 0.971417 0.909856
O O8 0.655821 0.040873 0.068768
O O9 0.324858 0.476246 0.250000
O O10 0.399593 0.373560 0.383145
O O11 0.125988 0.526038 0.750000
O O12 0.100114 0.415882 0.893374
O O13 0.156518 0.318451 0.750000
O O14 0.277215 0.334371 0.895481
O O15 0.517223 0.191268 0.750000
O O16 0.472958 0.294008 0.894869
O O17 0.394408 0.119411 0.250000
#
# Coordination Sequence:
#
# PCOD9436197 Si02
#       7
#     8   8   8   8   8   8   8
#     4   9  16  31  54  77 112 152 186 232 284 335
#     4  11  21  34  57  86 117 148 193 245 290 344
#     4  10  21  36  55  80 111 152 196 240 290 341
#     4   9  18  31  53  86 115 145 188 233 286 345
#     4   8  13  27  50  77 108 144 184 225 269 329
#     4  10  19  35  58  83 115 149 186 236 295 348
#     4   9  17  32  56  86 116 147 187 233 284 345
#
# _framework density 21.487963000000001
#
# number of rings (size 3 to 8) (size 9 to 14) (size 15 to 20)
#    0.000    2.571    1.429    2.571    0.000    1.143 
#    0.000    0.000    3.143    0.857    0.000    0.000 
#    0.000    0.000    0.000    0.000    0.000    0.000 
#
# Total GULP energy -313262.363882 kJ/mol
# GULP energy per Si atom -5593.970784 kJ/mol
# Density = 2.143906 g / cm^3
# Si number density = 21.487963 Si / 1000 Ang^3
#
#
#
# Elastic Constant Matrix: (Units=GPa)
#
#
# Indices 1 2 3 4 5 6 
#
# 1 111.9478 57.6930 23.7398 0.0000 0.0000 0.0000
# 2 57.6930 104.3138 14.1309 0.0000 0.0000 0.0000
# 3 23.7398 14.1309 81.3880 0.0000 0.0000 0.0000
# 4 0.0000 0.0000 0.0000 19.2121 0.0000 0.0000
# 5 0.0000 0.0000 0.0000 0.0000 19.7443 0.0000
# 6 0.0000 0.0000 0.0000 0.0000 0.0000 40.2993
#
#
#
# Elastic Compliance Matrix: (Units=1/GPa)
#
#
# Indices 1 2 3 4 5 6 
#
# 1 0.013013 -0.006844 -0.002607 0.000000 0.000000 0.000000
# 2 -0.006844 0.013417 -0.000333 0.000000 0.000000 0.000000
# 3 -0.002607 -0.000333 0.013105 0.000000 0.000000 0.000000
# 4 0.000000 0.000000 0.000000 0.052051 0.000000 0.000000
# 5 0.000000 0.000000 0.000000 0.000000 0.050647 0.000000
# 6 0.000000 0.000000 0.000000 0.000000 0.000000 0.024814
#
#
# Mechanical properties :
#
#
# Convention : Reuss Voigt Hill
#
# Bulk Modulus (GPa) = 50.08551 54.30857 52.19704
# Shear Modulus (GPa) = 25.87045 29.32353 27.59699
#
# Velocity S-wave (km/s) = 3.47356 3.69812 3.58760
# Velocity P-wave (km/s) = 6.28067 6.60028 6.44245
#
# Compressibility (1/GPa) = 0.01996585
#
# Stress axis : x y z
#
# Youngs Moduli (GPa) = 76.84863 74.53430 76.30551
#
# Poissons Ratio (x) = 0.51009 0.19896
# Poissons Ratio (y) = 0.52593 0.02543
# Poissons Ratio (z) = 0.20037 0.02484
#
# Static dielectric constant tensor:
#      x y z
#    x 1.749790 0.000000 0.000000 
#    y 0.000000 1.745340 0.000000 
#    z 0.000000 0.000000 1.839450 
# 
# From -- ./inp_files/17756.got.cif
#   From: 2010.05.17/outbox.cif.g08.bks.cpg/sg57_9_cif.got.tgz:17756.got - 2010.06.03 13:58:18.
