data_PCOD9436820
_publ_section_title
;
Structure prediction by ZEFSAII (Michael W. Deem and Ramdas Pophale) SiO2 
 PCOD9436820
Probable space group: P B C M
;
_chemical_formula_sum "Si O2"
_cell_formula_units_Z 64
_cell_length_a 12.663311
_cell_length_b 29.278758
_cell_length_c 8.867698
_cell_angle_alpha 90.000000
_cell_angle_beta 90.000000
_cell_angle_gamma 90.000000
_cell_volume 3287.841078
_symmetry_space_group_name_H-M "P B C M"
_symmetry_group_IT_number 57
_symmetry_cell_setting 'orthorhombic'
loop_
_space_group_symop_operation_xyz
x,y,z
-x,-y,1/2+z
x,1/2-y,-z
-x,1/2+y,1/2-z
-x,-y,-z
x,y,1/2-z
-x,1/2+y,z
x,1/2-y,1/2+z
loop_
_atom_site_type_symbol
_atom_site_label
_atom_site_fract_x
_atom_site_fract_y
_atom_site_fract_z
Si Si1 0.500605 0.562261 0.924499
Si Si2 0.321925 0.009296 0.429997
Si Si3 0.948316 0.700088 0.068766
Si Si4 0.492582 0.167058 0.923986
Si Si5 0.105395 0.977220 0.931466
Si Si6 0.710692 0.700581 0.070957
Si Si7 0.131259 0.629771 0.068029
Si Si8 0.713142 0.297490 0.431451
O O1 0.522770 0.549498 0.750000
O O2 0.400401 0.532431 0.974615
O O3 0.471066 0.614849 0.928900
O O4 0.605876 0.551766 0.018790
O O5 0.307067 0.009132 0.250000
O O6 0.209831 0.003259 0.509646
O O7 0.951871 0.704950 0.250000
O O8 0.028802 0.660169 0.026999
O O9 0.828896 0.686721 0.023759
O O10 0.972124 0.750000 0.000000
O O11 0.470136 0.179375 0.750000
O O12 0.590496 0.197175 0.978061
O O13 0.385417 0.170493 0.015384
O O14 0.099937 0.979282 0.750000
O O15 0.118201 0.923392 0.975172
O O16 0.000000 0.000000 0.000000
O O17 0.709491 0.703682 0.250000
O O18 0.691660 0.750000 0.000000
O O19 0.144104 0.631111 0.250000
O O20 0.225508 0.658207 0.992031
O O21 0.755552 0.250000 0.500000
O O22 0.719044 0.296204 0.250000
#
# Coordination Sequence:
#
# PCOD9436820 Si02
#       8
#     8   8   8   8   8   8   8   8
#     4   9  19  36  58  84 113 146 185 233 287 341
#     4  10  20  37  60  84 112 146 187 233 284 343
#     4   9  19  36  56  80 109 141 181 230 281 334
#     4  10  21  36  54  80 114 148 185 229 276 330
#     4  11  24  41  61  86 118 155 195 243 300 360
#     4  10  20  34  53  76 105 142 181 222 271 325
#     4  10  22  40  61  85 114 148 190 240 291 347
#     4  11  23  38  58  86 121 158 195 237 286 342
#
# _framework density 19.46566
#
# number of rings (size 3 to 8) (size 9 to 14) (size 15 to 20)
#    0.000    2.000    0.000    3.000    0.000    8.000 
#    0.000    1.250    0.000    0.000    0.000    0.000 
#    0.000    0.000    0.000    0.000    0.000    0.000 
#
# Total GULP energy -357212.916531 kJ/mol
# GULP energy per Si atom -5581.451821 kJ/mol
# Density = 1.942136 g / cm^3
# Si number density = 19.465660 Si / 1000 Ang^3
#
#
#
# Elastic Constant Matrix: (Units=GPa)
#
#
# Indices 1 2 3 4 5 6 
#
# 1 115.9193 43.3314 37.2691 0.0000 0.0000 0.0000
# 2 43.3314 69.6467 23.8444 0.0000 0.0000 0.0000
# 3 37.2691 23.8444 37.7768 0.0000 0.0000 0.0000
# 4 0.0000 0.0000 0.0000 26.7428 0.0000 0.0000
# 5 0.0000 0.0000 0.0000 0.0000 27.0850 0.0000
# 6 0.0000 0.0000 0.0000 0.0000 0.0000 15.2292
#
#
#
# Elastic Compliance Matrix: (Units=1/GPa)
#
#
# Indices 1 2 3 4 5 6 
#
# 1 0.013896 -0.005041 -0.010527 0.000000 0.000000 0.000000
# 2 -0.005041 0.020145 -0.007742 0.000000 0.000000 0.000000
# 3 -0.010527 -0.007742 0.041743 0.000000 0.000000 0.000000
# 4 0.000000 0.000000 0.000000 0.037393 0.000000 0.000000
# 5 0.000000 0.000000 0.000000 0.000000 0.036921 0.000000
# 6 0.000000 0.000000 0.000000 0.000000 0.000000 0.065663
#
#
# Mechanical properties :
#
#
# Convention : Reuss Voigt Hill
#
# Bulk Modulus (GPa) = 34.28896 48.02585 41.15740
# Shear Modulus (GPa) = 18.37540 21.73793 20.05666
#
# Velocity S-wave (km/s) = 3.07578 3.34538 3.21341
# Velocity P-wave (km/s) = 5.50156 6.29664 5.91248
#
# Compressibility (1/GPa) = 0.02916391
#
# Stress axis : x y z
#
# Youngs Moduli (GPa) = 71.96505 49.63952 23.95598
#
# Poissons Ratio (x) = 0.25025 0.25218
# Poissons Ratio (y) = 0.36280 0.18547
# Poissons Ratio (z) = 0.75756 0.38431
#
# Static dielectric constant tensor:
#      x y z
#    x 1.697200 0.000000 0.000000 
#    y 0.000000 1.687370 0.000000 
#    z 0.000000 0.000000 1.714980 
# 
# From -- ./inp_files/3882.got.cif
#   From: 2010.05.17/outbox.cif.g08.bks.cpg/sg57_2_cif.got.tgz:3882.got - 2010.06.03 13:58:18.
