data_PCOD9436120
_publ_section_title
;
Structure prediction by ZEFSAII (Michael W. Deem and Ramdas Pophale) SiO2 
 PCOD9436120
Probable space group: P B C M
;
_chemical_formula_sum "Si O2"
_cell_formula_units_Z 64
_cell_length_a 17.741810
_cell_length_b 11.526855
_cell_length_c 15.172224
_cell_angle_alpha 90.000000
_cell_angle_beta 90.000000
_cell_angle_gamma 90.000000
_cell_volume 3102.830130
_symmetry_space_group_name_H-M "P B C M"
_symmetry_group_IT_number 57
_symmetry_cell_setting 'orthorhombic'
loop_
_space_group_symop_operation_xyz
x,y,z
-x,-y,1/2+z
x,1/2-y,-z
-x,1/2+y,1/2-z
-x,-y,-z
x,y,1/2-z
-x,1/2+y,z
x,1/2-y,1/2+z
loop_
_atom_site_type_symbol
_atom_site_label
_atom_site_fract_x
_atom_site_fract_y
_atom_site_fract_z
Si Si1 0.452643 0.562757 0.356569
Si Si2 0.717820 0.084403 0.089190
Si Si3 0.910767 0.635956 0.016416
Si Si4 0.135059 0.550861 0.654085
Si Si5 0.711486 0.154386 0.615956
Si Si6 0.038917 0.780411 0.849695
Si Si7 0.130290 0.014904 0.650891
Si Si8 0.535534 0.171028 0.852336
O O1 0.460848 0.566685 0.250000
O O2 0.364827 0.546884 0.380092
O O3 0.474393 0.695413 0.388646
O O4 0.495897 0.446244 0.389337
O O5 0.732332 0.211018 0.131030
O O6 0.784347 0.997461 0.115775
O O7 0.715327 0.114925 0.985913
O O8 0.875038 0.539713 0.077146
O O9 0.980159 0.683328 0.074972
O O10 0.860847 0.750000 0.000000
O O11 0.921138 0.581718 0.919882
O O12 0.108148 0.508197 0.750000
O O13 0.222540 0.582173 0.659593
O O14 0.086157 0.664534 0.631508
O O15 0.624975 0.145357 0.644207
O O16 0.006463 0.769508 0.750000
O O17 0.097493 0.885906 0.846737
O O18 0.127966 0.063023 0.750000
O O19 0.511654 0.177963 0.750000
#
# Coordination Sequence:
#
# PCOD9436120 Si02
#       8
#     8   8   8   8   8   8   8   8
#     4   9  18  33  55  84 120 162 210 266 325 387
#     4  10  19  34  60  92 123 158 211 269 323 376
#     4  12  28  43  63  88 131 170 206 260 322 395
#     4  11  23  42  69  96 123 162 215 271 326 384
#     4  10  19  34  62  93 124 158 210 273 323 374
#     4  10  24  42  67  98 123 156 210 269 331 382
#     4  11  23  41  65  93 123 164 214 267 320 377
#     4   9  18  33  55  86 122 163 210 264 326 389
#
# _framework density 20.626331
#
# number of rings (size 3 to 8) (size 9 to 14) (size 15 to 20)
#    0.000    1.750    2.500    1.500    3.500    2.500 
#    0.000    1.250    0.000    3.000    0.000    0.000 
#    0.000    0.000    0.000    0.000    0.000    0.000 
#
# Total GULP energy -356957.674595 kJ/mol
# GULP energy per Si atom -5577.463666 kJ/mol
# Density = 2.057938 g / cm^3
# Si number density = 20.626331 Si / 1000 Ang^3
#
#
#
# Elastic Constant Matrix: (Units=GPa)
#
#
# Indices 1 2 3 4 5 6 
#
# 1 87.6360 55.5150 28.5471 0.0000 0.0000 0.0000
# 2 55.5150 127.5882 49.2222 0.0000 0.0000 0.0000
# 3 28.5471 49.2222 96.5077 0.0000 0.0000 0.0000
# 4 0.0000 0.0000 0.0000 1.5364 0.0000 0.0000
# 5 0.0000 0.0000 0.0000 0.0000 29.2950 0.0000
# 6 0.0000 0.0000 0.0000 0.0000 0.0000 13.4175
#
#
#
# Elastic Compliance Matrix: (Units=1/GPa)
#
#
# Indices 1 2 3 4 5 6 
#
# 1 0.015917 -0.006361 -0.001464 0.000000 0.000000 0.000000
# 2 -0.006361 0.012300 -0.004392 0.000000 0.000000 0.000000
# 3 -0.001464 -0.004392 0.013035 0.000000 0.000000 0.000000
# 4 0.000000 0.000000 0.000000 0.650886 0.000000 0.000000
# 5 0.000000 0.000000 0.000000 0.000000 0.034135 0.000000
# 6 0.000000 0.000000 0.000000 0.000000 0.000000 0.074529
#
#
# Mechanical properties :
#
#
# Convention : Reuss Voigt Hill
#
# Bulk Modulus (GPa) = 59.45860 64.25561 61.85711
# Shear Modulus (GPa) = 6.01799 20.74628 13.38214
#
# Velocity S-wave (km/s) = 1.70996 3.17490 2.54990
# Velocity P-wave (km/s) = 5.72606 6.68280 6.22284
#
# Compressibility (1/GPa) = 0.01681842
#
# Stress axis : x y z
#
# Youngs Moduli (GPa) = 62.82498 81.30276 76.71742
#
# Poissons Ratio (x) = 0.51716 0.11232
# Poissons Ratio (y) = 0.39963 0.33692
# Poissons Ratio (z) = 0.09198 0.35706
#
# Static dielectric constant tensor:
#      x y z
#    x 1.715570 0.000000 0.000000 
#    y 0.000000 1.772230 0.000000 
#    z 0.000000 0.000000 1.796370 
# 
# From -- ./inp_files/19140.got.cif
#   From: 2010.05.17/outbox.cif.g08.bks.cpg/sg57_10_cif.got.tgz:19140.got - 2010.06.03 13:58:18.
