data_PCOD9436895
_publ_section_title
;
Structure prediction by ZEFSAII (Michael W. Deem and Ramdas Pophale) SiO2 
 PCOD9436895
Probable space group: P B C M
;
_chemical_formula_sum "Si O2"
_cell_formula_units_Z 64
_cell_length_a 24.172362
_cell_length_b 15.192394
_cell_length_c 9.312796
_cell_angle_alpha 90.000000
_cell_angle_beta 90.000000
_cell_angle_gamma 90.000000
_cell_volume 3419.994393
_symmetry_space_group_name_H-M "P B C M"
_symmetry_group_IT_number 57
_symmetry_cell_setting 'orthorhombic'
loop_
_space_group_symop_operation_xyz
x,y,z
-x,-y,1/2+z
x,1/2-y,-z
-x,1/2+y,1/2-z
-x,-y,-z
x,y,1/2-z
-x,1/2+y,z
x,1/2-y,1/2+z
loop_
_atom_site_type_symbol
_atom_site_label
_atom_site_fract_x
_atom_site_fract_y
_atom_site_fract_z
Si Si1 0.626632 0.484498 0.421938
Si Si2 0.406863 0.341577 0.420690
Si Si3 0.251144 0.968025 0.077294
Si Si4 0.149221 0.844221 0.424270
Si Si5 0.461929 0.840089 0.080000
Si Si6 0.757812 0.666032 0.087266
Si Si7 0.058154 0.514028 0.923030
Si Si8 0.890553 0.668596 0.410451
O O1 0.622582 0.501133 0.250000
O O2 0.623096 0.576332 0.505376
O O3 0.685951 0.438405 0.448136
O O4 0.576646 0.420766 0.466392
O O5 0.394027 0.250000 0.500000
O O6 0.396204 0.336195 0.250000
O O7 0.472938 0.357327 0.442229
O O8 0.242850 0.976213 0.250000
O O9 0.202441 0.903306 0.029433
O O10 0.249311 0.068735 0.022313
O O11 0.149930 0.750000 0.500000
O O12 0.151287 0.834855 0.250000
O O13 0.093995 0.899955 0.460737
O O14 0.453291 0.827990 0.250000
O O15 0.447557 0.750000 0.000000
O O16 0.735244 0.667621 0.250000
O O17 0.824311 0.675644 0.095756
O O18 0.736602 0.750000 0.000000
O O19 0.051259 0.515486 0.750000
O O20 0.094126 0.428053 0.963026
O O21 0.000000 0.500000 0.000000
O O22 0.912688 0.750000 0.500000
O O23 0.912732 0.676415 0.250000
#
# Coordination Sequence:
#
# PCOD9436895 Si02
#       8
#     8   8   8   8   8   8   8   8
#     4  10  20  34  54  81 109 141 182 229 278 328
#     4  10  20  35  54  77 108 146 183 225 276 333
#     4   9  18  35  57  77 106 146 181 216 267 324
#     4  10  21  40  61  81 109 148 187 224 267 318
#     4   9  19  34  53  77 106 141 183 228 278 330
#     4   9  16  30  52  75  98 130 167 204 252 310
#     4  10  21  37  57  80 110 143 177 218 266 318
#     4   9  17  31  52  76 101 131 165 204 252 307
#
# _framework density 18.713481999999999
#
# number of rings (size 3 to 8) (size 9 to 14) (size 15 to 20)
#    0.000    2.500    1.250    0.750    0.000    3.500 
#    0.000    5.625    0.000    0.000    0.000    0.000 
#    0.000    0.000    0.000    0.000    0.000    0.000 
#
# Total GULP energy -356810.578330 kJ/mol
# GULP energy per Si atom -5575.165286 kJ/mol
# Density = 1.867089 g / cm^3
# Si number density = 18.713482 Si / 1000 Ang^3
#
#
#
# Elastic Constant Matrix: (Units=GPa)
#
#
# Indices 1 2 3 4 5 6 
#
# 1 92.6519 61.7280 37.9878 0.0000 0.0000 0.0000
# 2 61.7280 144.3926 46.3349 0.0000 0.0000 0.0000
# 3 37.9878 46.3349 31.9792 0.0000 0.0000 0.0000
# 4 0.0000 0.0000 0.0000 37.2578 0.0000 0.0000
# 5 0.0000 0.0000 0.0000 0.0000 14.9159 0.0000
# 6 0.0000 0.0000 0.0000 0.0000 0.0000 1.1072
#
#
#
# Elastic Compliance Matrix: (Units=1/GPa)
#
#
# Indices 1 2 3 4 5 6 
#
# 1 0.021300 -0.001844 -0.022631 0.000000 0.000000 0.000000
# 2 -0.001844 0.013103 -0.016795 0.000000 0.000000 0.000000
# 3 -0.022631 -0.016795 0.082489 0.000000 0.000000 0.000000
# 4 0.000000 0.000000 0.000000 0.026840 0.000000 0.000000
# 5 0.000000 0.000000 0.000000 0.000000 0.067043 0.000000
# 6 0.000000 0.000000 0.000000 0.000000 0.000000 0.903170
#
#
# Mechanical properties :
#
#
# Convention : Reuss Voigt Hill
#
# Bulk Modulus (GPa) = 29.11052 62.34723 45.72888
# Shear Modulus (GPa) = 4.13929 18.85438 11.49684
#
# Velocity S-wave (km/s) = 1.48887 3.17760 2.48132
# Velocity P-wave (km/s) = 4.30643 6.84485 5.71827
#
# Compressibility (1/GPa) = 0.03435184
#
# Stress axis : x y z
#
# Youngs Moduli (GPa) = 46.94770 76.31662 12.12288
#
# Poissons Ratio (x) = 0.14070 0.27435
# Poissons Ratio (y) = 0.08656 0.20361
# Poissons Ratio (z) = 1.06248 1.28177
#
# Static dielectric constant tensor:
#      x y z
#    x 1.672510 0.000000 0.000000 
#    y 0.000000 1.640820 0.000000 
#    z 0.000000 0.000000 1.644920 
# 
# From -- ./inp_files/9425.got.cif
#   From: 2010.05.17/outbox.cif.g08.bks.cpg/sg57_5_cif.got.tgz:9425.got - 2010.06.03 13:58:18.
