data_PCOD9436596
_publ_section_title
;
Structure prediction by ZEFSAII (Michael W. Deem and Ramdas Pophale) SiO2 
 PCOD9436596
Probable space group: P B C M
;
_chemical_formula_sum "Si O2"
_cell_formula_units_Z 40
_cell_length_a 27.322953
_cell_length_b 9.291874
_cell_length_c 8.710012
_cell_angle_alpha 90.000000
_cell_angle_beta 90.000000
_cell_angle_gamma 90.000000
_cell_volume 2211.310359
_symmetry_space_group_name_H-M "P B C M"
_symmetry_group_IT_number 57
_symmetry_cell_setting 'orthorhombic'
loop_
_space_group_symop_operation_xyz
x,y,z
-x,-y,1/2+z
x,1/2-y,-z
-x,1/2+y,1/2-z
-x,-y,-z
x,y,1/2-z
-x,1/2+y,z
x,1/2-y,1/2+z
loop_
_atom_site_type_symbol
_atom_site_label
_atom_site_fract_x
_atom_site_fract_y
_atom_site_fract_z
Si Si1 0.455085 0.911074 0.433949
Si Si2 0.751419 0.087294 0.433815
Si Si3 0.347447 0.587312 0.933567
Si Si4 0.140873 0.911191 0.565185
Si Si5 0.954476 0.910434 0.435037
O O1 0.457387 0.750000 0.500000
O O2 0.458158 0.905232 0.250000
O O3 0.401044 0.974032 0.473716
O O4 0.500000 0.000000 0.500000
O O5 0.752409 0.250000 0.500000
O O6 0.747510 0.092668 0.250000
O O7 0.701958 0.017618 0.499937
O O8 0.805134 0.028659 0.476935
O O9 0.343324 0.594371 0.750000
O O10 0.348570 0.750000 0.000000
O O11 0.135417 0.750000 0.500000
O O12 0.139922 0.900083 0.750000
O O13 0.095913 0.010783 0.517250
O O14 0.956026 0.750000 0.500000
O O15 0.956751 0.907643 0.250000
O O16 0.000000 0.000000 0.500000
#
# Coordination Sequence:
#
# PCOD9436596 Si02
#       5
#     8   8   8   8   8
#     4  10  20  33  50  72 100 132 169 211 257 305
#     4   9  15  25  43  68  96 126 159 199 245 293
#     4   9  16  26  42  67  96 126 161 203 247 294
#     4   9  19  33  51  76 105 133 165 204 248 297
#     4  11  23  39  57  79 106 137 173 213 255 301
#
# _framework density 18.088823000000001
#
# number of rings (size 3 to 8) (size 9 to 14) (size 15 to 20)
#    0.000    2.400    0.000    4.200    0.000    6.400 
#    0.000    0.000    0.000    1.200    0.000    5.600 
#    0.000    0.000    0.000    0.000    0.000    0.000 
#
# Total GULP energy -222896.568804 kJ/mol
# GULP energy per Si atom -5572.414220 kJ/mol
# Density = 1.804765 g / cm^3
# Si number density = 18.088823 Si / 1000 Ang^3
#
#
#
# Elastic Constant Matrix: (Units=GPa)
#
#
# Indices 1 2 3 4 5 6 
#
# 1 241.4108 70.6633 64.6528 0.0000 0.0000 0.0000
# 2 70.6633 59.3246 21.1170 0.0000 0.0000 0.0000
# 3 64.6528 21.1170 58.9244 0.0000 0.0000 0.0000
# 4 0.0000 0.0000 0.0000 21.7024 0.0000 0.0000
# 5 0.0000 0.0000 0.0000 0.0000 30.9881 0.0000
# 6 0.0000 0.0000 0.0000 0.0000 0.0000 23.9756
#
#
#
# Elastic Compliance Matrix: (Units=1/GPa)
#
#
# Indices 1 2 3 4 5 6 
#
# 1 0.007881 -0.007232 -0.006055 0.000000 0.000000 0.000000
# 2 -0.007232 0.025957 -0.001368 0.000000 0.000000 0.000000
# 3 -0.006055 -0.001368 0.024105 0.000000 0.000000 0.000000
# 4 0.000000 0.000000 0.000000 0.046078 0.000000 0.000000
# 5 0.000000 0.000000 0.000000 0.000000 0.032270 0.000000
# 6 0.000000 0.000000 0.000000 0.000000 0.000000 0.041709
#
#
# Mechanical properties :
#
#
# Convention : Reuss Voigt Hill
#
# Bulk Modulus (GPa) = 34.92396 74.72508 54.82452
# Shear Modulus (GPa) = 23.05701 28.88167 25.96934
#
# Velocity S-wave (km/s) = 3.57410 4.00016 3.79312
# Velocity P-wave (km/s) = 6.03168 7.92053 7.03974
#
# Compressibility (1/GPa) = 0.02863364
#
# Stress axis : x y z
#
# Youngs Moduli (GPa) = 126.89154 38.52521 41.48519
#
# Poissons Ratio (x) = 0.27860 0.25120
# Poissons Ratio (y) = 0.91763 0.05674
# Poissons Ratio (z) = 0.76836 0.05269
#
# Static dielectric constant tensor:
#      x y z
#    x 1.700540 0.000000 0.000000 
#    y 0.000000 1.578530 0.000000 
#    z 0.000000 0.000000 1.608140 
# 
# From -- ./inp_files/9637.got.cif
#   From: 2010.05.17/outbox.cif.g08.bks.cpg/sg57_5_cif.got.tgz:9637.got - 2010.06.03 13:58:18.
