data_PCOD9436315
_publ_section_title
;
Structure prediction by ZEFSAII (Michael W. Deem and Ramdas Pophale) SiO2 
 PCOD9436315
Probable space group: P B C M
;
_chemical_formula_sum "Si O2"
_cell_formula_units_Z 40
_cell_length_a 9.371396
_cell_length_b 26.342288
_cell_length_c 8.524836
_cell_angle_alpha 90.000000
_cell_angle_beta 90.000000
_cell_angle_gamma 90.000000
_cell_volume 2104.475220
_symmetry_space_group_name_H-M "P B C M"
_symmetry_group_IT_number 57
_symmetry_cell_setting 'orthorhombic'
loop_
_space_group_symop_operation_xyz
x,y,z
-x,-y,1/2+z
x,1/2-y,-z
-x,1/2+y,1/2-z
-x,-y,-z
x,y,1/2-z
-x,1/2+y,z
x,1/2-y,1/2+z
loop_
_atom_site_type_symbol
_atom_site_label
_atom_site_fract_x
_atom_site_fract_y
_atom_site_fract_z
Si Si1 0.162143 0.694554 0.437297
Si Si2 0.338659 0.097169 0.940917
Si Si3 0.841229 0.805265 0.061260
Si Si4 0.667176 0.401343 0.438690
Si Si5 0.161031 0.501685 0.061418
O O1 0.205540 0.750000 0.500000
O O2 0.160786 0.695077 0.250000
O O3 0.263661 0.650510 0.499988
O O4 0.001072 0.685314 0.498595
O O5 0.338502 0.097080 0.750000
O O6 0.262144 0.149280 0.990007
O O7 0.502738 0.094094 0.991454
O O8 0.247485 0.048406 0.991491
O O9 0.846583 0.804065 0.250000
O O10 0.795449 0.750000 0.000000
O O11 0.670935 0.401347 0.250000
O O12 0.758439 0.448563 0.500616
O O13 0.158966 0.502325 0.250000
O O14 0.000000 0.500000 0.000000
#
# Coordination Sequence:
#
# PCOD9436315 Si02
#       5
#     8   8   8   8   8
#     4  11  22  38  59  86 115 151 194 238 283 338
#     4   9  21  38  58  82 115 152 190 234 287 340
#     4  10  19  36  59  85 114 150 191 237 286 339
#     4  11  22  39  59  84 117 153 188 235 288 340
#     4  11  22  39  61  87 114 150 194 238 285 341
#
# _framework density 19.007113
#
# number of rings (size 3 to 8) (size 9 to 14) (size 15 to 20)
#    0.000    1.600    0.000    6.600    0.000    2.400 
#    0.000   12.000    0.000    0.000    0.000    0.000 
#    0.000    0.000    0.000    0.000    0.000    0.000 
#
# Total GULP energy -223622.932440 kJ/mol
# GULP energy per Si atom -5590.573311 kJ/mol
# Density = 1.896385 g / cm^3
# Si number density = 19.007113 Si / 1000 Ang^3
#
#
#
# Elastic Constant Matrix: (Units=GPa)
#
#
# Indices 1 2 3 4 5 6 
#
# 1 179.3923 144.6939 48.5443 0.0000 0.0000 0.0000
# 2 144.6939 194.6590 50.1937 0.0000 0.0000 0.0000
# 3 48.5443 50.1937 91.7579 0.0000 0.0000 0.0000
# 4 0.0000 0.0000 0.0000 36.3479 0.0000 0.0000
# 5 0.0000 0.0000 0.0000 0.0000 25.6080 0.0000
# 6 0.0000 0.0000 0.0000 0.0000 0.0000 231.7392
#
#
#
# Elastic Compliance Matrix: (Units=1/GPa)
#
#
# Indices 1 2 3 4 5 6 
#
# 1 0.014237 -0.010060 -0.002029 0.000000 0.000000 0.000000
# 2 -0.010060 0.013089 -0.001838 0.000000 0.000000 0.000000
# 3 -0.002029 -0.001838 0.012977 0.000000 0.000000 0.000000
# 4 0.000000 0.000000 0.000000 0.027512 0.000000 0.000000
# 5 0.000000 0.000000 0.000000 0.000000 0.039050 0.000000
# 6 0.000000 0.000000 0.000000 0.000000 0.000000 0.004315
#
#
# Mechanical properties :
#
#
# Convention : Reuss Voigt Hill
#
# Bulk Modulus (GPa) = 80.32384 105.85257 93.08820
# Shear Modulus (GPa) = 34.92004 73.56418 54.24211
#
# Velocity S-wave (km/s) = 4.29092 6.22796 5.34787
# Velocity P-wave (km/s) = 8.17930 10.36960 9.33888
#
# Compressibility (1/GPa) = 0.01244960
#
# Stress axis : x y z
#
# Youngs Moduli (GPa) = 70.23716 76.40213 77.05840
#
# Poissons Ratio (x) = 0.76858 0.15638
# Poissons Ratio (y) = 0.70657 0.14161
# Poissons Ratio (z) = 0.14254 0.14041
#
# Static dielectric constant tensor:
#      x y z
#    x 1.630430 0.000000 0.000000 
#    y 0.000000 1.599010 0.000000 
#    z 0.000000 0.000000 1.650000 
# 
# From -- ./inp_files/1522.got.cif
#   From: 2010.05.17/outbox.cif.g08.bks.cpg/sg57_1_cif.got.tgz:1522.got - 2010.06.03 13:58:18.
