data_PCOD9436692
_publ_section_title
;
Structure prediction by ZEFSAII (Michael W. Deem and Ramdas Pophale) SiO2 
 PCOD9436692
Probable space group: P B C M
;
_chemical_formula_sum "Si O2"
_cell_formula_units_Z 48
_cell_length_a 8.238748
_cell_length_b 10.751259
_cell_length_c 23.124020
_cell_angle_alpha 90.000000
_cell_angle_beta 90.000000
_cell_angle_gamma 90.000000
_cell_volume 2048.254321
_symmetry_space_group_name_H-M "P B C M"
_symmetry_group_IT_number 57
_symmetry_cell_setting 'orthorhombic'
loop_
_space_group_symop_operation_xyz
x,y,z
-x,-y,1/2+z
x,1/2-y,-z
-x,1/2+y,1/2-z
-x,-y,-z
x,y,1/2-z
-x,1/2+y,z
x,1/2-y,1/2+z
loop_
_atom_site_type_symbol
_atom_site_label
_atom_site_fract_x
_atom_site_fract_y
_atom_site_fract_z
Si Si1 0.299128 0.683818 0.348983
Si Si2 0.311174 0.646236 0.955262
Si Si3 0.971329 0.626046 0.566112
Si Si4 0.037099 0.122018 0.360080
Si Si5 0.638165 0.559600 0.919194
Si Si6 0.648498 0.742136 0.313980
O O1 0.288420 0.804864 0.389470
O O2 0.324862 0.575203 0.395385
O O3 0.465514 0.688807 0.313927
O O4 0.123264 0.655505 0.322063
O O5 0.461878 0.556521 0.947090
O O6 0.128567 0.614302 0.974173
O O7 0.369833 0.750000 0.000000
O O8 0.966450 0.765956 0.592392
O O9 0.790296 0.603647 0.542382
O O10 0.006311 0.514522 0.612881
O O11 0.210953 0.142188 0.329601
O O12 0.646654 0.653631 0.864152
O O13 0.684284 0.793353 0.250000
#
# Coordination Sequence:
#
# PCOD9436692 Si02
#       6
#     8   8   8   8   8   8
#     4   9  19  36  53  73 106 143 176 220 272 322
#     4  10  20  33  53  81 108 139 183 228 270 322
#     4   9  18  35  55  74 103 142 176 215 266 316
#     4   9  18  35  55  74 103 141 175 215 266 315
#     4   9  19  36  53  73 108 145 177 219 272 324
#     4  10  20  33  53  79 104 136 178 221 266 319
#
# _framework density 23.43459
#
# number of rings (size 3 to 8) (size 9 to 14) (size 15 to 20)
#    0.000    2.667    0.000    1.000    0.000    2.667 
#    0.000   14.167    0.000    0.000    0.000    0.000 
#    0.000    0.000    0.000    0.000    0.000    0.000 
#
# Total GULP energy -267427.089221 kJ/mol
# GULP energy per Si atom -5571.397692 kJ/mol
# Density = 2.338125 g / cm^3
# Si number density = 23.434590 Si / 1000 Ang^3
#
#
#
# Elastic Constant Matrix: (Units=GPa)
#
#
# Indices 1 2 3 4 5 6 
#
# 1 169.7596 18.2828 13.5479 0.0000 0.0000 0.0000
# 2 18.2828 68.6622 9.6485 0.0000 0.0000 0.0000
# 3 13.5479 9.6485 50.0556 0.0000 0.0000 0.0000
# 4 0.0000 0.0000 0.0000 7.0344 0.0000 0.0000
# 5 0.0000 0.0000 0.0000 0.0000 -393.2633 0.0000
# 6 0.0000 0.0000 0.0000 0.0000 0.0000 233.0644
#
#
#
# Elastic Compliance Matrix: (Units=1/GPa)
#
#
# Indices 1 2 3 4 5 6 
#
# 1 0.006157 -0.001444 -0.001388 0.000000 0.000000 0.000000
# 2 -0.001444 0.015308 -0.002560 0.000000 0.000000 0.000000
# 3 -0.001388 -0.002560 0.020847 0.000000 0.000000 0.000000
# 4 0.000000 0.000000 0.000000 0.142159 0.000000 0.000000
# 5 0.000000 0.000000 0.000000 0.000000 -0.002543 0.000000
# 6 0.000000 0.000000 0.000000 0.000000 0.000000 0.004291
#
#
# Mechanical properties :
#
#
# Convention : Reuss Voigt Hill
#
# Bulk Modulus (GPa) = 31.71806 41.27064 36.49435
# Shear Modulus (GPa) = 24.09486 -14.16636 4.96425
#
# Velocity S-wave (km/s) = 3.21000 -2.46134 1.45703
# Velocity P-wave (km/s) = 5.22521 3.09381 4.29386
#
# Compressibility (1/GPa) = 0.03152778
#
# Stress axis : x y z
#
# Youngs Moduli (GPa) = 162.41641 65.32377 47.96877
#
# Poissons Ratio (x) = 0.09435 0.06658
# Poissons Ratio (y) = 0.23459 0.12279
# Poissons Ratio (z) = 0.22544 0.16722
#
# Static dielectric constant tensor:
#      x y z
#    x 1.974860 0.000000 0.000000 
#    y 0.000000 1.883580 0.000000 
#    z 0.000000 0.000000 1.878180 
# 
# From -- ./inp_files/26713.got.cif
#   From: 2010.05.17/outbox.cif.g08.bks.cpg/sg57_14_cif.got.tgz:26713.got - 2010.06.03 13:58:18.
