data_PCOD9436428
_publ_section_title
;
Structure prediction by ZEFSAII (Michael W. Deem and Ramdas Pophale) SiO2 
 PCOD9436428
Probable space group: P B C M
;
_chemical_formula_sum "Si O2"
_cell_formula_units_Z 48
_cell_length_a 8.516558
_cell_length_b 9.948082
_cell_length_c 30.433304
_cell_angle_alpha 90.000000
_cell_angle_beta 90.000000
_cell_angle_gamma 90.000000
_cell_volume 2578.413516
_symmetry_space_group_name_H-M "P B C M"
_symmetry_group_IT_number 57
_symmetry_cell_setting 'orthorhombic'
loop_
_space_group_symop_operation_xyz
x,y,z
-x,-y,1/2+z
x,1/2-y,-z
-x,1/2+y,1/2-z
-x,-y,-z
x,y,1/2-z
-x,1/2+y,z
x,1/2-y,1/2+z
loop_
_atom_site_type_symbol
_atom_site_label
_atom_site_fract_x
_atom_site_fract_y
_atom_site_fract_z
Si Si1 0.093724 0.600991 0.568168
Si Si2 0.161797 0.184657 0.457337
Si Si3 0.811680 0.997765 0.801307
Si Si4 0.677470 0.735372 0.363336
Si Si5 0.692412 0.271138 0.138028
Si Si6 0.122858 0.494922 0.351025
O O1 0.132287 0.474472 0.537326
O O2 0.245921 0.655330 0.593880
O O3 0.996722 0.725830 0.548588
O O4 0.982039 0.537834 0.606034
O O5 0.242171 0.250000 0.500000
O O6 0.257055 0.203024 0.412064
O O7 0.781912 0.982618 0.750000
O O8 0.743706 0.875065 0.829829
O O9 0.997715 0.006390 0.811627
O O10 0.732194 0.130283 0.821677
O O11 0.490367 0.738748 0.363819
O O12 0.748694 0.878176 0.348706
O O13 0.795280 0.137608 0.143766
#
# Coordination Sequence:
#
# PCOD9436428 Si02
#       6
#     8   8   8   8   8   8
#     4  10  19  38  60  89 117 158 203 251 291 349
#     4  11  21  38  63  92 123 163 210 249 293 359
#     4  11  23  41  64  88 116 156 204 249 300 369
#     4  11  23  39  62  89 128 159 194 252 309 360
#     4  11  21  39  62  87 122 159 193 248 313 355
#     4  10  20  37  63  86 116 158 205 238 297 357
#
# _framework density 18.616098000000001
#
# number of rings (size 3 to 8) (size 9 to 14) (size 15 to 20)
#    0.000    1.333    5.000    3.500    0.000    3.333 
#    0.000    3.333    0.000    0.000    0.000    0.000 
#    0.000    0.000    0.000    0.000    0.000    0.000 
#
# Total GULP energy -268084.437677 kJ/mol
# GULP energy per Si atom -5585.092452 kJ/mol
# Density = 1.857373 g / cm^3
# Si number density = 18.616098 Si / 1000 Ang^3
#
#
#
# Elastic Constant Matrix: (Units=GPa)
#
#
# Indices 1 2 3 4 5 6 
#
# 1 74.2676 1.9748 24.7542 0.0000 0.0000 0.0000
# 2 1.9748 82.4352 22.5723 0.0000 0.0000 0.0000
# 3 24.7542 22.5723 102.9733 0.0000 0.0000 0.0000
# 4 0.0000 0.0000 0.0000 12.0405 0.0000 0.0000
# 5 0.0000 0.0000 0.0000 0.0000 9.6273 0.0000
# 6 0.0000 0.0000 0.0000 0.0000 0.0000 17.8458
#
#
#
# Elastic Compliance Matrix: (Units=1/GPa)
#
#
# Indices 1 2 3 4 5 6 
#
# 1 0.014671 0.000653 -0.003670 0.000000 0.000000 0.000000
# 2 0.000653 0.012934 -0.002992 0.000000 0.000000 0.000000
# 3 -0.003670 -0.002992 0.011249 0.000000 0.000000 0.000000
# 4 0.000000 0.000000 0.000000 0.083053 0.000000 0.000000
# 5 0.000000 0.000000 0.000000 0.000000 0.103871 0.000000
# 6 0.000000 0.000000 0.000000 0.000000 0.000000 0.056036
#
#
# Mechanical properties :
#
#
# Convention : Reuss Voigt Hill
#
# Bulk Modulus (GPa) = 37.26232 39.80875 38.53553
# Shear Modulus (GPa) = 16.51376 21.92770 19.22073
#
# Velocity S-wave (km/s) = 2.98160 3.43576 3.21671
# Velocity P-wave (km/s) = 5.64915 6.09670 5.87719
#
# Compressibility (1/GPa) = 0.02683676
#
# Stress axis : x y z
#
# Youngs Moduli (GPa) = 68.16309 77.31284 88.89325
#
# Poissons Ratio (x) = -0.05052 0.32624
# Poissons Ratio (y) = -0.04454 0.26600
# Poissons Ratio (z) = 0.25016 0.23135
#
# Static dielectric constant tensor:
#      x y z
#    x 1.614420 0.000000 0.000000 
#    y 0.000000 1.654110 0.000000 
#    z 0.000000 0.000000 1.653850 
# 
# From -- ./inp_files/29440.got.cif
#   From: 2010.05.17/outbox.cif.g08.bks.cpg/sg57_15_cif.got.tgz:29440.got - 2010.06.03 13:58:18.
