data_PCOD9436084
_publ_section_title
;
Structure prediction by ZEFSAII (Michael W. Deem and Ramdas Pophale) SiO2 
 PCOD9436084
Probable space group: P B C M
;
_chemical_formula_sum "Si O2"
_cell_formula_units_Z 56
_cell_length_a 5.237706
_cell_length_b 18.917404
_cell_length_c 26.286430
_cell_angle_alpha 90.000000
_cell_angle_beta 90.000000
_cell_angle_gamma 90.000000
_cell_volume 2604.559384
_symmetry_space_group_name_H-M "P B C M"
_symmetry_group_IT_number 57
_symmetry_cell_setting 'orthorhombic'
loop_
_space_group_symop_operation_xyz
x,y,z
-x,-y,1/2+z
x,1/2-y,-z
-x,1/2+y,1/2-z
-x,-y,-z
x,y,1/2-z
-x,1/2+y,z
x,1/2-y,1/2+z
loop_
_atom_site_type_symbol
_atom_site_label
_atom_site_fract_x
_atom_site_fract_y
_atom_site_fract_z
Si Si1 0.283507 0.172666 0.250000
Si Si2 0.176018 0.555891 0.358954
Si Si3 0.430677 0.119977 0.959440
Si Si4 0.209924 0.925983 0.750000
Si Si5 0.524158 0.624530 0.073189
Si Si6 0.192156 0.751861 0.444992
Si Si7 0.052660 0.535034 0.555609
Si Si8 0.908412 0.704934 0.144194
O O1 0.559287 0.133044 0.250000
O O2 0.221952 0.217433 0.301099
O O3 0.070573 0.110360 0.250000
O O4 0.225147 0.529118 0.302159
O O5 0.428592 0.560441 0.392953
O O6 0.979778 0.518596 0.397032
O O7 0.095982 0.637597 0.348091
O O8 0.559977 0.197017 0.949845
O O9 0.669819 0.069623 0.947167
O O10 0.167979 0.094436 0.934205
O O11 0.362315 0.109610 0.018823
O O12 0.277708 0.670539 0.058077
O O13 0.692893 0.674361 0.107538
O O14 0.049052 0.750000 0.500000
O O15 0.049362 0.762558 0.391216
O O16 0.000000 0.500000 0.500000
#
# Coordination Sequence:
#
# PCOD9436084 Si02
#       8
#     4   8   8   4   8   8   8   8
#     4  10  20  34  58  92 117 147 188 246 315 348
#     4  10  21  35  56  87 116 151 193 242 306 348
#     4  11  25  38  56  85 121 158 199 240 296 365
#     4  10  20  36  56  86 119 147 192 246 297 360
#     4  10  19  34  58  83 118 150 189 245 300 364
#     4   9  22  37  54  87 115 161 195 242 296 366
#     4  12  24  38  58  84 120 159 198 245 296 361
#     4  10  20  35  62  85 123 151 193 251 303 371
#
# _framework density 21.500755999999999
#
# number of rings (size 3 to 8) (size 9 to 14) (size 15 to 20)
#    0.000    1.714    2.857    1.286    8.000    0.571 
#    0.000    0.000    0.000    1.714    0.000    0.000 
#    0.000    0.000    0.000    0.000    0.000    0.000 
#
# Total GULP energy -311963.797518 kJ/mol
# GULP energy per Si atom -5570.782099 kJ/mol
# Density = 2.145182 g / cm^3
# Si number density = 21.500756 Si / 1000 Ang^3
#
#
#
# Elastic Constant Matrix: (Units=GPa)
#
#
# Indices 1 2 3 4 5 6 
#
# 1 80.7711 12.3679 52.0830 0.0000 0.0000 0.0000
# 2 12.3679 45.5544 38.7829 0.0000 0.0000 0.0000
# 3 52.0830 38.7829 156.3758 0.0000 0.0000 0.0000
# 4 0.0000 0.0000 0.0000 18.7390 0.0000 0.0000
# 5 0.0000 0.0000 0.0000 0.0000 5.0402 0.0000
# 6 0.0000 0.0000 0.0000 0.0000 0.0000 37.0806
#
#
#
# Elastic Compliance Matrix: (Units=1/GPa)
#
#
# Indices 1 2 3 4 5 6 
#
# 1 0.015769 0.000241 -0.005312 0.000000 0.000000 0.000000
# 2 0.000241 0.027831 -0.006983 0.000000 0.000000 0.000000
# 3 -0.005312 -0.006983 0.009896 0.000000 0.000000 0.000000
# 4 0.000000 0.000000 0.000000 0.053365 0.000000 0.000000
# 5 0.000000 0.000000 0.000000 0.000000 0.198404 0.000000
# 6 0.000000 0.000000 0.000000 0.000000 0.000000 0.026968
#
#
# Mechanical properties :
#
#
# Convention : Reuss Voigt Hill
#
# Bulk Modulus (GPa) = 34.02649 54.35210 44.18930
# Shear Modulus (GPa) = 13.65613 24.13647 18.89630
#
# Velocity S-wave (km/s) = 2.52295 3.35414 2.96778
# Velocity P-wave (km/s) = 4.93428 6.35093 5.68689
#
# Compressibility (1/GPa) = 0.02938886
#
# Stress axis : x y z
#
# Youngs Moduli (GPa) = 63.41574 35.93103 101.05278
#
# Poissons Ratio (x) = -0.00866 0.53678
# Poissons Ratio (y) = -0.01529 0.70562
# Poissons Ratio (z) = 0.33685 0.25090
#
# Static dielectric constant tensor:
#      x y z
#    x 1.885900 0.000000 0.000000 
#    y 0.000000 1.882460 0.000000 
#    z 0.000000 0.000000 1.909930 
# 
# From -- ./inp_files/26332.got.cif
#   From: 2010.05.17/outbox.cif.g08.bks.cpg/sg57_14_cif.got.tgz:26332.got - 2010.06.03 13:58:18.
