data_PCOD9436348
_publ_section_title
;
Structure prediction by ZEFSAII (Michael W. Deem and Ramdas Pophale) SiO2 
 PCOD9436348
Probable space group: P B C M
;
_chemical_formula_sum "Si O2"
_cell_formula_units_Z 64
_cell_length_a 8.799214
_cell_length_b 27.345380
_cell_length_c 13.713277
_cell_angle_alpha 90.000000
_cell_angle_beta 90.000000
_cell_angle_gamma 90.000000
_cell_volume 3299.659235
_symmetry_space_group_name_H-M "P B C M"
_symmetry_group_IT_number 57
_symmetry_cell_setting 'orthorhombic'
loop_
_space_group_symop_operation_xyz
x,y,z
-x,-y,1/2+z
x,1/2-y,-z
-x,1/2+y,1/2-z
-x,-y,-z
x,y,1/2-z
-x,1/2+y,z
x,1/2-y,1/2+z
loop_
_atom_site_type_symbol
_atom_site_label
_atom_site_fract_x
_atom_site_fract_y
_atom_site_fract_z
Si Si1 0.808816 0.445096 0.138079
Si Si2 0.483488 0.885039 0.358863
Si Si3 0.287444 0.679170 0.366542
Si Si4 0.533090 0.223044 0.862765
Si Si5 0.030020 0.629200 0.004954
Si Si6 0.413554 0.375722 0.573358
Si Si7 0.164659 0.443587 0.637283
Si Si8 0.227556 0.301008 0.482158
O O1 0.862815 0.441827 0.250000
O O2 0.632286 0.429749 0.139181
O O3 0.833551 0.500368 0.102862
O O4 0.884948 0.404858 0.071114
O O5 0.556305 0.883604 0.250000
O O6 0.398206 0.832011 0.368454
O O7 0.580979 0.887945 0.457293
O O8 0.254057 0.679926 0.250000
O O9 0.361063 0.731993 0.395440
O O10 0.144132 0.662838 0.431405
O O11 0.422393 0.640098 0.388461
O O12 0.501774 0.233732 0.750000
O O13 0.371656 0.214557 0.915835
O O14 0.944259 0.591672 0.076895
O O15 0.901433 0.661288 0.950937
O O16 0.331871 0.419696 0.627249
O O17 0.306114 0.327490 0.575338
O O18 0.119735 0.443308 0.750000
O O19 0.146167 0.250000 0.500000
#
# Coordination Sequence:
#
# PCOD9436348 Si02
#       8
#     8   8   8   8   8   8   8   8
#     4  10  21  39  61  82 114 157 200 247 305 357
#     4   9  18  34  56  87 119 150 195 245 291 344
#     4  11  21  36  59  88 121 157 198 247 300 355
#     4   9  19  35  59  86 119 157 196 244 291 347
#     4  11  23  38  57  89 119 158 196 247 298 362
#     4  10  19  36  62  85 113 156 197 246 292 351
#     4  10  22  40  61  84 117 156 198 251 304 357
#     4  10  20  36  55  84 117 153 192 233 289 350
#
# _framework density 19.395944
#
# number of rings (size 3 to 8) (size 9 to 14) (size 15 to 20)
#    0.000    2.000    2.500    1.125    0.000    2.000 
#    0.000    2.500    0.000    0.750    0.000    0.000 
#    0.000    0.000    0.000    0.000    0.000    0.000 
#
# Total GULP energy -356470.568104 kJ/mol
# GULP energy per Si atom -5569.852627 kJ/mol
# Density = 1.935180 g / cm^3
# Si number density = 19.395944 Si / 1000 Ang^3
#
#
#
# Elastic Constant Matrix: (Units=GPa)
#
#
# Indices 1 2 3 4 5 6 
#
# 1 59.8096 36.1764 17.3532 0.0000 0.0000 0.0000
# 2 36.1764 110.2631 37.7573 0.0000 0.0000 0.0000
# 3 17.3532 37.7573 72.9852 0.0000 0.0000 0.0000
# 4 0.0000 0.0000 0.0000 25.3158 0.0000 0.0000
# 5 0.0000 0.0000 0.0000 0.0000 20.2376 0.0000
# 6 0.0000 0.0000 0.0000 0.0000 0.0000 24.9108
#
#
#
# Elastic Compliance Matrix: (Units=1/GPa)
#
#
# Indices 1 2 3 4 5 6 
#
# 1 0.021039 -0.006307 -0.001739 0.000000 0.000000 0.000000
# 2 -0.006307 0.012912 -0.005180 0.000000 0.000000 0.000000
# 3 -0.001739 -0.005180 0.016795 0.000000 0.000000 0.000000
# 4 0.000000 0.000000 0.000000 0.039501 0.000000 0.000000
# 5 0.000000 0.000000 0.000000 0.000000 0.049413 0.000000
# 6 0.000000 0.000000 0.000000 0.000000 0.000000 0.040143
#
#
# Mechanical properties :
#
#
# Convention : Reuss Voigt Hill
#
# Bulk Modulus (GPa) = 41.16464 47.29240 44.22852
# Shear Modulus (GPa) = 23.32571 24.21090 23.76831
#
# Velocity S-wave (km/s) = 3.47163 3.53688 3.50441
# Velocity P-wave (km/s) = 6.11056 6.41209 6.26314
#
# Compressibility (1/GPa) = 0.02429269
#
# Stress axis : x y z
#
# Youngs Moduli (GPa) = 47.52986 77.44454 59.54174
#
# Poissons Ratio (x) = 0.48846 0.10357
# Poissons Ratio (y) = 0.29978 0.30845
# Poissons Ratio (z) = 0.08268 0.40119
#
# Static dielectric constant tensor:
#      x y z
#    x 1.686050 0.000000 0.000000 
#    y 0.000000 1.717690 0.000000 
#    z 0.000000 0.000000 1.707660 
# 
# From -- ./inp_files/16997.got.cif
#   From: 2010.05.17/outbox.cif.g08.bks.cpg/sg57_9_cif.got.tgz:16997.got - 2010.06.03 13:58:18.
