data_PCOD9436215
_publ_section_title
;
Structure prediction by ZEFSAII (Michael W. Deem and Ramdas Pophale) SiO2 
 PCOD9436215
Probable space group: P B C M
;
_chemical_formula_sum "Si O2"
_cell_formula_units_Z 64
_cell_length_a 9.881738
_cell_length_b 18.959320
_cell_length_c 19.003964
_cell_angle_alpha 90.000000
_cell_angle_beta 90.000000
_cell_angle_gamma 90.000000
_cell_volume 3560.412285
_symmetry_space_group_name_H-M "P B C M"
_symmetry_group_IT_number 57
_symmetry_cell_setting 'orthorhombic'
loop_
_space_group_symop_operation_xyz
x,y,z
-x,-y,1/2+z
x,1/2-y,-z
-x,1/2+y,1/2-z
-x,-y,-z
x,y,1/2-z
-x,1/2+y,z
x,1/2-y,1/2+z
loop_
_atom_site_type_symbol
_atom_site_label
_atom_site_fract_x
_atom_site_fract_y
_atom_site_fract_z
Si Si1 0.392072 0.094113 0.330471
Si Si2 0.007061 0.430492 0.047753
Si Si3 0.799254 0.169712 0.026056
Si Si4 0.054248 0.658429 0.331323
Si Si5 0.531149 0.079544 0.024446
Si Si6 0.782881 0.715539 0.384574
Si Si7 0.267938 0.147591 0.535518
Si Si8 0.113793 0.013646 0.331176
O O1 0.436732 0.083530 0.250000
O O2 0.499735 0.084224 0.392038
O O3 0.324498 0.171355 0.339293
O O4 0.265000 0.042008 0.346118
O O5 0.932308 0.451489 0.118971
O O6 0.164516 0.413162 0.057183
O O7 0.929349 0.364908 0.012406
O O8 0.000000 0.500000 0.000000
O O9 0.833676 0.169934 0.109270
O O10 0.675581 0.115918 0.011573
O O11 0.775297 0.250000 0.000000
O O12 0.096845 0.665284 0.250000
O O13 0.928614 0.710468 0.348321
O O14 0.986281 0.580803 0.340858
O O15 0.418225 0.124424 0.983022
O O16 0.500000 0.000000 0.000000
O O17 0.737581 0.793264 0.404931
O O18 0.788236 0.676920 0.460739
O O19 0.108768 0.993417 0.250000
#
# Coordination Sequence:
#
# PCOD9436215 Si02
#       8
#     8   8   8   8   8   8   8   8
#     4   9  18  35  60  82 107 149 199 237 284 356
#     4  12  19  35  61  87 118 155 196 240 294 358
#     4  12  25  38  58  91 125 154 197 253 306 358
#     4  10  19  35  58  88 121 153 191 243 301 359
#     4  11  24  39  59  86 117 159 205 247 299 353
#     4   9  16  33  56  85 110 141 189 239 284 340
#     4  10  20  32  59  82 113 147 195 239 287 340
#     4   9  18  33  58  90 117 149 194 244 290 348
#
# _framework density 17.975446999999999
#
# number of rings (size 3 to 8) (size 9 to 14) (size 15 to 20)
#    0.000    1.750    2.500    4.875    3.500    0.500 
#    0.000    3.125    0.000    2.250    0.000    0.000 
#    0.000    0.000    0.000    0.000    0.000    0.000 
#
# Total GULP energy -357009.143469 kJ/mol
# GULP energy per Si atom -5578.267867 kJ/mol
# Density = 1.793453 g / cm^3
# Si number density = 17.975447 Si / 1000 Ang^3
#
#
#
# Elastic Constant Matrix: (Units=GPa)
#
#
# Indices 1 2 3 4 5 6 
#
# 1 63.1238 10.3908 15.3156 0.0000 0.0000 0.0000
# 2 10.3908 53.4341 15.2820 0.0000 0.0000 0.0000
# 3 15.3156 15.2820 64.0235 0.0000 0.0000 0.0000
# 4 0.0000 0.0000 0.0000 24.6336 0.0000 0.0000
# 5 0.0000 0.0000 0.0000 0.0000 10.9985 0.0000
# 6 0.0000 0.0000 0.0000 0.0000 0.0000 14.3827
#
#
#
# Elastic Compliance Matrix: (Units=1/GPa)
#
#
# Indices 1 2 3 4 5 6 
#
# 1 0.017080 -0.002311 -0.003534 0.000000 0.000000 0.000000
# 2 -0.002311 0.020398 -0.004316 0.000000 0.000000 0.000000
# 3 -0.003534 -0.004316 0.017495 0.000000 0.000000 0.000000
# 4 0.000000 0.000000 0.000000 0.040595 0.000000 0.000000
# 5 0.000000 0.000000 0.000000 0.000000 0.090921 0.000000
# 6 0.000000 0.000000 0.000000 0.000000 0.000000 0.069528
#
#
# Mechanical properties :
#
#
# Convention : Reuss Voigt Hill
#
# Bulk Modulus (GPa) = 28.85919 29.17313 29.01616
# Shear Modulus (GPa) = 17.36776 19.30917 18.33846
#
# Velocity S-wave (km/s) = 3.11174 3.28105 3.19751
# Velocity P-wave (km/s) = 5.38518 5.53339 5.45979
#
# Compressibility (1/GPa) = 0.03465101
#
# Stress axis : x y z
#
# Youngs Moduli (GPa) = 58.54892 49.02357 57.15928
#
# Poissons Ratio (x) = 0.11327 0.20202
# Poissons Ratio (y) = 0.13528 0.24671
# Poissons Ratio (z) = 0.20693 0.21160
#
# Static dielectric constant tensor:
#      x y z
#    x 1.612730 0.000000 0.000000 
#    y 0.000000 1.635800 0.000000 
#    z 0.000000 0.000000 1.586080 
# 
# From -- ./inp_files/21396.got.cif
#   From: 2010.05.17/outbox.cif.g08.bks.cpg/sg57_11_cif.got.tgz:21396.got - 2010.06.03 13:58:18.
