data_PCOD9436821
_publ_section_title
;
Structure prediction by ZEFSAII (Michael W. Deem and Ramdas Pophale) SiO2 
 PCOD9436821
Probable space group: P B C M
;
_chemical_formula_sum "Si O2"
_cell_formula_units_Z 64
_cell_length_a 14.495724
_cell_length_b 18.561841
_cell_length_c 10.313704
_cell_angle_alpha 90.000000
_cell_angle_beta 90.000000
_cell_angle_gamma 90.000000
_cell_volume 2775.080737
_symmetry_space_group_name_H-M "P B C M"
_symmetry_group_IT_number 57
_symmetry_cell_setting 'orthorhombic'
loop_
_space_group_symop_operation_xyz
x,y,z
-x,-y,1/2+z
x,1/2-y,-z
-x,1/2+y,1/2-z
-x,-y,-z
x,y,1/2-z
-x,1/2+y,z
x,1/2-y,1/2+z
loop_
_atom_site_type_symbol
_atom_site_label
_atom_site_fract_x
_atom_site_fract_y
_atom_site_fract_z
Si Si1 0.189627 0.420058 0.109023
Si Si2 0.841230 0.689729 0.398246
Si Si3 0.056433 0.539769 0.107917
Si Si4 0.863353 0.307881 0.602629
Si Si5 0.594255 0.613177 0.600392
Si Si6 0.354389 0.684142 0.096955
Si Si7 0.494937 0.553663 0.094003
Si Si8 0.382265 0.294687 0.602624
O O1 0.158388 0.388336 0.250000
O O2 0.156764 0.501820 0.109135
O O3 0.298539 0.410774 0.106613
O O4 0.148075 0.382727 0.981881
O O5 0.874980 0.750000 0.500000
O O6 0.876920 0.690457 0.250000
O O7 0.729937 0.700120 0.387984
O O8 0.014622 0.527598 0.250000
O O9 0.073700 0.622845 0.088042
O O10 0.000000 0.500000 0.000000
O O11 0.892680 0.250000 0.500000
O O12 0.869288 0.281348 0.750000
O O13 0.755169 0.325420 0.578234
O O14 0.560099 0.620781 0.750000
O O15 0.536606 0.534638 0.565611
O O16 0.601168 0.704821 0.568391
O O17 0.368373 0.702216 0.250000
O O18 0.408086 0.609516 0.068616
O O19 0.384822 0.750000 0.000000
O O20 0.505537 0.545798 0.250000
O O21 0.578552 0.619342 0.071057
O O22 0.419599 0.292014 0.750000
#
# Coordination Sequence:
#
# PCOD9436821 Si02
#       8
#     8   8   8   8   8   8   8   8
#     4   9  19  35  56  80 111 157 205 247 303 375
#     4   9  16  27  46  72 105 143 188 241 287 338
#     4  10  22  40  64  93 127 162 199 249 312 383
#     4   9  19  39  68  98 127 162 206 257 313 377
#     4  10  20  34  53  76 106 149 198 247 304 364
#     4   9  20  39  65  92 124 164 213 266 321 378
#     4  11  24  39  56  83 121 163 207 260 317 379
#     4   9  16  27  44  67  97 132 178 231 282 337
#
# _framework density 23.062391999999999
#
# number of rings (size 3 to 8) (size 9 to 14) (size 15 to 20)
#    0.000    2.500    0.000    1.500    1.750    6.000 
#    0.000    1.875    0.000    1.500    0.000    0.000 
#    0.000    0.000    0.000    0.000    0.000    0.000 
#
# Total GULP energy -356991.343541 kJ/mol
# GULP energy per Si atom -5577.989743 kJ/mol
# Density = 2.300990 g / cm^3
# Si number density = 23.062392 Si / 1000 Ang^3
#
#
#
# Elastic Constant Matrix: (Units=GPa)
#
#
# Indices 1 2 3 4 5 6 
#
# 1 64.7134 33.4819 43.5125 0.0000 0.0000 0.0000
# 2 33.4819 166.3057 137.0735 0.0000 0.0000 0.0000
# 3 43.5125 137.0735 241.0439 0.0000 0.0000 0.0000
# 4 0.0000 0.0000 0.0000 69.2644 0.0000 0.0000
# 5 0.0000 0.0000 0.0000 0.0000 14.9178 0.0000
# 6 0.0000 0.0000 0.0000 0.0000 0.0000 13.6924
#
#
#
# Elastic Compliance Matrix: (Units=1/GPa)
#
#
# Indices 1 2 3 4 5 6 
#
# 1 0.017859 -0.001766 -0.002220 0.000000 0.000000 0.000000
# 2 -0.001766 0.011492 -0.006217 0.000000 0.000000 0.000000
# 3 -0.002220 -0.006217 0.008084 0.000000 0.000000 0.000000
# 4 0.000000 0.000000 0.000000 0.014437 0.000000 0.000000
# 5 0.000000 0.000000 0.000000 0.000000 0.067034 0.000000
# 6 0.000000 0.000000 0.000000 0.000000 0.000000 0.073033
#
#
# Mechanical properties :
#
#
# Convention : Reuss Voigt Hill
#
# Bulk Modulus (GPa) = 58.71504 100.02208 79.36856
# Shear Modulus (GPa) = 22.93349 36.77461 29.85405
#
# Velocity S-wave (km/s) = 3.15685 3.99754 3.60181
# Velocity P-wave (km/s) = 6.22913 8.04807 7.19630
#
# Compressibility (1/GPa) = 0.01703141
#
# Stress axis : x y z
#
# Youngs Moduli (GPa) = 55.99459 87.01393 123.69487
#
# Poissons Ratio (x) = 0.15368 0.27454
# Poissons Ratio (y) = 0.09889 0.76895
# Poissons Ratio (z) = 0.12428 0.54092
#
# Static dielectric constant tensor:
#      x y z
#    x 1.818670 0.000000 0.000000 
#    y 0.000000 1.914510 0.000000 
#    z 0.000000 0.000000 1.865450 
# 
# From -- ./inp_files/7185.got.cif
#   From: 2010.05.17/outbox.cif.g08.bks.cpg/sg57_4_cif.got.tgz:7185.got - 2010.06.03 13:58:18.
