data_PCOD9436743
_publ_section_title
;
Structure prediction by ZEFSAII (Michael W. Deem and Ramdas Pophale) SiO2 
 PCOD9436743
Probable space group: P B C M
;
_chemical_formula_sum "Si O2"
_cell_formula_units_Z 64
_cell_length_a 14.726947
_cell_length_b 31.122704
_cell_length_c 8.714848
_cell_angle_alpha 90.000000
_cell_angle_beta 90.000000
_cell_angle_gamma 90.000000
_cell_volume 3994.384455
_symmetry_space_group_name_H-M "P B C M"
_symmetry_group_IT_number 57
_symmetry_cell_setting 'orthorhombic'
loop_
_space_group_symop_operation_xyz
x,y,z
-x,-y,1/2+z
x,1/2-y,-z
-x,1/2+y,1/2-z
-x,-y,-z
x,y,1/2-z
-x,1/2+y,z
x,1/2-y,1/2+z
loop_
_atom_site_type_symbol
_atom_site_label
_atom_site_fract_x
_atom_site_fract_y
_atom_site_fract_z
Si Si1 0.346285 0.296339 0.432379
Si Si2 0.568614 0.877592 0.928298
Si Si3 0.247318 0.980154 0.565976
Si Si4 0.055068 0.958673 0.065087
Si Si5 0.450961 0.957363 0.934747
Si Si6 0.238760 0.425513 0.926797
Si Si7 0.144935 0.203719 0.432416
Si Si8 0.929201 0.620890 0.930642
O O1 0.372861 0.250000 0.500000
O O2 0.337896 0.293765 0.250000
O O3 0.415453 0.333714 0.480760
O O4 0.245958 0.305984 0.501556
O O5 0.547319 0.867648 0.750000
O O6 0.497800 0.913125 0.988242
O O7 0.665469 0.901683 0.931364
O O8 0.239714 0.984627 0.750000
O O9 0.156555 0.958602 0.501017
O O10 0.343816 0.958174 0.530976
O O11 0.250852 0.026641 0.487316
O O12 0.056172 0.962245 0.250000
O O13 0.003866 0.914452 0.023229
O O14 0.000000 0.000000 0.000000
O O15 0.462389 0.958956 0.750000
O O16 0.500000 0.000000 0.000000
O O17 0.206114 0.425352 0.750000
O O18 0.166076 0.402140 0.032653
O O19 0.118630 0.250000 0.500000
O O20 0.152094 0.205940 0.250000
O O21 0.077057 0.165960 0.481812
O O22 0.937944 0.629120 0.750000
#
# Coordination Sequence:
#
# PCOD9436743 Si02
#       8
#     8   8   8   8   8   8   8   8
#     4  11  21  33  51  74 103 136 170 210 254 305
#     4  10  20  34  50  73 103 137 175 211 253 304
#     4  11  22  35  51  73 104 138 177 219 260 304
#     4  11  23  36  53  74 102 137 177 218 260 307
#     4  10  21  35  52  74 102 137 175 216 256 303
#     4  11  20  30  50  73 102 140 175 212 256 301
#     4  11  21  34  52  75 104 137 169 208 254 307
#     4  11  22  35  51  74 102 136 176 216 256 305
#
# _framework density 16.022493999999998
#
# number of rings (size 3 to 8) (size 9 to 14) (size 15 to 20)
#    0.000    1.250    3.750    4.500    0.000    3.000 
#    0.000    0.000    0.000    0.000    0.000    0.875 
#    0.000    6.000    0.000    0.000    0.000    0.000 
#
# Total GULP energy -357339.050685 kJ/mol
# GULP energy per Si atom -5583.422667 kJ/mol
# Density = 1.598603 g / cm^3
# Si number density = 16.022494 Si / 1000 Ang^3
#
#
#
# Elastic Constant Matrix: (Units=GPa)
#
#
# Indices 1 2 3 4 5 6 
#
# 1 81.4534 50.3929 26.4890 0.0000 0.0000 0.0000
# 2 50.3929 134.0112 48.3405 0.0000 0.0000 0.0000
# 3 26.4890 48.3405 73.4649 0.0000 0.0000 0.0000
# 4 0.0000 0.0000 0.0000 27.3436 0.0000 0.0000
# 5 0.0000 0.0000 0.0000 0.0000 17.9061 0.0000
# 6 0.0000 0.0000 0.0000 0.0000 0.0000 15.1375
#
#
#
# Elastic Compliance Matrix: (Units=1/GPa)
#
#
# Indices 1 2 3 4 5 6 
#
# 1 0.016321 -0.005264 -0.002421 0.000000 0.000000 0.000000
# 2 -0.005264 0.011482 -0.005657 0.000000 0.000000 0.000000
# 3 -0.002421 -0.005657 0.018208 0.000000 0.000000 0.000000
# 4 0.000000 0.000000 0.000000 0.036572 0.000000 0.000000
# 5 0.000000 0.000000 0.000000 0.000000 0.055847 0.000000
# 6 0.000000 0.000000 0.000000 0.000000 0.000000 0.066061
#
#
# Mechanical properties :
#
#
# Convention : Reuss Voigt Hill
#
# Bulk Modulus (GPa) = 51.74411 59.93048 55.83730
# Shear Modulus (GPa) = 21.04229 22.99127 22.01678
#
# Velocity S-wave (km/s) = 3.62787 3.79217 3.71093
# Velocity P-wave (km/s) = 7.06494 7.52723 7.29975
#
# Compressibility (1/GPa) = 0.01932587
#
# Stress axis : x y z
#
# Youngs Moduli (GPa) = 61.27104 87.09132 54.92238
#
# Poissons Ratio (x) = 0.45844 0.13297
# Poissons Ratio (y) = 0.32252 0.31072
# Poissons Ratio (z) = 0.14834 0.49271
#
# Static dielectric constant tensor:
#      x y z
#    x 1.530580 0.000000 0.000000 
#    y 0.000000 1.543360 0.000000 
#    z 0.000000 0.000000 1.548730 
# 
# From -- ./inp_files/5947.got.cif
#   From: 2010.05.17/outbox.cif.g08.bks.cpg/sg57_3_cif.got.tgz:5947.got - 2010.06.03 13:58:18.
