data_PCOD9436396
_publ_section_title
;
Structure prediction by ZEFSAII (Michael W. Deem and Ramdas Pophale) SiO2 
 PCOD9436396
Probable space group: P B C M
;
_chemical_formula_sum "Si O2"
_cell_formula_units_Z 60
_cell_length_a 8.683242
_cell_length_b 14.489259
_cell_length_c 23.719242
_cell_angle_alpha 90.000000
_cell_angle_beta 90.000000
_cell_angle_gamma 90.000000
_cell_volume 2984.206600
_symmetry_space_group_name_H-M "P B C M"
_symmetry_group_IT_number 57
_symmetry_cell_setting 'orthorhombic'
loop_
_space_group_symop_operation_xyz
x,y,z
-x,-y,1/2+z
x,1/2-y,-z
-x,1/2+y,1/2-z
-x,-y,-z
x,y,1/2-z
-x,1/2+y,z
x,1/2-y,1/2+z
loop_
_atom_site_type_symbol
_atom_site_label
_atom_site_fract_x
_atom_site_fract_y
_atom_site_fract_z
Si Si1 0.075669 0.206164 0.389290
Si Si2 0.342007 0.926300 0.814426
Si Si3 0.232793 0.250000 0.000000
Si Si4 0.192810 0.549769 0.622781
Si Si5 0.667421 0.541409 0.012441
Si Si6 0.303872 0.106835 0.314028
Si Si7 0.884243 0.482304 0.910698
Si Si8 0.197029 0.724768 0.684686
O O1 0.125387 0.259438 0.445046
O O2 0.233210 0.179037 0.357417
O O3 0.978691 0.115179 0.409859
O O4 0.968140 0.252101 0.342413
O O5 0.314895 0.958088 0.750000
O O6 0.523534 0.927030 0.826105
O O7 0.239186 0.978387 0.860085
O O8 0.292888 0.818928 0.817354
O O9 0.324744 0.153390 0.008655
O O10 0.283474 0.498031 0.573258
O O11 0.195219 0.481755 0.676504
O O12 0.261768 0.645350 0.644093
O O13 0.017833 0.555934 0.601637
O O14 0.792061 0.502474 0.967632
O O15 0.500000 0.500000 0.000000
O O16 0.299087 0.140458 0.250000
O O17 0.187069 0.695978 0.750000
#
# Coordination Sequence:
#
# PCOD9436396 Si02
#       8
#     8   8   4   8   8   8   8   8
#     4  10  22  37  65  90 127 164 214 259 314 384
#     4   9  20  38  62  92 127 164 208 257 317 379
#     4  12  24  44  64  92 128 172 218 276 328 382
#     4  11  22  39  60  93 122 164 210 261 315 379
#     4  12  26  44  64  91 131 169 219 271 325 394
#     4  10  19  37  62  86 121 165 204 253 313 373
#     4  10  21  39  64  88 125 163 208 261 315 379
#     4  10  21  38  61  96 128 161 208 262 316 382
#
# _framework density 20.105846
#
# number of rings (size 3 to 8) (size 9 to 14) (size 15 to 20)
#    0.000    1.600    2.667    2.800    1.867    4.800 
#    2.400    1.333    0.000    1.600    0.000    0.000 
#    0.000    0.000    0.000    0.000    0.000    0.000 
#
# Total GULP energy -334712.113608 kJ/mol
# GULP energy per Si atom -5578.535227 kJ/mol
# Density = 2.006008 g / cm^3
# Si number density = 20.105846 Si / 1000 Ang^3
#
#
#
# Elastic Constant Matrix: (Units=GPa)
#
#
# Indices 1 2 3 4 5 6 
#
# 1 79.8227 16.5795 43.4048 0.0000 0.0000 0.0000
# 2 16.5795 63.7116 32.7939 0.0000 0.0000 0.0000
# 3 43.4048 32.7939 121.6460 0.0000 0.0000 0.0000
# 4 0.0000 0.0000 0.0000 29.7934 0.0000 0.0000
# 5 0.0000 0.0000 0.0000 0.0000 32.0807 0.0000
# 6 0.0000 0.0000 0.0000 0.0000 0.0000 14.4021
#
#
#
# Elastic Compliance Matrix: (Units=1/GPa)
#
#
# Indices 1 2 3 4 5 6 
#
# 1 0.015649 -0.001391 -0.005209 0.000000 0.000000 0.000000
# 2 -0.001391 0.018348 -0.004450 0.000000 0.000000 0.000000
# 3 -0.005209 -0.004450 0.011279 0.000000 0.000000 0.000000
# 4 0.000000 0.000000 0.000000 0.033564 0.000000 0.000000
# 5 0.000000 0.000000 0.000000 0.000000 0.031171 0.000000
# 6 0.000000 0.000000 0.000000 0.000000 0.000000 0.069434
#
#
# Mechanical properties :
#
#
# Convention : Reuss Voigt Hill
#
# Bulk Modulus (GPa) = 43.14777 50.08184 46.61481
# Shear Modulus (GPa) = 23.89241 26.74872 25.32057
#
# Velocity S-wave (km/s) = 3.45096 3.65142 3.55260
# Velocity P-wave (km/s) = 6.11439 6.53761 6.32953
#
# Compressibility (1/GPa) = 0.02317617
#
# Stress axis : x y z
#
# Youngs Moduli (GPa) = 63.90171 54.50094 88.66225
#
# Poissons Ratio (x) = 0.07582 0.46182
# Poissons Ratio (y) = 0.08890 0.39455
# Poissons Ratio (z) = 0.33285 0.24253
#
# Static dielectric constant tensor:
#      x y z
#    x 1.687080 0.000000 0.000000 
#    y 0.000000 1.753740 0.000000 
#    z 0.000000 0.000000 1.706280 
# 
# From -- ./inp_files/26858.got.cif
#   From: 2010.05.17/outbox.cif.g08.bks.cpg/sg57_14_cif.got.tgz:26858.got - 2010.06.03 13:58:18.
