data_PCOD9436639
_publ_section_title
;
Structure prediction by ZEFSAII (Michael W. Deem and Ramdas Pophale) SiO2 
 PCOD9436639
Probable space group: P B C M
;
_chemical_formula_sum "Si O2"
_cell_formula_units_Z 48
_cell_length_a 18.825385
_cell_length_b 16.814947
_cell_length_c 8.901157
_cell_angle_alpha 90.000000
_cell_angle_beta 90.000000
_cell_angle_gamma 90.000000
_cell_volume 2817.642120
_symmetry_space_group_name_H-M "P B C M"
_symmetry_group_IT_number 57
_symmetry_cell_setting 'orthorhombic'
loop_
_space_group_symop_operation_xyz
x,y,z
-x,-y,1/2+z
x,1/2-y,-z
-x,1/2+y,1/2-z
-x,-y,-z
x,y,1/2-z
-x,1/2+y,z
x,1/2-y,1/2+z
loop_
_atom_site_type_symbol
_atom_site_label
_atom_site_fract_x
_atom_site_fract_y
_atom_site_fract_z
Si Si1 0.038128 0.077196 0.569849
Si Si2 0.457154 0.925909 0.569844
Si Si3 0.408840 0.167027 0.070187
Si Si4 0.824201 0.489571 0.570390
Si Si5 0.083597 0.667995 0.070462
Si Si6 0.329534 0.003978 0.070292
O O1 0.030016 0.077551 0.750000
O O2 0.994173 0.148914 0.498206
O O3 0.120928 0.061615 0.535997
O O4 0.000000 0.000000 0.500000
O O5 0.454345 0.932792 0.750000
O O6 0.508577 0.852250 0.531716
O O7 0.500000 0.000000 0.500000
O O8 0.379089 0.935531 0.501867
O O9 0.404065 0.172137 0.250000
O O10 0.362304 0.090080 0.023795
O O11 0.386010 0.250000 0.000000
O O12 0.811767 0.489910 0.750000
O O13 0.865156 0.406866 0.534478
O O14 0.750751 0.496761 0.484315
O O15 0.078600 0.673327 0.250000
O O16 0.110185 0.750000 0.000000
O O17 0.334732 0.998981 0.250000
#
# Coordination Sequence:
#
# PCOD9436639 Si02
#       6
#     8   8   8   8   8   8
#     4   9  17  31  51  74  99 129 167 206 248 300
#     4   9  17  31  50  72  97 125 162 203 242 292
#     4   9  19  33  50  74  99 126 163 205 248 294
#     4   9  19  34  52  75 102 134 169 206 251 302
#     4  10  20  34  53  77 103 132 170 214 260 307
#     4  10  20  33  51  76 102 132 170 206 247 301
#
# _framework density 17.035520999999999
#
# number of rings (size 3 to 8) (size 9 to 14) (size 15 to 20)
#    0.000    2.667    0.000    4.000    0.000    8.000 
#    0.000    1.667    0.000    2.000    0.000    0.000 
#    0.000    0.000    0.000    0.000    0.000    0.000 
#
# Total GULP energy -267299.533102 kJ/mol
# GULP energy per Si atom -5568.740273 kJ/mol
# Density = 1.699675 g / cm^3
# Si number density = 17.035521 Si / 1000 Ang^3
#
#
#
# Elastic Constant Matrix: (Units=GPa)
#
#
# Indices 1 2 3 4 5 6 
#
# 1 120.4269 31.3606 50.3787 0.0000 0.0000 0.0000
# 2 31.3606 71.7240 29.0241 0.0000 0.0000 0.0000
# 3 50.3787 29.0241 51.8397 0.0000 0.0000 0.0000
# 4 0.0000 0.0000 0.0000 27.3159 0.0000 0.0000
# 5 0.0000 0.0000 0.0000 0.0000 32.9813 0.0000
# 6 0.0000 0.0000 0.0000 0.0000 0.0000 16.6843
#
#
#
# Elastic Compliance Matrix: (Units=1/GPa)
#
#
# Indices 1 2 3 4 5 6 
#
# 1 0.014028 -0.000798 -0.013186 0.000000 0.000000 0.000000
# 2 -0.000798 0.018072 -0.009343 0.000000 0.000000 0.000000
# 3 -0.013186 -0.009343 0.037335 0.000000 0.000000 0.000000
# 4 0.000000 0.000000 0.000000 0.036609 0.000000 0.000000
# 5 0.000000 0.000000 0.000000 0.000000 0.030320 0.000000
# 6 0.000000 0.000000 0.000000 0.000000 0.000000 0.059937
#
#
# Mechanical properties :
#
#
# Convention : Reuss Voigt Hill
#
# Bulk Modulus (GPa) = 43.89395 51.72416 47.80906
# Shear Modulus (GPa) = 19.95640 24.27811 22.11725
#
# Velocity S-wave (km/s) = 3.42637 3.77921 3.60711
# Velocity P-wave (km/s) = 6.44014 7.03361 6.74341
#
# Compressibility (1/GPa) = 0.02278218
#
# Stress axis : x y z
#
# Youngs Moduli (GPa) = 71.28854 55.33479 26.78447
#
# Poissons Ratio (x) = 0.04414 0.35317
# Poissons Ratio (y) = 0.05687 0.25024
# Poissons Ratio (z) = 0.93998 0.51699
#
# Static dielectric constant tensor:
#      x y z
#    x 1.610130 0.000000 0.000000 
#    y 0.000000 1.580950 0.000000 
#    z 0.000000 0.000000 1.561080 
# 
# From -- ./inp_files/6670.got.cif
#   From: 2010.05.17/outbox.cif.g08.bks.cpg/sg57_4_cif.got.tgz:6670.got - 2010.06.03 13:58:18.
