data_PCOD9436711
_publ_section_title
;
Structure prediction by ZEFSAII (Michael W. Deem and Ramdas Pophale) SiO2 
 PCOD9436711
Probable space group: P B C M
;
_chemical_formula_sum "Si O2"
_cell_formula_units_Z 64
_cell_length_a 9.133134
_cell_length_b 23.050633
_cell_length_c 14.554688
_cell_angle_alpha 90.000000
_cell_angle_beta 90.000000
_cell_angle_gamma 90.000000
_cell_volume 3064.118705
_symmetry_space_group_name_H-M "P B C M"
_symmetry_group_IT_number 57
_symmetry_cell_setting 'orthorhombic'
loop_
_space_group_symop_operation_xyz
x,y,z
-x,-y,1/2+z
x,1/2-y,-z
-x,1/2+y,1/2-z
-x,-y,-z
x,y,1/2-z
-x,1/2+y,z
x,1/2-y,1/2+z
loop_
_atom_site_type_symbol
_atom_site_label
_atom_site_fract_x
_atom_site_fract_y
_atom_site_fract_z
Si Si1 0.490926 0.615114 0.952092
Si Si2 0.810350 0.075044 0.011101
Si Si3 0.653156 0.770793 0.395877
Si Si4 0.134750 0.670548 0.143005
Si Si5 0.998169 0.419699 0.143822
Si Si6 0.686817 0.522739 0.856969
Si Si7 0.484958 0.843085 0.650694
Si Si8 0.011055 0.212297 0.855003
O O1 0.554564 0.671447 0.900142
O O2 0.557491 0.559189 0.903053
O O3 0.316114 0.610500 0.957051
O O4 0.534531 0.622224 0.060009
O O5 0.903438 0.116462 0.078482
O O6 0.726351 0.031766 0.079666
O O7 0.907166 0.045535 0.932179
O O8 0.676093 0.750000 0.500000
O O9 0.569378 0.717765 0.349751
O O10 0.813828 0.781074 0.356563
O O11 0.090280 0.661979 0.250000
O O12 0.312030 0.671352 0.141224
O O13 0.065270 0.730213 0.105598
O O14 0.950189 0.426636 0.250000
O O15 0.167690 0.437182 0.141155
O O16 0.980400 0.352720 0.112497
O O17 0.659269 0.507766 0.750000
O O18 0.507050 0.872174 0.750000
O O19 0.958367 0.212105 0.750000
#
# Coordination Sequence:
#
# PCOD9436711 Si02
#       8
#     8   8   8   8   8   8   8   8
#     4  10  22  39  59  91 121 157 205 251 305 369
#     4  11  23  39  63  88 122 158 209 256 309 361
#     4  10  20  33  53  84 119 155 198 242 299 358
#     4   9  20  36  57  88 122 159 200 244 301 362
#     4  10  23  40  58  85 117 154 200 253 308 366
#     4  11  23  43  66  87 118 161 207 257 312 367
#     4   9  19  36  57  85 126 162 193 244 304 361
#     4  10  20  35  55  83 116 153 199 243 295 365
#
# _framework density 20.886918999999999
#
# number of rings (size 3 to 8) (size 9 to 14) (size 15 to 20)
#    0.000    2.000    1.250    1.500    3.500    1.500 
#    0.000    0.625    0.000    0.750    0.000    0.000 
#    0.000    0.000    0.000    0.000    0.000    0.000 
#
# Total GULP energy -357047.359493 kJ/mol
# GULP energy per Si atom -5578.864992 kJ/mol
# Density = 2.083938 g / cm^3
# Si number density = 20.886919 Si / 1000 Ang^3
#
#
#
# Elastic Constant Matrix: (Units=GPa)
#
#
# Indices 1 2 3 4 5 6 
#
# 1 41.2155 7.5936 32.0379 0.0000 0.0000 0.0000
# 2 7.5936 65.5253 15.0284 0.0000 0.0000 0.0000
# 3 32.0379 15.0284 103.0036 0.0000 0.0000 0.0000
# 4 0.0000 0.0000 0.0000 21.6568 0.0000 0.0000
# 5 0.0000 0.0000 0.0000 0.0000 29.0546 0.0000
# 6 0.0000 0.0000 0.0000 0.0000 0.0000 22.2618
#
#
#
# Elastic Compliance Matrix: (Units=1/GPa)
#
#
# Indices 1 2 3 4 5 6 
#
# 1 0.032138 -0.001481 -0.009780 0.000000 0.000000 0.000000
# 2 -0.001481 0.015858 -0.001853 0.000000 0.000000 0.000000
# 3 -0.009780 -0.001853 0.013021 0.000000 0.000000 0.000000
# 4 0.000000 0.000000 0.000000 0.046175 0.000000 0.000000
# 5 0.000000 0.000000 0.000000 0.000000 0.034418 0.000000
# 6 0.000000 0.000000 0.000000 0.000000 0.000000 0.044920
#
#
# Mechanical properties :
#
#
# Convention : Reuss Voigt Hill
#
# Bulk Modulus (GPa) = 28.74554 35.45157 32.09855
# Shear Modulus (GPa) = 22.28624 24.93360 23.60992
#
# Velocity S-wave (km/s) = 3.27003 3.45881 3.36574
# Velocity P-wave (km/s) = 5.29621 5.74117 5.52317
#
# Compressibility (1/GPa) = 0.03478801
#
# Stress axis : x y z
#
# Youngs Moduli (GPa) = 31.11596 63.05991 76.80101
#
# Poissons Ratio (x) = 0.09341 0.75111
# Poissons Ratio (y) = 0.04609 0.14231
# Poissons Ratio (z) = 0.30431 0.11685
#
# Static dielectric constant tensor:
#      x y z
#    x 1.716710 0.000000 0.000000 
#    y 0.000000 1.789180 0.000000 
#    z 0.000000 0.000000 1.784200 
# 
# From -- ./inp_files/16920.got.cif
#   From: 2010.05.17/outbox.cif.g08.bks.cpg/sg57_9_cif.got.tgz:16920.got - 2010.06.03 13:58:18.
