data_PCOD9436862
_publ_section_title
;
Structure prediction by ZEFSAII (Michael W. Deem and Ramdas Pophale) SiO2 
 PCOD9436862
Probable space group: P B C M
;
_chemical_formula_sum "Si O2"
_cell_formula_units_Z 48
_cell_length_a 10.724972
_cell_length_b 27.441316
_cell_length_c 7.674909
_cell_angle_alpha 90.000000
_cell_angle_beta 90.000000
_cell_angle_gamma 90.000000
_cell_volume 2258.782097
_symmetry_space_group_name_H-M "P B C M"
_symmetry_group_IT_number 57
_symmetry_cell_setting 'orthorhombic'
loop_
_space_group_symop_operation_xyz
x,y,z
-x,-y,1/2+z
x,1/2-y,-z
-x,1/2+y,1/2-z
-x,-y,-z
x,y,1/2-z
-x,1/2+y,z
x,1/2-y,1/2+z
loop_
_atom_site_type_symbol
_atom_site_label
_atom_site_fract_x
_atom_site_fract_y
_atom_site_fract_z
Si Si1 0.125732 0.470600 0.542229
Si Si2 0.131630 0.806968 0.459511
Si Si3 0.619297 0.361196 0.036174
Si Si4 0.628881 0.027037 0.540621
Si Si5 0.118641 0.357337 0.043543
Si Si6 0.369681 0.192889 0.959609
O O1 0.136050 0.468275 0.750000
O O2 0.249433 0.498171 0.474265
O O3 0.119188 0.415297 0.477569
O O4 0.000000 0.500000 0.500000
O O5 0.129506 0.750000 0.500000
O O6 0.132392 0.812411 0.250000
O O7 0.257980 0.832423 0.522791
O O8 0.007641 0.833477 0.528382
O O9 0.618485 0.361064 0.250000
O O10 0.624224 0.417238 0.978443
O O11 0.493975 0.334195 0.976837
O O12 0.640295 0.029116 0.750000
O O13 0.500000 0.000000 0.500000
O O14 0.118494 0.346957 0.250000
O O15 0.244275 0.332784 0.971870
O O16 0.370022 0.187813 0.750000
O O17 0.371215 0.250000 0.000000
#
# Coordination Sequence:
#
# PCOD9436862 Si02
#       6
#     8   8   8   8   8   8
#     4  11  23  38  59  86 115 149 189 234 282 334
#     4  10  20  35  55  78 106 141 180 224 274 327
#     4   9  18  34  54  75 104 141 176 215 270 330
#     4  10  21  38  59  83 112 147 187 230 279 334
#     4  10  21  37  56  78 108 146 183 223 276 332
#     4  10  20  34  54  78 105 140 178 220 271 325
#
# _framework density 21.250388999999998
#
# number of rings (size 3 to 8) (size 9 to 14) (size 15 to 20)
#    0.000    2.000    0.000    3.500    0.000    6.667 
#    0.000    1.667    0.000    0.000    0.000    0.000 
#    0.000    0.000    0.000    0.000    0.000    0.000 
#
# Total GULP energy -268329.681089 kJ/mol
# GULP energy per Si atom -5590.201689 kJ/mol
# Density = 2.120202 g / cm^3
# Si number density = 21.250389 Si / 1000 Ang^3
#
#
#
# Elastic Constant Matrix: (Units=GPa)
#
#
# Indices 1 2 3 4 5 6 
#
# 1 261.2250 145.4175 3.2410 0.0000 0.0000 0.0000
# 2 145.4175 211.9855 -17.8941 0.0000 0.0000 0.0000
# 3 3.2410 -17.8941 32.9945 0.0000 0.0000 0.0000
# 4 0.0000 0.0000 0.0000 28.5422 0.0000 0.0000
# 5 0.0000 0.0000 0.0000 0.0000 3.6168 0.0000
# 6 0.0000 0.0000 0.0000 0.0000 0.0000 50.6329
#
#
#
# Elastic Compliance Matrix: (Units=1/GPa)
#
#
# Indices 1 2 3 4 5 6 
#
# 1 0.006501 -0.004730 -0.003204 0.000000 0.000000 0.000000
# 2 -0.004730 0.008385 0.005012 0.000000 0.000000 0.000000
# 3 -0.003204 0.005012 0.033341 0.000000 0.000000 0.000000
# 4 0.000000 0.000000 0.000000 0.035036 0.000000 0.000000
# 5 0.000000 0.000000 0.000000 0.000000 0.276484 0.000000
# 6 0.000000 0.000000 0.000000 0.000000 0.000000 0.019750
#
#
# Mechanical properties :
#
#
# Convention : Reuss Voigt Hill
#
# Bulk Modulus (GPa) = 23.59394 85.30376 54.44885
# Shear Modulus (GPa) = 12.51665 41.58777 27.05221
#
# Velocity S-wave (km/s) = 2.42958 4.42864 3.57181
# Velocity P-wave (km/s) = 4.35860 8.14738 6.53365
#
# Compressibility (1/GPa) = 0.04238377
#
# Stress axis : x y z
#
# Youngs Moduli (GPa) = 153.82517 119.26063 29.99306
#
# Poissons Ratio (x) = 0.56409 0.09609
# Poissons Ratio (y) = 0.72758 -0.15033
# Poissons Ratio (z) = 0.49282 -0.59775
#
# Static dielectric constant tensor:
#      x y z
#    x 1.758400 0.000000 0.000000 
#    y 0.000000 1.700020 0.000000 
#    z 0.000000 0.000000 1.789280 
# 
# From -- ./inp_files/2026.got.cif
#   From: 2010.05.17/outbox.cif.g08.bks.cpg/sg57_2_cif.got.tgz:2026.got - 2010.06.03 13:58:18.
