data_PCOD9436288
_publ_section_title
;
Structure prediction by ZEFSAII (Michael W. Deem and Ramdas Pophale) SiO2 
 PCOD9436288
Probable space group: P B C M
;
_chemical_formula_sum "Si O2"
_cell_formula_units_Z 64
_cell_length_a 13.529153
_cell_length_b 9.525746
_cell_length_c 26.916715
_cell_angle_alpha 90.000000
_cell_angle_beta 90.000000
_cell_angle_gamma 90.000000
_cell_volume 3468.899050
_symmetry_space_group_name_H-M "P B C M"
_symmetry_group_IT_number 57
_symmetry_cell_setting 'orthorhombic'
loop_
_space_group_symop_operation_xyz
x,y,z
-x,-y,1/2+z
x,1/2-y,-z
-x,1/2+y,1/2-z
-x,-y,-z
x,y,1/2-z
-x,1/2+y,z
x,1/2-y,1/2+z
loop_
_atom_site_type_symbol
_atom_site_label
_atom_site_fract_x
_atom_site_fract_y
_atom_site_fract_z
Si Si1 0.278291 0.572187 0.372725
Si Si2 0.104489 0.820055 0.804097
Si Si3 0.600460 0.277664 0.307903
Si Si4 0.871280 0.446393 0.538818
Si Si5 0.072460 0.985378 0.337558
Si Si6 0.730159 0.553602 0.194135
Si Si7 0.625060 0.839357 0.192249
Si Si8 0.961060 0.348079 0.057232
O O1 0.186150 0.638210 0.343598
O O2 0.368179 0.672685 0.352557
O O3 0.230365 0.556666 0.428575
O O4 0.311134 0.426667 0.347188
O O5 0.142196 0.861410 0.750000
O O6 0.084316 0.654589 0.804743
O O7 0.007418 0.908321 0.816697
O O8 0.601088 0.220024 0.250000
O O9 0.678518 0.403828 0.309098
O O10 0.492500 0.345088 0.315331
O O11 0.875779 0.404653 0.480461
O O12 0.942309 0.318933 0.559429
O O13 0.931541 0.593345 0.540523
O O14 0.047300 0.918423 0.389892
O O15 0.177130 0.061896 0.341473
O O16 0.770789 0.570673 0.250000
O O17 0.652888 0.676591 0.186795
O O18 0.646380 0.880122 0.250000
#
# Coordination Sequence:
#
# PCOD9436288 Si02
#       8
#     8   8   8   8   8   8   8   8
#     4  12  21  36  56  84 112 151 191 235 291 345
#     4  12  24  35  51  79 117 156 188 224 270 343
#     4  10  19  36  57  78 110 148 191 239 287 342
#     4  10  21  35  59  81 109 144 192 243 284 329
#     4  12  22  37  53  76 112 154 188 222 278 336
#     4  10  20  34  51  75 107 143 183 222 269 337
#     4  10  22  35  54  82 112 148 190 239 287 343
#     4  10  19  38  55  81 109 146 191 238 282 332
#
# _framework density 18.449659
#
# number of rings (size 3 to 8) (size 9 to 14) (size 15 to 20)
#    0.000    1.250    3.750    3.000    1.750    3.000 
#    0.000    0.000    0.000    0.000    0.000   15.750 
#    0.000    0.000    0.000    0.000    0.000    0.000 
#
# Total GULP energy -356438.741849 kJ/mol
# GULP energy per Si atom -5569.355341 kJ/mol
# Density = 1.840767 g / cm^3
# Si number density = 18.449659 Si / 1000 Ang^3
#
#
#
# Elastic Constant Matrix: (Units=GPa)
#
#
# Indices 1 2 3 4 5 6 
#
# 1 51.6406 16.3023 -10.5058 0.0000 0.0000 0.0000
# 2 16.3023 52.7048 8.3934 0.0000 0.0000 0.0000
# 3 -10.5058 8.3934 46.3924 0.0000 0.0000 0.0000
# 4 0.0000 0.0000 0.0000 31.4472 0.0000 0.0000
# 5 0.0000 0.0000 0.0000 0.0000 22.3129 0.0000
# 6 0.0000 0.0000 0.0000 0.0000 0.0000 29.8074
#
#
#
# Elastic Compliance Matrix: (Units=1/GPa)
#
#
# Indices 1 2 3 4 5 6 
#
# 1 0.023371 -0.008311 0.006796 0.000000 0.000000 0.000000
# 2 -0.008311 0.022492 -0.005951 0.000000 0.000000 0.000000
# 3 0.006796 -0.005951 0.024171 0.000000 0.000000 0.000000
# 4 0.000000 0.000000 0.000000 0.031799 0.000000 0.000000
# 5 0.000000 0.000000 0.000000 0.000000 0.044817 0.000000
# 6 0.000000 0.000000 0.000000 0.000000 0.000000 0.033549
#
#
# Mechanical properties :
#
#
# Convention : Reuss Voigt Hill
#
# Bulk Modulus (GPa) = 18.14844 19.90194 19.02519
# Shear Modulus (GPa) = 23.41925 25.81670 24.61797
#
# Velocity S-wave (km/s) = 3.56667 3.74479 3.65681
# Velocity P-wave (km/s) = 5.17877 5.43217 5.30698
#
# Compressibility (1/GPa) = 0.05510114
#
# Stress axis : x y z
#
# Youngs Moduli (GPa) = 42.78804 44.45987 41.37182
#
# Poissons Ratio (x) = 0.36952 -0.28117
# Poissons Ratio (y) = 0.35562 0.24622
# Poissons Ratio (z) = -0.29080 0.26460
#
# Static dielectric constant tensor:
#      x y z
#    x 1.628290 0.000000 0.000000 
#    y 0.000000 1.661790 0.000000 
#    z 0.000000 0.000000 1.565210 
# 
# From -- ./inp_files/29896.got.cif
#   From: 2010.05.17/outbox.cif.g08.bks.cpg/sg57_15_cif.got.tgz:29896.got - 2010.06.03 13:58:18.
