data_PCOD9436300
_publ_section_title
;
Structure prediction by ZEFSAII (Michael W. Deem and Ramdas Pophale) SiO2 
 PCOD9436300
Probable space group: P B C M
;
_chemical_formula_sum "Si O2"
_cell_formula_units_Z 64
_cell_length_a 22.144606
_cell_length_b 18.233671
_cell_length_c 8.699524
_cell_angle_alpha 90.000000
_cell_angle_beta 90.000000
_cell_angle_gamma 90.000000
_cell_volume 3512.671706
_symmetry_space_group_name_H-M "P B C M"
_symmetry_group_IT_number 57
_symmetry_cell_setting 'orthorhombic'
loop_
_space_group_symop_operation_xyz
x,y,z
-x,-y,1/2+z
x,1/2-y,-z
-x,1/2+y,1/2-z
-x,-y,-z
x,y,1/2-z
-x,1/2+y,z
x,1/2-y,1/2+z
loop_
_atom_site_type_symbol
_atom_site_label
_atom_site_fract_x
_atom_site_fract_y
_atom_site_fract_z
Si Si1 0.611110 0.426381 0.063268
Si Si2 0.063577 0.474341 0.065788
Si Si3 0.727625 0.168252 0.565578
Si Si4 0.244577 0.096533 0.065063
Si Si5 0.812486 0.449922 0.566227
Si Si6 0.121060 0.328648 0.933741
Si Si7 0.497747 0.329981 0.065866
Si Si8 0.379633 0.403629 0.935607
O O1 0.612274 0.426857 0.250000
O O2 0.668797 0.378514 0.013682
O O3 0.549404 0.387108 0.014127
O O4 0.614387 0.511063 0.015675
O O5 0.061304 0.471486 0.250000
O O6 0.118917 0.528702 0.022238
O O7 0.081702 0.394738 0.001522
O O8 0.000000 0.500000 0.000000
O O9 0.725718 0.250000 0.500000
O O10 0.727175 0.171107 0.750000
O O11 0.785677 0.122875 0.509001
O O12 0.243967 0.085825 0.250000
O O13 0.190712 0.151880 0.024791
O O14 0.311824 0.120709 0.021807
O O15 0.227786 0.018761 0.989863
O O16 0.809239 0.444233 0.750000
O O17 0.116091 0.328622 0.750000
O O18 0.104330 0.250000 0.000000
O O19 0.498490 0.327004 0.250000
O O20 0.511518 0.250000 0.000000
O O21 0.432711 0.356809 0.008892
O O22 0.385179 0.400089 0.750000
#
# Coordination Sequence:
#
# PCOD9436300 Si02
#       8
#     8   8   8   8   8   8   8   8
#     4   9  19  36  58  79 106 141 184 230 280 338
#     4  10  21  38  61  88 118 153 194 234 275 329
#     4  11  21  36  57  83 113 147 184 230 283 336
#     4   9  18  34  57  81 110 147 182 223 279 334
#     4  10  20  35  56  84 115 145 182 227 270 325
#     4  10  20  35  57  86 118 154 192 233 282 332
#     4  11  23  38  53  75 105 143 185 232 284 337
#     4  10  19  36  58  81 108 142 182 230 282 338
#
# _framework density 18.219750000000001
#
# number of rings (size 3 to 8) (size 9 to 14) (size 15 to 20)
#    0.000    2.000    1.250    2.625    0.000    3.000 
#    0.000    4.375    0.000    3.000    0.000    0.000 
#    0.000    0.000    0.000    0.000    0.000    0.000 
#
# Total GULP energy -357384.313834 kJ/mol
# GULP energy per Si atom -5584.129904 kJ/mol
# Density = 1.817828 g / cm^3
# Si number density = 18.219750 Si / 1000 Ang^3
#
#
#
# Elastic Constant Matrix: (Units=GPa)
#
#
# Indices 1 2 3 4 5 6 
#
# 1 111.6979 14.5022 24.6964 0.0000 0.0000 0.0000
# 2 14.5022 41.4152 10.4096 0.0000 0.0000 0.0000
# 3 24.6964 10.4096 30.4580 0.0000 0.0000 0.0000
# 4 0.0000 0.0000 0.0000 30.7124 0.0000 0.0000
# 5 0.0000 0.0000 0.0000 0.0000 22.6014 0.0000
# 6 0.0000 0.0000 0.0000 0.0000 0.0000 18.6794
#
#
#
# Elastic Compliance Matrix: (Units=1/GPa)
#
#
# Indices 1 2 3 4 5 6 
#
# 1 0.011025 -0.001765 -0.008336 0.000000 0.000000 0.000000
# 2 -0.001765 0.026697 -0.007693 0.000000 0.000000 0.000000
# 3 -0.008336 -0.007693 0.042221 0.000000 0.000000 0.000000
# 4 0.000000 0.000000 0.000000 0.032560 0.000000 0.000000
# 5 0.000000 0.000000 0.000000 0.000000 0.044245 0.000000
# 6 0.000000 0.000000 0.000000 0.000000 0.000000 0.053535
#
#
# Mechanical properties :
#
#
# Convention : Reuss Voigt Hill
#
# Bulk Modulus (GPa) = 22.54582 31.42085 26.98333
# Shear Modulus (GPa) = 19.18229 23.32949 21.25589
#
# Velocity S-wave (km/s) = 3.24825 3.58222 3.41932
# Velocity P-wave (km/s) = 5.14485 5.86453 5.51644
#
# Compressibility (1/GPa) = 0.04435412
#
# Stress axis : x y z
#
# Youngs Moduli (GPa) = 90.70265 37.45671 23.68512
#
# Poissons Ratio (x) = 0.06612 0.19744
# Poissons Ratio (y) = 0.16012 0.18221
# Poissons Ratio (z) = 0.75611 0.28816
#
# Static dielectric constant tensor:
#      x y z
#    x 1.625380 0.000000 0.000000 
#    y 0.000000 1.595160 0.000000 
#    z 0.000000 0.000000 1.610500 
# 
# From -- ./inp_files/8585.got.cif
#   From: 2010.05.17/outbox.cif.g08.bks.cpg/sg57_5_cif.got.tgz:8585.got - 2010.06.03 13:58:18.
