data_PCOD9436115
_publ_section_title
;
Structure prediction by ZEFSAII (Michael W. Deem and Ramdas Pophale) SiO2 
 PCOD9436115
Probable space group: P B C M
;
_chemical_formula_sum "Si O2"
_cell_formula_units_Z 40
_cell_length_a 8.727852
_cell_length_b 10.111620
_cell_length_c 21.751094
_cell_angle_alpha 90.000000
_cell_angle_beta 90.000000
_cell_angle_gamma 90.000000
_cell_volume 1919.593270
_symmetry_space_group_name_H-M "P B C M"
_symmetry_group_IT_number 57
_symmetry_cell_setting 'orthorhombic'
loop_
_space_group_symop_operation_xyz
x,y,z
-x,-y,1/2+z
x,1/2-y,-z
-x,1/2+y,1/2-z
-x,-y,-z
x,y,1/2-z
-x,1/2+y,z
x,1/2-y,1/2+z
loop_
_atom_site_type_symbol
_atom_site_label
_atom_site_fract_x
_atom_site_fract_y
_atom_site_fract_z
Si Si1 0.090499 0.235699 0.927478
Si Si2 0.381734 0.894616 0.027085
Si Si3 0.166996 0.943196 0.572583
Si Si4 0.316704 0.287097 0.816176
Si Si5 0.530089 0.521775 0.646374
O O1 0.079524 0.079368 0.915899
O O2 0.215455 0.288309 0.878488
O O3 0.936235 0.316721 0.915539
O O4 0.134747 0.250000 0.000000
O O5 0.412159 0.908355 0.098624
O O6 0.416986 0.750000 0.000000
O O7 0.500000 0.000000 0.000000
O O8 0.218731 0.933518 0.998796
O O9 0.324850 0.954947 0.610817
O O10 0.233523 0.299517 0.750000
O O11 0.399355 0.144553 0.817272
O O12 0.438291 0.405723 0.820925
#
# Coordination Sequence:
#
# PCOD9436115 Si02
#       5
#     8   8   8   8   8
#     4  11  23  40  60  89 124 160 200 248 305 367
#     4  10  19  34  59  93 124 153 194 252 313 367
#     4  10  22  37  60  90 124 159 198 251 305 368
#     4  11  24  42  62  88 122 162 207 257 310 371
#     4  10  21  39  64  90 120 160 206 258 313 369
#
# _framework density 20.837748000000001
#
# number of rings (size 3 to 8) (size 9 to 14) (size 15 to 20)
#    0.000    1.600    0.000    5.400    0.000   10.400 
#    0.000    5.000    0.000    0.000    0.000    0.000 
#    0.000    0.000    0.000    0.000    0.000    0.000 
#
# Total GULP energy -223303.894595 kJ/mol
# GULP energy per Si atom -5582.597365 kJ/mol
# Density = 2.079032 g / cm^3
# Si number density = 20.837748 Si / 1000 Ang^3
#
#
#
# Elastic Constant Matrix: (Units=GPa)
#
#
# Indices 1 2 3 4 5 6 
#
# 1 81.0747 48.9969 28.3516 0.0000 0.0000 0.0000
# 2 48.9969 137.7546 23.3741 0.0000 0.0000 0.0000
# 3 28.3516 23.3741 112.8305 0.0000 0.0000 0.0000
# 4 0.0000 0.0000 0.0000 -4.6421 0.0000 0.0000
# 5 0.0000 0.0000 0.0000 0.0000 6.9789 0.0000
# 6 0.0000 0.0000 0.0000 0.0000 0.0000 43.5754
#
#
#
# Elastic Compliance Matrix: (Units=1/GPa)
#
#
# Indices 1 2 3 4 5 6 
#
# 1 0.016678 -0.005411 -0.003070 0.000000 0.000000 0.000000
# 2 -0.005411 0.009279 -0.000563 0.000000 0.000000 0.000000
# 3 -0.003070 -0.000563 0.009751 0.000000 0.000000 0.000000
# 4 0.000000 0.000000 0.000000 -0.215418 0.000000 0.000000
# 5 0.000000 0.000000 0.000000 0.000000 0.143288 0.000000
# 6 0.000000 0.000000 0.000000 0.000000 0.000000 0.022949
#
#
# Mechanical properties :
#
#
# Convention : Reuss Voigt Hill
#
# Bulk Modulus (GPa) = 56.75059 59.23389 57.99224
# Shear Modulus (GPa) = 476.72737 24.57826 250.65282
#
# Velocity S-wave (km/s) = 15.14191 3.43812 10.97948
# Velocity P-wave (km/s) = 18.24820 6.65198 13.73400
#
# Compressibility (1/GPa) = 0.01762096
#
# Stress axis : x y z
#
# Youngs Moduli (GPa) = 59.95917 107.76531 102.55598
#
# Poissons Ratio (x) = 0.58314 0.31483
# Poissons Ratio (y) = 0.32445 0.05770
# Poissons Ratio (z) = 0.18406 0.06063
#
# Static dielectric constant tensor:
#      x y z
#    x 1.754210 0.000000 0.000000 
#    y 0.000000 1.756730 0.000000 
#    z 0.000000 0.000000 1.826530 
# 
# From -- ./inp_files/24134.got.cif
#   From: 2010.05.17/outbox.cif.g08.bks.cpg/sg57_13_cif.got.tgz:24134.got - 2010.06.03 13:58:18.
