data_PCOD9436001
_publ_section_title
;
Structure prediction by ZEFSAII (Michael W. Deem and Ramdas Pophale) SiO2 
 PCOD9436001
Probable space group: P B C M
;
_chemical_formula_sum "Si O2"
_cell_formula_units_Z 64
_cell_length_a 21.673282
_cell_length_b 18.367986
_cell_length_c 8.333285
_cell_angle_alpha 90.000000
_cell_angle_beta 90.000000
_cell_angle_gamma 90.000000
_cell_volume 3317.435262
_symmetry_space_group_name_H-M "P B C M"
_symmetry_group_IT_number 57
_symmetry_cell_setting 'orthorhombic'
loop_
_space_group_symop_operation_xyz
x,y,z
-x,-y,1/2+z
x,1/2-y,-z
-x,1/2+y,1/2-z
-x,-y,-z
x,y,1/2-z
-x,1/2+y,z
x,1/2-y,1/2+z
loop_
_atom_site_type_symbol
_atom_site_label
_atom_site_fract_x
_atom_site_fract_y
_atom_site_fract_z
Si Si1 0.006581 0.583477 0.443480
Si Si2 0.859377 0.434302 0.555212
Si Si3 0.750772 0.330172 0.558950
Si Si4 0.372985 0.899960 0.441922
Si Si5 0.640323 0.933783 0.442749
Si Si6 0.748291 0.670002 0.058081
Si Si7 0.873565 0.899472 0.556371
Si Si8 0.506390 0.583424 0.556538
O O1 0.005962 0.585587 0.250000
O O2 0.942976 0.620701 0.500443
O O3 0.000000 0.500000 0.500000
O O4 0.075878 0.604322 0.494020
O O5 0.858145 0.437905 0.750000
O O6 0.800138 0.389583 0.498005
O O7 0.860522 0.516839 0.492146
O O8 0.766773 0.250000 0.500000
O O9 0.753892 0.331360 0.750000
O O10 0.681845 0.351343 0.508406
O O11 0.371850 0.895740 0.250000
O O12 0.442572 0.879727 0.499018
O O13 0.360468 0.983771 0.492014
O O14 0.641125 0.937907 0.250000
O O15 0.699018 0.889175 0.500324
O O16 0.575556 0.895407 0.494704
O O17 0.749238 0.669042 0.250000
O O18 0.816818 0.648985 0.997006
O O19 0.730911 0.750000 0.000000
O O20 0.873825 0.896009 0.750000
O O21 0.500000 0.500000 0.500000
O O22 0.505738 0.585422 0.750000
#
# Coordination Sequence:
#
# PCOD9436001 Si02
#       8
#     8   8   8   8   8   8   8   8
#     4   8  14  28  49  74 100 126 158 202 249 296
#     4   9  18  32  53  77 101 129 165 206 251 300
#     4  11  23  37  51  72 102 138 175 214 257 303
#     4  10  19  34  56  81 106 134 168 208 251 301
#     4  10  19  34  56  81 106 134 168 208 251 301
#     4  11  23  37  51  72 102 138 175 214 257 303
#     4   9  18  32  53  77 101 129 165 206 251 300
#     4   8  16  30  51  78 105 130 162 204 250 296
#
# _framework density 19.292012
#
# number of rings (size 3 to 8) (size 9 to 14) (size 15 to 20)
#    0.000    2.500    0.000    2.250    0.000    5.000 
#    0.000    1.250    0.000    0.000    0.000    0.000 
#    0.000    0.000    0.000    0.000    0.000    0.000 
#
# Total GULP energy -356642.793990 kJ/mol
# GULP energy per Si atom -5572.543656 kJ/mol
# Density = 1.924810 g / cm^3
# Si number density = 19.292012 Si / 1000 Ang^3
#
#
#
# Elastic Constant Matrix: (Units=GPa)
#
#
# Indices 1 2 3 4 5 6 
#
# 1 71.9538 -15.3658 5.1587 0.0000 0.0000 0.0000
# 2 -15.3658 13.7015 -4.3627 0.0000 0.0000 0.0000
# 3 5.1587 -4.3627 17.5330 0.0000 0.0000 0.0000
# 4 0.0000 0.0000 0.0000 23.0688 0.0000 0.0000
# 5 0.0000 0.0000 0.0000 0.0000 23.0076 0.0000
# 6 0.0000 0.0000 0.0000 0.0000 0.0000 0.9315
#
#
#
# Elastic Compliance Matrix: (Units=1/GPa)
#
#
# Indices 1 2 3 4 5 6 
#
# 1 0.018276 0.020400 -0.000301 0.000000 0.000000 0.000000
# 2 0.020400 0.102036 0.019387 0.000000 0.000000 0.000000
# 3 -0.000301 0.019387 0.061948 0.000000 0.000000 0.000000
# 4 0.000000 0.000000 0.000000 0.043349 0.000000 0.000000
# 5 0.000000 0.000000 0.000000 0.000000 0.043464 0.000000
# 6 0.000000 0.000000 0.000000 0.000000 0.000000 1.073530
#
#
# Mechanical properties :
#
#
# Convention : Reuss Voigt Hill
#
# Bulk Modulus (GPa) = 3.82801 8.22762 6.02782
# Shear Modulus (GPa) = 3.70176 17.25212 10.47694
#
# Velocity S-wave (km/s) = 1.38671 2.99367 2.33292
# Velocity P-wave (km/s) = 2.13366 4.02783 3.22304
#
# Compressibility (1/GPa) = 0.26123211
#
# Stress axis : x y z
#
# Youngs Moduli (GPa) = 54.71715 9.80047 16.14252
#
# Poissons Ratio (x) = -0.19993 0.00486
# Poissons Ratio (y) = -1.11622 -0.31296
# Poissons Ratio (z) = 0.01648 -0.19001
#
# Static dielectric constant tensor:
#      x y z
#    x 1.754260 0.000000 0.000000 
#    y 0.000000 1.635420 0.000000 
#    z 0.000000 0.000000 1.671390 
# 
# From -- ./inp_files/8617.got.cif
#   From: 2010.05.17/outbox.cif.g08.bks.cpg/sg57_5_cif.got.tgz:8617.got - 2010.06.03 13:58:18.
