data_PCOD9436474
_publ_section_title
;
Structure prediction by ZEFSAII (Michael W. Deem and Ramdas Pophale) SiO2 
 PCOD9436474
Probable space group: P B C M
;
_chemical_formula_sum "Si O2"
_cell_formula_units_Z 24
_cell_length_a 9.914685
_cell_length_b 18.212688
_cell_length_c 5.576799
_cell_angle_alpha 90.000000
_cell_angle_beta 90.000000
_cell_angle_gamma 90.000000
_cell_volume 1007.019686
_symmetry_space_group_name_H-M "P B C M"
_symmetry_group_IT_number 57
_symmetry_cell_setting 'orthorhombic'
loop_
_space_group_symop_operation_xyz
x,y,z
-x,-y,1/2+z
x,1/2-y,-z
-x,1/2+y,1/2-z
-x,-y,-z
x,y,1/2-z
-x,1/2+y,z
x,1/2-y,1/2+z
loop_
_atom_site_type_symbol
_atom_site_label
_atom_site_fract_x
_atom_site_fract_y
_atom_site_fract_z
Si Si1 0.997807 0.930684 0.750000
Si Si2 0.683950 0.471845 0.750000
Si Si3 0.638887 0.106674 0.750000
Si Si4 0.060442 0.902128 0.250000
Si Si5 0.171386 0.250000 0.500000
Si Si6 0.645275 0.854481 0.250000
O O1 0.981198 0.890197 0.497102
O O2 0.156640 0.952446 0.750000
O O3 0.918420 0.007986 0.750000
O O4 0.627843 0.438441 0.500694
O O5 0.663479 0.558561 0.750000
O O6 0.793548 0.134942 0.750000
O O7 0.513557 0.161583 0.750000
O O8 0.094023 0.247483 0.250000
O O9 0.276591 0.182583 0.529323
#
# Coordination Sequence:
#
# PCOD9436474 Si02
#       6
#     4   4   4   4   4   4
#     4   8  14  26  39  57  85 113 140 161 197 257
#     4  10  20  27  44  69  91 116 132 174 225 254
#     4  10  20  27  44  69  91 116 132 174 225 254
#     4   8  14  26  39  57  85 113 140 161 197 257
#     4   8  20  32  46  58  78 120 152 178 202 238
#     4  10  20  32  46  62  92 108 154 174 210 260
#
# _framework density 23.832702000000001
#
# number of rings (size 3 to 8) (size 9 to 14) (size 15 to 20)
#    1.000    2.000    0.000    1.000    4.667    0.000 
#    0.000    0.000    0.000    0.000    0.000    2.333 
#    0.000    0.000    0.000    0.000    0.000    0.000 
#
# Total GULP energy -133884.323554 kJ/mol
# GULP energy per Si atom -5578.513481 kJ/mol
# Density = 2.377846 g / cm^3
# Si number density = 23.832702 Si / 1000 Ang^3
#
#
#
# Elastic Constant Matrix: (Units=GPa)
#
#
# Indices 1 2 3 4 5 6 
#
# 1 123.9635 16.7437 11.9670 0.0000 0.0000 0.0000
# 2 16.7437 31.4595 28.3838 0.0000 0.0000 0.0000
# 3 11.9670 28.3838 243.5225 0.0000 0.0000 0.0000
# 4 0.0000 0.0000 0.0000 36.2666 0.0000 0.0000
# 5 0.0000 0.0000 0.0000 0.0000 15.7009 0.0000
# 6 0.0000 0.0000 0.0000 0.0000 0.0000 20.4986
#
#
#
# Elastic Compliance Matrix: (Units=1/GPa)
#
#
# Indices 1 2 3 4 5 6 
#
# 1 0.008695 -0.004741 0.000125 0.000000 0.000000 0.000000
# 2 -0.004741 0.038107 -0.004209 0.000000 0.000000 0.000000
# 3 0.000125 -0.004209 0.004591 0.000000 0.000000 0.000000
# 4 0.000000 0.000000 0.000000 0.027574 0.000000 0.000000
# 5 0.000000 0.000000 0.000000 0.000000 0.063691 0.000000
# 6 0.000000 0.000000 0.000000 0.000000 0.000000 0.048784
#
#
# Mechanical properties :
#
#
# Convention : Reuss Voigt Hill
#
# Bulk Modulus (GPa) = 29.63422 57.01495 43.32459
# Shear Modulus (GPa) = 22.69242 37.28328 29.98785
#
# Velocity S-wave (km/s) = 3.08905 3.95951 3.55105
# Velocity P-wave (km/s) = 5.01839 6.69914 5.91873
#
# Compressibility (1/GPa) = 0.03374477
#
# Stress axis : x y z
#
# Youngs Moduli (GPa) = 115.00671 26.24173 217.82812
#
# Poissons Ratio (x) = 0.12441 -0.02729
# Poissons Ratio (y) = 0.54523 0.91676
# Poissons Ratio (z) = -0.01441 0.11044
#
# Static dielectric constant tensor:
#      x y z
#    x 1.865710 0.000000 0.000000 
#    y 0.000000 1.922320 0.000000 
#    z 0.000000 0.000000 2.005090 
# 
# From -- ./inp_files/328.got.cif
#   From: 2010.05.17/outbox.cif.g08.bks.cpg/sg57_1_cif.got.tgz:328.got - 2010.06.03 13:58:18.
