data_PCOD9436861
_publ_section_title
;
Structure prediction by ZEFSAII (Michael W. Deem and Ramdas Pophale) SiO2 
 PCOD9436861
Probable space group: P B C M
;
_chemical_formula_sum "Si O2"
_cell_formula_units_Z 56
_cell_length_a 19.613427
_cell_length_b 14.359770
_cell_length_c 10.248258
_cell_angle_alpha 90.000000
_cell_angle_beta 90.000000
_cell_angle_gamma 90.000000
_cell_volume 2886.363457
_symmetry_space_group_name_H-M "P B C M"
_symmetry_group_IT_number 57
_symmetry_cell_setting 'orthorhombic'
loop_
_space_group_symop_operation_xyz
x,y,z
-x,-y,1/2+z
x,1/2-y,-z
-x,1/2+y,1/2-z
-x,-y,-z
x,y,1/2-z
-x,1/2+y,z
x,1/2-y,1/2+z
loop_
_atom_site_type_symbol
_atom_site_label
_atom_site_fract_x
_atom_site_fract_y
_atom_site_fract_z
Si Si1 0.119833 0.160911 0.593393
Si Si2 0.464905 0.149995 0.464283
Si Si3 0.313124 0.318563 0.612373
Si Si4 0.411267 0.523844 0.391638
Si Si5 0.298474 0.962942 0.397665
Si Si6 0.956418 0.330411 0.398516
Si Si7 0.151274 0.990959 0.404749
O O1 0.135928 0.250000 0.500000
O O2 0.138663 0.167058 0.750000
O O3 0.037352 0.152185 0.591551
O O4 0.147952 0.072346 0.512403
O O5 0.495239 0.250000 0.500000
O O6 0.395581 0.174911 0.388919
O O7 0.521731 0.087914 0.395701
O O8 0.436629 0.081259 0.577380
O O9 0.292082 0.250000 0.500000
O O10 0.288819 0.281482 0.750000
O O11 0.290912 0.424542 0.597465
O O12 0.378759 0.526554 0.250000
O O13 0.358175 0.557412 0.500903
O O14 0.319250 0.937815 0.250000
O O15 0.221336 0.931981 0.422952
O O16 0.938097 0.250000 0.500000
O O17 0.942101 0.299639 0.250000
O O18 0.913194 0.423536 0.421700
O O19 0.151630 0.022645 0.250000
#
# Coordination Sequence:
#
# PCOD9436861 Si02
#       7
#     8   8   8   8   8   8   8
#     4  10  20  34  54  83 113 140 171 214 265 317
#     4   9  19  33  52  76 103 132 163 207 267 317
#     4   9  17  30  48  70  96 127 164 206 253 307
#     4  10  20  34  54  78 102 131 173 219 256 304
#     4   9  20  36  50  68 102 142 172 206 259 311
#     4   9  19  35  56  80 107 138 176 222 270 316
#     4  10  20  36  56  77 104 142 182 219 262 314
#
# _framework density 19.401575999999999
#
# number of rings (size 3 to 8) (size 9 to 14) (size 15 to 20)
#    0.000    2.571    0.000    1.286    0.000   11.429 
#    0.000    2.143    0.000    1.714    0.000    0.000 
#    0.000    0.000    0.000    0.000    0.000    0.000 
#
# Total GULP energy -311967.478712 kJ/mol
# GULP energy per Si atom -5570.847834 kJ/mol
# Density = 1.935742 g / cm^3
# Si number density = 19.401576 Si / 1000 Ang^3
#
#
#
# Elastic Constant Matrix: (Units=GPa)
#
#
# Indices 1 2 3 4 5 6 
#
# 1 78.6380 17.1171 45.8200 0.0000 0.0000 0.0000
# 2 17.1171 43.9941 26.2952 0.0000 0.0000 0.0000
# 3 45.8200 26.2952 128.8536 0.0000 0.0000 0.0000
# 4 0.0000 0.0000 0.0000 15.3733 0.0000 0.0000
# 5 0.0000 0.0000 0.0000 0.0000 15.8594 0.0000
# 6 0.0000 0.0000 0.0000 0.0000 0.0000 -3.0989
#
#
#
# Elastic Compliance Matrix: (Units=1/GPa)
#
#
# Indices 1 2 3 4 5 6 
#
# 1 0.016452 -0.003308 -0.005175 0.000000 0.000000 0.000000
# 2 -0.003308 0.026553 -0.004242 0.000000 0.000000 0.000000
# 3 -0.005175 -0.004242 0.010467 0.000000 0.000000 0.000000
# 4 0.000000 0.000000 0.000000 0.065048 0.000000 0.000000
# 5 0.000000 0.000000 0.000000 0.000000 0.063054 0.000000
# 6 0.000000 0.000000 0.000000 0.000000 0.000000 -0.322695
#
#
# Mechanical properties :
#
#
# Convention : Reuss Voigt Hill
#
# Bulk Modulus (GPa) = 35.68784 47.77227 41.73005
# Shear Modulus (GPa) = -47.02344 16.44364 -15.28990
#
# Velocity S-wave (km/s) = -4.92844 2.91441 -2.81031
# Velocity P-wave (km/s) = 3.73521 6.00012 3.32036
#
# Compressibility (1/GPa) = 0.02802075
#
# Stress axis : x y z
#
# Youngs Moduli (GPa) = 60.78296 37.66050 95.54011
#
# Poissons Ratio (x) = 0.12458 0.49444
# Poissons Ratio (y) = 0.20106 0.40532
# Poissons Ratio (z) = 0.31457 0.15977
#
# Static dielectric constant tensor:
#      x y z
#    x 1.703530 0.000000 0.000000 
#    y 0.000000 1.680870 0.000000 
#    z 0.000000 0.000000 1.668380 
# 
# From -- ./inp_files/8080.got.cif
#   From: 2010.05.17/outbox.cif.g08.bks.cpg/sg57_5_cif.got.tgz:8080.got - 2010.06.03 13:58:18.
