data_PCOD9437362
_publ_section_title
;
Structure prediction by ZEFSAII (Michael W. Deem and Ramdas Pophale) SiO2 
 PCOD9437362
Probable space group: P B C M
;
_chemical_formula_sum "Si O2"
_cell_formula_units_Z 64
_cell_length_a 9.655661
_cell_length_b 14.627932
_cell_length_c 24.466140
_cell_angle_alpha 90.000000
_cell_angle_beta 90.000000
_cell_angle_gamma 90.000000
_cell_volume 3455.655171
_symmetry_space_group_name_H-M "P B C M"
_symmetry_group_IT_number 57
_symmetry_cell_setting 'orthorhombic'
loop_
_space_group_symop_operation_xyz
x,y,z
-x,-y,1/2+z
x,1/2-y,-z
-x,1/2+y,1/2-z
-x,-y,-z
x,y,1/2-z
-x,1/2+y,z
x,1/2-y,1/2+z
loop_
_atom_site_type_symbol
_atom_site_label
_atom_site_fract_x
_atom_site_fract_y
_atom_site_fract_z
Si Si1 0.166012 0.843624 0.685712
Si Si2 0.845554 0.845039 0.686154
Si Si3 0.328346 0.483878 0.618281
Si Si4 0.989435 0.149486 0.974637
Si Si5 0.828531 0.873436 0.311477
Si Si6 0.879917 0.359237 0.148428
Si Si7 0.651818 0.013115 0.378829
Si Si8 0.772495 0.995516 0.005136
O O1 0.190512 0.860981 0.750000
O O2 0.171353 0.735411 0.674107
O O3 0.270571 0.900522 0.648494
O O4 0.005669 0.868726 0.673205
O O5 0.820757 0.868141 0.750000
O O6 0.743953 0.896913 0.645952
O O7 0.827833 0.735847 0.680788
O O8 0.244171 0.570275 0.641753
O O9 0.489294 0.487626 0.632494
O O10 0.301622 0.483538 0.553083
O O11 0.946357 0.158214 0.911358
O O12 0.130416 0.092297 0.982671
O O13 0.996649 0.250000 0.000000
O O14 0.872720 0.084152 0.001340
O O15 0.782948 0.894950 0.250000
O O16 0.990266 0.899415 0.318048
O O17 0.732014 0.926618 0.353215
O O18 0.673321 0.010878 0.443779
#
# Coordination Sequence:
#
# PCOD9437362 Si02
#       8
#     8   8   8   8   8   8   8   8
#     4  10  22  39  64  90 117 155 202 250 300 351
#     4   9  21  40  62  88 116 152 199 254 299 347
#     4  11  25  38  59  86 124 161 196 238 298 359
#     4  10  20  35  62  93 111 145 193 252 297 341
#     4  10  21  39  62  86 115 151 200 250 298 347
#     4  10  20  39  61  89 116 148 197 251 301 344
#     4  12  23  40  57  85 124 165 193 238 296 360
#     4  10  23  38  57  88 121 153 198 241 292 356
#
# _framework density 18.520365999999999
#
# number of rings (size 3 to 8) (size 9 to 14) (size 15 to 20)
#    0.000    1.750    1.250    3.375    7.000    4.000 
#    0.000    1.250    0.000    4.500    0.000    0.000 
#    0.000    0.000    0.000    0.000    0.000    0.000 
#
# Total GULP energy -357535.812684 kJ/mol
# GULP energy per Si atom -5586.497073 kJ/mol
# Density = 1.847821 g / cm^3
# Si number density = 18.520366 Si / 1000 Ang^3
#
#
#
# Elastic Constant Matrix: (Units=GPa)
#
#
# Indices 1 2 3 4 5 6 
#
# 1 122.0702 40.9876 57.3655 0.0000 0.0000 0.0000
# 2 40.9876 79.5660 38.1721 0.0000 0.0000 0.0000
# 3 57.3655 38.1721 77.2482 0.0000 0.0000 0.0000
# 4 0.0000 0.0000 0.0000 24.1587 0.0000 0.0000
# 5 0.0000 0.0000 0.0000 0.0000 6.0606 0.0000
# 6 0.0000 0.0000 0.0000 0.0000 0.0000 57.4987
#
#
#
# Elastic Compliance Matrix: (Units=1/GPa)
#
#
# Indices 1 2 3 4 5 6 
#
# 1 0.013014 -0.002710 -0.008326 0.000000 0.000000 0.000000
# 2 -0.002710 0.017038 -0.006407 0.000000 0.000000 0.000000
# 3 -0.008326 -0.006407 0.022294 0.000000 0.000000 0.000000
# 4 0.000000 0.000000 0.000000 0.041393 0.000000 0.000000
# 5 0.000000 0.000000 0.000000 0.000000 0.165000 0.000000
# 6 0.000000 0.000000 0.000000 0.000000 0.000000 0.017392
#
#
# Mechanical properties :
#
#
# Convention : Reuss Voigt Hill
#
# Bulk Modulus (GPa) = 57.26879 61.32609 59.29744
# Shear Modulus (GPa) = 15.78106 27.03421 21.40763
#
# Velocity S-wave (km/s) = 2.92223 3.82475 3.40354
# Velocity P-wave (km/s) = 6.50961 7.25876 6.89437
#
# Compressibility (1/GPa) = 0.01746152
#
# Stress axis : x y z
#
# Youngs Moduli (GPa) = 76.83771 58.69269 44.85551
#
# Poissons Ratio (x) = 0.15906 0.37345
# Poissons Ratio (y) = 0.20823 0.28738
# Poissons Ratio (z) = 0.63971 0.37603
#
# Static dielectric constant tensor:
#      x y z
#    x 1.599190 0.000000 0.000000 
#    y 0.000000 1.630270 0.000000 
#    z 0.000000 0.000000 1.636520 
# 
# From -- ./inp_files/26880.got.cif
#   From: 2010.05.17/outbox.cif.g08.bks.cpg/sg57_14_cif.got.tgz:26880.got - 2010.06.03 13:58:18.
