data_PCOD9437214
_publ_section_title
;
Structure prediction by ZEFSAII (Michael W. Deem and Ramdas Pophale) SiO2 
 PCOD9437214
Probable space group: P B C M
;
_chemical_formula_sum "Si O2"
_cell_formula_units_Z 60
_cell_length_a 30.659274
_cell_length_b 5.324506
_cell_length_c 18.068082
_cell_angle_alpha 90.000000
_cell_angle_beta 90.000000
_cell_angle_gamma 90.000000
_cell_volume 2949.532870
_symmetry_space_group_name_H-M "P B C M"
_symmetry_group_IT_number 57
_symmetry_cell_setting 'orthorhombic'
loop_
_space_group_symop_operation_xyz
x,y,z
-x,-y,1/2+z
x,1/2-y,-z
-x,1/2+y,1/2-z
-x,-y,-z
x,y,1/2-z
-x,1/2+y,z
x,1/2-y,1/2+z
loop_
_atom_site_type_symbol
_atom_site_label
_atom_site_fract_x
_atom_site_fract_y
_atom_site_fract_z
Si Si1 0.377766 0.867718 0.610896
Si Si2 0.336151 0.344965 0.833009
Si Si3 0.107749 0.583035 0.337830
Si Si4 0.685729 0.250000 0.000000
Si Si5 0.254557 0.109190 0.077826
Si Si6 0.018276 0.984882 0.585354
Si Si7 0.528456 0.169628 0.337151
Si Si8 0.835221 0.918015 0.663483
O O1 0.359694 0.590926 0.632628
O O2 0.349073 0.936448 0.538083
O O3 0.429554 0.844740 0.610191
O O4 0.366692 0.100921 0.663668
O O5 0.326200 0.419878 0.750000
O O6 0.290305 0.263581 0.869702
O O7 0.093688 0.581431 0.250000
O O8 0.068192 0.574941 0.396524
O O9 0.137270 0.336025 0.349402
O O10 0.135259 0.836467 0.349811
O O11 0.719557 0.146102 0.940130
O O12 0.208097 0.077083 0.114810
O O13 0.250367 0.250000 0.000000
O O14 0.991520 0.755246 0.619422
O O15 0.000000 0.000000 0.500000
O O16 0.542848 0.169522 0.250000
O O17 0.501737 0.426127 0.348197
O O18 0.822739 0.920844 0.750000
#
# Coordination Sequence:
#
# PCOD9437214 Si02
#       8
#     8   8   8   4   8   8   8   8
#     4  11  22  39  61  85 124 157 200 249 309 364
#     4  11  22  37  63  90 118 158 207 254 301 358
#     4  10  22  42  64  91 123 164 205 254 309 364
#     4  10  24  42  60  88 126 164 204 252 300 378
#     4  11  23  42  60  92 124 164 203 250 308 363
#     4  10  21  39  60  90 127 158 203 255 302 358
#     4  10  20  35  56  84 115 148 194 250 304 361
#     4  10  23  42  65  91 126 163 209 255 303 363
#
# _framework density 20.342205
#
# number of rings (size 3 to 8) (size 9 to 14) (size 15 to 20)
#    0.000    1.600    1.333    3.200    1.867    1.600 
#    7.200    3.333    0.000    0.000    0.000    0.000 
#    0.000    0.000    0.000    0.000    0.000    0.000 
#
# Total GULP energy -334354.013529 kJ/mol
# GULP energy per Si atom -5572.566892 kJ/mol
# Density = 2.029591 g / cm^3
# Si number density = 20.342205 Si / 1000 Ang^3
#
#
#
# Elastic Constant Matrix: (Units=GPa)
#
#
# Indices 1 2 3 4 5 6 
#
# 1 118.5256 29.2175 44.6672 0.0000 0.0000 0.0000
# 2 29.2175 119.2688 12.3214 0.0000 0.0000 0.0000
# 3 44.6672 12.3214 52.5571 0.0000 0.0000 0.0000
# 4 0.0000 0.0000 0.0000 20.6582 0.0000 0.0000
# 5 0.0000 0.0000 0.0000 0.0000 33.7344 0.0000
# 6 0.0000 0.0000 0.0000 0.0000 0.0000 28.8507
#
#
#
# Elastic Compliance Matrix: (Units=1/GPa)
#
#
# Indices 1 2 3 4 5 6 
#
# 1 0.012896 -0.002077 -0.010473 0.000000 0.000000 0.000000
# 2 -0.002077 0.008927 -0.000327 0.000000 0.000000 0.000000
# 3 -0.010473 -0.000327 0.028004 0.000000 0.000000 0.000000
# 4 0.000000 0.000000 0.000000 0.048407 0.000000 0.000000
# 5 0.000000 0.000000 0.000000 0.000000 0.029643 0.000000
# 6 0.000000 0.000000 0.000000 0.000000 0.000000 0.034661
#
#
# Mechanical properties :
#
#
# Convention : Reuss Voigt Hill
#
# Bulk Modulus (GPa) = 41.54180 51.41819 46.47999
# Shear Modulus (GPa) = 25.46887 30.25836 27.86362
#
# Velocity S-wave (km/s) = 3.54223 3.86095 3.70502
# Velocity P-wave (km/s) = 6.09883 6.72365 6.41884
#
# Compressibility (1/GPa) = 0.02407214
#
# Stress axis : x y z
#
# Youngs Moduli (GPa) = 77.54437 112.01842 35.70866
#
# Poissons Ratio (x) = 0.23268 0.37397
# Poissons Ratio (y) = 0.16107 0.01169
# Poissons Ratio (z) = 0.81212 0.03668
#
# Static dielectric constant tensor:
#      x y z
#    x 1.682110 0.000000 0.000000 
#    y 0.000000 1.771050 0.000000 
#    z 0.000000 0.000000 1.809270 
# 
# From -- ./inp_files/23158.got.cif
#   From: 2010.05.17/outbox.cif.g08.bks.cpg/sg57_12_cif.got.tgz:23158.got - 2010.06.03 13:58:18.
