data_PCOD9437348
_publ_section_title
;
Structure prediction by ZEFSAII (Michael W. Deem and Ramdas Pophale) SiO2 
 PCOD9437348
Probable space group: P B C M
;
_chemical_formula_sum "Si O2"
_cell_formula_units_Z 40
_cell_length_a 14.597732
_cell_length_b 15.883893
_cell_length_c 8.737606
_cell_angle_alpha 90.000000
_cell_angle_beta 90.000000
_cell_angle_gamma 90.000000
_cell_volume 2025.978333
_symmetry_space_group_name_H-M "P B C M"
_symmetry_group_IT_number 57
_symmetry_cell_setting 'orthorhombic'
loop_
_space_group_symop_operation_xyz
x,y,z
-x,-y,1/2+z
x,1/2-y,-z
-x,1/2+y,1/2-z
-x,-y,-z
x,y,1/2-z
-x,1/2+y,z
x,1/2-y,1/2+z
loop_
_atom_site_type_symbol
_atom_site_label
_atom_site_fract_x
_atom_site_fract_y
_atom_site_fract_z
Si Si1 0.898326 0.003586 0.933512
Si Si2 0.604916 0.097147 0.932194
Si Si3 0.602451 0.590878 0.566934
Si Si4 0.788386 0.161540 0.068354
Si Si5 0.783457 0.663440 0.066966
O O1 0.900822 0.010081 0.750000
O O2 0.844218 0.917865 0.973243
O O3 0.844273 0.083218 0.000395
O O4 0.000000 0.000000 0.000000
O O5 0.620980 0.102054 0.750000
O O6 0.500268 0.123559 0.964926
O O7 0.682825 0.148031 0.019089
O O8 0.611907 0.999926 0.985705
O O9 0.610654 0.579706 0.750000
O O10 0.683282 0.648405 0.504549
O O11 0.796194 0.162159 0.250000
O O12 0.821115 0.250000 0.000000
O O13 0.776704 0.668593 0.250000
O O14 0.822265 0.750000 0.000000
#
# Coordination Sequence:
#
# PCOD9437348 Si02
#       5
#     8   8   8   8   8
#     4  11  25  46  70  96 127 165 209 263 323 385
#     4  10  20  36  59  91 129 169 214 260 309 373
#     4  10  20  35  60  91 127 171 214 257 311 372
#     4  12  25  42  67  96 129 170 214 264 320 380
#     4  11  24  41  65  94 129 167 211 261 313 374
#
# _framework density 19.743547
#
# number of rings (size 3 to 8) (size 9 to 14) (size 15 to 20)
#    0.000    1.200    2.000    4.200    0.000    6.400 
#    0.000    2.000    0.000    0.000    0.000    0.000 
#    0.000    0.000    0.000    0.000    0.000    0.000 
#
# Total GULP energy -223766.506300 kJ/mol
# GULP energy per Si atom -5594.162657 kJ/mol
# Density = 1.969861 g / cm^3
# Si number density = 19.743547 Si / 1000 Ang^3
#
#
#
# Elastic Constant Matrix: (Units=GPa)
#
#
# Indices 1 2 3 4 5 6 
#
# 1 116.5841 72.7456 60.7146 0.0000 0.0000 0.0000
# 2 72.7456 155.0384 68.6061 0.0000 0.0000 0.0000
# 3 60.7146 68.6061 98.4579 0.0000 0.0000 0.0000
# 4 0.0000 0.0000 0.0000 34.5515 0.0000 0.0000
# 5 0.0000 0.0000 0.0000 0.0000 28.6529 0.0000
# 6 0.0000 0.0000 0.0000 0.0000 0.0000 -3.8757
#
#
#
# Elastic Compliance Matrix: (Units=1/GPa)
#
#
# Indices 1 2 3 4 5 6 
#
# 1 0.014184 -0.004026 -0.005941 0.000000 0.000000 0.000000
# 2 -0.004026 0.010468 -0.004812 0.000000 0.000000 0.000000
# 3 -0.005941 -0.004812 0.017173 0.000000 0.000000 0.000000
# 4 0.000000 0.000000 0.000000 0.028942 0.000000 0.000000
# 5 0.000000 0.000000 0.000000 0.000000 0.034901 0.000000
# 6 0.000000 0.000000 0.000000 0.000000 0.000000 -0.258016
#
#
# Mechanical properties :
#
#
# Convention : Reuss Voigt Hill
#
# Bulk Modulus (GPa) = 81.51709 86.02368 83.77039
# Shear Modulus (GPa) = -42.12243 23.06666 -9.52789
#
# Velocity S-wave (km/s) = -4.62397 3.42177 -2.19916
# Velocity P-wave (km/s) = 3.58740 7.69912 6.00608
#
# Compressibility (1/GPa) = 0.01226737
#
# Stress axis : x y z
#
# Youngs Moduli (GPa) = 70.50356 95.52612 58.23118
#
# Poissons Ratio (x) = 0.38461 0.34595
# Poissons Ratio (y) = 0.28386 0.28019
# Poissons Ratio (z) = 0.41886 0.45964
#
# Static dielectric constant tensor:
#      x y z
#    x 1.681690 0.000000 0.000000 
#    y 0.000000 1.699530 0.000000 
#    z 0.000000 0.000000 1.653510 
# 
# From -- ./inp_files/2687.got.cif
#   From: 2010.05.17/outbox.cif.g08.bks.cpg/sg57_2_cif.got.tgz:2687.got - 2010.06.03 13:58:18.
