data_PCOD9437237
_publ_section_title
;
Structure prediction by ZEFSAII (Michael W. Deem and Ramdas Pophale) SiO2 
 PCOD9437237
Probable space group: P B C M
;
_chemical_formula_sum "Si O2"
_cell_formula_units_Z 32
_cell_length_a 7.958928
_cell_length_b 13.885700
_cell_length_c 14.634343
_cell_angle_alpha 90.000000
_cell_angle_beta 90.000000
_cell_angle_gamma 90.000000
_cell_volume 1617.318610
_symmetry_space_group_name_H-M "P B C M"
_symmetry_group_IT_number 57
_symmetry_cell_setting 'orthorhombic'
loop_
_space_group_symop_operation_xyz
x,y,z
-x,-y,1/2+z
x,1/2-y,-z
-x,1/2+y,1/2-z
-x,-y,-z
x,y,1/2-z
-x,1/2+y,z
x,1/2-y,1/2+z
loop_
_atom_site_type_symbol
_atom_site_label
_atom_site_fract_x
_atom_site_fract_y
_atom_site_fract_z
Si Si1 0.519492 0.111409 0.026611
Si Si2 0.206733 0.417051 0.858142
Si Si3 0.298835 0.640831 0.645896
Si Si4 0.153582 0.839592 0.857386
O O1 0.352733 0.133474 0.083590
O O2 0.686168 0.122898 0.087511
O O3 0.559767 0.161605 0.930020
O O4 0.500000 0.000000 0.000000
O O5 0.225859 0.394742 0.750000
O O6 0.228298 0.533045 0.866866
O O7 0.022284 0.383883 0.888162
O O8 0.362892 0.647781 0.750000
O O9 0.159738 0.723634 0.634112
O O10 0.174565 0.863105 0.750000
#
# Coordination Sequence:
#
# PCOD9437237 Si02
#       4
#     8   8   8   8
#     4  10  20  35  57  82 112 148 188 233 282 334
#     4   9  19  37  60  85 113 147 190 235 283 341
#     4   9  19  36  56  82 116 150 187 234 282 331
#     4  10  20  37  60  84 115 151 187 234 287 335
#
# _framework density 19.785834999999999
#
# number of rings (size 3 to 8) (size 9 to 14) (size 15 to 20)
#    0.000    2.500    0.000    1.500    0.000    5.000 
#    0.000   12.500    0.000   19.500    0.000    0.000 
#    0.000    0.000    0.000    0.000    0.000    0.000 
#
# Total GULP energy -178476.298558 kJ/mol
# GULP energy per Si atom -5577.384330 kJ/mol
# Density = 1.974080 g / cm^3
# Si number density = 19.785835 Si / 1000 Ang^3
#
#
#
# Elastic Constant Matrix: (Units=GPa)
#
#
# Indices 1 2 3 4 5 6 
#
# 1 174.0406 58.0142 89.0114 0.0000 0.0000 0.0000
# 2 58.0142 61.1804 46.7676 0.0000 0.0000 0.0000
# 3 89.0114 46.7676 93.4314 0.0000 0.0000 0.0000
# 4 0.0000 0.0000 0.0000 26.0885 0.0000 0.0000
# 5 0.0000 0.0000 0.0000 0.0000 19.5240 0.0000
# 6 0.0000 0.0000 0.0000 0.0000 0.0000 26.3230
#
#
#
# Elastic Compliance Matrix: (Units=1/GPa)
#
#
# Indices 1 2 3 4 5 6 
#
# 1 0.011842 -0.004220 -0.009170 0.000000 0.000000 0.000000
# 2 -0.004220 0.027979 -0.009985 0.000000 0.000000 0.000000
# 3 -0.009170 -0.009985 0.024437 0.000000 0.000000 0.000000
# 4 0.000000 0.000000 0.000000 0.038331 0.000000 0.000000
# 5 0.000000 0.000000 0.000000 0.000000 0.051219 0.000000
# 6 0.000000 0.000000 0.000000 0.000000 0.000000 0.037990
#
#
# Mechanical properties :
#
#
# Convention : Reuss Voigt Hill
#
# Bulk Modulus (GPa) = 57.11213 79.58210 68.34712
# Shear Modulus (GPa) = 20.45963 23.37770 21.91867
#
# Velocity S-wave (km/s) = 3.21916 3.44108 3.33197
# Velocity P-wave (km/s) = 6.53798 7.48980 7.03002
#
# Compressibility (1/GPa) = 0.01750941
#
# Stress axis : x y z
#
# Youngs Moduli (GPa) = 84.44409 35.74076 40.92151
#
# Poissons Ratio (x) = 0.15082 0.37524
# Poissons Ratio (y) = 0.35634 0.40860
# Poissons Ratio (z) = 0.77433 0.35687
#
# Static dielectric constant tensor:
#      x y z
#    x 1.650100 0.000000 0.000000 
#    y 0.000000 1.734450 0.000000 
#    z 0.000000 0.000000 1.739410 
# 
# From -- ./inp_files/14691.got.cif
#   From: 2010.05.17/outbox.cif.g08.bks.cpg/sg57_8_cif.got.tgz:14691.got - 2010.06.03 13:58:18.
