data_PCOD9437573
_publ_section_title
;
Structure prediction by ZEFSAII (Michael W. Deem and Ramdas Pophale) SiO2 
 PCOD9437573
Probable space group: P B C M
;
_chemical_formula_sum "Si O2"
_cell_formula_units_Z 40
_cell_length_a 10.229670
_cell_length_b 13.163257
_cell_length_c 14.600805
_cell_angle_alpha 90.000000
_cell_angle_beta 90.000000
_cell_angle_gamma 90.000000
_cell_volume 1966.082716
_symmetry_space_group_name_H-M "P B C M"
_symmetry_group_IT_number 57
_symmetry_cell_setting 'orthorhombic'
loop_
_space_group_symop_operation_xyz
x,y,z
-x,-y,1/2+z
x,1/2-y,-z
-x,1/2+y,1/2-z
-x,-y,-z
x,y,1/2-z
-x,1/2+y,z
x,1/2-y,1/2+z
loop_
_atom_site_type_symbol
_atom_site_label
_atom_site_fract_x
_atom_site_fract_y
_atom_site_fract_z
Si Si1 0.991018 0.339826 0.448667
Si Si2 0.762417 0.770339 0.645167
Si Si3 0.149708 0.021278 0.078135
Si Si4 0.460182 0.754293 0.360328
Si Si5 0.615240 0.081252 0.005191
O O1 0.912094 0.250000 0.500000
O O2 0.120867 0.288819 0.406167
O O3 0.038649 0.411077 0.531140
O O4 0.913428 0.417283 0.383322
O O5 0.773817 0.740539 0.750000
O O6 0.778324 0.892882 0.637511
O O7 0.615435 0.743689 0.615019
O O8 0.250518 0.980159 0.002230
O O9 0.446323 0.757448 0.250000
O O10 0.395922 0.847417 0.415065
O O11 0.402219 0.652366 0.406277
O O12 0.500000 0.000000 0.000000
#
# Coordination Sequence:
#
# PCOD9437573 Si02
#       5
#     8   8   8   8   8
#     4   9  20  36  59  80 110 144 189 238 282 342
#     4  10  20  37  58  81 116 152 188 240 295 344
#     4  10  20  36  59  85 109 148 198 234 283 351
#     4  10  23  38  56  89 121 151 194 244 294 350
#     4  11  21  36  64  84 116 159 196 237 299 351
#
# _framework density 20.345023000000001
#
# number of rings (size 3 to 8) (size 9 to 14) (size 15 to 20)
#    0.000    2.000    2.000    1.200    8.400    2.400 
#    0.000    1.000    0.000    0.000    0.000    0.000 
#    0.000    0.000    0.000    0.000    0.000    0.000 
#
# Total GULP energy -222778.932246 kJ/mol
# GULP energy per Si atom -5569.473306 kJ/mol
# Density = 2.029872 g / cm^3
# Si number density = 20.345023 Si / 1000 Ang^3
#
#
#
# Elastic Constant Matrix: (Units=GPa)
#
#
# Indices 1 2 3 4 5 6 
#
# 1 59.5397 18.3182 -4.8491 0.0000 0.0000 0.0000
# 2 18.3182 111.5441 10.8220 0.0000 0.0000 0.0000
# 3 -4.8491 10.8220 76.1349 0.0000 0.0000 0.0000
# 4 0.0000 0.0000 0.0000 15.1370 0.0000 0.0000
# 5 0.0000 0.0000 0.0000 0.0000 8.6553 0.0000
# 6 0.0000 0.0000 0.0000 0.0000 0.0000 38.8498
#
#
#
# Elastic Compliance Matrix: (Units=1/GPa)
#
#
# Indices 1 2 3 4 5 6 
#
# 1 0.017874 -0.003088 0.001577 0.000000 0.000000 0.000000
# 2 -0.003088 0.009624 -0.001565 0.000000 0.000000 0.000000
# 3 0.001577 -0.001565 0.013457 0.000000 0.000000 0.000000
# 4 0.000000 0.000000 0.000000 0.066063 0.000000 0.000000
# 5 0.000000 0.000000 0.000000 0.000000 0.115537 0.000000
# 6 0.000000 0.000000 0.000000 0.000000 0.000000 0.025740
#
#
# Mechanical properties :
#
#
# Convention : Reuss Voigt Hill
#
# Bulk Modulus (GPa) = 28.73203 32.86674 30.79939
# Shear Modulus (GPa) = 18.79355 27.39025 23.09190
#
# Velocity S-wave (km/s) = 3.04261 3.67316 3.37265
# Velocity P-wave (km/s) = 5.14746 5.84630 5.50797
#
# Compressibility (1/GPa) = 0.03480437
#
# Stress axis : x y z
#
# Youngs Moduli (GPa) = 55.94658 103.90623 74.30821
#
# Poissons Ratio (x) = 0.32091 -0.11722
# Poissons Ratio (y) = 0.17279 0.11627
# Poissons Ratio (z) = -0.08825 0.16258
#
# Static dielectric constant tensor:
#      x y z
#    x 1.775400 0.000000 0.000000 
#    y 0.000000 1.783500 0.000000 
#    z 0.000000 0.000000 1.740990 
# 
# From -- ./inp_files/17433.got.cif
#   From: 2010.05.17/outbox.cif.g08.bks.cpg/sg57_9_cif.got.tgz:17433.got - 2010.06.03 13:58:18.
