data_PCOD9437655
_publ_section_title
;
Structure prediction by ZEFSAII (Michael W. Deem and Ramdas Pophale) SiO2 
 PCOD9437655
Probable space group: P B C M
;
_chemical_formula_sum "Si O2"
_cell_formula_units_Z 36
_cell_length_a 16.159874
_cell_length_b 4.926413
_cell_length_c 21.694983
_cell_angle_alpha 90.000000
_cell_angle_beta 90.000000
_cell_angle_gamma 90.000000
_cell_volume 1727.142225
_symmetry_space_group_name_H-M "P B C M"
_symmetry_group_IT_number 57
_symmetry_cell_setting 'orthorhombic'
loop_
_space_group_symop_operation_xyz
x,y,z
-x,-y,1/2+z
x,1/2-y,-z
-x,1/2+y,1/2-z
-x,-y,-z
x,y,1/2-z
-x,1/2+y,z
x,1/2-y,1/2+z
loop_
_atom_site_type_symbol
_atom_site_label
_atom_site_fract_x
_atom_site_fract_y
_atom_site_fract_z
Si Si1 0.447423 0.254597 0.573933
Si Si2 0.828004 0.750000 0.000000
Si Si3 0.944221 0.411228 0.411299
Si Si4 0.273630 0.464149 0.385011
Si Si5 0.800228 0.467529 0.321516
O O1 0.433023 0.250000 0.500000
O O2 0.474830 0.559385 0.588477
O O3 0.367325 0.133913 0.606684
O O4 0.772182 0.596041 0.949703
O O5 0.883704 0.967388 0.963225
O O6 0.892678 0.440889 0.348475
O O7 0.024570 0.604157 0.415363
O O8 0.257085 0.768670 0.362791
O O9 0.229761 0.271075 0.335110
O O10 0.795153 0.400633 0.250000
#
# Coordination Sequence:
#
# PCOD9437655 Si02
#       5
#     8   4   8   8   8
#     4  10  20  36  60  95 129 157 189 239 304 368
#     4  10  22  38  60  96 124 160 196 248 318 388
#     4  11  23  39  60  87 120 157 196 255 310 360
#     4  11  22  40  64  90 125 160 199 254 300 367
#     4  11  25  42  62  86 116 166 216 251 298 354
#
# _framework density 20.843679999999999
#
# number of rings (size 3 to 8) (size 9 to 14) (size 15 to 20)
#    0.000    1.333    1.111    5.333    0.000    8.000 
#    0.000    0.000    0.000   13.333    0.000    0.000 
#    0.000    0.000    0.000    0.000    0.000    0.000 
#
# Total GULP energy -201393.252156 kJ/mol
# GULP energy per Si atom -5594.257004 kJ/mol
# Density = 2.079624 g / cm^3
# Si number density = 20.843680 Si / 1000 Ang^3
#
#
#
# Elastic Constant Matrix: (Units=GPa)
#
#
# Indices 1 2 3 4 5 6 
#
# 1 70.3127 -13.1670 22.4938 0.0000 0.0000 0.0000
# 2 -13.1670 62.8903 -5.9342 0.0000 0.0000 0.0000
# 3 22.4938 -5.9342 91.3849 0.0000 0.0000 0.0000
# 4 0.0000 0.0000 0.0000 23.8219 0.0000 0.0000
# 5 0.0000 0.0000 0.0000 0.0000 9.1884 0.0000
# 6 0.0000 0.0000 0.0000 0.0000 0.0000 25.8283
#
#
#
# Elastic Compliance Matrix: (Units=1/GPa)
#
#
# Indices 1 2 3 4 5 6 
#
# 1 0.015979 0.002993 -0.003739 0.000000 0.000000 0.000000
# 2 0.002993 0.016559 0.000339 0.000000 0.000000 0.000000
# 3 -0.003739 0.000339 0.011885 0.000000 0.000000 0.000000
# 4 0.000000 0.000000 0.000000 0.041978 0.000000 0.000000
# 5 0.000000 0.000000 0.000000 0.000000 0.108833 0.000000
# 6 0.000000 0.000000 0.000000 0.000000 0.000000 0.038717
#
#
# Mechanical properties :
#
#
# Convention : Reuss Voigt Hill
#
# Bulk Modulus (GPa) = 22.93161 25.70814 24.31988
# Shear Modulus (GPa) = 20.05597 26.51407 23.28502
#
# Velocity S-wave (km/s) = 3.10531 3.57044 3.34597
# Velocity P-wave (km/s) = 4.88701 5.41830 5.15950
#
# Compressibility (1/GPa) = 0.04360792
#
# Stress axis : x y z
#
# Youngs Moduli (GPa) = 62.58359 60.38940 84.13983
#
# Poissons Ratio (x) = -0.18072 0.31457
# Poissons Ratio (y) = -0.18729 -0.02850
# Poissons Ratio (z) = 0.23398 -0.02045
#
# Static dielectric constant tensor:
#      x y z
#    x 1.742080 0.000000 0.000000 
#    y 0.000000 1.717910 0.000000 
#    z 0.000000 0.000000 1.716870 
# 
# From -- ./inp_files/25220.got.cif
#   From: 2010.05.17/outbox.cif.g08.bks.cpg/sg57_13_cif.got.tgz:25220.got - 2010.06.03 13:58:18.
