data_PCOD9437024
_publ_section_title
;
Structure prediction by ZEFSAII (Michael W. Deem and Ramdas Pophale) SiO2 
 PCOD9437024
Probable space group: P B C M
;
_chemical_formula_sum "Si O2"
_cell_formula_units_Z 60
_cell_length_a 17.757652
_cell_length_b 16.875320
_cell_length_c 9.422543
_cell_angle_alpha 90.000000
_cell_angle_beta 90.000000
_cell_angle_gamma 90.000000
_cell_volume 2823.616336
_symmetry_space_group_name_H-M "P B C M"
_symmetry_group_IT_number 57
_symmetry_cell_setting 'orthorhombic'
loop_
_space_group_symop_operation_xyz
x,y,z
-x,-y,1/2+z
x,1/2-y,-z
-x,1/2+y,1/2-z
-x,-y,-z
x,y,1/2-z
-x,1/2+y,z
x,1/2-y,1/2+z
loop_
_atom_site_type_symbol
_atom_site_label
_atom_site_fract_x
_atom_site_fract_y
_atom_site_fract_z
Si Si1 0.290202 0.631732 0.413316
Si Si2 0.026672 0.329089 0.079524
Si Si3 0.514880 0.522095 0.750000
Si Si4 0.854667 0.369348 0.412516
Si Si5 0.712661 0.940231 0.416252
Si Si6 0.137180 0.439592 0.917471
Si Si7 0.547201 0.386685 0.978845
Si Si8 0.610722 0.826602 0.914232
O O1 0.290080 0.656219 0.250000
O O2 0.213828 0.657597 0.489628
O O3 0.287147 0.535208 0.420373
O O4 0.370489 0.652043 0.481320
O O5 0.040485 0.328684 0.250000
O O6 0.937003 0.335436 0.056628
O O7 0.054290 0.250000 0.000000
O O8 0.067587 0.401771 0.001342
O O9 0.547883 0.460732 0.871011
O O10 0.478143 0.578862 0.627892
O O11 0.835198 0.351003 0.250000
O O12 0.863834 0.464939 0.423546
O O13 0.707734 0.916525 0.250000
O O14 0.788306 0.912931 0.496699
O O15 0.644826 0.902339 0.505119
O O16 0.138636 0.417384 0.750000
O O17 0.479401 0.331878 0.922945
O O18 0.633599 0.826068 0.750000
O O19 0.637410 0.750000 0.000000
#
# Coordination Sequence:
#
# PCOD9437024 Si02
#       8
#     8   8   4   8   8   8   8   8
#     4  10  20  35  60  91 121 148 192 248 302 355
#     4  11  23  40  62  89 121 159 204 245 295 361
#     4  10  20  34  60  88 114 140 188 254 304 344
#     4   9  21  39  60  90 124 157 196 248 304 358
#     4  10  21  37  60  88 120 151 193 241 298 354
#     4  10  20  38  63  93 123 156 194 245 302 360
#     4  11  22  37  59  90 117 154 198 249 306 356
#     4  12  26  41  57  79 119 165 204 244 295 364
#
# _framework density 21.249347
#
# number of rings (size 3 to 8) (size 9 to 14) (size 15 to 20)
#    0.000    1.600    1.333    3.600    4.667    2.667 
#    0.000    3.333    0.000    1.600    0.000    0.000 
#    0.000    0.000    0.000    0.000    0.000    0.000 
#
# Total GULP energy -334244.641369 kJ/mol
# GULP energy per Si atom -5570.744023 kJ/mol
# Density = 2.120098 g / cm^3
# Si number density = 21.249347 Si / 1000 Ang^3
#
#
#
# Elastic Constant Matrix: (Units=GPa)
#
#
# Indices 1 2 3 4 5 6 
#
# 1 74.3644 11.2808 44.9749 0.0000 0.0000 0.0000
# 2 11.2808 43.4947 34.0298 0.0000 0.0000 0.0000
# 3 44.9749 34.0298 158.5091 0.0000 0.0000 0.0000
# 4 0.0000 0.0000 0.0000 2.4297 0.0000 0.0000
# 5 0.0000 0.0000 0.0000 0.0000 44.7120 0.0000
# 6 0.0000 0.0000 0.0000 0.0000 0.0000 -13.3315
#
#
#
# Elastic Compliance Matrix: (Units=1/GPa)
#
#
# Indices 1 2 3 4 5 6 
#
# 1 0.016252 -0.000730 -0.004455 0.000000 0.000000 0.000000
# 2 -0.000730 0.027665 -0.005732 0.000000 0.000000 0.000000
# 3 -0.004455 -0.005732 0.008803 0.000000 0.000000 0.000000
# 4 0.000000 0.000000 0.000000 0.411577 0.000000 0.000000
# 5 0.000000 0.000000 0.000000 0.000000 0.022365 0.000000
# 6 0.000000 0.000000 0.000000 0.000000 0.000000 -0.075010
#
#
# Mechanical properties :
#
#
# Convention : Reuss Voigt Hill
#
# Bulk Modulus (GPa) = 32.37577 50.77103 41.57340
# Shear Modulus (GPa) = 11.26679 19.16754 15.21717
#
# Velocity S-wave (km/s) = 2.30514 3.00664 2.67895
# Velocity P-wave (km/s) = 4.72801 5.99984 5.40149
#
# Compressibility (1/GPa) = 0.03088730
#
# Stress axis : x y z
#
# Youngs Moduli (GPa) = 61.53035 36.14613 113.59272
#
# Poissons Ratio (x) = 0.02638 0.50601
# Poissons Ratio (y) = 0.04491 0.65115
# Poissons Ratio (z) = 0.27410 0.20720
#
# Static dielectric constant tensor:
#      x y z
#    x 1.798400 0.000000 0.000000 
#    y 0.000000 1.783310 0.000000 
#    z 0.000000 0.000000 1.719850 
# 
# From -- ./inp_files/6929.got.cif
#   From: 2010.05.17/outbox.cif.g08.bks.cpg/sg57_4_cif.got.tgz:6929.got - 2010.06.03 13:58:18.
