data_PCOD9437430
_publ_section_title
;
Structure prediction by ZEFSAII (Michael W. Deem and Ramdas Pophale) SiO2 
 PCOD9437430
Probable space group: P B C M
;
_chemical_formula_sum "Si O2"
_cell_formula_units_Z 48
_cell_length_a 9.929948
_cell_length_b 31.360584
_cell_length_c 8.718501
_cell_angle_alpha 90.000000
_cell_angle_beta 90.000000
_cell_angle_gamma 90.000000
_cell_volume 2715.019402
_symmetry_space_group_name_H-M "P B C M"
_symmetry_group_IT_number 57
_symmetry_cell_setting 'orthorhombic'
loop_
_space_group_symop_operation_xyz
x,y,z
-x,-y,1/2+z
x,1/2-y,-z
-x,1/2+y,1/2-z
-x,-y,-z
x,y,1/2-z
-x,1/2+y,z
x,1/2-y,1/2+z
loop_
_atom_site_type_symbol
_atom_site_label
_atom_site_fract_x
_atom_site_fract_y
_atom_site_fract_z
Si Si1 0.405636 0.036456 0.067162
Si Si2 0.097155 0.703888 0.433567
Si Si3 0.395849 0.704224 0.565193
Si Si4 0.091623 0.462469 0.565676
Si Si5 0.595326 0.628159 0.565877
Si Si6 0.909217 0.869737 0.434131
O O1 0.413719 0.035689 0.250000
O O2 0.248617 0.029951 0.023504
O O3 0.445331 0.083242 0.007462
O O4 0.500000 0.000000 0.000000
O O5 0.054837 0.750000 0.500000
O O6 0.100294 0.705763 0.250000
O O7 0.247538 0.695914 0.497690
O O8 0.999357 0.666832 0.491487
O O9 0.440302 0.750000 0.500000
O O10 0.387510 0.706414 0.750000
O O11 0.498491 0.666844 0.521136
O O12 0.081757 0.460914 0.750000
O O13 0.052720 0.416558 0.496180
O O14 0.000000 0.500000 0.500000
O O15 0.588731 0.623714 0.750000
O O16 0.751415 0.636741 0.525700
O O17 0.922715 0.868678 0.250000
#
# Coordination Sequence:
#
# PCOD9437430 Si02
#       6
#     8   8   8   8   8   8
#     4  10  21  36  56  80 108 140 178 220 265 316
#     4  11  22  37  56  80 109 143 181 222 266 317
#     4  10  20  36  56  80 109 141 177 220 265 315
#     4  10  21  37  56  81 109 142 181 223 268 318
#     4   9  20  37  57  80 108 140 177 219 267 317
#     4  10  20  37  58  81 109 142 178 222 270 319
#
# _framework density 17.679433
#
# number of rings (size 3 to 8) (size 9 to 14) (size 15 to 20)
#    0.000    2.000    0.000    4.500    0.000    6.000 
#    0.000    3.333    0.000    0.000    0.000    0.000 
#    0.000    0.000    0.000    0.000    0.000    0.000 
#
# Total GULP energy -268078.378594 kJ/mol
# GULP energy per Si atom -5584.966221 kJ/mol
# Density = 1.763919 g / cm^3
# Si number density = 17.679433 Si / 1000 Ang^3
#
#
#
# Elastic Constant Matrix: (Units=GPa)
#
#
# Indices 1 2 3 4 5 6 
#
# 1 86.7607 121.6023 49.5734 0.0000 0.0000 0.0000
# 2 121.6023 208.4177 74.8064 0.0000 0.0000 0.0000
# 3 49.5734 74.8064 78.7981 0.0000 0.0000 0.0000
# 4 0.0000 0.0000 0.0000 39.2000 0.0000 0.0000
# 5 0.0000 0.0000 0.0000 0.0000 26.2111 0.0000
# 6 0.0000 0.0000 0.0000 0.0000 0.0000 44.2026
#
#
#
# Elastic Compliance Matrix: (Units=1/GPa)
#
#
# Indices 1 2 3 4 5 6 
#
# 1 0.066072 -0.035844 -0.007539 0.000000 0.000000 0.000000
# 2 -0.035844 0.026724 -0.002820 0.000000 0.000000 0.000000
# 3 -0.007539 -0.002820 0.020110 0.000000 0.000000 0.000000
# 4 0.000000 0.000000 0.000000 0.025510 0.000000 0.000000
# 5 0.000000 0.000000 0.000000 0.000000 0.038152 0.000000
# 6 0.000000 0.000000 0.000000 0.000000 0.000000 0.022623
#
#
# Mechanical properties :
#
#
# Convention : Reuss Voigt Hill
#
# Bulk Modulus (GPa) = 48.77857 96.21564 72.49711
# Shear Modulus (GPa) = 16.75434 30.45570 23.60502
#
# Velocity S-wave (km/s) = 3.08177 4.15500 3.65796
# Velocity P-wave (km/s) = 6.34930 8.80677 7.67700
#
# Compressibility (1/GPa) = 0.02050080
#
# Stress axis : x y z
#
# Youngs Moduli (GPa) = 15.13493 37.42004 49.72615
#
# Poissons Ratio (x) = 1.34130 0.37487
# Poissons Ratio (y) = 0.54250 0.14020
# Poissons Ratio (z) = 0.11410 0.10551
#
# Static dielectric constant tensor:
#      x y z
#    x 1.589950 0.000000 0.000000 
#    y 0.000000 1.570930 0.000000 
#    z 0.000000 0.000000 1.591380 
# 
# From -- ./inp_files/2094.got.cif
#   From: 2010.05.17/outbox.cif.g08.bks.cpg/sg57_2_cif.got.tgz:2094.got - 2010.06.03 13:58:18.
