data_PCOD9437894
_publ_section_title
;
Structure prediction by ZEFSAII (Michael W. Deem and Ramdas Pophale) SiO2 
 PCOD9437894
Probable space group: P B C M
;
_chemical_formula_sum "Si O2"
_cell_formula_units_Z 48
_cell_length_a 14.447727
_cell_length_b 5.209898
_cell_length_c 25.296885
_cell_angle_alpha 90.000000
_cell_angle_beta 90.000000
_cell_angle_gamma 90.000000
_cell_volume 1904.126486
_symmetry_space_group_name_H-M "P B C M"
_symmetry_group_IT_number 57
_symmetry_cell_setting 'orthorhombic'
loop_
_space_group_symop_operation_xyz
x,y,z
-x,-y,1/2+z
x,1/2-y,-z
-x,1/2+y,1/2-z
-x,-y,-z
x,y,1/2-z
-x,1/2+y,z
x,1/2-y,1/2+z
loop_
_atom_site_type_symbol
_atom_site_label
_atom_site_fract_x
_atom_site_fract_y
_atom_site_fract_z
Si Si1 0.651578 0.104353 0.657342
Si Si2 0.241605 0.750000 0.500000
Si Si3 0.555857 0.393281 0.750000
Si Si4 0.229287 0.508695 0.401542
Si Si5 0.616512 0.858036 0.945410
Si Si6 0.955115 0.988132 0.362402
Si Si7 0.111674 0.875739 0.750000
Si Si8 0.759912 0.635150 0.250000
O O1 0.606192 0.311241 0.696296
O O2 0.738650 0.246785 0.631319
O O3 0.695672 0.899608 0.697821
O O4 0.584820 0.006597 0.608765
O O5 0.185980 0.597555 0.456882
O O6 0.310124 0.553128 0.529182
O O7 0.527358 0.686353 0.750000
O O8 0.322610 0.364503 0.418362
O O9 0.146712 0.370765 0.372481
O O10 0.565857 0.750000 0.000000
O O11 0.951035 0.060683 0.300517
O O12 0.024843 0.774104 0.383368
O O13 0.193198 0.088810 0.750000
O O14 0.164039 0.598651 0.750000
#
# Coordination Sequence:
#
# PCOD9437894 Si02
#       8
#     8   4   4   8   8   8   4   4
#     4  10  22  38  68  96 126 173 218 266 317 390
#     4   8  18  34  58  92 120 152 208 288 322 364
#     4  11  28  47  66 103 147 178 208 255 330 399
#     4  10  20  37  63  88 120 160 224 263 322 386
#     4   9  18  35  65  98 125 161 221 289 322 369
#     4  12  26  39  55  82 122 168 208 270 335 387
#     4  12  22  40  54  79 118 153 209 268 320 382
#     4  11  22  35  64  94 113 155 215 271 314 385
#
# _framework density 25.208411000000002
#
# number of rings (size 3 to 8) (size 9 to 14) (size 15 to 20)
#    0.000    1.667    1.667    2.500    7.000    1.333 
#    0.000    0.833    0.000    1.000    0.000    0.000 
#    0.000    0.000    0.000    0.000    0.000    0.000 
#
# Total GULP energy -267681.168798 kJ/mol
# GULP energy per Si atom -5576.691017 kJ/mol
# Density = 2.515104 g / cm^3
# Si number density = 25.208411 Si / 1000 Ang^3
#
#
#
# Elastic Constant Matrix: (Units=GPa)
#
#
# Indices 1 2 3 4 5 6 
#
# 1 37.0396 22.7387 9.7890 0.0000 0.0000 0.0000
# 2 22.7387 96.2189 11.4121 0.0000 0.0000 0.0000
# 3 9.7890 11.4121 121.4644 0.0000 0.0000 0.0000
# 4 0.0000 0.0000 0.0000 15.2060 0.0000 0.0000
# 5 0.0000 0.0000 0.0000 0.0000 21.2536 0.0000
# 6 0.0000 0.0000 0.0000 0.0000 0.0000 35.8942
#
#
#
# Elastic Compliance Matrix: (Units=1/GPa)
#
#
# Indices 1 2 3 4 5 6 
#
# 1 0.032003 -0.007339 -0.001890 0.000000 0.000000 0.000000
# 2 -0.007339 0.012193 -0.000554 0.000000 0.000000 0.000000
# 3 -0.001890 -0.000554 0.008437 0.000000 0.000000 0.000000
# 4 0.000000 0.000000 0.000000 0.065764 0.000000 0.000000
# 5 0.000000 0.000000 0.000000 0.000000 0.047051 0.000000
# 6 0.000000 0.000000 0.000000 0.000000 0.000000 0.027860
#
#
# Mechanical properties :
#
#
# Convention : Reuss Voigt Hill
#
# Bulk Modulus (GPa) = 30.24088 38.06696 34.15392
# Shear Modulus (GPa) = 22.33187 28.52296 25.42742
#
# Velocity S-wave (km/s) = 2.97962 3.36741 3.17943
# Velocity P-wave (km/s) = 4.88466 5.50026 5.20158
#
# Compressibility (1/GPa) = 0.03306783
#
# Stress axis : x y z
#
# Youngs Moduli (GPa) = 31.24715 82.01403 118.52252
#
# Poissons Ratio (x) = 0.60189 0.22397
# Poissons Ratio (y) = 0.22932 0.06568
# Poissons Ratio (z) = 0.05905 0.04545
#
# Static dielectric constant tensor:
#      x y z
#    x 1.980730 0.000000 0.000000 
#    y 0.000000 2.232760 0.000000 
#    z 0.000000 0.000000 2.180990 
# 
# From -- ./inp_files/28777.got.cif
#   From: 2010.05.17/outbox.cif.g08.bks.cpg/sg57_15_cif.got.tgz:28777.got - 2010.06.03 13:58:18.
