data_PCOD9437405
_publ_section_title
;
Structure prediction by ZEFSAII (Michael W. Deem and Ramdas Pophale) SiO2 
 PCOD9437405
Probable space group: P B C M
;
_chemical_formula_sum "Si O2"
_cell_formula_units_Z 40
_cell_length_a 8.547407
_cell_length_b 9.016528
_cell_length_c 24.563585
_cell_angle_alpha 90.000000
_cell_angle_beta 90.000000
_cell_angle_gamma 90.000000
_cell_volume 1893.064761
_symmetry_space_group_name_H-M "P B C M"
_symmetry_group_IT_number 57
_symmetry_cell_setting 'orthorhombic'
loop_
_space_group_symop_operation_xyz
x,y,z
-x,-y,1/2+z
x,1/2-y,-z
-x,1/2+y,1/2-z
-x,-y,-z
x,y,1/2-z
-x,1/2+y,z
x,1/2-y,1/2+z
loop_
_atom_site_type_symbol
_atom_site_label
_atom_site_fract_x
_atom_site_fract_y
_atom_site_fract_z
Si Si1 0.940798 0.074603 0.138228
Si Si2 0.360173 0.239539 0.921049
Si Si3 0.139763 0.497307 0.543330
Si Si4 0.316644 0.606586 0.450267
Si Si5 0.195278 0.209340 0.812276
O O1 0.820782 0.142555 0.093443
O O2 0.045289 0.191236 0.170763
O O3 0.850020 0.961825 0.177087
O O4 0.059267 0.975030 0.101157
O O5 0.223141 0.339361 0.947540
O O6 0.523201 0.311797 0.937205
O O7 0.328819 0.246527 0.856354
O O8 0.346255 0.069967 0.939250
O O9 0.262555 0.604972 0.513746
O O10 0.000000 0.500000 0.500000
O O11 0.237738 0.235882 0.750000
#
# Coordination Sequence:
#
# PCOD9437405 Si02
#       5
#     8   8   8   8   8
#     4   9  20  36  58  83 109 142 187 231 280 337
#     4  10  21  36  54  81 114 151 190 227 277 339
#     4   9  18  34  55  80 110 145 181 226 277 328
#     4  10  20  36  55  81 117 148 181 228 279 338
#     4  10  20  38  59  81 109 144 187 240 284 326
#
# _framework density 21.129757999999999
#
# number of rings (size 3 to 8) (size 9 to 14) (size 15 to 20)
#    0.000    2.400    0.000    1.800    0.000    4.800 
#    0.000   20.000    0.000    0.000    0.000    0.000 
#    0.000    0.000    0.000    0.000    0.000    0.000 
#
# Total GULP energy -223498.777022 kJ/mol
# GULP energy per Si atom -5587.469426 kJ/mol
# Density = 2.108167 g / cm^3
# Si number density = 21.129758 Si / 1000 Ang^3
#
#
#
# Elastic Constant Matrix: (Units=GPa)
#
#
# Indices 1 2 3 4 5 6 
#
# 1 103.5884 19.9728 31.9161 0.0000 0.0000 0.0000
# 2 19.9728 42.8691 5.6655 0.0000 0.0000 0.0000
# 3 31.9161 5.6655 142.8424 0.0000 0.0000 0.0000
# 4 0.0000 0.0000 0.0000 26.6318 0.0000 0.0000
# 5 0.0000 0.0000 0.0000 0.0000 22.0836 0.0000
# 6 0.0000 0.0000 0.0000 0.0000 0.0000 28.1578
#
#
#
# Elastic Compliance Matrix: (Units=1/GPa)
#
#
# Indices 1 2 3 4 5 6 
#
# 1 0.011331 -0.004971 -0.002335 0.000000 0.000000 0.000000
# 2 -0.004971 0.025630 0.000094 0.000000 0.000000 0.000000
# 3 -0.002335 0.000094 0.007519 0.000000 0.000000 0.000000
# 4 0.000000 0.000000 0.000000 0.037549 0.000000 0.000000
# 5 0.000000 0.000000 0.000000 0.000000 0.045283 0.000000
# 6 0.000000 0.000000 0.000000 0.000000 0.000000 0.035514
#
#
# Mechanical properties :
#
#
# Convention : Reuss Voigt Hill
#
# Bulk Modulus (GPa) = 33.26948 44.93430 39.10189
# Shear Modulus (GPa) = 26.69971 30.82432 28.76202
#
# Velocity S-wave (km/s) = 3.55858 3.82358 3.69346
# Velocity P-wave (km/s) = 5.71526 6.38789 6.06091
#
# Compressibility (1/GPa) = 0.03005758
#
# Stress axis : x y z
#
# Youngs Moduli (GPa) = 88.25102 39.01632 133.00282
#
# Poissons Ratio (x) = 0.19394 0.31052
# Poissons Ratio (y) = 0.43867 -0.01251
# Poissons Ratio (z) = 0.20604 -0.00367
#
# Static dielectric constant tensor:
#      x y z
#    x 1.766640 0.000000 0.000000 
#    y 0.000000 1.827880 0.000000 
#    z 0.000000 0.000000 1.758550 
# 
# From -- ./inp_files/26493.got.cif
#   From: 2010.05.17/outbox.cif.g08.bks.cpg/sg57_14_cif.got.tgz:26493.got - 2010.06.03 13:58:18.
