data_PCOD9437127
_publ_section_title
;
Structure prediction by ZEFSAII (Michael W. Deem and Ramdas Pophale) SiO2 
 PCOD9437127
Probable space group: P B C M
;
_chemical_formula_sum "Si O2"
_cell_formula_units_Z 48
_cell_length_a 31.780807
_cell_length_b 9.220880
_cell_length_c 8.576582
_cell_angle_alpha 90.000000
_cell_angle_beta 90.000000
_cell_angle_gamma 90.000000
_cell_volume 2513.341691
_symmetry_space_group_name_H-M "P B C M"
_symmetry_group_IT_number 57
_symmetry_cell_setting 'orthorhombic'
loop_
_space_group_symop_operation_xyz
x,y,z
-x,-y,1/2+z
x,1/2-y,-z
-x,1/2+y,1/2-z
-x,-y,-z
x,y,1/2-z
-x,1/2+y,z
x,1/2-y,1/2+z
loop_
_atom_site_type_symbol
_atom_site_label
_atom_site_fract_x
_atom_site_fract_y
_atom_site_fract_z
Si Si1 0.960569 0.587400 0.563423
Si Si2 0.214517 0.587945 0.438045
Si Si3 0.540466 0.914031 0.436924
Si Si4 0.378712 0.586130 0.563238
Si Si5 0.701741 0.586439 0.937807
Si Si6 0.867153 0.586333 0.561612
O O1 0.963355 0.750000 0.500000
O O2 0.962187 0.588144 0.750000
O O3 0.913902 0.532667 0.515681
O O4 0.000000 0.500000 0.500000
O O5 0.219277 0.750000 0.500000
O O6 0.213695 0.593111 0.250000
O O7 0.254172 0.488626 0.483291
O O8 0.170972 0.514669 0.492553
O O9 0.540113 0.750000 0.500000
O O10 0.539901 0.912231 0.250000
O O11 0.500000 0.000000 0.500000
O O12 0.581879 0.996617 0.496675
O O13 0.379855 0.750000 0.500000
O O14 0.380538 0.587716 0.750000
O O15 0.336364 0.507162 0.506765
O O16 0.698677 0.587334 0.750000
O O17 0.699772 0.750000 0.000000
O O18 0.861860 0.750000 0.500000
O O19 0.865909 0.592051 0.750000
#
# Coordination Sequence:
#
# PCOD9437127 Si02
#       6
#     8   8   8   8   8   8
#     4  10  20  35  55  79 110 145 186 232 284 340
#     4  10  22  38  57  83 115 148 188 234 286 342
#     4  12  25  44  67  95 128 165 207 252 302 356
#     4  12  25  43  65  92 125 162 202 248 298 351
#     4  11  23  40  62  89 119 155 196 241 291 348
#     4   9  19  36  56  80 108 143 185 231 280 339
#
# _framework density 19.098081000000001
#
# number of rings (size 3 to 8) (size 9 to 14) (size 15 to 20)
#    0.000    1.333    0.000    6.000    0.000    4.667 
#    0.000    1.667    0.000    0.000    0.000    0.000 
#    0.000    0.000    0.000    0.000    0.000    0.000 
#
# Total GULP energy -268405.806266 kJ/mol
# GULP energy per Si atom -5591.787631 kJ/mol
# Density = 1.905461 g / cm^3
# Si number density = 19.098081 Si / 1000 Ang^3
#
#
#
# Elastic Constant Matrix: (Units=GPa)
#
#
# Indices 1 2 3 4 5 6 
#
# 1 205.6844 113.6023 70.6668 0.0000 0.0000 0.0000
# 2 113.6023 170.5701 58.6890 0.0000 0.0000 0.0000
# 3 70.6668 58.6890 108.5271 0.0000 0.0000 0.0000
# 4 0.0000 0.0000 0.0000 39.9040 0.0000 0.0000
# 5 0.0000 0.0000 0.0000 0.0000 27.7963 0.0000
# 6 0.0000 0.0000 0.0000 0.0000 0.0000 43.7619
#
#
#
# Elastic Compliance Matrix: (Units=1/GPa)
#
#
# Indices 1 2 3 4 5 6 
#
# 1 0.008422 -0.004573 -0.003011 0.000000 0.000000 0.000000
# 2 -0.004573 0.009686 -0.002260 0.000000 0.000000 0.000000
# 3 -0.003011 -0.002260 0.012397 0.000000 0.000000 0.000000
# 4 0.000000 0.000000 0.000000 0.025060 0.000000 0.000000
# 5 0.000000 0.000000 0.000000 0.000000 0.035976 0.000000
# 6 0.000000 0.000000 0.000000 0.000000 0.000000 0.022851
#
#
# Mechanical properties :
#
#
# Convention : Reuss Voigt Hill
#
# Bulk Modulus (GPa) = 92.45006 107.85530 100.15268
# Shear Modulus (GPa) = 36.31424 38.41402 37.36413
#
# Velocity S-wave (km/s) = 4.36530 4.48974 4.42796
# Velocity P-wave (km/s) = 8.59773 9.13641 8.87116
#
# Compressibility (1/GPa) = 0.01081665
#
# Stress axis : x y z
#
# Youngs Moduli (GPa) = 118.73414 103.23883 80.66406
#
# Poissons Ratio (x) = 0.47214 0.24287
# Poissons Ratio (y) = 0.54301 0.18232
# Poissons Ratio (z) = 0.35750 0.23334
#
# Static dielectric constant tensor:
#      x y z
#    x 1.666130 0.000000 0.000000 
#    y 0.000000 1.612020 0.000000 
#    z 0.000000 0.000000 1.648330 
# 
# From -- ./inp_files/10013.got.cif
#   From: 2010.05.17/outbox.cif.g08.bks.cpg/sg57_6_cif.got.tgz:10013.got - 2010.06.03 13:58:18.
