data_PCOD9437913
_publ_section_title
;
Structure prediction by ZEFSAII (Michael W. Deem and Ramdas Pophale) SiO2 
 PCOD9437913
Probable space group: P B C M
;
_chemical_formula_sum "Si O2"
_cell_formula_units_Z 64
_cell_length_a 5.167988
_cell_length_b 29.727423
_cell_length_c 18.338978
_cell_angle_alpha 90.000000
_cell_angle_beta 90.000000
_cell_angle_gamma 90.000000
_cell_volume 2817.434893
_symmetry_space_group_name_H-M "P B C M"
_symmetry_group_IT_number 57
_symmetry_cell_setting 'orthorhombic'
loop_
_space_group_symop_operation_xyz
x,y,z
-x,-y,1/2+z
x,1/2-y,-z
-x,1/2+y,1/2-z
-x,-y,-z
x,y,1/2-z
-x,1/2+y,z
x,1/2-y,1/2+z
loop_
_atom_site_type_symbol
_atom_site_label
_atom_site_fract_x
_atom_site_fract_y
_atom_site_fract_z
Si Si1 0.608886 0.942749 0.576723
Si Si2 0.730677 0.524027 0.574033
Si Si3 0.895166 0.621954 0.333997
Si Si4 0.837020 0.799978 0.086220
Si Si5 0.725701 0.135314 0.033896
Si Si6 0.324661 0.302101 0.571462
Si Si7 0.340441 0.831394 0.167995
Si Si8 0.210100 0.920366 0.106981
O O1 0.763779 0.969469 0.513788
O O2 0.752185 0.925244 0.648133
O O3 0.533223 0.895682 0.539379
O O4 0.355665 0.973079 0.589630
O O5 0.474449 0.552429 0.595192
O O6 0.975957 0.544921 0.613819
O O7 0.967322 0.624978 0.250000
O O8 0.729964 0.665784 0.359673
O O9 0.125124 0.624678 0.392123
O O10 0.727541 0.749237 0.090676
O O11 0.611103 0.829203 0.124248
O O12 0.109937 0.804928 0.126882
O O13 0.854320 0.811410 0.999951
O O14 0.607794 0.185306 0.040147
O O15 0.848568 0.111996 0.963101
O O16 0.376554 0.814463 0.250000
O O17 0.249597 0.883220 0.168384
#
# Coordination Sequence:
#
# PCOD9437913 Si02
#       8
#     8   8   8   8   8   8   8   8
#     4   9  21  36  58  93 124 163 212 271 320 381
#     4  10  21  36  67  96 122 159 224 273 314 373
#     4  11  23  39  61  92 136 177 216 270 339 404
#     4  11  25  44  72  98 129 170 224 276 323 392
#     4  10  20  37  64  91 128 168 217 268 324 391
#     4  10  24  42  67  97 126 171 226 274 321 391
#     4  12  26  44  66  97 135 172 210 269 342 395
#     4  11  21  39  66  94 125 168 214 273 319 386
#
# _framework density 22.715699000000001
#
# number of rings (size 3 to 8) (size 9 to 14) (size 15 to 20)
#    0.000    1.500    2.500    1.875    5.250    5.500 
#    0.000    1.250    0.000    0.000    0.000    0.000 
#    0.000    0.000    0.000    0.000    0.000    0.000 
#
# Total GULP energy -357326.567651 kJ/mol
# GULP energy per Si atom -5583.227620 kJ/mol
# Density = 2.266400 g / cm^3
# Si number density = 22.715699 Si / 1000 Ang^3
#
#
#
# Elastic Constant Matrix: (Units=GPa)
#
#
# Indices 1 2 3 4 5 6 
#
# 1 84.3705 -3.2598 10.3590 0.0000 0.0000 0.0000
# 2 -3.2598 82.5049 -0.1012 0.0000 0.0000 0.0000
# 3 10.3590 -0.1012 117.0721 0.0000 0.0000 0.0000
# 4 0.0000 0.0000 0.0000 21.2445 0.0000 0.0000
# 5 0.0000 0.0000 0.0000 0.0000 15.8713 0.0000
# 6 0.0000 0.0000 0.0000 0.0000 0.0000 35.4076
#
#
#
# Elastic Compliance Matrix: (Units=1/GPa)
#
#
# Indices 1 2 3 4 5 6 
#
# 1 0.012001 0.000473 -0.001061 0.000000 0.000000 0.000000
# 2 0.000473 0.012139 -0.000031 0.000000 0.000000 0.000000
# 3 -0.001061 -0.000031 0.008636 0.000000 0.000000 0.000000
# 4 0.000000 0.000000 0.000000 0.047071 0.000000 0.000000
# 5 0.000000 0.000000 0.000000 0.000000 0.063007 0.000000
# 6 0.000000 0.000000 0.000000 0.000000 0.000000 0.028243
#
#
# Mechanical properties :
#
#
# Convention : Reuss Voigt Hill
#
# Bulk Modulus (GPa) = 31.70986 33.10481 32.40734
# Shear Modulus (GPa) = 27.34509 32.96797 30.15653
#
# Velocity S-wave (km/s) = 3.47334 3.81377 3.64753
# Velocity P-wave (km/s) = 5.48409 5.83080 5.66010
#
# Compressibility (1/GPa) = 0.03153593
#
# Stress axis : x y z
#
# Youngs Moduli (GPa) = 83.32577 82.37817 115.79910
#
# Poissons Ratio (x) = -0.03895 0.12292
# Poissons Ratio (y) = -0.03940 0.00363
# Poissons Ratio (z) = 0.08845 0.00258
#
# Static dielectric constant tensor:
#      x y z
#    x 1.970480 0.000000 0.000000 
#    y 0.000000 1.914260 0.000000 
#    z 0.000000 0.000000 1.828810 
# 
# From -- ./inp_files/20368.got.cif
#   From: 2010.05.17/outbox.cif.g08.bks.cpg/sg57_11_cif.got.tgz:20368.got - 2010.06.03 13:58:18.
