data_PCOD9437575
_publ_section_title
;
Structure prediction by ZEFSAII (Michael W. Deem and Ramdas Pophale) SiO2 
 PCOD9437575
Probable space group: P B C M
;
_chemical_formula_sum "Si O2"
_cell_formula_units_Z 48
_cell_length_a 9.612585
_cell_length_b 31.351361
_cell_length_c 8.761613
_cell_angle_alpha 90.000000
_cell_angle_beta 90.000000
_cell_angle_gamma 90.000000
_cell_volume 2640.466479
_symmetry_space_group_name_H-M "P B C M"
_symmetry_group_IT_number 57
_symmetry_cell_setting 'orthorhombic'
loop_
_space_group_symop_operation_xyz
x,y,z
-x,-y,1/2+z
x,1/2-y,-z
-x,1/2+y,1/2-z
-x,-y,-z
x,y,1/2-z
-x,1/2+y,z
x,1/2-y,1/2+z
loop_
_atom_site_type_symbol
_atom_site_label
_atom_site_fract_x
_atom_site_fract_y
_atom_site_fract_z
Si Si1 0.161919 0.952428 0.567526
Si Si2 0.845364 0.796028 0.566417
Si Si3 0.342177 0.876002 0.067423
Si Si4 0.349733 0.124883 0.065859
Si Si5 0.848789 0.296011 0.433434
Si Si6 0.838882 0.955179 0.566042
O O1 0.172859 0.951100 0.750000
O O2 0.258996 0.916540 0.496337
O O3 0.999499 0.944989 0.525437
O O4 0.198338 0.999621 0.508093
O O5 0.804035 0.750000 0.500000
O O6 0.854228 0.793651 0.750000
O O7 0.737994 0.833085 0.523732
O O8 0.998469 0.805810 0.500548
O O9 0.345208 0.878246 0.250000
O O10 0.258066 0.833197 0.023845
O O11 0.497741 0.874966 0.003997
O O12 0.360468 0.124211 0.250000
O O13 0.262399 0.083027 0.019438
O O14 0.807108 0.250000 0.500000
O O15 0.858010 0.293305 0.250000
O O16 0.833207 0.959415 0.750000
#
# Coordination Sequence:
#
# PCOD9437575 Si02
#       6
#     8   8   8   8   8   8
#     4  10  20  36  60  85 109 141 180 224 274 325
#     4  10  20  36  59  85 111 142 182 226 272 323
#     4  11  24  38  54  80 113 147 183 224 270 323
#     4  10  22  38  56  79 110 148 184 221 269 324
#     4  10  21  37  58  83 109 141 182 226 271 319
#     4   9  19  37  59  83 109 139 181 228 271 320
#
# _framework density 18.178605999999998
#
# number of rings (size 3 to 8) (size 9 to 14) (size 15 to 20)
#    0.000    2.000    0.000    4.000    0.000    8.000 
#    0.000    3.333    0.000    0.000    0.000    0.000 
#    0.000    0.000    0.000    0.000    0.000    0.000 
#
# Total GULP energy -268155.470335 kJ/mol
# GULP energy per Si atom -5586.572299 kJ/mol
# Density = 1.813723 g / cm^3
# Si number density = 18.178606 Si / 1000 Ang^3
#
#
#
# Elastic Constant Matrix: (Units=GPa)
#
#
# Indices 1 2 3 4 5 6 
#
# 1 151.1259 150.4581 55.4964 0.0000 0.0000 0.0000
# 2 150.4581 192.8802 63.0899 0.0000 0.0000 0.0000
# 3 55.4964 63.0899 44.4494 0.0000 0.0000 0.0000
# 4 0.0000 0.0000 0.0000 24.4409 0.0000 0.0000
# 5 0.0000 0.0000 0.0000 0.0000 31.0638 0.0000
# 6 0.0000 0.0000 0.0000 0.0000 0.0000 -9.5810
#
#
#
# Elastic Compliance Matrix: (Units=1/GPa)
#
#
# Indices 1 2 3 4 5 6 
#
# 1 0.031151 -0.021611 -0.008218 0.000000 0.000000 0.000000
# 2 -0.021611 0.024671 -0.008034 0.000000 0.000000 0.000000
# 3 -0.008218 -0.008034 0.044162 0.000000 0.000000 0.000000
# 4 0.000000 0.000000 0.000000 0.040915 0.000000 0.000000
# 5 0.000000 0.000000 0.000000 0.000000 0.032192 0.000000
# 6 0.000000 0.000000 0.000000 0.000000 0.000000 -0.104373
#
#
# Mechanical properties :
#
#
# Convention : Reuss Voigt Hill
#
# Bulk Modulus (GPa) = 41.22781 102.94936 72.08858
# Shear Modulus (GPa) = 32.78051 17.14548 24.96299
#
# Velocity S-wave (km/s) = 4.25107 3.07444 3.70970
# Velocity P-wave (km/s) = 6.84281 8.32814 7.62174
#
# Compressibility (1/GPa) = 0.02425547
#
# Stress axis : x y z
#
# Youngs Moduli (GPa) = 32.10211 40.53423 22.64393
#
# Poissons Ratio (x) = 0.87599 0.18610
# Poissons Ratio (y) = 0.69376 0.18193
# Poissons Ratio (z) = 0.26383 0.32566
#
# Static dielectric constant tensor:
#      x y z
#    x 1.592690 0.000000 0.000000 
#    y 0.000000 1.605570 0.000000 
#    z 0.000000 0.000000 1.611560 
# 
# From -- ./inp_files/1974.got.cif
#   From: 2010.05.17/outbox.cif.g08.bks.cpg/sg57_1_cif.got.tgz:1974.got - 2010.06.03 13:58:18.
