data_PCOD9437092
_publ_section_title
;
Structure prediction by ZEFSAII (Michael W. Deem and Ramdas Pophale) SiO2 
 PCOD9437092
Probable space group: P B C M
;
_chemical_formula_sum "Si O2"
_cell_formula_units_Z 64
_cell_length_a 25.753632
_cell_length_b 15.003626
_cell_length_c 8.420499
_cell_angle_alpha 90.000000
_cell_angle_beta 90.000000
_cell_angle_gamma 90.000000
_cell_volume 3253.662816
_symmetry_space_group_name_H-M "P B C M"
_symmetry_group_IT_number 57
_symmetry_cell_setting 'orthorhombic'
loop_
_space_group_symop_operation_xyz
x,y,z
-x,-y,1/2+z
x,1/2-y,-z
-x,1/2+y,1/2-z
-x,-y,-z
x,y,1/2-z
-x,1/2+y,z
x,1/2-y,1/2+z
loop_
_atom_site_type_symbol
_atom_site_label
_atom_site_fract_x
_atom_site_fract_y
_atom_site_fract_z
Si Si1 0.124788 0.454123 0.559975
Si Si2 0.367497 0.847774 0.939729
Si Si3 0.093661 0.655569 0.558637
Si Si4 0.017257 0.403188 0.440395
Si Si5 0.322959 0.472043 0.056284
Si Si6 0.481064 0.903893 0.441028
Si Si7 0.589494 0.659577 0.559681
Si Si8 0.773698 0.851976 0.440269
O O1 0.127587 0.456228 0.750000
O O2 0.117184 0.558676 0.506611
O O3 0.074515 0.395101 0.511467
O O4 0.175055 0.405771 0.491293
O O5 0.366994 0.847158 0.750000
O O6 0.328468 0.925756 0.995994
O O7 0.354303 0.750000 0.000000
O O8 0.426058 0.873129 0.991979
O O9 0.116595 0.750000 0.500000
O O10 0.095660 0.655200 0.750000
O O11 0.032664 0.654036 0.509240
O O12 0.020864 0.400092 0.250000
O O13 0.000000 0.500000 0.500000
O O14 0.321308 0.472289 0.250000
O O15 0.376283 0.423650 0.006861
O O16 0.275207 0.411439 0.001770
O O17 0.477923 0.902883 0.250000
O O18 0.530230 0.845364 0.495812
O O19 0.500000 0.000000 0.500000
O O20 0.614833 0.750000 0.500000
O O21 0.589090 0.659109 0.750000
O O22 0.773007 0.750000 0.500000
O O23 0.771428 0.848409 0.250000
#
# Coordination Sequence:
#
# PCOD9437092 Si02
#       8
#     8   8   8   8   8   8   8   8
#     4  10  21  38  57  83 118 154 196 247 294 346
#     4  11  22  40  61  85 118 154 194 239 286 347
#     4   9  19  33  53  82 117 155 193 235 281 334
#     4   9  17  31  51  79 114 154 197 239 287 340
#     4   9  20  40  61  81 112 147 184 234 288 341
#     4  11  21  35  56  83 117 156 192 231 284 339
#     4  10  20  35  54  80 111 146 181 224 276 332
#     4  11  23  41  65  88 111 146 188 237 297 353
#
# _framework density 19.670138999999999
#
# number of rings (size 3 to 8) (size 9 to 14) (size 15 to 20)
#    0.000    2.000    1.250    3.375    0.000    5.500 
#    0.000    5.000    0.000    3.000    0.000    0.000 
#    0.000    0.000    0.000    0.000    0.000    0.000 
#
# Total GULP energy -356814.260277 kJ/mol
# GULP energy per Si atom -5575.222817 kJ/mol
# Density = 1.962537 g / cm^3
# Si number density = 19.670139 Si / 1000 Ang^3
#
#
#
# Elastic Constant Matrix: (Units=GPa)
#
#
# Indices 1 2 3 4 5 6 
#
# 1 113.0896 66.5452 19.7577 0.0000 0.0000 0.0000
# 2 66.5452 179.5777 24.8269 0.0000 0.0000 0.0000
# 3 19.7577 24.8269 28.9214 0.0000 0.0000 0.0000
# 4 0.0000 0.0000 0.0000 31.4008 0.0000 0.0000
# 5 0.0000 0.0000 0.0000 0.0000 16.1137 0.0000
# 6 0.0000 0.0000 0.0000 0.0000 0.0000 26.2850
#
#
#
# Elastic Compliance Matrix: (Units=1/GPa)
#
#
# Indices 1 2 3 4 5 6 
#
# 1 0.011897 -0.003727 -0.004928 0.000000 0.000000 0.000000
# 2 -0.003727 0.007486 -0.003880 0.000000 0.000000 0.000000
# 3 -0.004928 -0.003880 0.041274 0.000000 0.000000 0.000000
# 4 0.000000 0.000000 0.000000 0.031846 0.000000 0.000000
# 5 0.000000 0.000000 0.000000 0.000000 0.062059 0.000000
# 6 0.000000 0.000000 0.000000 0.000000 0.000000 0.038044
#
#
# Mechanical properties :
#
#
# Convention : Reuss Voigt Hill
#
# Bulk Modulus (GPa) = 28.10059 60.42759 44.26409
# Shear Modulus (GPa) = 21.78285 28.79051 25.28668
#
# Velocity S-wave (km/s) = 3.33138 3.82994 3.58933
# Velocity P-wave (km/s) = 5.39578 7.09543 6.30315
#
# Compressibility (1/GPa) = 0.03558644
#
# Stress axis : x y z
#
# Youngs Moduli (GPa) = 84.05722 133.57852 24.22860
#
# Poissons Ratio (x) = 0.49788 0.11939
# Poissons Ratio (y) = 0.31330 0.09401
# Poissons Ratio (z) = 0.41420 0.51830
#
# Static dielectric constant tensor:
#      x y z
#    x 1.579070 0.000000 0.000000 
#    y 0.000000 1.738100 0.000000 
#    z 0.000000 0.000000 1.669320 
# 
# From -- ./inp_files/9313.got.cif
#   From: 2010.05.17/outbox.cif.g08.bks.cpg/sg57_5_cif.got.tgz:9313.got - 2010.06.03 13:58:18.
