data_PCOD9437687
_publ_section_title
;
Structure prediction by ZEFSAII (Michael W. Deem and Ramdas Pophale) SiO2 
 PCOD9437687
Probable space group: P B C M
;
_chemical_formula_sum "Si O2"
_cell_formula_units_Z 40
_cell_length_a 11.919487
_cell_length_b 7.765702
_cell_length_c 18.333432
_cell_angle_alpha 90.000000
_cell_angle_beta 90.000000
_cell_angle_gamma 90.000000
_cell_volume 1697.000840
_symmetry_space_group_name_H-M "P B C M"
_symmetry_group_IT_number 57
_symmetry_cell_setting 'orthorhombic'
loop_
_space_group_symop_operation_xyz
x,y,z
-x,-y,1/2+z
x,1/2-y,-z
-x,1/2+y,1/2-z
-x,-y,-z
x,y,1/2-z
-x,1/2+y,z
x,1/2-y,1/2+z
loop_
_atom_site_type_symbol
_atom_site_label
_atom_site_fract_x
_atom_site_fract_y
_atom_site_fract_z
Si Si1 0.171289 0.217862 0.419794
Si Si2 0.064962 0.659143 0.578322
Si Si3 0.371021 0.408556 0.666428
Si Si4 0.732838 0.205649 0.165324
Si Si5 0.430501 0.613472 0.057051
O O1 0.223797 0.250000 0.500000
O O2 0.261872 0.196610 0.357381
O O3 0.067182 0.342265 0.404294
O O4 0.111379 0.032487 0.426908
O O5 0.078186 0.750000 0.500000
O O6 0.142250 0.753914 0.637773
O O7 0.402056 0.382348 0.750000
O O8 0.336281 0.611231 0.656955
O O9 0.471000 0.346345 0.614672
O O10 0.728501 0.156837 0.250000
O O11 0.672888 0.072267 0.110244
O O12 0.380682 0.750000 0.000000
O O13 0.500000 0.500000 0.000000
#
# Coordination Sequence:
#
# PCOD9437687 Si02
#       5
#     8   8   8   8   8
#     4  10  20  37  61  90 121 159 202 249 296 354
#     4  10  20  36  62  87 121 160 202 247 295 354
#     4  10  22  40  61  88 125 161 199 252 307 360
#     4  10  22  40  61  88 124 161 198 248 310 365
#     4  12  23  41  66  89 116 157 205 252 303 369
#
# _framework density 23.570995
#
# number of rings (size 3 to 8) (size 9 to 14) (size 15 to 20)
#    0.000    1.600    2.000    4.200    2.800    0.800 
#    3.600    0.000    0.000    0.000    0.000    0.000 
#    0.000    0.000    0.000    0.000    0.000    0.000 
#
# Total GULP energy -223580.011835 kJ/mol
# GULP energy per Si atom -5589.500296 kJ/mol
# Density = 2.351735 g / cm^3
# Si number density = 23.570995 Si / 1000 Ang^3
#
#
#
# Elastic Constant Matrix: (Units=GPa)
#
#
# Indices 1 2 3 4 5 6 
#
# 1 70.2294 -10.9232 46.9887 0.0000 0.0000 0.0000
# 2 -10.9232 54.2816 15.5682 0.0000 0.0000 0.0000
# 3 46.9887 15.5682 180.2080 0.0000 0.0000 0.0000
# 4 0.0000 0.0000 0.0000 17.2103 0.0000 0.0000
# 5 0.0000 0.0000 0.0000 0.0000 15.1632 0.0000
# 6 0.0000 0.0000 0.0000 0.0000 0.0000 17.2869
#
#
#
# Elastic Compliance Matrix: (Units=1/GPa)
#
#
# Indices 1 2 3 4 5 6 
#
# 1 0.018609 0.005267 -0.005307 0.000000 0.000000 0.000000
# 2 0.005267 0.020381 -0.003134 0.000000 0.000000 0.000000
# 3 -0.005307 -0.003134 0.007204 0.000000 0.000000 0.000000
# 4 0.000000 0.000000 0.000000 0.058105 0.000000 0.000000
# 5 0.000000 0.000000 0.000000 0.000000 0.065949 0.000000
# 6 0.000000 0.000000 0.000000 0.000000 0.000000 0.057847
#
#
# Mechanical properties :
#
#
# Convention : Reuss Voigt Hill
#
# Bulk Modulus (GPa) = 25.09706 45.33184 35.21445
# Shear Modulus (GPa) = 20.18361 26.80444 23.49403
#
# Velocity S-wave (km/s) = 2.92942 3.37587 3.16054
# Velocity P-wave (km/s) = 4.70240 5.87104 5.31891
#
# Compressibility (1/GPa) = 0.03984530
#
# Stress axis : x y z
#
# Youngs Moduli (GPa) = 53.73674 49.06483 138.81625
#
# Poissons Ratio (x) = -0.25842 0.73674
# Poissons Ratio (y) = -0.28303 0.43506
# Poissons Ratio (z) = 0.28520 0.15377
#
# Static dielectric constant tensor:
#      x y z
#    x 2.149740 0.000000 0.000000 
#    y 0.000000 2.025740 0.000000 
#    z 0.000000 0.000000 1.811580 
# 
# From -- ./inp_files/21583.got.cif
#   From: 2010.05.17/outbox.cif.g08.bks.cpg/sg57_11_cif.got.tgz:21583.got - 2010.06.03 13:58:18.
