data_PCOD9437106
_publ_section_title
;
Structure prediction by ZEFSAII (Michael W. Deem and Ramdas Pophale) SiO2 
 PCOD9437106
Probable space group: P B C M
;
_chemical_formula_sum "Si O2"
_cell_formula_units_Z 56
_cell_length_a 21.966755
_cell_length_b 14.912904
_cell_length_c 8.687969
_cell_angle_alpha 90.000000
_cell_angle_beta 90.000000
_cell_angle_gamma 90.000000
_cell_volume 2846.075331
_symmetry_space_group_name_H-M "P B C M"
_symmetry_group_IT_number 57
_symmetry_cell_setting 'orthorhombic'
loop_
_space_group_symop_operation_xyz
x,y,z
-x,-y,1/2+z
x,1/2-y,-z
-x,1/2+y,1/2-z
-x,-y,-z
x,y,1/2-z
-x,1/2+y,z
x,1/2-y,1/2+z
loop_
_atom_site_type_symbol
_atom_site_label
_atom_site_fract_x
_atom_site_fract_y
_atom_site_fract_z
Si Si1 0.343879 0.849745 0.935173
Si Si2 0.280182 0.027587 0.935851
Si Si3 0.480109 0.851413 0.565585
Si Si4 0.956566 0.651343 0.064482
Si Si5 0.151710 0.021619 0.434111
Si Si6 0.604788 0.649074 0.565539
Si Si7 0.095523 0.651526 0.434371
O O1 0.341689 0.843283 0.750000
O O2 0.296868 0.926002 0.985170
O O3 0.412333 0.884124 0.974592
O O4 0.334383 0.750000 0.000000
O O5 0.275748 0.028462 0.750000
O O6 0.336544 0.091164 0.979287
O O7 0.216346 0.056400 0.006691
O O8 0.479974 0.750000 0.500000
O O9 0.485860 0.850543 0.750000
O O10 0.541097 0.892634 0.494296
O O11 0.955482 0.654520 0.250000
O O12 0.904819 0.582870 0.012069
O O13 0.025779 0.627188 0.018563
O O14 0.944149 0.750000 0.000000
O O15 0.151303 0.019468 0.250000
O O16 0.140091 0.922849 0.499783
O O17 0.610289 0.750000 0.500000
O O18 0.601702 0.653307 0.750000
O O19 0.108129 0.750000 0.500000
O O20 0.098779 0.653367 0.250000
#
# Coordination Sequence:
#
# PCOD9437106 Si02
#       7
#     8   8   8   8   8   8   8
#     4   9  19  36  56  78 105 136 174 220 269 322
#     4  10  23  40  54  74 107 148 187 220 265 323
#     4   9  16  29  52  79 104 131 168 218 273 324
#     4   9  20  37  59  87 115 143 180 225 272 323
#     4  11  23  38  56  82 114 147 185 227 270 321
#     4  10  20  35  55  77 105 140 178 223 272 323
#     4  10  20  37  61  87 114 145 180 222 272 323
#
# _framework density 19.676217999999999
#
# number of rings (size 3 to 8) (size 9 to 14) (size 15 to 20)
#    0.000    2.286    0.000    3.000    0.000    5.714 
#    0.000    4.286    0.000    0.000    0.000    0.000 
#    0.000    0.000    0.000    0.000    0.000    0.000 
#
# Total GULP energy -312617.810151 kJ/mol
# GULP energy per Si atom -5582.460896 kJ/mol
# Density = 1.963143 g / cm^3
# Si number density = 19.676218 Si / 1000 Ang^3
#
#
#
# Elastic Constant Matrix: (Units=GPa)
#
#
# Indices 1 2 3 4 5 6 
#
# 1 51.9119 11.5410 14.9782 0.0000 0.0000 0.0000
# 2 11.5410 40.2138 5.1707 0.0000 0.0000 0.0000
# 3 14.9782 5.1707 27.6183 0.0000 0.0000 0.0000
# 4 0.0000 0.0000 0.0000 21.9089 0.0000 0.0000
# 5 0.0000 0.0000 0.0000 0.0000 -109.1664 0.0000
# 6 0.0000 0.0000 0.0000 0.0000 0.0000 18.1932
#
#
#
# Elastic Compliance Matrix: (Units=1/GPa)
#
#
# Indices 1 2 3 4 5 6 
#
# 1 0.023898 -0.005320 -0.011965 0.000000 0.000000 0.000000
# 2 -0.005320 0.026665 -0.002107 0.000000 0.000000 0.000000
# 3 -0.011965 -0.002107 0.043091 0.000000 0.000000 0.000000
# 4 0.000000 0.000000 0.000000 0.045644 0.000000 0.000000
# 5 0.000000 0.000000 0.000000 0.000000 -0.009160 0.000000
# 6 0.000000 0.000000 0.000000 0.000000 0.000000 0.054966
#
#
# Mechanical properties :
#
#
# Convention : Reuss Voigt Hill
#
# Bulk Modulus (GPa) = 18.22465 20.34708 19.28586
# Shear Modulus (GPa) = 20.64605 -7.94260 6.35173
#
# Velocity S-wave (km/s) = 3.24279 -2.01132 1.79865
# Velocity P-wave (km/s) = 4.82735 2.22924 3.75984
#
# Compressibility (1/GPa) = 0.05487075
#
# Stress axis : x y z
#
# Youngs Moduli (GPa) = 41.84387 37.50260 23.20663
#
# Poissons Ratio (x) = 0.19952 0.27766
# Poissons Ratio (y) = 0.22262 0.04889
# Poissons Ratio (z) = 0.50065 0.07901
#
# Static dielectric constant tensor:
#      x y z
#    x 1.712170 0.000000 0.000000 
#    y 0.000000 1.671290 0.000000 
#    z 0.000000 0.000000 1.659260 
# 
# From -- ./inp_files/8084.got.cif
#   From: 2010.05.17/outbox.cif.g08.bks.cpg/sg57_5_cif.got.tgz:8084.got - 2010.06.03 13:58:18.
