data_PCOD9437838
_publ_section_title
;
Structure prediction by ZEFSAII (Michael W. Deem and Ramdas Pophale) SiO2 
 PCOD9437838
Probable space group: P B C M
;
_chemical_formula_sum "Si O2"
_cell_formula_units_Z 40
_cell_length_a 12.308800
_cell_length_b 7.739468
_cell_length_c 17.387930
_cell_angle_alpha 90.000000
_cell_angle_beta 90.000000
_cell_angle_gamma 90.000000
_cell_volume 1656.436177
_symmetry_space_group_name_H-M "P B C M"
_symmetry_group_IT_number 57
_symmetry_cell_setting 'orthorhombic'
loop_
_space_group_symop_operation_xyz
x,y,z
-x,-y,1/2+z
x,1/2-y,-z
-x,1/2+y,1/2-z
-x,-y,-z
x,y,1/2-z
-x,1/2+y,z
x,1/2-y,1/2+z
loop_
_atom_site_type_symbol
_atom_site_label
_atom_site_fract_x
_atom_site_fract_y
_atom_site_fract_z
Si Si1 0.314935 0.579213 0.449960
Si Si2 0.342982 0.118960 0.399778
Si Si3 0.880167 0.516374 0.339221
Si Si4 0.874564 0.102419 0.160137
Si Si5 0.533170 0.211219 0.839082
O O1 0.281577 0.750000 0.500000
O O2 0.355064 0.440108 0.512009
O O3 0.212883 0.526271 0.398218
O O4 0.407230 0.653418 0.394491
O O5 0.409079 0.282788 0.368477
O O6 0.215301 0.112501 0.383525
O O7 0.399627 0.963897 0.351086
O O8 0.872811 0.569562 0.250000
O O9 0.861586 0.310380 0.342957
O O10 0.002875 0.556372 0.363650
O O11 0.859150 0.049950 0.250000
O O12 0.538546 0.259552 0.750000
#
# Coordination Sequence:
#
# PCOD9437838 Si02
#       5
#     8   8   8   8   8
#     4  10  20  37  61  87 118 161 196 245 298 361
#     4  11  23  40  61  89 123 158 201 250 302 355
#     4  10  20  38  62  88 119 157 200 248 297 356
#     4  10  20  38  64  88 120 161 200 247 302 357
#     4  11  21  38  64  87 117 160 201 247 299 355
#
# _framework density 24.148230000000002
#
# number of rings (size 3 to 8) (size 9 to 14) (size 15 to 20)
#    0.000    1.600    4.000    3.000    0.000    0.800 
#    3.600    0.000    0.000    0.000    0.000    0.000 
#    0.000    0.000    0.000    0.000    0.000    0.000 
#
# Total GULP energy -224053.892638 kJ/mol
# GULP energy per Si atom -5601.347316 kJ/mol
# Density = 2.409327 g / cm^3
# Si number density = 24.148230 Si / 1000 Ang^3
#
#
#
# Elastic Constant Matrix: (Units=GPa)
#
#
# Indices 1 2 3 4 5 6 
#
# 1 135.1756 1.8695 69.7724 0.0000 0.0000 0.0000
# 2 1.8695 77.6093 -0.3644 0.0000 0.0000 0.0000
# 3 69.7724 -0.3644 141.6429 0.0000 0.0000 0.0000
# 4 0.0000 0.0000 0.0000 22.0154 0.0000 0.0000
# 5 0.0000 0.0000 0.0000 0.0000 87.6117 0.0000
# 6 0.0000 0.0000 0.0000 0.0000 0.0000 31.9204
#
#
#
# Elastic Compliance Matrix: (Units=1/GPa)
#
#
# Indices 1 2 3 4 5 6 
#
# 1 0.009925 -0.000262 -0.004890 0.000000 0.000000 0.000000
# 2 -0.000262 0.012892 0.000162 0.000000 0.000000 0.000000
# 3 -0.004890 0.000162 0.009469 0.000000 0.000000 0.000000
# 4 0.000000 0.000000 0.000000 0.045423 0.000000 0.000000
# 5 0.000000 0.000000 0.000000 0.000000 0.011414 0.000000
# 6 0.000000 0.000000 0.000000 0.000000 0.000000 0.031328
#
#
# Mechanical properties :
#
#
# Convention : Reuss Voigt Hill
#
# Bulk Modulus (GPa) = 44.82831 55.22031 50.02431
# Shear Modulus (GPa) = 36.26702 47.18619 41.72661
#
# Velocity S-wave (km/s) = 3.87958 4.42523 4.16136
# Velocity P-wave (km/s) = 6.21870 7.00193 6.62191
#
# Compressibility (1/GPa) = 0.02230733
#
# Stress axis : x y z
#
# Youngs Moduli (GPa) = 100.75214 77.56675 105.60638
#
# Poissons Ratio (x) = 0.02033 0.51640
# Poissons Ratio (y) = 0.02640 -0.01713
# Poissons Ratio (z) = 0.49266 -0.01258
#
# Static dielectric constant tensor:
#      x y z
#    x 1.900470 0.000000 0.000000 
#    y 0.000000 2.057810 0.000000 
#    z 0.000000 0.000000 1.875370 
# 
# From -- ./inp_files/21600.got.cif
#   From: 2010.05.17/outbox.cif.g08.bks.cpg/sg57_11_cif.got.tgz:21600.got - 2010.06.03 13:58:18.
