data_PCOD9437352
_publ_section_title
;
Structure prediction by ZEFSAII (Michael W. Deem and Ramdas Pophale) SiO2 
 PCOD9437352
Probable space group: P B C M
;
_chemical_formula_sum "Si O2"
_cell_formula_units_Z 56
_cell_length_a 6.735394
_cell_length_b 13.910162
_cell_length_c 25.484333
_cell_angle_alpha 90.000000
_cell_angle_beta 90.000000
_cell_angle_gamma 90.000000
_cell_volume 2387.637905
_symmetry_space_group_name_H-M "P B C M"
_symmetry_group_IT_number 57
_symmetry_cell_setting 'orthorhombic'
loop_
_space_group_symop_operation_xyz
x,y,z
-x,-y,1/2+z
x,1/2-y,-z
-x,1/2+y,1/2-z
-x,-y,-z
x,y,1/2-z
-x,1/2+y,z
x,1/2-y,1/2+z
loop_
_atom_site_type_symbol
_atom_site_label
_atom_site_fract_x
_atom_site_fract_y
_atom_site_fract_z
Si Si1 0.914418 0.153672 0.572516
Si Si2 0.733735 0.020576 0.310168
Si Si3 0.496897 0.151726 0.375333
Si Si4 0.974834 0.367656 0.542624
Si Si5 0.441513 0.140968 0.488971
Si Si6 0.125597 0.015487 0.135690
Si Si7 0.623798 0.629471 0.896682
O O1 0.878768 0.111602 0.513871
O O2 0.458034 0.234988 0.618663
O O3 0.143334 0.146251 0.589960
O O4 0.801806 0.089006 0.615492
O O5 0.676223 0.009813 0.250000
O O6 0.663561 0.122439 0.333944
O O7 0.970566 0.008905 0.317242
O O8 0.627282 0.943560 0.348303
O O9 0.891132 0.232060 0.434220
O O10 0.542084 0.112142 0.434287
O O11 0.297212 0.094033 0.357963
O O12 0.207776 0.353951 0.526740
O O13 0.988554 0.447511 0.586885
O O14 0.503719 0.250000 0.500000
O O15 0.458450 0.094601 0.546316
#
# Coordination Sequence:
#
# PCOD9437352 Si02
#       7
#     8   8   8   8   8   8   8
#     4   9  14  27  55  88 120 153 185 225 286 363
#     4  11  26  42  57  86 117 153 211 257 283 343
#     4  10  20  40  65  89 119 155 191 243 311 362
#     4   9  13  27  51  88 121 153 183 221 293 355
#     4   8  12  28  60  88 114 152 186 226 295 371
#     4  10  20  35  61  85 112 152 197 242 290 351
#     4   9  17  37  63  83 123 158 186 241 309 359
#
# _framework density 23.454143999999999
#
# number of rings (size 3 to 8) (size 9 to 14) (size 15 to 20)
#    0.000    2.571    5.714    0.429    0.000    2.857 
#    2.571    0.000    6.286    0.000    0.000    0.000 
#    0.000    0.000    0.000    0.000    0.000    0.000 
#
# Total GULP energy -312990.178345 kJ/mol
# GULP energy per Si atom -5589.110328 kJ/mol
# Density = 2.340076 g / cm^3
# Si number density = 23.454144 Si / 1000 Ang^3
#
#
#
# Elastic Constant Matrix: (Units=GPa)
#
#
# Indices 1 2 3 4 5 6 
#
# 1 83.7715 11.5975 24.3851 0.0000 0.0000 0.0000
# 2 11.5975 100.3564 32.0815 0.0000 0.0000 0.0000
# 3 24.3851 32.0815 152.1319 0.0000 0.0000 0.0000
# 4 0.0000 0.0000 0.0000 21.2569 0.0000 0.0000
# 5 0.0000 0.0000 0.0000 0.0000 27.8843 0.0000
# 6 0.0000 0.0000 0.0000 0.0000 0.0000 33.1643
#
#
#
# Elastic Compliance Matrix: (Units=1/GPa)
#
#
# Indices 1 2 3 4 5 6 
#
# 1 0.012592 -0.000868 -0.001835 0.000000 0.000000 0.000000
# 2 -0.000868 0.010745 -0.002127 0.000000 0.000000 0.000000
# 3 -0.001835 -0.002127 0.007316 0.000000 0.000000 0.000000
# 4 0.000000 0.000000 0.000000 0.047044 0.000000 0.000000
# 5 0.000000 0.000000 0.000000 0.000000 0.035863 0.000000
# 6 0.000000 0.000000 0.000000 0.000000 0.000000 0.030153
#
#
# Mechanical properties :
#
#
# Convention : Reuss Voigt Hill
#
# Bulk Modulus (GPa) = 47.63793 52.48757 50.06275
# Shear Modulus (GPa) = 31.17810 34.34080 32.75945
#
# Velocity S-wave (km/s) = 3.64994 3.83060 3.74136
# Velocity P-wave (km/s) = 6.17397 6.48012 6.32890
#
# Compressibility (1/GPa) = 0.02099168
#
# Stress axis : x y z
#
# Youngs Moduli (GPa) = 79.41759 93.06925 136.68931
#
# Poissons Ratio (x) = 0.08083 0.25085
# Poissons Ratio (y) = 0.06897 0.29069
# Poissons Ratio (z) = 0.14574 0.19792
#
# Static dielectric constant tensor:
#      x y z
#    x 2.051840 0.000000 0.000000 
#    y 0.000000 1.903590 0.000000 
#    z 0.000000 0.000000 1.834260 
# 
# From -- ./inp_files/23781.got.cif
#   From: 2010.05.17/outbox.cif.g08.bks.cpg/sg57_12_cif.got.tgz:23781.got - 2010.06.03 13:58:18.
