data_PCOD9437114
_publ_section_title
;
Structure prediction by ZEFSAII (Michael W. Deem and Ramdas Pophale) SiO2 
 PCOD9437114
Probable space group: P B C M
;
_chemical_formula_sum "Si O2"
_cell_formula_units_Z 64
_cell_length_a 19.723107
_cell_length_b 22.293063
_cell_length_c 8.562314
_cell_angle_alpha 90.000000
_cell_angle_beta 90.000000
_cell_angle_gamma 90.000000
_cell_volume 3764.750716
_symmetry_space_group_name_H-M "P B C M"
_symmetry_group_IT_number 57
_symmetry_cell_setting 'orthorhombic'
loop_
_space_group_symop_operation_xyz
x,y,z
-x,-y,1/2+z
x,1/2-y,-z
-x,1/2+y,1/2-z
-x,-y,-z
x,y,1/2-z
-x,1/2+y,z
x,1/2-y,1/2+z
loop_
_atom_site_type_symbol
_atom_site_label
_atom_site_fract_x
_atom_site_fract_y
_atom_site_fract_z
Si Si1 0.822704 0.009706 0.439912
Si Si2 0.968191 0.684508 0.435373
Si Si3 0.037975 0.560115 0.439279
Si Si4 0.463051 0.559642 0.936396
Si Si5 0.597702 0.616040 0.562287
Si Si6 0.332089 0.511663 0.062251
Si Si7 0.840140 0.624924 0.565415
Si Si8 0.713928 0.685009 0.066664
O O1 0.819401 0.008929 0.250000
O O2 0.882623 0.054783 0.484585
O O3 0.745325 0.019237 0.494539
O O4 0.848676 0.943650 0.487677
O O5 0.987940 0.750000 0.500000
O O6 0.975799 0.686796 0.250000
O O7 0.890401 0.670084 0.479571
O O8 0.007049 0.624010 0.492866
O O9 0.033390 0.558512 0.250000
O O10 0.000000 0.500000 0.500000
O O11 0.459897 0.555755 0.750000
O O12 0.518235 0.610350 0.976867
O O13 0.500000 0.500000 0.000000
O O14 0.387257 0.559464 0.002220
O O15 0.604210 0.623295 0.750000
O O16 0.636464 0.553558 0.519859
O O17 0.637293 0.667313 0.472662
O O18 0.331515 0.513890 0.250000
O O19 0.852696 0.628836 0.750000
O O20 0.763096 0.640818 0.527116
O O21 0.727347 0.681270 0.250000
O O22 0.728975 0.750000 0.000000
#
# Coordination Sequence:
#
# PCOD9437114 Si02
#       8
#     8   8   8   8   8   8   8   8
#     4   9  17  31  52  75 102 136 165 204 263 313
#     4  11  23  37  54  78 105 136 179 220 261 313
#     4  10  20  35  55  79 104 134 174 217 264 318
#     4   9  17  28  44  67  95 125 156 193 237 283
#     4   9  17  31  47  66  94 129 164 200 246 294
#     4   9  16  29  48  70  97 127 159 195 243 299
#     4  11  20  35  55  72 100 137 173 211 259 309
#     4  12  24  35  48  68  97 132 174 215 252 298
#
# _framework density 16.999796
#
# number of rings (size 3 to 8) (size 9 to 14) (size 15 to 20)
#    0.000    2.000    2.500    3.375    0.000    3.000 
#    0.000    0.625    0.000    0.000    0.000    0.875 
#    0.000    4.000    0.000    0.000    0.000    0.000 
#
# Total GULP energy -356657.130754 kJ/mol
# GULP energy per Si atom -5572.767668 kJ/mol
# Density = 1.696110 g / cm^3
# Si number density = 16.999796 Si / 1000 Ang^3
#
#
#
# Elastic Constant Matrix: (Units=GPa)
#
#
# Indices 1 2 3 4 5 6 
#
# 1 100.9189 35.2425 8.7411 0.0000 0.0000 0.0000
# 2 35.2425 71.1037 14.0153 0.0000 0.0000 0.0000
# 3 8.7411 14.0153 13.1172 0.0000 0.0000 0.0000
# 4 0.0000 0.0000 0.0000 18.1401 0.0000 0.0000
# 5 0.0000 0.0000 0.0000 0.0000 21.7740 0.0000
# 6 0.0000 0.0000 0.0000 0.0000 0.0000 23.2905
#
#
#
# Elastic Compliance Matrix: (Units=1/GPa)
#
#
# Indices 1 2 3 4 5 6 
#
# 1 0.012028 -0.005551 -0.002084 0.000000 0.000000 0.000000
# 2 -0.005551 0.020378 -0.018074 0.000000 0.000000 0.000000
# 3 -0.002084 -0.018074 0.096937 0.000000 0.000000 0.000000
# 4 0.000000 0.000000 0.000000 0.055127 0.000000 0.000000
# 5 0.000000 0.000000 0.000000 0.000000 0.045926 0.000000
# 6 0.000000 0.000000 0.000000 0.000000 0.000000 0.042936
#
#
# Mechanical properties :
#
#
# Convention : Reuss Voigt Hill
#
# Bulk Modulus (GPa) = 12.83303 33.45972 23.14638
# Shear Modulus (GPa) = 14.25620 21.11698 17.68659
#
# Velocity S-wave (km/s) = 2.89902 3.52830 3.22902
# Velocity P-wave (km/s) = 4.33256 6.02691 5.24856
#
# Compressibility (1/GPa) = 0.07792390
#
# Stress axis : x y z
#
# Youngs Moduli (GPa) = 83.14005 49.07299 10.31600
#
# Poissons Ratio (x) = 0.27239 0.02150
# Poissons Ratio (y) = 0.46149 0.18645
# Poissons Ratio (z) = 0.17329 0.88695
#
# Static dielectric constant tensor:
#      x y z
#    x 1.608170 0.000000 0.000000 
#    y 0.000000 1.560250 0.000000 
#    z 0.000000 0.000000 1.574120 
# 
# From -- ./inp_files/8603.got.cif
#   From: 2010.05.17/outbox.cif.g08.bks.cpg/sg57_5_cif.got.tgz:8603.got - 2010.06.03 13:58:18.
