data_PCOD9437275
_publ_section_title
;
Structure prediction by ZEFSAII (Michael W. Deem and Ramdas Pophale) SiO2 
 PCOD9437275
Probable space group: P B C M
;
_chemical_formula_sum "Si O2"
_cell_formula_units_Z 56
_cell_length_a 5.603666
_cell_length_b 32.294533
_cell_length_c 14.785350
_cell_angle_alpha 90.000000
_cell_angle_beta 90.000000
_cell_angle_gamma 90.000000
_cell_volume 2675.671915
_symmetry_space_group_name_H-M "P B C M"
_symmetry_group_IT_number 57
_symmetry_cell_setting 'orthorhombic'
loop_
_space_group_symop_operation_xyz
x,y,z
-x,-y,1/2+z
x,1/2-y,-z
-x,1/2+y,1/2-z
-x,-y,-z
x,y,1/2-z
-x,1/2+y,z
x,1/2-y,1/2+z
loop_
_atom_site_type_symbol
_atom_site_label
_atom_site_fract_x
_atom_site_fract_y
_atom_site_fract_z
Si Si1 0.118348 0.269010 0.100249
Si Si2 0.109741 0.416210 0.855042
Si Si3 0.818419 0.799824 0.750000
Si Si4 0.268076 0.546649 0.489268
Si Si5 0.577370 0.997809 0.647513
Si Si6 0.491013 0.627173 0.065304
Si Si7 0.689108 0.150347 0.250000
Si Si8 0.387533 0.793565 0.055103
O O1 0.152250 0.230252 0.164902
O O2 0.863620 0.292371 0.109130
O O3 0.363160 0.294880 0.109767
O O4 0.113069 0.250000 0.000000
O O5 0.028207 0.411921 0.750000
O O6 0.308025 0.452400 0.845588
O O7 0.240650 0.375489 0.895097
O O8 0.951269 0.433862 0.936023
O O9 0.061631 0.826211 0.750000
O O10 0.553064 0.820509 0.750000
O O11 0.357222 0.510544 0.420412
O O12 0.250618 0.527460 0.588824
O O13 0.446702 0.586101 0.493427
O O14 0.523825 0.011648 0.750000
O O15 0.336778 0.625185 0.157176
O O16 0.410416 0.668105 0.013658
O O17 0.390287 0.750000 0.000000
#
# Coordination Sequence:
#
# PCOD9437275 Si02
#       8
#     8   8   4   8   8   8   4   8
#     4  10  20  38  59  85 114 152 204 259 305 367
#     4  10  20  35  57  91 126 156 194 260 320 387
#     4  12  24  40  66  92 118 160 216 269 327 390
#     4  10  21  35  60  90 123 162 204 255 325 383
#     4   9  19  38  60  88 120 161 209 256 309 386
#     4  11  24  35  57  89 126 161 200 261 326 382
#     4  12  24  36  58  96 130 158 200 259 337 396
#     4  10  21  38  58  81 118 165 207 249 307 369
#
# _framework density 20.929321999999999
#
# number of rings (size 3 to 8) (size 9 to 14) (size 15 to 20)
#    0.000    1.714    0.714    5.143    6.000    0.000 
#    0.000    0.000    3.143    0.000    0.000    0.000 
#    0.000    0.000    0.000    0.000    0.000    0.000 
#
# Total GULP energy -312038.574954 kJ/mol
# GULP energy per Si atom -5572.117410 kJ/mol
# Density = 2.088169 g / cm^3
# Si number density = 20.929322 Si / 1000 Ang^3
#
#
#
# Elastic Constant Matrix: (Units=GPa)
#
#
# Indices 1 2 3 4 5 6 
#
# 1 111.7245 11.8153 7.9999 0.0000 0.0000 0.0000
# 2 11.8153 81.8049 41.7637 0.0000 0.0000 0.0000
# 3 7.9999 41.7637 98.4538 0.0000 0.0000 0.0000
# 4 0.0000 0.0000 0.0000 133.5291 0.0000 0.0000
# 5 0.0000 0.0000 0.0000 0.0000 23.1235 0.0000
# 6 0.0000 0.0000 0.0000 0.0000 0.0000 37.0727
#
#
#
# Elastic Compliance Matrix: (Units=1/GPa)
#
#
# Indices 1 2 3 4 5 6 
#
# 1 0.009094 -0.001195 -0.000232 0.000000 0.000000 0.000000
# 2 -0.001195 0.015760 -0.006588 0.000000 0.000000 0.000000
# 3 -0.000232 -0.006588 0.012971 0.000000 0.000000 0.000000
# 4 0.000000 0.000000 0.000000 0.007489 0.000000 0.000000
# 5 0.000000 0.000000 0.000000 0.000000 0.043246 0.000000
# 6 0.000000 0.000000 0.000000 0.000000 0.000000 0.026974
#
#
# Mechanical properties :
#
#
# Convention : Reuss Voigt Hill
#
# Bulk Modulus (GPa) = 45.88440 46.12677 46.00559
# Shear Modulus (GPa) = 36.01552 54.10535 45.06044
#
# Velocity S-wave (km/s) = 4.15277 5.08995 4.64506
# Velocity P-wave (km/s) = 6.70560 7.52533 7.12726
#
# Compressibility (1/GPa) = 0.02179390
#
# Stress axis : x y z
#
# Youngs Moduli (GPa) = 109.96780 63.45031 77.09702
#
# Poissons Ratio (x) = 0.07582 0.01789
# Poissons Ratio (y) = 0.13141 0.50795
# Poissons Ratio (z) = 0.02551 0.41804
#
# Static dielectric constant tensor:
#      x y z
#    x 1.943270 0.000000 0.000000 
#    y 0.000000 1.764460 0.000000 
#    z 0.000000 0.000000 1.755730 
# 
# From -- ./inp_files/15309.got.cif
#   From: 2010.05.17/outbox.cif.g08.bks.cpg/sg57_8_cif.got.tgz:15309.got - 2010.06.03 13:58:18.
