data_PCOD9437971
_publ_section_title
;
Structure prediction by ZEFSAII (Michael W. Deem and Ramdas Pophale) SiO2 
 PCOD9437971
Probable space group: P B C M
;
_chemical_formula_sum "Si O2"
_cell_formula_units_Z 64
_cell_length_a 8.626473
_cell_length_b 23.511530
_cell_length_c 15.680217
_cell_angle_alpha 90.000000
_cell_angle_beta 90.000000
_cell_angle_gamma 90.000000
_cell_volume 3180.286367
_symmetry_space_group_name_H-M "P B C M"
_symmetry_group_IT_number 57
_symmetry_cell_setting 'orthorhombic'
loop_
_space_group_symop_operation_xyz
x,y,z
-x,-y,1/2+z
x,1/2-y,-z
-x,1/2+y,1/2-z
-x,-y,-z
x,y,1/2-z
-x,1/2+y,z
x,1/2-y,1/2+z
loop_
_atom_site_type_symbol
_atom_site_label
_atom_site_fract_x
_atom_site_fract_y
_atom_site_fract_z
Si Si1 0.652321 0.310607 0.981633
Si Si2 0.114096 0.631889 0.894627
Si Si3 0.614239 0.629421 0.938574
Si Si4 0.256124 0.485794 0.513216
Si Si5 0.927766 0.185175 0.150467
Si Si6 0.386441 0.944393 0.157809
Si Si7 0.847349 0.713101 0.847533
Si Si8 0.041552 0.931752 0.566877
O O1 0.766725 0.308547 0.901237
O O2 0.580883 0.250000 0.000000
O O3 0.766731 0.324973 0.060013
O O4 0.511340 0.354046 0.988795
O O5 0.221117 0.587790 0.845102
O O6 0.985486 0.666667 0.845787
O O7 0.039077 0.599946 0.975290
O O8 0.514497 0.603844 0.860234
O O9 0.718424 0.682468 0.906872
O O10 0.703041 0.574603 0.973781
O O11 0.381058 0.513362 0.576847
O O12 0.198697 0.530950 0.441547
O O13 0.103298 0.473579 0.570710
O O14 0.905656 0.197119 0.250000
O O15 0.968397 0.118990 0.134218
O O16 0.065177 0.228779 0.121222
O O17 0.410722 0.971405 0.250000
O O18 0.790888 0.722478 0.750000
#
# Coordination Sequence:
#
# PCOD9437971 Si02
#       8
#     8   8   8   8   8   8   8   8
#     4  10  20  38  60  86 118 164 206 240 307 382
#     4   9  17  35  59  85 110 151 200 246 293 369
#     4  11  23  38  58  90 123 161 207 260 307 371
#     4  10  20  38  60  83 118 165 210 253 296 363
#     4  10  22  39  63  95 127 159 204 259 314 375
#     4  10  21  36  56  83 119 156 197 251 311 367
#     4  11  21  36  61  92 125 154 196 267 319 351
#     4   9  19  36  61  86 117 153 207 254 298 356
#
# _framework density 20.123974
#
# number of rings (size 3 to 8) (size 9 to 14) (size 15 to 20)
#    0.000    2.000    2.500    1.875    0.000    1.500 
#    0.000    3.750    0.000    0.000    0.000    0.000 
#    0.000    0.000    0.000    0.000    0.000    0.000 
#
# Total GULP energy -356475.109550 kJ/mol
# GULP energy per Si atom -5569.923587 kJ/mol
# Density = 2.007817 g / cm^3
# Si number density = 20.123974 Si / 1000 Ang^3
#
#
#
# Elastic Constant Matrix: (Units=GPa)
#
#
# Indices 1 2 3 4 5 6 
#
# 1 83.3429 33.3692 26.7304 0.0000 0.0000 0.0000
# 2 33.3692 95.2513 18.6874 0.0000 0.0000 0.0000
# 3 26.7304 18.6874 70.2244 0.0000 0.0000 0.0000
# 4 0.0000 0.0000 0.0000 17.4774 0.0000 0.0000
# 5 0.0000 0.0000 0.0000 0.0000 14.2655 0.0000
# 6 0.0000 0.0000 0.0000 0.0000 0.0000 46.0240
#
#
#
# Elastic Compliance Matrix: (Units=1/GPa)
#
#
# Indices 1 2 3 4 5 6 
#
# 1 0.015260 -0.004438 -0.004627 0.000000 0.000000 0.000000
# 2 -0.004438 0.012368 -0.001602 0.000000 0.000000 0.000000
# 3 -0.004627 -0.001602 0.016428 0.000000 0.000000 0.000000
# 4 0.000000 0.000000 0.000000 0.057217 0.000000 0.000000
# 5 0.000000 0.000000 0.000000 0.000000 0.070099 0.000000
# 6 0.000000 0.000000 0.000000 0.000000 0.000000 0.021728
#
#
# Mechanical properties :
#
#
# Convention : Reuss Voigt Hill
#
# Bulk Modulus (GPa) = 44.01345 45.15472 44.58408
# Shear Modulus (GPa) = 22.52181 26.88882 24.70532
#
# Velocity S-wave (km/s) = 3.34900 3.65932 3.50759
# Velocity P-wave (km/s) = 6.07232 6.35147 6.21346
#
# Compressibility (1/GPa) = 0.02272033
#
# Stress axis : x y z
#
# Youngs Moduli (GPa) = 65.53206 80.85661 60.87265
#
# Poissons Ratio (x) = 0.35884 0.28169
# Poissons Ratio (y) = 0.29083 0.09751
# Poissons Ratio (z) = 0.30325 0.12952
#
# Static dielectric constant tensor:
#      x y z
#    x 1.758850 0.000000 0.000000 
#    y 0.000000 1.760210 0.000000 
#    z 0.000000 0.000000 1.714260 
# 
# From -- ./inp_files/16983.got.cif
#   From: 2010.05.17/outbox.cif.g08.bks.cpg/sg57_9_cif.got.tgz:16983.got - 2010.06.03 13:58:18.
