data_PCOD9437574
_publ_section_title
;
Structure prediction by ZEFSAII (Michael W. Deem and Ramdas Pophale) SiO2 
 PCOD9437574
Probable space group: P B C M
;
_chemical_formula_sum "Si O2"
_cell_formula_units_Z 40
_cell_length_a 13.133647
_cell_length_b 10.223286
_cell_length_c 17.128052
_cell_angle_alpha 90.000000
_cell_angle_beta 90.000000
_cell_angle_gamma 90.000000
_cell_volume 2299.766919
_symmetry_space_group_name_H-M "P B C M"
_symmetry_group_IT_number 57
_symmetry_cell_setting 'orthorhombic'
loop_
_space_group_symop_operation_xyz
x,y,z
-x,-y,1/2+z
x,1/2-y,-z
-x,1/2+y,1/2-z
-x,-y,-z
x,y,1/2-z
-x,1/2+y,z
x,1/2-y,1/2+z
loop_
_atom_site_type_symbol
_atom_site_label
_atom_site_fract_x
_atom_site_fract_y
_atom_site_fract_z
Si Si1 0.516440 0.624317 0.555571
Si Si2 0.312330 0.771375 0.406215
Si Si3 0.916662 0.216618 0.908122
Si Si4 0.305575 0.480975 0.157738
Si Si5 0.929602 0.994502 0.342842
O O1 0.529159 0.750000 0.500000
O O2 0.500000 0.500000 0.500000
O O3 0.413027 0.856887 0.394131
O O4 0.614578 0.602919 0.608905
O O5 0.309496 0.750000 0.500000
O O6 0.199739 0.821905 0.385737
O O7 0.325531 0.632463 0.364255
O O8 0.942491 0.353020 0.865007
O O9 0.992800 0.100997 0.886210
O O10 0.920030 0.250000 0.000000
O O11 0.317377 0.461500 0.250000
O O12 0.187276 0.457754 0.136614
O O13 0.942099 0.979600 0.250000
#
# Coordination Sequence:
#
# PCOD9437574 Si02
#       5
#     8   8   8   8   8
#     4  11  20  38  61  82 111 149 185 227 279 334
#     4   9  18  36  60  81 112 146 186 223 282 333
#     4  10  20  36  59  85 110 145 193 233 270 332
#     4  10  21  37  57  83 114 149 186 231 280 332
#     4  10  21  38  57  80 116 152 182 228 288 332
#
# _framework density 17.393066999999999
#
# number of rings (size 3 to 8) (size 9 to 14) (size 15 to 20)
#    0.000    2.000    4.000    1.200    0.000    2.400 
#    3.600    0.000    0.000    0.000    0.000    0.000 
#    0.000    0.000    0.000    0.000    0.000    0.000 
#
# Total GULP energy -223044.444161 kJ/mol
# GULP energy per Si atom -5576.111104 kJ/mol
# Density = 1.735348 g / cm^3
# Si number density = 17.393067 Si / 1000 Ang^3
#
#
#
# Elastic Constant Matrix: (Units=GPa)
#
#
# Indices 1 2 3 4 5 6 
#
# 1 115.9568 52.1183 17.7463 0.0000 0.0000 0.0000
# 2 52.1183 70.7906 13.2713 0.0000 0.0000 0.0000
# 3 17.7463 13.2713 29.8019 0.0000 0.0000 0.0000
# 4 0.0000 0.0000 0.0000 30.3236 0.0000 0.0000
# 5 0.0000 0.0000 0.0000 0.0000 -4.6567 0.0000
# 6 0.0000 0.0000 0.0000 0.0000 0.0000 485.7335
#
#
#
# Elastic Compliance Matrix: (Units=1/GPa)
#
#
# Indices 1 2 3 4 5 6 
#
# 1 0.013288 -0.009056 -0.003880 0.000000 0.000000 0.000000
# 2 -0.009056 0.021584 -0.004219 0.000000 0.000000 0.000000
# 3 -0.003880 -0.004219 0.037744 0.000000 0.000000 0.000000
# 4 0.000000 0.000000 0.000000 0.032978 0.000000 0.000000
# 5 0.000000 0.000000 0.000000 0.000000 -0.214746 0.000000
# 6 0.000000 0.000000 0.000000 0.000000 0.000000 0.002059
#
#
# Mechanical properties :
#
#
# Convention : Reuss Voigt Hill
#
# Bulk Modulus (GPa) = 26.10530 42.53568 34.32049
# Shear Modulus (GPa) = -83.31378 111.17430 13.93026
#
# Velocity S-wave (km/s) = -6.92853 8.00359 2.83310
# Velocity P-wave (km/s) = 6.99746 10.48421 5.52061
#
# Compressibility (1/GPa) = 0.03830640
#
# Stress axis : x y z
#
# Youngs Moduli (GPa) = 75.25677 46.33018 26.49404
#
# Poissons Ratio (x) = 0.41955 0.10280
# Poissons Ratio (y) = 0.68149 0.11179
# Poissons Ratio (z) = 0.29200 0.19549
#
# Static dielectric constant tensor:
#      x y z
#    x 1.622590 0.000000 0.000000 
#    y 0.000000 1.558450 0.000000 
#    z 0.000000 0.000000 1.583150 
# 
# From -- ./inp_files/17386.got.cif
#   From: 2010.05.17/outbox.cif.g08.bks.cpg/sg57_9_cif.got.tgz:17386.got - 2010.06.03 13:58:18.
