data_PCOD9437772
_publ_section_title
;
Structure prediction by ZEFSAII (Michael W. Deem and Ramdas Pophale) SiO2 
 PCOD9437772
Probable space group: P B C M
;
_chemical_formula_sum "Si O2"
_cell_formula_units_Z 32
_cell_length_a 9.459052
_cell_length_b 20.958105
_cell_length_c 8.592167
_cell_angle_alpha 90.000000
_cell_angle_beta 90.000000
_cell_angle_gamma 90.000000
_cell_volume 1703.343879
_symmetry_space_group_name_H-M "P B C M"
_symmetry_group_IT_number 57
_symmetry_cell_setting 'orthorhombic'
loop_
_space_group_symop_operation_xyz
x,y,z
-x,-y,1/2+z
x,1/2-y,-z
-x,1/2+y,1/2-z
-x,-y,-z
x,y,1/2-z
-x,1/2+y,z
x,1/2-y,1/2+z
loop_
_atom_site_type_symbol
_atom_site_label
_atom_site_fract_x
_atom_site_fract_y
_atom_site_fract_z
Si Si1 0.915131 0.560921 0.437446
Si Si2 0.411596 0.059473 0.437588
Si Si3 0.404213 0.680727 0.062746
Si Si4 0.088469 0.680064 0.936150
O O1 0.920495 0.561240 0.250000
O O2 0.751438 0.557101 0.487658
O O3 0.000000 0.500000 0.500000
O O4 0.987180 0.625009 0.500809
O O5 0.413395 0.057120 0.250000
O O6 0.488535 0.125061 0.484507
O O7 0.500000 0.000000 0.500000
O O8 0.395114 0.682990 0.250000
O O9 0.448060 0.750000 0.000000
O O10 0.248022 0.667298 0.995872
O O11 0.088227 0.680993 0.750000
O O12 0.048371 0.750000 0.000000
#
# Coordination Sequence:
#
# PCOD9437772 Si02
#       4
#     8   8   8   8
#     4  11  23  40  59  85 117 152 192 237 285 339
#     4  10  23  39  58  83 114 148 188 234 283 336
#     4  10  20  37  59  85 114 148 186 231 281 337
#     4  11  22  38  60  87 116 152 191 234 283 338
#
# _framework density 18.786574999999999
#
# number of rings (size 3 to 8) (size 9 to 14) (size 15 to 20)
#    0.000    1.500    0.000    6.750    0.000    9.000 
#    0.000    2.500    0.000    0.000    0.000    0.000 
#    0.000    0.000    0.000    0.000    0.000    0.000 
#
# Total GULP energy -178920.876302 kJ/mol
# GULP energy per Si atom -5591.277384 kJ/mol
# Density = 1.874382 g / cm^3
# Si number density = 18.786575 Si / 1000 Ang^3
#
#
#
# Elastic Constant Matrix: (Units=GPa)
#
#
# Indices 1 2 3 4 5 6 
#
# 1 171.9283 151.6682 54.9522 0.0000 0.0000 0.0000
# 2 151.6682 187.7741 56.9820 0.0000 0.0000 0.0000
# 3 54.9522 56.9820 89.6375 0.0000 0.0000 0.0000
# 4 0.0000 0.0000 0.0000 39.6982 0.0000 0.0000
# 5 0.0000 0.0000 0.0000 0.0000 28.7630 0.0000
# 6 0.0000 0.0000 0.0000 0.0000 0.0000 44.2687
#
#
#
# Elastic Compliance Matrix: (Units=1/GPa)
#
#
# Indices 1 2 3 4 5 6 
#
# 1 0.020695 -0.015940 -0.002554 0.000000 0.000000 0.000000
# 2 -0.015940 0.018877 -0.002228 0.000000 0.000000 0.000000
# 3 -0.002554 -0.002228 0.014138 0.000000 0.000000 0.000000
# 4 0.000000 0.000000 0.000000 0.025190 0.000000 0.000000
# 5 0.000000 0.000000 0.000000 0.000000 0.034767 0.000000
# 6 0.000000 0.000000 0.000000 0.000000 0.000000 0.022589
#
#
# Mechanical properties :
#
#
# Convention : Reuss Voigt Hill
#
# Bulk Modulus (GPa) = 81.52762 108.50498 95.01630
# Shear Modulus (GPa) = 27.50469 34.92847 31.21658
#
# Velocity S-wave (km/s) = 3.83046 4.31655 4.08075
# Velocity P-wave (km/s) = 7.94066 9.09536 8.53755
#
# Compressibility (1/GPa) = 0.01226578
#
# Stress axis : x y z
#
# Youngs Moduli (GPa) = 48.32189 52.97481 70.73334
#
# Poissons Ratio (x) = 0.84444 0.18062
# Poissons Ratio (y) = 0.77027 0.15757
# Poissons Ratio (z) = 0.12339 0.11801
#
# Static dielectric constant tensor:
#      x y z
#    x 1.629270 0.000000 0.000000 
#    y 0.000000 1.622460 0.000000 
#    z 0.000000 0.000000 1.635990 
# 
# From -- ./inp_files/1220.got.cif
#   From: 2010.05.17/outbox.cif.g08.bks.cpg/sg57_1_cif.got.tgz:1220.got - 2010.06.03 13:58:18.
