data_PCOD9437202
_publ_section_title
;
Structure prediction by ZEFSAII (Michael W. Deem and Ramdas Pophale) SiO2 
 PCOD9437202
Probable space group: P B C M
;
_chemical_formula_sum "Si O2"
_cell_formula_units_Z 48
_cell_length_a 10.861413
_cell_length_b 8.538904
_cell_length_c 24.361158
_cell_angle_alpha 90.000000
_cell_angle_beta 90.000000
_cell_angle_gamma 90.000000
_cell_volume 2259.364951
_symmetry_space_group_name_H-M "P B C M"
_symmetry_group_IT_number 57
_symmetry_cell_setting 'orthorhombic'
loop_
_space_group_symop_operation_xyz
x,y,z
-x,-y,1/2+z
x,1/2-y,-z
-x,1/2+y,1/2-z
-x,-y,-z
x,y,1/2-z
-x,1/2+y,z
x,1/2-y,1/2+z
loop_
_atom_site_type_symbol
_atom_site_label
_atom_site_fract_x
_atom_site_fract_y
_atom_site_fract_z
Si Si1 0.890401 0.039507 0.543831
Si Si2 0.034639 0.822813 0.883220
Si Si3 0.458191 0.903421 0.617756
Si Si4 0.629071 0.690201 0.687698
Si Si5 0.382502 0.633403 0.952233
Si Si6 0.897490 0.596488 0.688425
O O1 0.914871 0.211259 0.569156
O O2 0.745368 0.049659 0.529631
O O3 0.000000 0.000000 0.500000
O O4 0.915588 0.909383 0.590617
O O5 0.004073 0.708914 0.833030
O O6 0.113962 0.962603 0.857820
O O7 0.569752 0.819096 0.649050
O O8 0.370716 0.762002 0.597185
O O9 0.399116 0.022467 0.660667
O O10 0.517230 0.009432 0.569209
O O11 0.580852 0.699575 0.750000
O O12 0.775282 0.699622 0.689418
O O13 0.425296 0.750000 0.000000
O O14 0.918496 0.535075 0.750000
#
# Coordination Sequence:
#
# PCOD9437202 Si02
#       6
#     8   8   8   8   8   8
#     4  11  22  38  59  85 114 149 191 239 290 343
#     4  10  21  36  55  83 114 148 188 234 285 340
#     4  10  22  38  58  85 115 152 190 238 288 341
#     4  10  20  36  58  84 114 150 191 234 283 340
#     4  11  22  39  59  83 115 150 194 239 290 348
#     4  10  20  35  56  82 114 151 189 232 282 338
#
# _framework density 21.244907999999999
#
# number of rings (size 3 to 8) (size 9 to 14) (size 15 to 20)
#    0.000    1.667    0.000    5.000    0.000    1.333 
#    0.000    5.000    0.000   16.000    0.000    0.000 
#    0.000    0.000    0.000    0.000    0.000    0.000 
#
# Total GULP energy -267561.282353 kJ/mol
# GULP energy per Si atom -5574.193382 kJ/mol
# Density = 2.119655 g / cm^3
# Si number density = 21.244908 Si / 1000 Ang^3
#
#
#
# Elastic Constant Matrix: (Units=GPa)
#
#
# Indices 1 2 3 4 5 6 
#
# 1 56.0963 7.3640 15.5585 0.0000 0.0000 0.0000
# 2 7.3640 56.8992 14.0223 0.0000 0.0000 0.0000
# 3 15.5585 14.0223 88.4227 0.0000 0.0000 0.0000
# 4 0.0000 0.0000 0.0000 40.0835 0.0000 0.0000
# 5 0.0000 0.0000 0.0000 0.0000 25.9941 0.0000
# 6 0.0000 0.0000 0.0000 0.0000 0.0000 16.2102
#
#
#
# Elastic Compliance Matrix: (Units=1/GPa)
#
#
# Indices 1 2 3 4 5 6 
#
# 1 0.018896 -0.001692 -0.003057 0.000000 0.000000 0.000000
# 2 -0.001692 0.018441 -0.002627 0.000000 0.000000 0.000000
# 3 -0.003057 -0.002627 0.012264 0.000000 0.000000 0.000000
# 4 0.000000 0.000000 0.000000 0.024948 0.000000 0.000000
# 5 0.000000 0.000000 0.000000 0.000000 0.038470 0.000000
# 6 0.000000 0.000000 0.000000 0.000000 0.000000 0.061690
#
#
# Mechanical properties :
#
#
# Convention : Reuss Voigt Hill
#
# Bulk Modulus (GPa) = 28.69428 30.58977 29.64202
# Shear Modulus (GPa) = 24.86609 27.42244 26.14426
#
# Velocity S-wave (km/s) = 3.42489 3.59664 3.51182
# Velocity P-wave (km/s) = 5.40145 5.62829 5.51603
#
# Compressibility (1/GPa) = 0.03485016
#
# Stress axis : x y z
#
# Youngs Moduli (GPa) = 52.92015 54.22617 81.54163
#
# Poissons Ratio (x) = 0.09177 0.24924
# Poissons Ratio (y) = 0.08956 0.21418
# Poissons Ratio (z) = 0.16175 0.14243
#
# Static dielectric constant tensor:
#      x y z
#    x 1.772070 0.000000 0.000000 
#    y 0.000000 1.749540 0.000000 
#    z 0.000000 0.000000 1.829020 
# 
# From -- ./inp_files/27119.got.cif
#   From: 2010.05.17/outbox.cif.g08.bks.cpg/sg57_14_cif.got.tgz:27119.got - 2010.06.03 13:58:18.
