data_PCOD9437376
_publ_section_title
;
Structure prediction by ZEFSAII (Michael W. Deem and Ramdas Pophale) SiO2 
 PCOD9437376
Probable space group: P B C M
;
_chemical_formula_sum "Si O2"
_cell_formula_units_Z 48
_cell_length_a 9.560819
_cell_length_b 32.685508
_cell_length_c 8.737993
_cell_angle_alpha 90.000000
_cell_angle_beta 90.000000
_cell_angle_gamma 90.000000
_cell_volume 2730.624787
_symmetry_space_group_name_H-M "P B C M"
_symmetry_group_IT_number 57
_symmetry_cell_setting 'orthorhombic'
loop_
_space_group_symop_operation_xyz
x,y,z
-x,-y,1/2+z
x,1/2-y,-z
-x,1/2+y,1/2-z
-x,-y,-z
x,y,1/2-z
-x,1/2+y,z
x,1/2-y,1/2+z
loop_
_atom_site_type_symbol
_atom_site_label
_atom_site_fract_x
_atom_site_fract_y
_atom_site_fract_z
Si Si1 0.645232 0.956232 0.434454
Si Si2 0.327947 0.629157 0.566543
Si Si3 0.332267 0.544474 0.431553
Si Si4 0.145353 0.706757 0.565637
Si Si5 0.166006 0.207145 0.432092
Si Si6 0.343697 0.366002 0.433631
O O1 0.619928 0.956947 0.250000
O O2 0.495038 0.956280 0.517212
O O3 0.711036 0.912036 0.468445
O O4 0.721014 0.998873 0.475063
O O5 0.323592 0.627294 0.750000
O O6 0.272984 0.585640 0.505478
O O7 0.238916 0.668260 0.516669
O O8 0.491491 0.634422 0.524532
O O9 0.322377 0.548414 0.250000
O O10 0.198471 0.750000 0.500000
O O11 0.142837 0.708693 0.750000
O O12 0.988189 0.701546 0.503626
O O13 0.221800 0.250000 0.500000
O O14 0.155144 0.210452 0.250000
O O15 0.261141 0.169261 0.481058
O O16 0.332875 0.359746 0.250000
#
# Coordination Sequence:
#
# PCOD9437376 Si02
#       6
#     8   8   8   8   8   8
#     4   8  15  27  43  66  98 132 162 195 238 284
#     4   9  19  33  50  74 103 131 159 197 246 291
#     4   9  15  24  43  70  98 129 163 197 234 281
#     4  10  20  36  55  73  95 127 164 200 243 293
#     4  11  22  36  53  73  96 126 164 201 241 291
#     4   9  17  32  51  73 102 131 160 198 242 285
#
# _framework density 17.578393999999999
#
# number of rings (size 3 to 8) (size 9 to 14) (size 15 to 20)
#    0.000    2.667    0.000    4.500    0.000    5.333 
#    0.000    1.667    0.000    1.000    0.000    0.000 
#    0.000    0.000    0.000    0.000    0.000    0.000 
#
# Total GULP energy -267349.215190 kJ/mol
# GULP energy per Si atom -5569.775316 kJ/mol
# Density = 1.753838 g / cm^3
# Si number density = 17.578394 Si / 1000 Ang^3
#
#
#
# Elastic Constant Matrix: (Units=GPa)
#
#
# Indices 1 2 3 4 5 6 
#
# 1 25.5580 54.3672 17.9651 0.0000 0.0000 0.0000
# 2 54.3672 203.2834 50.6851 0.0000 0.0000 0.0000
# 3 17.9651 50.6851 45.3547 0.0000 0.0000 0.0000
# 4 0.0000 0.0000 0.0000 33.4868 0.0000 0.0000
# 5 0.0000 0.0000 0.0000 0.0000 18.4249 0.0000
# 6 0.0000 0.0000 0.0000 0.0000 0.0000 -18.9128
#
#
#
# Elastic Compliance Matrix: (Units=1/GPa)
#
#
# Indices 1 2 3 4 5 6 
#
# 1 0.095938 -0.022434 -0.012930 0.000000 0.000000 0.000000
# 2 -0.022434 0.012065 -0.004597 0.000000 0.000000 0.000000
# 3 -0.012930 -0.004597 0.032308 0.000000 0.000000 0.000000
# 4 0.000000 0.000000 0.000000 0.029862 0.000000 0.000000
# 5 0.000000 0.000000 0.000000 0.000000 0.054274 0.000000
# 6 0.000000 0.000000 0.000000 0.000000 0.000000 -0.052874
#
#
# Mechanical properties :
#
#
# Convention : Reuss Voigt Hill
#
# Bulk Modulus (GPa) = 16.55972 57.80343 37.18157
# Shear Modulus (GPa) = 18.40763 16.67835 17.54299
#
# Velocity S-wave (km/s) = 3.23952 3.08360 3.16252
# Velocity P-wave (km/s) = 4.84082 6.75520 5.87649
#
# Compressibility (1/GPa) = 0.06038749
#
# Stress axis : x y z
#
# Youngs Moduli (GPa) = 10.42340 82.88183 30.95245
#
# Poissons Ratio (x) = 1.85939 0.40023
# Poissons Ratio (y) = 0.23384 0.14229
# Poissons Ratio (z) = 0.13478 0.38102
#
# Static dielectric constant tensor:
#      x y z
#    x 1.569900 0.000000 0.000000 
#    y 0.000000 1.653990 0.000000 
#    z 0.000000 0.000000 1.590720 
# 
# From -- ./inp_files/2014.got.cif
#   From: 2010.05.17/outbox.cif.g08.bks.cpg/sg57_2_cif.got.tgz:2014.got - 2010.06.03 13:58:18.
