data_PCOD9437857
_publ_section_title
;
Structure prediction by ZEFSAII (Michael W. Deem and Ramdas Pophale) SiO2 
 PCOD9437857
Probable space group: P B C M
;
_chemical_formula_sum "Si O2"
_cell_formula_units_Z 48
_cell_length_a 14.642099
_cell_length_b 20.760232
_cell_length_c 8.793863
_cell_angle_alpha 90.000000
_cell_angle_beta 90.000000
_cell_angle_gamma 90.000000
_cell_volume 2673.100191
_symmetry_space_group_name_H-M "P B C M"
_symmetry_group_IT_number 57
_symmetry_cell_setting 'orthorhombic'
loop_
_space_group_symop_operation_xyz
x,y,z
-x,-y,1/2+z
x,1/2-y,-z
-x,1/2+y,1/2-z
-x,-y,-z
x,y,1/2-z
-x,1/2+y,z
x,1/2-y,1/2+z
loop_
_atom_site_type_symbol
_atom_site_label
_atom_site_fract_x
_atom_site_fract_y
_atom_site_fract_z
Si Si1 0.554521 0.679906 0.567627
Si Si2 0.052191 0.561624 0.569162
Si Si3 0.943290 0.819196 0.930903
Si Si4 0.240145 0.522749 0.068649
Si Si5 0.445835 0.560867 0.432365
Si Si6 0.757559 0.630579 0.931471
O O1 0.535440 0.750000 0.500000
O O2 0.546738 0.680588 0.750000
O O3 0.488428 0.625642 0.499912
O O4 0.658869 0.659603 0.529724
O O5 0.041086 0.561472 0.750000
O O6 0.157493 0.554389 0.522027
O O7 0.000000 0.500000 0.500000
O O8 0.006890 0.625255 0.499998
O O9 0.951012 0.818261 0.750000
O O10 0.966914 0.750000 0.000000
O O11 0.839687 0.836435 0.979156
O O12 0.224135 0.530397 0.250000
O O13 0.338887 0.551952 0.031528
O O14 0.242505 0.446000 0.038029
O O15 0.500000 0.500000 0.500000
O O16 0.455290 0.560276 0.250000
O O17 0.772580 0.639306 0.750000
#
# Coordination Sequence:
#
# PCOD9437857 Si02
#       6
#     8   8   8   8   8   8
#     4  11  23  40  60  89 125 164 204 251 304 361
#     4  12  24  40  63  91 122 160 203 249 299 358
#     4  12  25  41  62  90 124 163 202 249 304 363
#     4  10  21  39  62  91 124 157 201 253 300 351
#     4  11  22  39  63  90 122 161 202 251 301 356
#     4  10  20  37  61  90 126 160 198 250 303 358
#
# _framework density 17.956678
#
# number of rings (size 3 to 8) (size 9 to 14) (size 15 to 20)
#    0.000    1.000    3.333    4.500    0.000    4.000 
#    0.000    0.833    0.000    4.000    0.000    0.000 
#    0.000    0.000    0.000    0.000    0.000    0.000 
#
# Total GULP energy -268506.897046 kJ/mol
# GULP energy per Si atom -5593.893688 kJ/mol
# Density = 1.791581 g / cm^3
# Si number density = 17.956678 Si / 1000 Ang^3
#
#
#
# Elastic Constant Matrix: (Units=GPa)
#
#
# Indices 1 2 3 4 5 6 
#
# 1 127.5467 87.0828 81.5225 0.0000 0.0000 0.0000
# 2 87.0828 178.7980 86.3498 0.0000 0.0000 0.0000
# 3 81.5225 86.3498 115.6655 0.0000 0.0000 0.0000
# 4 0.0000 0.0000 0.0000 32.9446 0.0000 0.0000
# 5 0.0000 0.0000 0.0000 0.0000 31.0033 0.0000
# 6 0.0000 0.0000 0.0000 0.0000 0.0000 17.2732
#
#
#
# Elastic Compliance Matrix: (Units=1/GPa)
#
#
# Indices 1 2 3 4 5 6 
#
# 1 0.015607 -0.003579 -0.008328 0.000000 0.000000 0.000000
# 2 -0.003579 0.009567 -0.004620 0.000000 0.000000 0.000000
# 3 -0.008328 -0.004620 0.017964 0.000000 0.000000 0.000000
# 4 0.000000 0.000000 0.000000 0.030354 0.000000 0.000000
# 5 0.000000 0.000000 0.000000 0.000000 0.032255 0.000000
# 6 0.000000 0.000000 0.000000 0.000000 0.000000 0.057893
#
#
# Mechanical properties :
#
#
# Convention : Reuss Voigt Hill
#
# Bulk Modulus (GPa) = 99.16190 103.54673 101.35432
# Shear Modulus (GPa) = 24.99317 27.38122 26.18719
#
# Velocity S-wave (km/s) = 3.73481 3.90917 3.82298
# Velocity P-wave (km/s) = 8.59890 8.84112 8.72085
#
# Compressibility (1/GPa) = 0.01008452
#
# Stress axis : x y z
#
# Youngs Moduli (GPa) = 64.07459 104.52307 55.66748
#
# Poissons Ratio (x) = 0.37413 0.46358
# Poissons Ratio (y) = 0.22935 0.25716
# Poissons Ratio (z) = 0.53359 0.48285
#
# Static dielectric constant tensor:
#      x y z
#    x 1.596530 0.000000 0.000000 
#    y 0.000000 1.583710 0.000000 
#    z 0.000000 0.000000 1.601140 
# 
# From -- ./inp_files/4643.got.cif
#   From: 2010.05.17/outbox.cif.g08.bks.cpg/sg57_3_cif.got.tgz:4643.got - 2010.06.03 13:58:18.
