data_PCOD9437809
_publ_section_title
;
Structure prediction by ZEFSAII (Michael W. Deem and Ramdas Pophale) SiO2 
 PCOD9437809
Probable space group: P B C M
;
_chemical_formula_sum "Si O2"
_cell_formula_units_Z 48
_cell_length_a 18.134854
_cell_length_b 15.397554
_cell_length_c 8.541699
_cell_angle_alpha 90.000000
_cell_angle_beta 90.000000
_cell_angle_gamma 90.000000
_cell_volume 2385.119058
_symmetry_space_group_name_H-M "P B C M"
_symmetry_group_IT_number 57
_symmetry_cell_setting 'orthorhombic'
loop_
_space_group_symop_operation_xyz
x,y,z
-x,-y,1/2+z
x,1/2-y,-z
-x,1/2+y,1/2-z
-x,-y,-z
x,y,1/2-z
-x,1/2+y,z
x,1/2-y,1/2+z
loop_
_atom_site_type_symbol
_atom_site_label
_atom_site_fract_x
_atom_site_fract_y
_atom_site_fract_z
Si Si1 0.882230 0.344294 0.563941
Si Si2 0.678411 0.974735 0.437721
Si Si3 0.556434 0.845087 0.561715
Si Si4 0.952415 0.657881 0.563927
Si Si5 0.834505 0.525356 0.434612
Si Si6 0.615102 0.343400 0.562027
O O1 0.858945 0.250000 0.500000
O O2 0.873306 0.346735 0.750000
O O3 0.841354 0.425383 0.487156
O O4 0.968536 0.354809 0.518589
O O5 0.686587 0.973217 0.250000
O O6 0.661676 0.073634 0.489147
O O7 0.609421 0.916374 0.487576
O O8 0.753537 0.943030 0.516489
O O9 0.578243 0.750000 0.500000
O O10 0.561069 0.848210 0.750000
O O11 0.470613 0.857431 0.515362
O O12 0.922832 0.750000 0.500000
O O13 0.963985 0.662926 0.750000
O O14 0.896808 0.581254 0.521566
O O15 0.845977 0.532980 0.250000
O O16 0.639754 0.250000 0.500000
O O17 0.616949 0.340486 0.750000
#
# Coordination Sequence:
#
# PCOD9437809 Si02
#       6
#     8   8   8   8   8   8
#     4  11  22  40  64  91 119 153 195 241 288 342
#     4  11  23  39  57  84 118 154 192 238 289 345
#     4  10  20  37  60  87 114 149 191 237 287 342
#     4  11  22  40  64  91 119 152 193 241 290 344
#     4  12  25  41  59  85 119 158 197 240 291 347
#     4   9  20  37  60  86 115 148 190 237 286 340
#
# _framework density 20.124780999999999
#
# number of rings (size 3 to 8) (size 9 to 14) (size 15 to 20)
#    0.000    1.333    0.000    7.500    0.000    3.333 
#    0.000    5.000    0.000    0.000    0.000    0.000 
#    0.000    0.000    0.000    0.000    0.000    0.000 
#
# Total GULP energy -268512.724605 kJ/mol
# GULP energy per Si atom -5594.015096 kJ/mol
# Density = 2.007898 g / cm^3
# Si number density = 20.124781 Si / 1000 Ang^3
#
#
#
# Elastic Constant Matrix: (Units=GPa)
#
#
# Indices 1 2 3 4 5 6 
#
# 1 26.7915 10.5882 -7.6652 0.0000 0.0000 0.0000
# 2 10.5882 64.2241 -7.3842 0.0000 0.0000 0.0000
# 3 -7.6652 -7.3842 51.8992 0.0000 0.0000 0.0000
# 4 0.0000 0.0000 0.0000 37.5448 0.0000 0.0000
# 5 0.0000 0.0000 0.0000 0.0000 23.8446 0.0000
# 6 0.0000 0.0000 0.0000 0.0000 0.0000 -34.5877
#
#
#
# Elastic Compliance Matrix: (Units=1/GPa)
#
#
# Indices 1 2 3 4 5 6 
#
# 1 0.041269 -0.006204 0.005212 0.000000 0.000000 0.000000
# 2 -0.006204 0.016762 0.001469 0.000000 0.000000 0.000000
# 3 0.005212 0.001469 0.020247 0.000000 0.000000 0.000000
# 4 0.000000 0.000000 0.000000 0.026635 0.000000 0.000000
# 5 0.000000 0.000000 0.000000 0.000000 0.041938 0.000000
# 6 0.000000 0.000000 0.000000 0.000000 0.000000 -0.028912
#
#
# Mechanical properties :
#
#
# Convention : Reuss Voigt Hill
#
# Bulk Modulus (GPa) = 12.62135 14.88804 13.75469
# Shear Modulus (GPa) = 34.86850 15.18542 25.02696
#
# Velocity S-wave (km/s) = 4.16699 2.74991 3.53028
# Velocity P-wave (km/s) = 5.42557 4.18289 4.84425
#
# Compressibility (1/GPa) = 0.07923086
#
# Stress axis : x y z
#
# Youngs Moduli (GPa) = 24.23149 59.65804 49.39023
#
# Poissons Ratio (x) = 0.37014 -0.25744
# Poissons Ratio (y) = 0.15034 -0.07253
# Poissons Ratio (z) = -0.12630 -0.08761
#
# Static dielectric constant tensor:
#      x y z
#    x 1.699610 0.000000 0.000000 
#    y 0.000000 1.711820 0.000000 
#    z 0.000000 0.000000 1.674540 
# 
# From -- ./inp_files/6486.got.cif
#   From: 2010.05.17/outbox.cif.g08.bks.cpg/sg57_4_cif.got.tgz:6486.got - 2010.06.03 13:58:18.
