data_PCOD9437119
_publ_section_title
;
Structure prediction by ZEFSAII (Michael W. Deem and Ramdas Pophale) SiO2 
 PCOD9437119
Probable space group: P B C M
;
_chemical_formula_sum "Si O2"
_cell_formula_units_Z 64
_cell_length_a 16.345139
_cell_length_b 24.730674
_cell_length_c 8.821577
_cell_angle_alpha 90.000000
_cell_angle_beta 90.000000
_cell_angle_gamma 90.000000
_cell_volume 3565.913467
_symmetry_space_group_name_H-M "P B C M"
_symmetry_group_IT_number 57
_symmetry_cell_setting 'orthorhombic'
loop_
_space_group_symop_operation_xyz
x,y,z
-x,-y,1/2+z
x,1/2-y,-z
-x,1/2+y,1/2-z
-x,-y,-z
x,y,1/2-z
-x,1/2+y,z
x,1/2-y,1/2+z
loop_
_atom_site_type_symbol
_atom_site_label
_atom_site_fract_x
_atom_site_fract_y
_atom_site_fract_z
Si Si1 0.064279 0.538421 0.578316
Si Si2 0.644187 0.690099 0.567453
Si Si3 0.019829 0.344742 0.077708
Si Si4 0.220672 0.584448 0.430006
Si Si5 0.820371 0.808982 0.930308
Si Si6 0.442647 0.078975 0.931787
Si Si7 0.620155 0.030195 0.930884
Si Si8 0.153703 0.694509 0.567511
O O1 0.084038 0.521537 0.750000
O O2 0.146547 0.546006 0.483416
O O3 0.000000 0.500000 0.500000
O O4 0.019286 0.596106 0.585090
O O5 0.624725 0.750000 0.500000
O O6 0.646761 0.694950 0.750000
O O7 0.734265 0.674449 0.505203
O O8 0.584317 0.640041 0.526744
O O9 0.041086 0.327424 0.250000
O O10 0.942113 0.310510 0.020175
O O11 0.100674 0.343320 0.977431
O O12 0.220903 0.589913 0.250000
O O13 0.304421 0.559241 0.489464
O O14 0.201311 0.642487 0.505361
O O15 0.811096 0.806338 0.750000
O O16 0.837957 0.750000 0.000000
O O17 0.431490 0.074081 0.750000
O O18 0.536705 0.063360 0.965852
O O19 0.391168 0.031327 0.011380
O O20 0.631270 0.030133 0.750000
O O21 0.187128 0.750000 0.500000
O O22 0.155561 0.693909 0.750000
#
# Coordination Sequence:
#
# PCOD9437119 Si02
#       8
#     8   8   8   8   8   8   8   8
#     4  10  21  37  55  76 105 141 179 222 271 322
#     4  10  20  36  56  79 111 145 179 220 269 325
#     4   9  19  34  51  72 100 135 175 219 264 311
#     4  11  22  37  57  81 111 147 185 227 276 328
#     4  11  21  32  49  73 102 136 174 214 256 305
#     4   9  20  38  60  85 111 142 178 222 276 330
#     4  10  20  37  61  86 112 141 180 229 275 327
#     4  10  20  35  55  79 107 141 183 229 279 331
#
# _framework density 17.947714999999999
#
# number of rings (size 3 to 8) (size 9 to 14) (size 15 to 20)
#    0.000    2.000    0.000    5.625    0.000    6.500 
#    0.000    1.875    0.000    1.500    0.000    0.000 
#    0.000    0.000    0.000    0.000    0.000    0.000 
#
# Total GULP energy -357089.714177 kJ/mol
# GULP energy per Si atom -5579.526784 kJ/mol
# Density = 1.790687 g / cm^3
# Si number density = 17.947715 Si / 1000 Ang^3
#
#
#
# Elastic Constant Matrix: (Units=GPa)
#
#
# Indices 1 2 3 4 5 6 
#
# 1 97.0328 65.9685 55.0645 0.0000 0.0000 0.0000
# 2 65.9685 96.8236 50.9967 0.0000 0.0000 0.0000
# 3 55.0645 50.9967 90.6664 0.0000 0.0000 0.0000
# 4 0.0000 0.0000 0.0000 31.4935 0.0000 0.0000
# 5 0.0000 0.0000 0.0000 0.0000 26.7333 0.0000
# 6 0.0000 0.0000 0.0000 0.0000 0.0000 12.9214
#
#
#
# Elastic Compliance Matrix: (Units=1/GPa)
#
#
# Indices 1 2 3 4 5 6 
#
# 1 0.021922 -0.011259 -0.006981 0.000000 0.000000 0.000000
# 2 -0.011259 0.020458 -0.004669 0.000000 0.000000 0.000000
# 3 -0.006981 -0.004669 0.017895 0.000000 0.000000 0.000000
# 4 0.000000 0.000000 0.000000 0.031753 0.000000 0.000000
# 5 0.000000 0.000000 0.000000 0.000000 0.037407 0.000000
# 6 0.000000 0.000000 0.000000 0.000000 0.000000 0.077391
#
#
# Mechanical properties :
#
#
# Convention : Reuss Voigt Hill
#
# Bulk Modulus (GPa) = 69.16929 69.84246 69.50587
# Shear Modulus (GPa) = 19.42022 21.72919 20.57471
#
# Velocity S-wave (km/s) = 3.29301 3.48328 3.38948
# Velocity P-wave (km/s) = 7.28571 7.42809 7.35724
#
# Compressibility (1/GPa) = 0.01445728
#
# Stress axis : x y z
#
# Youngs Moduli (GPa) = 45.61621 48.87958 55.88006
#
# Poissons Ratio (x) = 0.55034 0.39010
# Poissons Ratio (y) = 0.51360 0.26091
# Poissons Ratio (z) = 0.31845 0.22823
#
# Static dielectric constant tensor:
#      x y z
#    x 1.603500 0.000000 0.000000 
#    y 0.000000 1.615080 0.000000 
#    z 0.000000 0.000000 1.610020 
# 
# From -- ./inp_files/5539.got.cif
#   From: 2010.05.17/outbox.cif.g08.bks.cpg/sg57_3_cif.got.tgz:5539.got - 2010.06.03 13:58:18.
