data_PCOD9437477
_publ_section_title
;
Structure prediction by ZEFSAII (Michael W. Deem and Ramdas Pophale) SiO2 
 PCOD9437477
Probable space group: P B C M
;
_chemical_formula_sum "Si O2"
_cell_formula_units_Z 48
_cell_length_a 9.771041
_cell_length_b 31.129911
_cell_length_c 8.879323
_cell_angle_alpha 90.000000
_cell_angle_beta 90.000000
_cell_angle_gamma 90.000000
_cell_volume 2700.838210
_symmetry_space_group_name_H-M "P B C M"
_symmetry_group_IT_number 57
_symmetry_cell_setting 'orthorhombic'
loop_
_space_group_symop_operation_xyz
x,y,z
-x,-y,1/2+z
x,1/2-y,-z
-x,1/2+y,1/2-z
-x,-y,-z
x,y,1/2-z
-x,1/2+y,z
x,1/2-y,1/2+z
loop_
_atom_site_type_symbol
_atom_site_label
_atom_site_fract_x
_atom_site_fract_y
_atom_site_fract_z
Si Si1 0.815933 0.702950 0.069297
Si Si2 0.001651 0.870051 0.429443
Si Si3 0.309794 0.605898 0.927865
Si Si4 0.354174 0.986607 0.570429
Si Si5 0.796680 0.564359 0.071021
Si Si6 0.574615 0.639537 0.072062
O O1 0.827942 0.704209 0.250000
O O2 0.671441 0.679673 0.032998
O O3 0.823884 0.750000 0.000000
O O4 0.931598 0.671487 0.003143
O O5 0.977982 0.869631 0.250000
O O6 0.163143 0.872772 0.457613
O O7 0.926301 0.911504 0.500146
O O8 0.319312 0.596604 0.750000
O O9 0.321074 0.561395 0.017888
O O10 0.437008 0.634953 0.978452
O O11 0.362453 0.989088 0.750000
O O12 0.500000 0.000000 0.500000
O O13 0.242522 0.019992 0.507487
O O14 0.814407 0.558806 0.250000
O O15 0.669173 0.597278 0.048017
O O16 0.542772 0.641240 0.250000
#
# Coordination Sequence:
#
# PCOD9437477 Si02
#       6
#     8   8   8   8   8   8
#     4  10  21  39  64  90 114 144 185 231 282 346
#     4  10  22  39  58  84 117 154 192 233 287 345
#     4  11  23  37  56  83 116 153 193 236 285 339
#     4  12  23  35  55  81 113 153 197 244 288 334
#     4  10  20  36  57  82 111 150 197 240 282 334
#     4   9  19  35  57  83 112 145 184 231 282 335
#
# _framework density 17.772258999999998
#
# number of rings (size 3 to 8) (size 9 to 14) (size 15 to 20)
#    0.000    1.667    1.667    4.500    0.000    6.667 
#    0.000    0.833    0.000    2.000    0.000    0.000 
#    0.000    0.000    0.000    0.000    0.000    0.000 
#
# Total GULP energy -268206.682105 kJ/mol
# GULP energy per Si atom -5587.639211 kJ/mol
# Density = 1.773181 g / cm^3
# Si number density = 17.772259 Si / 1000 Ang^3
#
#
#
# Elastic Constant Matrix: (Units=GPa)
#
#
# Indices 1 2 3 4 5 6 
#
# 1 111.1609 45.2988 79.9196 0.0000 0.0000 0.0000
# 2 45.2988 106.2904 58.0162 0.0000 0.0000 0.0000
# 3 79.9196 58.0162 113.4756 0.0000 0.0000 0.0000
# 4 0.0000 0.0000 0.0000 27.6669 0.0000 0.0000
# 5 0.0000 0.0000 0.0000 0.0000 31.0898 0.0000
# 6 0.0000 0.0000 0.0000 0.0000 0.0000 13.6380
#
#
#
# Elastic Compliance Matrix: (Units=1/GPa)
#
#
# Indices 1 2 3 4 5 6 
#
# 1 0.018309 -0.001061 -0.012353 0.000000 0.000000 0.000000
# 2 -0.001061 0.013111 -0.005956 0.000000 0.000000 0.000000
# 3 -0.012353 -0.005956 0.020558 0.000000 0.000000 0.000000
# 4 0.000000 0.000000 0.000000 0.036144 0.000000 0.000000
# 5 0.000000 0.000000 0.000000 0.000000 0.032165 0.000000
# 6 0.000000 0.000000 0.000000 0.000000 0.000000 0.073324
#
#
# Mechanical properties :
#
#
# Convention : Reuss Voigt Hill
#
# Bulk Modulus (GPa) = 75.53572 77.48843 76.51208
# Shear Modulus (GPa) = 21.11805 24.32510 22.72157
#
# Velocity S-wave (km/s) = 3.45085 3.70362 3.57947
# Velocity P-wave (km/s) = 7.64671 7.87303 7.76069
#
# Compressibility (1/GPa) = 0.01323877
#
# Stress axis : x y z
#
# Youngs Moduli (GPa) = 54.61732 76.26965 48.64354
#
# Poissons Ratio (x) = 0.08089 0.60088
# Poissons Ratio (y) = 0.05792 0.28974
# Poissons Ratio (z) = 0.67467 0.45430
#
# Static dielectric constant tensor:
#      x y z
#    x 1.601020 0.000000 0.000000 
#    y 0.000000 1.580320 0.000000 
#    z 0.000000 0.000000 1.594120 
# 
# From -- ./inp_files/2080.got.cif
#   From: 2010.05.17/outbox.cif.g08.bks.cpg/sg57_2_cif.got.tgz:2080.got - 2010.06.03 13:58:18.
