data_PCOD9437259
_publ_section_title
;
Structure prediction by ZEFSAII (Michael W. Deem and Ramdas Pophale) SiO2 
 PCOD9437259
Probable space group: P B C M
;
_chemical_formula_sum "Si O2"
_cell_formula_units_Z 56
_cell_length_a 12.755851
_cell_length_b 14.262809
_cell_length_c 14.789119
_cell_angle_alpha 90.000000
_cell_angle_beta 90.000000
_cell_angle_gamma 90.000000
_cell_volume 2690.647517
_symmetry_space_group_name_H-M "P B C M"
_symmetry_group_IT_number 57
_symmetry_cell_setting 'orthorhombic'
loop_
_space_group_symop_operation_xyz
x,y,z
-x,-y,1/2+z
x,1/2-y,-z
-x,1/2+y,1/2-z
-x,-y,-z
x,y,1/2-z
-x,1/2+y,z
x,1/2-y,1/2+z
loop_
_atom_site_type_symbol
_atom_site_label
_atom_site_fract_x
_atom_site_fract_y
_atom_site_fract_z
Si Si1 0.917994 0.620262 0.639766
Si Si2 0.648094 0.041406 0.960839
Si Si3 0.297504 0.479195 0.353149
Si Si4 0.134820 0.526015 0.860442
Si Si5 0.143830 0.180519 0.145543
Si Si6 0.491630 0.162102 0.849109
Si Si7 0.376703 0.177038 0.083613
O O1 0.914201 0.622136 0.750000
O O2 0.816663 0.557997 0.616275
O O3 0.899389 0.724662 0.604336
O O4 0.032076 0.584037 0.615184
O O5 0.757721 0.055690 0.908224
O O6 0.612832 0.932819 0.940478
O O7 0.564823 0.114641 0.923042
O O8 0.663642 0.047484 0.068298
O O9 0.292105 0.515213 0.250000
O O10 0.379663 0.392374 0.351330
O O11 0.148034 0.526592 0.750000
O O12 0.112266 0.419549 0.892572
O O13 0.110641 0.179568 0.250000
O O14 0.269474 0.183326 0.139726
O O15 0.537624 0.144247 0.750000
O O16 0.469985 0.271933 0.863401
O O17 0.363506 0.250000 0.000000
#
# Coordination Sequence:
#
# PCOD9437259 Si02
#       7
#     8   8   8   8   8   8   8
#     4   9  16  31  54  79 113 148 187 238 286 336
#     4  11  22  37  60  85 120 155 194 246 293 348
#     4  10  20  35  57  85 114 152 197 243 294 344
#     4   9  19  32  53  86 115 147 191 233 285 346
#     4   9  16  30  52  78 107 142 186 234 279 333
#     4  11  22  37  59  86 118 151 191 240 293 347
#     4  11  20  33  57  84 111 143 193 244 286 343
#
# _framework density 20.812833999999999
#
# number of rings (size 3 to 8) (size 9 to 14) (size 15 to 20)
#    0.000    2.000    2.857    1.286    0.000    2.286 
#    0.000    0.000    3.143    0.857    0.000    0.000 
#    0.000    0.000    0.000    0.000    0.000    0.000 
#
# Total GULP energy -312575.054963 kJ/mol
# GULP energy per Si atom -5581.697410 kJ/mol
# Density = 2.076546 g / cm^3
# Si number density = 20.812834 Si / 1000 Ang^3
#
#
#
# Elastic Constant Matrix: (Units=GPa)
#
#
# Indices 1 2 3 4 5 6 
#
# 1 104.1425 45.7205 30.4030 0.0000 0.0000 0.0000
# 2 45.7205 69.5738 16.6144 0.0000 0.0000 0.0000
# 3 30.4030 16.6144 97.0136 0.0000 0.0000 0.0000
# 4 0.0000 0.0000 0.0000 5.7051 0.0000 0.0000
# 5 0.0000 0.0000 0.0000 0.0000 15.2494 0.0000
# 6 0.0000 0.0000 0.0000 0.0000 0.0000 27.0678
#
#
#
# Elastic Compliance Matrix: (Units=1/GPa)
#
#
# Indices 1 2 3 4 5 6 
#
# 1 0.014282 -0.008671 -0.002991 0.000000 0.000000 0.000000
# 2 -0.008671 0.020251 -0.000751 0.000000 0.000000 0.000000
# 3 -0.002991 -0.000751 0.011374 0.000000 0.000000 0.000000
# 4 0.000000 0.000000 0.000000 0.175282 0.000000 0.000000
# 5 0.000000 0.000000 0.000000 0.000000 0.065576 0.000000
# 6 0.000000 0.000000 0.000000 0.000000 0.000000 0.036944
#
#
# Mechanical properties :
#
#
# Convention : Reuss Voigt Hill
#
# Bulk Modulus (GPa) = 47.43582 50.68952 49.06267
# Shear Modulus (GPa) = 14.06225 21.47060 17.76643
#
# Velocity S-wave (km/s) = 2.60215 3.21534 2.92486
# Velocity P-wave (km/s) = 5.64529 6.18000 5.91869
#
# Compressibility (1/GPa) = 0.02108112
#
# Stress axis : x y z
#
# Youngs Moduli (GPa) = 70.01694 49.38057 87.92226
#
# Poissons Ratio (x) = 0.42820 0.26296
# Poissons Ratio (y) = 0.60714 0.06600
# Poissons Ratio (z) = 0.20941 0.03707
#
# Static dielectric constant tensor:
#      x y z
#    x 1.719410 0.000000 0.000000 
#    y 0.000000 1.751200 0.000000 
#    z 0.000000 0.000000 1.820220 
# 
# From -- ./inp_files/17757.got.cif
#   From: 2010.05.17/outbox.cif.g08.bks.cpg/sg57_9_cif.got.tgz:17757.got - 2010.06.03 13:58:18.
