data_PCOD9437639
_publ_section_title
;
Structure prediction by ZEFSAII (Michael W. Deem and Ramdas Pophale) SiO2 
 PCOD9437639
Probable space group: P B C M
;
_chemical_formula_sum "Si O2"
_cell_formula_units_Z 64
_cell_length_a 24.355344
_cell_length_b 15.881615
_cell_length_c 8.634574
_cell_angle_alpha 90.000000
_cell_angle_beta 90.000000
_cell_angle_gamma 90.000000
_cell_volume 3339.872190
_symmetry_space_group_name_H-M "P B C M"
_symmetry_group_IT_number 57
_symmetry_cell_setting 'orthorhombic'
loop_
_space_group_symop_operation_xyz
x,y,z
-x,-y,1/2+z
x,1/2-y,-z
-x,1/2+y,1/2-z
-x,-y,-z
x,y,1/2-z
-x,1/2+y,z
x,1/2-y,1/2+z
loop_
_atom_site_type_symbol
_atom_site_label
_atom_site_fract_x
_atom_site_fract_y
_atom_site_fract_z
Si Si1 0.620637 0.159352 0.935645
Si Si2 0.312469 0.998525 0.564248
Si Si3 0.885490 0.839464 0.564357
Si Si4 0.501549 0.094799 0.937089
Si Si5 0.810040 0.998085 0.937367
Si Si6 0.000354 0.094997 0.936333
Si Si7 0.383618 0.339629 0.436564
Si Si8 0.118977 0.840193 0.063529
O O1 0.622115 0.160821 0.750000
O O2 0.557954 0.139158 0.986576
O O3 0.637455 0.250000 0.000000
O O4 0.658573 0.084058 0.995845
O O5 0.314827 0.994100 0.750000
O O6 0.250125 0.004444 0.508466
O O7 0.346241 0.081652 0.514159
O O8 0.866068 0.750000 0.500000
O O9 0.888036 0.836774 0.750000
O O10 0.845924 0.916516 0.518655
O O11 0.946113 0.858491 0.499799
O O12 0.501161 0.091465 0.750000
O O13 0.446260 0.142092 0.988062
O O14 0.500000 0.000000 0.000000
O O15 0.806004 0.998899 0.750000
O O16 0.842453 0.082468 0.985673
O O17 0.001980 0.092861 0.750000
O O18 0.943599 0.139430 0.985020
O O19 0.000000 0.000000 0.000000
O O20 0.364769 0.250000 0.500000
O O21 0.383045 0.336777 0.250000
O O22 0.119748 0.837775 0.250000
O O23 0.136472 0.750000 0.000000
#
# Coordination Sequence:
#
# PCOD9437639 Si02
#       8
#     8   8   8   8   8   8   8   8
#     4  11  23  39  63  92 122 161 201 244 303 362
#     4  11  24  42  63  88 120 157 205 257 303 356
#     4  11  23  41  63  91 125 162 203 251 304 363
#     4  10  20  36  60  90 123 158 195 241 300 360
#     4  10  23  44  63  83 120 161 204 253 303 358
#     4  11  21  37  62  92 126 161 198 245 305 366
#     4  10  22  39  60  89 123 156 196 245 297 357
#     4  10  22  40  61  89 121 156 195 242 298 356
#
# _framework density 19.162409
#
# number of rings (size 3 to 8) (size 9 to 14) (size 15 to 20)
#    0.000    1.500    2.500    2.250    0.000    6.500 
#    0.000    3.750    0.000    0.000    0.000    0.000 
#    0.000    0.000    0.000    0.000    0.000    0.000 
#
# Total GULP energy -357783.946781 kJ/mol
# GULP energy per Si atom -5590.374168 kJ/mol
# Density = 1.911879 g / cm^3
# Si number density = 19.162409 Si / 1000 Ang^3
#
#
#
# Elastic Constant Matrix: (Units=GPa)
#
#
# Indices 1 2 3 4 5 6 
#
# 1 138.8927 75.3817 35.4437 0.0000 0.0000 0.0000
# 2 75.3817 190.3836 38.3201 0.0000 0.0000 0.0000
# 3 35.4437 38.3201 30.5379 0.0000 0.0000 0.0000
# 4 0.0000 0.0000 0.0000 38.0659 0.0000 0.0000
# 5 0.0000 0.0000 0.0000 0.0000 27.2067 0.0000
# 6 0.0000 0.0000 0.0000 0.0000 0.0000 0.4391
#
#
#
# Elastic Compliance Matrix: (Units=1/GPa)
#
#
# Indices 1 2 3 4 5 6 
#
# 1 0.010984 -0.002386 -0.009755 0.000000 0.000000 0.000000
# 2 -0.002386 0.007546 -0.006700 0.000000 0.000000 0.000000
# 3 -0.009755 -0.006700 0.052475 0.000000 0.000000 0.000000
# 4 0.000000 0.000000 0.000000 0.026270 0.000000 0.000000
# 5 0.000000 0.000000 0.000000 0.000000 0.036756 0.000000
# 6 0.000000 0.000000 0.000000 0.000000 0.000000 2.277188
#
#
# Mechanical properties :
#
#
# Convention : Reuss Voigt Hill
#
# Bulk Modulus (GPa) = 30.00810 73.12282 51.56546
# Shear Modulus (GPa) = 2.03251 27.18694 14.60972
#
# Velocity S-wave (km/s) = 1.03101 3.77073 2.76418
# Velocity P-wave (km/s) = 4.13657 7.56309 6.09555
#
# Compressibility (1/GPa) = 0.03332434
#
# Stress axis : x y z
#
# Youngs Moduli (GPa) = 91.04270 132.52718 19.05662
#
# Poissons Ratio (x) = 0.31615 0.18590
# Poissons Ratio (y) = 0.21719 0.12767
# Poissons Ratio (z) = 0.88811 0.88789
#
# Static dielectric constant tensor:
#      x y z
#    x 1.651860 0.000000 0.000000 
#    y 0.000000 1.641450 0.000000 
#    z 0.000000 0.000000 1.651610 
# 
# From -- ./inp_files/9360.got.cif
#   From: 2010.05.17/outbox.cif.g08.bks.cpg/sg57_5_cif.got.tgz:9360.got - 2010.06.03 13:58:18.
