data_PCOD9437264
_publ_section_title
;
Structure prediction by ZEFSAII (Michael W. Deem and Ramdas Pophale) SiO2 
 PCOD9437264
Probable space group: P B C M
;
_chemical_formula_sum "Si O2"
_cell_formula_units_Z 64
_cell_length_a 11.732936
_cell_length_b 18.710399
_cell_length_c 15.529319
_cell_angle_alpha 90.000000
_cell_angle_beta 90.000000
_cell_angle_gamma 90.000000
_cell_volume 3409.119006
_symmetry_space_group_name_H-M "P B C M"
_symmetry_group_IT_number 57
_symmetry_cell_setting 'orthorhombic'
loop_
_space_group_symop_operation_xyz
x,y,z
-x,-y,1/2+z
x,1/2-y,-z
-x,1/2+y,1/2-z
-x,-y,-z
x,y,1/2-z
-x,1/2+y,z
x,1/2-y,1/2+z
loop_
_atom_site_type_symbol
_atom_site_label
_atom_site_fract_x
_atom_site_fract_y
_atom_site_fract_z
Si Si1 0.418658 0.568761 0.006190
Si Si2 0.892584 0.205716 0.651538
Si Si3 0.471798 0.206991 0.088601
Si Si4 0.740679 0.873659 0.846582
Si Si5 0.200138 0.488649 0.515295
Si Si6 0.009038 0.909448 0.036504
Si Si7 0.631574 0.330727 0.348501
Si Si8 0.005938 0.638894 0.345318
O O1 0.464690 0.632027 0.067349
O O2 0.293895 0.538077 0.029107
O O3 0.500000 0.500000 0.000000
O O4 0.407092 0.607843 0.913792
O O5 0.911074 0.180412 0.750000
O O6 0.760971 0.191664 0.628849
O O7 0.972286 0.163963 0.585235
O O8 0.922150 0.288865 0.650034
O O9 0.353532 0.185502 0.132686
O O10 0.552142 0.261004 0.140781
O O11 0.449261 0.250000 0.000000
O O12 0.721207 0.901737 0.750000
O O13 0.870341 0.844782 0.849531
O O14 0.737580 0.935705 0.918178
O O15 0.117230 0.441514 0.455025
O O16 0.109614 0.537906 0.566932
O O17 0.029761 0.902640 0.933527
O O18 0.629097 0.354987 0.250000
O O19 0.025783 0.605536 0.250000
#
# Coordination Sequence:
#
# PCOD9437264 Si02
#       8
#     8   8   8   8   8   8   8   8
#     4  11  21  39  59  85 118 150 194 243 283 345
#     4  10  20  35  57  86 112 145 190 233 286 348
#     4  10  22  36  59  86 113 155 192 236 287 346
#     4  10  20  37  57  80 112 148 192 241 283 339
#     4  10  21  35  54  84 108 147 192 228 284 345
#     4  10  20  35  58  81 112 151 183 235 289 345
#     4  10  22  39  60  86 115 149 194 242 287 340
#     4   9  20  35  55  84 111 144 190 237 285 343
#
# _framework density 18.773178000000001
#
# number of rings (size 3 to 8) (size 9 to 14) (size 15 to 20)
#    0.000    2.000    2.500    0.750    1.750    4.000 
#    0.000    1.875    0.000    2.250    0.000    0.000 
#    0.000    0.000    0.000    0.000    0.000    0.000 
#
# Total GULP energy -356766.995265 kJ/mol
# GULP energy per Si atom -5574.484301 kJ/mol
# Density = 1.873045 g / cm^3
# Si number density = 18.773178 Si / 1000 Ang^3
#
#
#
# Elastic Constant Matrix: (Units=GPa)
#
#
# Indices 1 2 3 4 5 6 
#
# 1 79.5470 32.4389 20.4026 0.0000 0.0000 0.0000
# 2 32.4389 73.8578 20.6584 0.0000 0.0000 0.0000
# 3 20.4026 20.6584 48.7736 0.0000 0.0000 0.0000
# 4 0.0000 0.0000 0.0000 5.7297 0.0000 0.0000
# 5 0.0000 0.0000 0.0000 0.0000 19.6658 0.0000
# 6 0.0000 0.0000 0.0000 0.0000 0.0000 43.9872
#
#
#
# Elastic Compliance Matrix: (Units=1/GPa)
#
#
# Indices 1 2 3 4 5 6 
#
# 1 0.016048 -0.005866 -0.004229 0.000000 0.000000 0.000000
# 2 -0.005866 0.017503 -0.004960 0.000000 0.000000 0.000000
# 3 -0.004229 -0.004960 0.024373 0.000000 0.000000 0.000000
# 4 0.000000 0.000000 0.000000 0.174528 0.000000 0.000000
# 5 0.000000 0.000000 0.000000 0.000000 0.050850 0.000000
# 6 0.000000 0.000000 0.000000 0.000000 0.000000 0.022734
#
#
# Mechanical properties :
#
#
# Convention : Reuss Voigt Hill
#
# Bulk Modulus (GPa) = 35.95147 38.79759 37.37453
# Shear Modulus (GPa) = 14.47537 22.45513 18.46525
#
# Velocity S-wave (km/s) = 2.77982 3.46226 3.13964
# Velocity P-wave (km/s) = 5.43095 6.05759 5.75281
#
# Compressibility (1/GPa) = 0.02781527
#
# Stress axis : x y z
#
# Youngs Moduli (GPa) = 62.31431 57.13302 41.02979
#
# Poissons Ratio (x) = 0.33511 0.17350
# Poissons Ratio (y) = 0.36551 0.20350
# Poissons Ratio (z) = 0.26350 0.28337
#
# Static dielectric constant tensor:
#      x y z
#    x 1.657150 0.000000 0.000000 
#    y 0.000000 1.659230 0.000000 
#    z 0.000000 0.000000 1.666860 
# 
# From -- ./inp_files/17964.got.cif
#   From: 2010.05.17/outbox.cif.g08.bks.cpg/sg57_9_cif.got.tgz:17964.got - 2010.06.03 13:58:18.
