data_PCOD9437830
_publ_section_title
;
Structure prediction by ZEFSAII (Michael W. Deem and Ramdas Pophale) SiO2 
 PCOD9437830
Probable space group: P B C M
;
_chemical_formula_sum "Si O2"
_cell_formula_units_Z 56
_cell_length_a 18.992751
_cell_length_b 9.672842
_cell_length_c 17.478811
_cell_angle_alpha 90.000000
_cell_angle_beta 90.000000
_cell_angle_gamma 90.000000
_cell_volume 3211.100179
_symmetry_space_group_name_H-M "P B C M"
_symmetry_group_IT_number 57
_symmetry_cell_setting 'orthorhombic'
loop_
_space_group_symop_operation_xyz
x,y,z
-x,-y,1/2+z
x,1/2-y,-z
-x,1/2+y,1/2-z
-x,-y,-z
x,y,1/2-z
-x,1/2+y,z
x,1/2-y,1/2+z
loop_
_atom_site_type_symbol
_atom_site_label
_atom_site_fract_x
_atom_site_fract_y
_atom_site_fract_z
Si Si1 0.041233 0.543607 0.076106
Si Si2 0.936179 0.753289 0.160069
Si Si3 0.659685 0.842887 0.836637
Si Si4 0.433620 0.408826 0.521865
Si Si5 0.294583 0.382377 0.443803
Si Si6 0.814527 0.537846 0.337899
Si Si7 0.184404 0.899099 0.499492
O O1 0.058683 0.402651 0.121263
O O2 0.112914 0.612811 0.047517
O O3 0.993130 0.649140 0.123499
O O4 0.000000 0.500000 0.000000
O O5 0.949474 0.767604 0.250000
O O6 0.860364 0.677777 0.150579
O O7 0.635325 0.839396 0.750000
O O8 0.599022 0.899643 0.892719
O O9 0.686740 0.691757 0.864438
O O10 0.731114 0.933138 0.841698
O O11 0.449255 0.250000 0.500000
O O12 0.500000 0.500000 0.500000
O O13 0.366119 0.454106 0.472059
O O14 0.283433 0.250000 0.500000
O O15 0.230927 0.484795 0.458360
O O16 0.830941 0.489781 0.250000
O O17 0.831089 0.444136 0.411698
O O18 0.220697 0.750000 0.500000
#
# Coordination Sequence:
#
# PCOD9437830 Si02
#       7
#     8   8   8   8   8   8   8
#     4  12  24  37  58  83 111 150 196 242 292 356
#     4  11  24  41  59  81 112 151 193 246 302 355
#     4   9  17  34  60  87 110 148 199 247 284 339
#     4   9  18  33  54  84 114 153 193 233 280 343
#     4   9  18  35  59  82 112 151 197 238 277 348
#     4  10  20  37  61  83 110 148 192 238 295 352
#     4  12  23  37  56  90 117 150 192 245 298 351
#
# _framework density 17.439505
#
# number of rings (size 3 to 8) (size 9 to 14) (size 15 to 20)
#    0.000    2.000    4.286    2.571    0.000    0.571 
#    0.000    5.000    0.000    0.000    0.000    0.000 
#    0.000    0.000    0.000    0.000    0.000    0.000 
#
# Total GULP energy -312096.962844 kJ/mol
# GULP energy per Si atom -5573.160051 kJ/mol
# Density = 1.739981 g / cm^3
# Si number density = 17.439505 Si / 1000 Ang^3
#
#
#
# Elastic Constant Matrix: (Units=GPa)
#
#
# Indices 1 2 3 4 5 6 
#
# 1 91.9519 27.0595 28.9891 0.0000 0.0000 0.0000
# 2 27.0595 70.7223 37.2030 0.0000 0.0000 0.0000
# 3 28.9891 37.2030 120.1007 0.0000 0.0000 0.0000
# 4 0.0000 0.0000 0.0000 24.7844 0.0000 0.0000
# 5 0.0000 0.0000 0.0000 0.0000 18.3079 0.0000
# 6 0.0000 0.0000 0.0000 0.0000 0.0000 30.7988
#
#
#
# Elastic Compliance Matrix: (Units=1/GPa)
#
#
# Indices 1 2 3 4 5 6 
#
# 1 0.012589 -0.003845 -0.001848 0.000000 0.000000 0.000000
# 2 -0.003845 0.018067 -0.004668 0.000000 0.000000 0.000000
# 3 -0.001848 -0.004668 0.010218 0.000000 0.000000 0.000000
# 4 0.000000 0.000000 0.000000 0.040348 0.000000 0.000000
# 5 0.000000 0.000000 0.000000 0.000000 0.054621 0.000000
# 6 0.000000 0.000000 0.000000 0.000000 0.000000 0.032469
#
#
# Mechanical properties :
#
#
# Convention : Reuss Voigt Hill
#
# Bulk Modulus (GPa) = 49.62176 52.14202 50.88189
# Shear Modulus (GPa) = 25.54254 27.41310 26.47782
#
# Velocity S-wave (km/s) = 3.83121 3.96902 3.90072
# Velocity P-wave (km/s) = 6.93443 7.13918 7.03755
#
# Compressibility (1/GPa) = 0.02015245
#
# Stress axis : x y z
#
# Youngs Moduli (GPa) = 79.43302 55.35047 97.86238
#
# Poissons Ratio (x) = 0.21282 0.18082
# Poissons Ratio (y) = 0.30541 0.45686
# Poissons Ratio (z) = 0.14677 0.25840
#
# Static dielectric constant tensor:
#      x y z
#    x 1.614670 0.000000 0.000000 
#    y 0.000000 1.590400 0.000000 
#    z 0.000000 0.000000 1.620220 
# 
# From -- ./inp_files/22998.got.cif
#   From: 2010.05.17/outbox.cif.g08.bks.cpg/sg57_12_cif.got.tgz:22998.got - 2010.06.03 13:58:18.
