data_PCOD9437311
_publ_section_title
;
Structure prediction by ZEFSAII (Michael W. Deem and Ramdas Pophale) SiO2 
 PCOD9437311
Probable space group: P B C M
;
_chemical_formula_sum "Si O2"
_cell_formula_units_Z 64
_cell_length_a 14.065771
_cell_length_b 10.945134
_cell_length_c 18.474398
_cell_angle_alpha 90.000000
_cell_angle_beta 90.000000
_cell_angle_gamma 90.000000
_cell_volume 2844.165873
_symmetry_space_group_name_H-M "P B C M"
_symmetry_group_IT_number 57
_symmetry_cell_setting 'orthorhombic'
loop_
_space_group_symop_operation_xyz
x,y,z
-x,-y,1/2+z
x,1/2-y,-z
-x,1/2+y,1/2-z
-x,-y,-z
x,y,1/2-z
-x,1/2+y,z
x,1/2-y,1/2+z
loop_
_atom_site_type_symbol
_atom_site_label
_atom_site_fract_x
_atom_site_fract_y
_atom_site_fract_z
Si Si1 0.222749 0.560800 0.335248
Si Si2 0.282463 0.965190 0.425556
Si Si3 0.090856 0.159649 0.836775
Si Si4 0.271461 0.203118 0.335275
Si Si5 0.480735 0.642888 0.595419
Si Si6 0.126724 0.674988 0.664230
Si Si7 0.441661 0.598797 0.164427
Si Si8 0.674447 0.867890 0.456278
O O1 0.234939 0.529331 0.250000
O O2 0.150510 0.456983 0.364347
O O3 0.167558 0.688422 0.339448
O O4 0.331587 0.581076 0.360849
O O5 0.305735 0.081476 0.374134
O O6 0.272686 0.021150 0.505451
O O7 0.372542 0.876512 0.428053
O O8 0.192616 0.904188 0.388122
O O9 0.084263 0.147645 0.750000
O O10 0.158464 0.276792 0.849001
O O11 0.982639 0.169652 0.860708
O O12 0.289740 0.201591 0.250000
O O13 0.315937 0.322507 0.373601
O O14 0.504773 0.528206 0.647946
O O15 0.484963 0.779388 0.627980
O O16 0.560676 0.622579 0.533750
O O17 0.134197 0.636606 0.750000
O O18 0.441511 0.621698 0.250000
O O19 0.710243 0.750000 0.500000
#
# Coordination Sequence:
#
# PCOD9437311 Si02
#       8
#     8   8   8   8   8   8   8   8
#     4   9  18  34  53  82 127 165 200 259 322 372
#     4  11  23  39  60  89 125 163 212 262 317 375
#     4   9  19  34  60  92 125 164 208 257 319 388
#     4  10  21  39  64  93 121 158 208 260 315 384
#     4  12  24  40  63  90 125 177 220 260 321 396
#     4  10  20  35  58  90 125 163 210 263 315 375
#     4  11  23  38  62  97 135 167 211 274 329 379
#     4  10  23  43  64  90 127 170 210 263 322 382
#
# _framework density 22.502203999999999
#
# number of rings (size 3 to 8) (size 9 to 14) (size 15 to 20)
#    0.000    1.750    1.250    3.375    1.750    4.500 
#    0.000    0.625    0.000    0.000    0.000    0.000 
#    0.000    0.000    0.000    0.000    0.000    0.000 
#
# Total GULP energy -357323.232689 kJ/mol
# GULP energy per Si atom -5583.175511 kJ/mol
# Density = 2.245099 g / cm^3
# Si number density = 22.502204 Si / 1000 Ang^3
#
#
#
# Elastic Constant Matrix: (Units=GPa)
#
#
# Indices 1 2 3 4 5 6 
#
# 1 126.0118 16.0914 7.2197 0.0000 0.0000 0.0000
# 2 16.0914 77.3300 18.0339 0.0000 0.0000 0.0000
# 3 7.2197 18.0339 79.8581 0.0000 0.0000 0.0000
# 4 0.0000 0.0000 0.0000 28.2540 0.0000 0.0000
# 5 0.0000 0.0000 0.0000 0.0000 27.6432 0.0000
# 6 0.0000 0.0000 0.0000 0.0000 0.0000 30.2430
#
#
#
# Elastic Compliance Matrix: (Units=1/GPa)
#
#
# Indices 1 2 3 4 5 6 
#
# 1 0.008163 -0.001611 -0.000374 0.000000 0.000000 0.000000
# 2 -0.001611 0.013969 -0.003009 0.000000 0.000000 0.000000
# 3 -0.000374 -0.003009 0.013235 0.000000 0.000000 0.000000
# 4 0.000000 0.000000 0.000000 0.035393 0.000000 0.000000
# 5 0.000000 0.000000 0.000000 0.000000 0.036175 0.000000
# 6 0.000000 0.000000 0.000000 0.000000 0.000000 0.033065
#
#
# Mechanical properties :
#
#
# Convention : Reuss Voigt Hill
#
# Bulk Modulus (GPa) = 39.40335 40.65443 40.02889
# Shear Modulus (GPa) = 31.55589 33.35170 32.45379
#
# Velocity S-wave (km/s) = 3.74885 3.85405 3.80182
# Velocity P-wave (km/s) = 6.02391 6.15719 6.09091
#
# Compressibility (1/GPa) = 0.02537855
#
# Stress axis : x y z
#
# Youngs Moduli (GPa) = 122.50446 71.58933 75.55452
#
# Poissons Ratio (x) = 0.11536 0.02826
# Poissons Ratio (y) = 0.19740 0.22733
# Poissons Ratio (z) = 0.04583 0.21540
#
# Static dielectric constant tensor:
#      x y z
#    x 1.879900 0.000000 0.000000 
#    y 0.000000 1.866750 0.000000 
#    z 0.000000 0.000000 1.886090 
# 
# From -- ./inp_files/22658.got.cif
#   From: 2010.05.17/outbox.cif.g08.bks.cpg/sg57_12_cif.got.tgz:22658.got - 2010.06.03 13:58:18.
