data_PCOD9437522
_publ_section_title
;
Structure prediction by ZEFSAII (Michael W. Deem and Ramdas Pophale) SiO2 
 PCOD9437522
Probable space group: P B C M
;
_chemical_formula_sum "Si O2"
_cell_formula_units_Z 48
_cell_length_a 15.436377
_cell_length_b 19.570263
_cell_length_c 8.639958
_cell_angle_alpha 90.000000
_cell_angle_beta 90.000000
_cell_angle_gamma 90.000000
_cell_volume 2610.079106
_symmetry_space_group_name_H-M "P B C M"
_symmetry_group_IT_number 57
_symmetry_cell_setting 'orthorhombic'
loop_
_space_group_symop_operation_xyz
x,y,z
-x,-y,1/2+z
x,1/2-y,-z
-x,1/2+y,1/2-z
-x,-y,-z
x,y,1/2-z
-x,1/2+y,z
x,1/2-y,1/2+z
loop_
_atom_site_type_symbol
_atom_site_label
_atom_site_fract_x
_atom_site_fract_y
_atom_site_fract_z
Si Si1 0.094564 0.175834 0.064161
Si Si2 0.097171 0.824719 0.065274
Si Si3 0.400669 0.824562 0.936494
Si Si4 0.400982 0.324689 0.563193
Si Si5 0.244863 0.921728 0.935672
Si Si6 0.750768 0.925926 0.563089
O O1 0.088585 0.179912 0.250000
O O2 0.164617 0.118626 0.022432
O O3 0.121719 0.250000 0.000000
O O4 0.999710 0.161057 0.995991
O O5 0.096532 0.821919 0.250000
O O6 0.122307 0.750000 0.000000
O O7 0.163879 0.881119 0.006191
O O8 0.399927 0.821420 0.750000
O O9 0.499789 0.838937 0.985785
O O10 0.331921 0.881460 0.985341
O O11 0.376186 0.750000 0.000000
O O12 0.376751 0.250000 0.500000
O O13 0.398916 0.321711 0.750000
O O14 0.333332 0.382348 0.513666
O O15 0.239365 0.918928 0.750000
O O16 0.246996 0.999492 0.990605
O O17 0.748709 0.932223 0.750000
#
# Coordination Sequence:
#
# PCOD9437522 Si02
#       6
#     8   8   8   8   8   8
#     4  10  20  36  58  83 109 139 179 223 268 319
#     4  11  22  38  60  83 108 140 179 223 271 320
#     4   9  19  35  56  81 107 139 179 223 268 316
#     4   9  18  35  57  81 109 140 179 223 267 318
#     4  11  23  37  54  79 111 146 184 224 268 320
#     4  10  22  37  54  79 112 147 179 218 269 322
#
# _framework density 18.390246999999999
#
# number of rings (size 3 to 8) (size 9 to 14) (size 15 to 20)
#    0.000    2.000    0.000    4.500    0.000    6.000 
#    0.000    0.000    0.000    0.000    0.000    0.000 
#    0.000    0.000    0.000    0.000    0.000    0.000 
#
# Total GULP energy -268133.926162 kJ/mol
# GULP energy per Si atom -5586.123462 kJ/mol
# Density = 1.834839 g / cm^3
# Si number density = 18.390247 Si / 1000 Ang^3
#
#
#
# Elastic Constant Matrix: (Units=GPa)
#
#
# Indices 1 2 3 4 5 6 
#
# 1 123.1713 127.7453 49.5747 0.0000 0.0000 0.0000
# 2 127.7453 192.0285 58.6809 0.0000 0.0000 0.0000
# 3 49.5747 58.6809 54.5531 0.0000 0.0000 0.0000
# 4 0.0000 0.0000 0.0000 36.4727 0.0000 0.0000
# 5 0.0000 0.0000 0.0000 0.0000 14.9298 0.0000
# 6 0.0000 0.0000 0.0000 0.0000 0.0000 -12.6397
#
#
#
# Elastic Compliance Matrix: (Units=1/GPa)
#
#
# Indices 1 2 3 4 5 6 
#
# 1 0.028443 -0.016421 -0.008185 0.000000 0.000000 0.000000
# 2 -0.016421 0.017237 -0.003619 0.000000 0.000000 0.000000
# 3 -0.008185 -0.003619 0.029662 0.000000 0.000000 0.000000
# 4 0.000000 0.000000 0.000000 0.027418 0.000000 0.000000
# 5 0.000000 0.000000 0.000000 0.000000 0.066980 0.000000
# 6 0.000000 0.000000 0.000000 0.000000 0.000000 -0.079116
#
#
# Mechanical properties :
#
#
# Convention : Reuss Voigt Hill
#
# Bulk Modulus (GPa) = 52.92932 93.52829 73.22880
# Shear Modulus (GPa) = 32.60058 16.66935 24.63497
#
# Velocity S-wave (km/s) = 4.21492 3.01395 3.66398
# Velocity P-wave (km/s) = 7.24784 7.94228 7.60299
#
# Compressibility (1/GPa) = 0.01889312
#
# Stress axis : x y z
#
# Youngs Moduli (GPa) = 35.15762 58.01379 33.71344
#
# Poissons Ratio (x) = 0.95262 0.27593
# Poissons Ratio (y) = 0.57731 0.12202
# Poissons Ratio (z) = 0.28775 0.20998
#
# Static dielectric constant tensor:
#      x y z
#    x 1.638610 0.000000 0.000000 
#    y 0.000000 1.590660 0.000000 
#    z 0.000000 0.000000 1.619080 
# 
# From -- ./inp_files/4597.got.cif
#   From: 2010.05.17/outbox.cif.g08.bks.cpg/sg57_3_cif.got.tgz:4597.got - 2010.06.03 13:58:18.
