data_PCOD9437370
_publ_section_title
;
Structure prediction by ZEFSAII (Michael W. Deem and Ramdas Pophale) SiO2 
 PCOD9437370
Probable space group: P B C M
;
_chemical_formula_sum "Si O2"
_cell_formula_units_Z 48
_cell_length_a 12.346295
_cell_length_b 8.626821
_cell_length_c 26.274518
_cell_angle_alpha 90.000000
_cell_angle_beta 90.000000
_cell_angle_gamma 90.000000
_cell_volume 2798.479915
_symmetry_space_group_name_H-M "P B C M"
_symmetry_group_IT_number 57
_symmetry_cell_setting 'orthorhombic'
loop_
_space_group_symop_operation_xyz
x,y,z
-x,-y,1/2+z
x,1/2-y,-z
-x,1/2+y,1/2-z
-x,-y,-z
x,y,1/2-z
-x,1/2+y,z
x,1/2-y,1/2+z
loop_
_atom_site_type_symbol
_atom_site_label
_atom_site_fract_x
_atom_site_fract_y
_atom_site_fract_z
Si Si1 0.120101 0.936486 0.995361
Si Si2 0.631052 0.540787 0.691770
Si Si3 0.460703 0.350488 0.451002
Si Si4 0.273041 0.934114 0.907322
Si Si5 0.305295 0.928584 0.426226
Si Si6 0.575659 0.641768 0.147411
O O1 0.207165 0.987812 0.038585
O O2 0.117751 0.750000 0.000000
O O3 0.169561 0.980225 0.940588
O O4 0.000000 0.000000 0.000000
O O5 0.652369 0.499854 0.750000
O O6 0.720324 0.486074 0.651026
O O7 0.519705 0.458130 0.672739
O O8 0.616698 0.725299 0.685088
O O9 0.430436 0.250000 0.500000
O O10 0.373325 0.478488 0.434803
O O11 0.580869 0.420115 0.457076
O O12 0.466890 0.238509 0.401563
O O13 0.282402 0.749067 0.911338
O O14 0.332686 0.031738 0.376975
#
# Coordination Sequence:
#
# PCOD9437370 Si02
#       6
#     8   8   8   8   8   8
#     4  10  23  37  55  79 111 143 176 216 264 322
#     4  11  21  34  50  75 108 145 181 222 266 312
#     4  11  19  29  51  82 111 144 171 210 268 330
#     4  10  20  36  52  78 111 143 181 216 264 319
#     4  11  19  33  53  77 110 144 175 215 268 326
#     4  11  20  32  49  77 110 142 181 213 265 323
#
# _framework density 17.152169000000001
#
# number of rings (size 3 to 8) (size 9 to 14) (size 15 to 20)
#    0.000    1.333    5.000    3.000    0.000    5.333 
#    0.000    0.833    0.000    0.000    0.000   11.667 
#    0.000    0.000    0.000    0.000    0.000    0.000 
#
# Total GULP energy -267961.344080 kJ/mol
# GULP energy per Si atom -5582.528002 kJ/mol
# Density = 1.711313 g / cm^3
# Si number density = 17.152169 Si / 1000 Ang^3
#
#
#
# Elastic Constant Matrix: (Units=GPa)
#
#
# Indices 1 2 3 4 5 6 
#
# 1 108.1969 26.6669 49.0276 0.0000 0.0000 0.0000
# 2 26.6669 70.4117 33.0427 0.0000 0.0000 0.0000
# 3 49.0276 33.0427 141.2448 0.0000 0.0000 0.0000
# 4 0.0000 0.0000 0.0000 21.5944 0.0000 0.0000
# 5 0.0000 0.0000 0.0000 0.0000 12.0359 0.0000
# 6 0.0000 0.0000 0.0000 0.0000 0.0000 25.5397
#
#
#
# Elastic Compliance Matrix: (Units=1/GPa)
#
#
# Indices 1 2 3 4 5 6 
#
# 1 0.011429 -0.002771 -0.003319 0.000000 0.000000 0.000000
# 2 -0.002771 0.016625 -0.002927 0.000000 0.000000 0.000000
# 3 -0.003319 -0.002927 0.008917 0.000000 0.000000 0.000000
# 4 0.000000 0.000000 0.000000 0.046308 0.000000 0.000000
# 5 0.000000 0.000000 0.000000 0.000000 0.083085 0.000000
# 6 0.000000 0.000000 0.000000 0.000000 0.000000 0.039155
#
#
# Mechanical properties :
#
#
# Convention : Reuss Voigt Hill
#
# Bulk Modulus (GPa) = 52.80798 59.70309 56.25554
# Shear Modulus (GPa) = 21.75174 25.90841 23.83008
#
# Velocity S-wave (km/s) = 3.56499 3.89074 3.73142
# Velocity P-wave (km/s) = 6.91378 7.42073 7.17173
#
# Compressibility (1/GPa) = 0.01893653
#
# Stress axis : x y z
#
# Youngs Moduli (GPa) = 87.49426 60.14868 112.14775
#
# Poissons Ratio (x) = 0.16668 0.37222
# Poissons Ratio (y) = 0.24245 0.32831
# Poissons Ratio (z) = 0.29039 0.17608
#
# Static dielectric constant tensor:
#      x y z
#    x 1.569050 0.000000 0.000000 
#    y 0.000000 1.640780 0.000000 
#    z 0.000000 0.000000 1.609440 
# 
# From -- ./inp_files/28503.got.cif
#   From: 2010.05.17/outbox.cif.g08.bks.cpg/sg57_15_cif.got.tgz:28503.got - 2010.06.03 13:58:18.
