data_PCOD9437046
_publ_section_title
;
Structure prediction by ZEFSAII (Michael W. Deem and Ramdas Pophale) SiO2 
 PCOD9437046
Probable space group: P B C M
;
_chemical_formula_sum "Si O2"
_cell_formula_units_Z 64
_cell_length_a 16.557946
_cell_length_b 23.744328
_cell_length_c 8.829454
_cell_angle_alpha 90.000000
_cell_angle_beta 90.000000
_cell_angle_gamma 90.000000
_cell_volume 3471.364302
_symmetry_space_group_name_H-M "P B C M"
_symmetry_group_IT_number 57
_symmetry_cell_setting 'orthorhombic'
loop_
_space_group_symop_operation_xyz
x,y,z
-x,-y,1/2+z
x,1/2-y,-z
-x,1/2+y,1/2-z
-x,-y,-z
x,y,1/2-z
-x,1/2+y,z
x,1/2-y,1/2+z
loop_
_atom_site_type_symbol
_atom_site_label
_atom_site_fract_x
_atom_site_fract_y
_atom_site_fract_z
Si Si1 0.892705 0.034210 0.568605
Si Si2 0.651530 0.188723 0.429161
Si Si3 0.515861 0.811576 0.070201
Si Si4 0.589803 0.501683 0.068481
Si Si5 0.831315 0.813672 0.933221
Si Si6 0.953045 0.911268 0.567313
Si Si7 0.336467 0.377575 0.931857
Si Si8 0.278465 0.912867 0.068259
O O1 0.904278 0.036181 0.750000
O O2 0.802516 0.053201 0.534761
O O3 0.957643 0.076327 0.494804
O O4 0.906933 0.969229 0.521532
O O5 0.663906 0.250000 0.500000
O O6 0.645312 0.192804 0.250000
O O7 0.566918 0.166415 0.497675
O O8 0.719474 0.146046 0.483159
O O9 0.507363 0.809045 0.250000
O O10 0.526364 0.750000 0.000000
O O11 0.593018 0.846202 0.020569
O O12 0.580478 0.499580 0.250000
O O13 0.644547 0.556956 0.035774
O O14 0.644232 0.449221 0.019791
O O15 0.500000 0.500000 0.000000
O O16 0.833561 0.808653 0.750000
O O17 0.905784 0.854643 0.981385
O O18 0.749599 0.849219 0.971164
O O19 0.831443 0.750000 0.000000
O O20 0.954936 0.909755 0.750000
O O21 0.346050 0.370110 0.750000
O O22 0.282950 0.904200 0.250000
#
# Coordination Sequence:
#
# PCOD9437046 Si02
#       8
#     8   8   8   8   8   8   8   8
#     4   9  18  34  59  85 108 138 176 220 270 324
#     4  11  22  37  56  77 102 135 174 217 264 313
#     4  11  21  34  52  74 101 137 180 224 267 311
#     4  10  21  35  53  77 109 147 183 223 272 324
#     4  10  21  36  55  79 111 149 186 226 274 329
#     4   9  18  35  57  82 111 142 177 219 270 325
#     4  10  20  35  53  76 107 144 185 226 270 321
#     4  10  20  36  56  80 109 140 176 218 267 321
#
# _framework density 18.436554999999998
#
# number of rings (size 3 to 8) (size 9 to 14) (size 15 to 20)
#    0.000    2.000    0.000    4.875    0.000    8.500 
#    0.000    0.625    0.000    6.000    0.000    0.000 
#    0.000    0.000    0.000    0.000    0.000    0.000 
#
# Total GULP energy -357031.232066 kJ/mol
# GULP energy per Si atom -5578.613001 kJ/mol
# Density = 1.839459 g / cm^3
# Si number density = 18.436555 Si / 1000 Ang^3
#
#
#
# Elastic Constant Matrix: (Units=GPa)
#
#
# Indices 1 2 3 4 5 6 
#
# 1 80.5331 71.3603 31.7112 0.0000 0.0000 0.0000
# 2 71.3603 122.7122 44.2525 0.0000 0.0000 0.0000
# 3 31.7112 44.2525 41.0729 0.0000 0.0000 0.0000
# 4 0.0000 0.0000 0.0000 26.5233 0.0000 0.0000
# 5 0.0000 0.0000 0.0000 0.0000 24.2668 0.0000
# 6 0.0000 0.0000 0.0000 0.0000 0.0000 28.7755
#
#
#
# Elastic Compliance Matrix: (Units=1/GPa)
#
#
# Indices 1 2 3 4 5 6 
#
# 1 0.026587 -0.013179 -0.006328 0.000000 0.000000 0.000000
# 2 -0.013179 0.019860 -0.011222 0.000000 0.000000 0.000000
# 3 -0.006328 -0.011222 0.041324 0.000000 0.000000 0.000000
# 4 0.000000 0.000000 0.000000 0.037703 0.000000 0.000000
# 5 0.000000 0.000000 0.000000 0.000000 0.041209 0.000000
# 6 0.000000 0.000000 0.000000 0.000000 0.000000 0.034752
#
#
# Mechanical properties :
#
#
# Convention : Reuss Voigt Hill
#
# Bulk Modulus (GPa) = 38.00502 59.88514 48.94508
# Shear Modulus (GPa) = 18.40518 22.37938 20.39228
#
# Velocity S-wave (km/s) = 3.16301 3.48783 3.32938
# Velocity P-wave (km/s) = 5.83080 6.98371 6.43313
#
# Compressibility (1/GPa) = 0.02631231
#
# Stress axis : x y z
#
# Youngs Moduli (GPa) = 37.61263 50.35207 24.19928
#
# Poissons Ratio (x) = 0.66359 0.15312
# Poissons Ratio (y) = 0.49570 0.27158
# Poissons Ratio (z) = 0.23800 0.56507
#
# Static dielectric constant tensor:
#      x y z
#    x 1.639140 0.000000 0.000000 
#    y 0.000000 1.702860 0.000000 
#    z 0.000000 0.000000 1.618520 
# 
# From -- ./inp_files/5637.got.cif
#   From: 2010.05.17/outbox.cif.g08.bks.cpg/sg57_3_cif.got.tgz:5637.got - 2010.06.03 13:58:18.
