data_PCOD9437479
_publ_section_title
;
Structure prediction by ZEFSAII (Michael W. Deem and Ramdas Pophale) SiO2 
 PCOD9437479
Probable space group: P B C M
;
_chemical_formula_sum "Si O2"
_cell_formula_units_Z 48
_cell_length_a 31.457436
_cell_length_b 9.539779
_cell_length_c 8.686611
_cell_angle_alpha 90.000000
_cell_angle_beta 90.000000
_cell_angle_gamma 90.000000
_cell_volume 2606.825791
_symmetry_space_group_name_H-M "P B C M"
_symmetry_group_IT_number 57
_symmetry_cell_setting 'orthorhombic'
loop_
_space_group_symop_operation_xyz
x,y,z
-x,-y,1/2+z
x,1/2-y,-z
-x,1/2+y,1/2-z
-x,-y,-z
x,y,1/2-z
-x,1/2+y,z
x,1/2-y,1/2+z
loop_
_atom_site_type_symbol
_atom_site_label
_atom_site_fract_x
_atom_site_fract_y
_atom_site_fract_z
Si Si1 0.285852 0.905415 0.934332
Si Si2 0.114186 0.407378 0.935134
Si Si3 0.618494 0.093924 0.435323
Si Si4 0.961319 0.407439 0.565517
Si Si5 0.538534 0.907078 0.064462
Si Si6 0.788473 0.595092 0.433612
O O1 0.284014 0.903055 0.750000
O O2 0.333710 0.951599 0.980559
O O3 0.280770 0.750000 0.000000
O O4 0.248074 0.998979 0.998012
O O5 0.108920 0.404897 0.750000
O O6 0.163013 0.448430 0.971342
O O7 0.107133 0.250000 0.000000
O O8 0.081414 0.514936 0.009882
O O9 0.610636 0.250000 0.500000
O O10 0.617444 0.103866 0.250000
O O11 0.582236 0.985071 0.482626
O O12 0.963474 0.250000 0.500000
O O13 0.963354 0.403556 0.750000
O O14 0.000000 0.500000 0.500000
O O15 0.536399 0.903180 0.250000
O O16 0.536543 0.750000 0.000000
O O17 0.500000 0.000000 0.000000
O O18 0.783072 0.750000 0.500000
O O19 0.784921 0.598003 0.250000
#
# Coordination Sequence:
#
# PCOD9437479 Si02
#       6
#     8   8   8   8   8   8
#     4  10  20  36  57  82 113 149 189 232 280 333
#     4  10  21  39  61  86 116 151 191 234 283 336
#     4   9  20  37  57  81 110 145 185 230 279 332
#     4  12  25  42  63  88 118 152 191 234 282 335
#     4  11  23  39  58  83 113 146 185 228 278 333
#     4  10  21  37  58  84 115 151 190 234 283 335
#
# _framework density 18.413198000000001
#
# number of rings (size 3 to 8) (size 9 to 14) (size 15 to 20)
#    0.000    1.667    0.000    4.500    0.000    6.667 
#    0.000    1.667    0.000    0.000    0.000    0.000 
#    0.000    0.000    0.000    0.000    0.000    0.000 
#
# Total GULP energy -268210.472327 kJ/mol
# GULP energy per Si atom -5587.718173 kJ/mol
# Density = 1.837129 g / cm^3
# Si number density = 18.413198 Si / 1000 Ang^3
#
#
#
# Elastic Constant Matrix: (Units=GPa)
#
#
# Indices 1 2 3 4 5 6 
#
# 1 196.7330 134.9296 81.8656 0.0000 0.0000 0.0000
# 2 134.9296 148.4067 65.4540 0.0000 0.0000 0.0000
# 3 81.8656 65.4540 94.9416 0.0000 0.0000 0.0000
# 4 0.0000 0.0000 0.0000 39.0221 0.0000 0.0000
# 5 0.0000 0.0000 0.0000 0.0000 20.1809 0.0000
# 6 0.0000 0.0000 0.0000 0.0000 0.0000 43.4894
#
#
#
# Elastic Compliance Matrix: (Units=1/GPa)
#
#
# Indices 1 2 3 4 5 6 
#
# 1 0.015039 -0.011429 -0.005088 0.000000 0.000000 0.000000
# 2 -0.011429 0.018368 -0.002808 0.000000 0.000000 0.000000
# 3 -0.005088 -0.002808 0.016856 0.000000 0.000000 0.000000
# 4 0.000000 0.000000 0.000000 0.025627 0.000000 0.000000
# 5 0.000000 0.000000 0.000000 0.000000 0.049552 0.000000
# 6 0.000000 0.000000 0.000000 0.000000 0.000000 0.022994
#
#
# Mechanical properties :
#
#
# Convention : Reuss Voigt Hill
#
# Bulk Modulus (GPa) = 86.11691 111.61996 98.86844
# Shear Modulus (GPa) = 26.18375 31.06061 28.62218
#
# Velocity S-wave (km/s) = 3.77505 4.11160 3.94691
# Velocity P-wave (km/s) = 8.11615 9.12642 8.63607
#
# Compressibility (1/GPa) = 0.01161212
#
# Stress axis : x y z
#
# Youngs Moduli (GPa) = 66.49280 54.44234 59.32496
#
# Poissons Ratio (x) = 0.62224 0.30187
# Poissons Ratio (y) = 0.75996 0.16659
# Poissons Ratio (z) = 0.33834 0.15288
#
# Static dielectric constant tensor:
#      x y z
#    x 1.646140 0.000000 0.000000 
#    y 0.000000 1.580290 0.000000 
#    z 0.000000 0.000000 1.615380 
# 
# From -- ./inp_files/9902.got.cif
#   From: 2010.05.17/outbox.cif.g08.bks.cpg/sg57_5_cif.got.tgz:9902.got - 2010.06.03 13:58:18.
