data_PCOD9437165
_publ_section_title
;
Structure prediction by ZEFSAII (Michael W. Deem and Ramdas Pophale) SiO2 
 PCOD9437165
Probable space group: P B C M
;
_chemical_formula_sum "Si O2"
_cell_formula_units_Z 48
_cell_length_a 13.003833
_cell_length_b 24.390279
_cell_length_c 8.479064
_cell_angle_alpha 90.000000
_cell_angle_beta 90.000000
_cell_angle_gamma 90.000000
_cell_volume 2689.280266
_symmetry_space_group_name_H-M "P B C M"
_symmetry_group_IT_number 57
_symmetry_cell_setting 'orthorhombic'
loop_
_space_group_symop_operation_xyz
x,y,z
-x,-y,1/2+z
x,1/2-y,-z
-x,1/2+y,1/2-z
-x,-y,-z
x,y,1/2-z
-x,1/2+y,z
x,1/2-y,1/2+z
loop_
_atom_site_type_symbol
_atom_site_label
_atom_site_fract_x
_atom_site_fract_y
_atom_site_fract_z
Si Si1 0.880576 0.189598 0.561317
Si Si2 0.303552 0.881766 0.559661
Si Si3 0.115902 0.189590 0.940532
Si Si4 0.497044 0.311919 0.939286
Si Si5 0.694753 0.882529 0.059288
Si Si6 0.617177 0.499654 0.559102
O O1 0.850236 0.250000 0.500000
O O2 0.879513 0.190839 0.750000
O O3 0.800952 0.144529 0.502329
O O4 0.998309 0.179317 0.507647
O O5 0.300494 0.881393 0.750000
O O6 0.399729 0.843829 0.509816
O O7 0.326880 0.943839 0.507311
O O8 0.116426 0.190572 0.750000
O O9 0.198215 0.144561 0.994017
O O10 0.146317 0.250000 0.000000
O O11 0.493883 0.311828 0.750000
O O12 0.497379 0.250000 0.000000
O O13 0.398784 0.344723 0.002431
O O14 0.694885 0.882559 0.250000
O O15 0.673537 0.944718 0.006427
O O16 0.500000 0.500000 0.500000
O O17 0.614734 0.499382 0.750000
#
# Coordination Sequence:
#
# PCOD9437165 Si02
#       6
#     8   8   8   8   8   8
#     4  10  20  35  56  79 106 139 177 220 266 317
#     4  10  21  36  53  77 108 140 178 219 263 314
#     4   9  19  35  54  79 107 138 175 217 266 317
#     4  11  22  34  50  76 109 138 172 218 266 318
#     4  10  20  35  56  79 106 140 177 217 266 317
#     4  10  20  36  56  78 106 143 180 218 262 313
#
# _framework density 17.848642000000002
#
# number of rings (size 3 to 8) (size 9 to 14) (size 15 to 20)
#    0.000    2.000    1.667    2.000    0.000    6.000 
#    0.000    0.833    0.000    0.000    0.000    0.000 
#    0.000    0.000    0.000    0.000    0.000    0.000 
#
# Total GULP energy -267989.550566 kJ/mol
# GULP energy per Si atom -5583.115637 kJ/mol
# Density = 1.780802 g / cm^3
# Si number density = 17.848642 Si / 1000 Ang^3
#
#
#
# Elastic Constant Matrix: (Units=GPa)
#
#
# Indices 1 2 3 4 5 6 
#
# 1 124.2932 106.6001 18.4032 0.0000 0.0000 0.0000
# 2 106.6001 199.9120 24.7916 0.0000 0.0000 0.0000
# 3 18.4032 24.7916 7.5726 0.0000 0.0000 0.0000
# 4 0.0000 0.0000 0.0000 11.7398 0.0000 0.0000
# 5 0.0000 0.0000 0.0000 0.0000 19.3494 0.0000
# 6 0.0000 0.0000 0.0000 0.0000 0.0000 20.8470
#
#
#
# Elastic Compliance Matrix: (Units=1/GPa)
#
#
# Indices 1 2 3 4 5 6 
#
# 1 0.016266 -0.006349 -0.018744 0.000000 0.000000 0.000000
# 2 -0.006349 0.010899 -0.020253 0.000000 0.000000 0.000000
# 3 -0.018744 -0.020253 0.243913 0.000000 0.000000 0.000000
# 4 0.000000 0.000000 0.000000 0.085181 0.000000 0.000000
# 5 0.000000 0.000000 0.000000 0.000000 0.051681 0.000000
# 6 0.000000 0.000000 0.000000 0.000000 0.000000 0.047968
#
#
# Mechanical properties :
#
#
# Convention : Reuss Voigt Hill
#
# Bulk Modulus (GPa) = 5.54369 70.15196 37.84783
# Shear Modulus (GPa) = 8.24089 22.51944 15.38017
#
# Velocity S-wave (km/s) = 2.15107 3.55588 2.93866
# Velocity P-wave (km/s) = 3.04667 7.49988 5.72409
#
# Compressibility (1/GPa) = 0.18038522
#
# Stress axis : x y z
#
# Youngs Moduli (GPa) = 61.47723 91.74771 4.09982
#
# Poissons Ratio (x) = 0.58252 0.07685
# Poissons Ratio (y) = 0.39033 0.08303
# Poissons Ratio (z) = 1.15235 1.85819
#
# Static dielectric constant tensor:
#      x y z
#    x 1.597410 0.000000 0.000000 
#    y 0.000000 1.595890 0.000000 
#    z 0.000000 0.000000 1.610730 
# 
# From -- ./inp_files/3083.got.cif
#   From: 2010.05.17/outbox.cif.g08.bks.cpg/sg57_2_cif.got.tgz:3083.got - 2010.06.03 13:58:18.
