data_PCOD9437700
_publ_section_title
;
Structure prediction by ZEFSAII (Michael W. Deem and Ramdas Pophale) SiO2 
 PCOD9437700
Probable space group: P B C M
;
_chemical_formula_sum "Si O2"
_cell_formula_units_Z 48
_cell_length_a 9.615495
_cell_length_b 14.568831
_cell_length_c 17.110065
_cell_angle_alpha 90.000000
_cell_angle_beta 90.000000
_cell_angle_gamma 90.000000
_cell_volume 2396.889491
_symmetry_space_group_name_H-M "P B C M"
_symmetry_group_IT_number 57
_symmetry_cell_setting 'orthorhombic'
loop_
_space_group_symop_operation_xyz
x,y,z
-x,-y,1/2+z
x,1/2-y,-z
-x,1/2+y,1/2-z
-x,-y,-z
x,y,1/2-z
-x,1/2+y,z
x,1/2-y,1/2+z
loop_
_atom_site_type_symbol
_atom_site_label
_atom_site_fract_x
_atom_site_fract_y
_atom_site_fract_z
Si Si1 0.709330 0.468320 0.565459
Si Si2 0.643997 0.746835 0.839646
Si Si3 0.882670 0.340304 0.453590
Si Si4 0.118169 0.097028 0.662078
Si Si5 0.632484 0.367326 0.156492
Si Si6 0.599436 0.568512 0.419301
O O1 0.817420 0.407586 0.517818
O O2 0.783871 0.511640 0.639686
O O3 0.656279 0.547324 0.505700
O O4 0.566616 0.415596 0.582645
O O5 0.616178 0.774432 0.750000
O O6 0.780084 0.684253 0.841007
O O7 0.511403 0.684704 0.863677
O O8 0.665428 0.839235 0.887453
O O9 0.929537 0.250000 0.500000
O O10 0.757459 0.321450 0.392140
O O11 0.001704 0.389064 0.403260
O O12 0.061167 0.088104 0.750000
O O13 0.652178 0.363478 0.250000
O O14 0.625293 0.474149 0.128975
#
# Coordination Sequence:
#
# PCOD9437700 Si02
#       6
#     8   8   8   8   8   8
#     4  10  22  40  63  94 121 162 207 252 319 367
#     4  10  21  36  62  92 122 165 207 253 314 366
#     4  11  24  41  63  90 125 166 209 260 310 374
#     4  11  24  43  62  89 127 165 208 259 313 370
#     4  10  20  39  63  90 127 164 204 257 313 372
#     4  10  20  36  63  97 125 155 207 260 308 376
#
# _framework density 20.025956000000001
#
# number of rings (size 3 to 8) (size 9 to 14) (size 15 to 20)
#    0.000    1.667    1.667    2.500    2.333    0.667 
#    0.000    1.667    0.000    0.000    0.000    0.000 
#    0.000    0.000    0.000    0.000    0.000    0.000 
#
# Total GULP energy -268120.733905 kJ/mol
# GULP energy per Si atom -5585.848623 kJ/mol
# Density = 1.998038 g / cm^3
# Si number density = 20.025956 Si / 1000 Ang^3
#
#
#
# Elastic Constant Matrix: (Units=GPa)
#
#
# Indices 1 2 3 4 5 6 
#
# 1 33.9448 -16.9349 -9.9761 0.0000 0.0000 0.0000
# 2 -16.9349 38.2151 11.1644 0.0000 0.0000 0.0000
# 3 -9.9761 11.1644 49.3479 0.0000 0.0000 0.0000
# 4 0.0000 0.0000 0.0000 20.1106 0.0000 0.0000
# 5 0.0000 0.0000 0.0000 0.0000 27.5290 0.0000
# 6 0.0000 0.0000 0.0000 0.0000 0.0000 16.5556
#
#
#
# Elastic Compliance Matrix: (Units=1/GPa)
#
#
# Indices 1 2 3 4 5 6 
#
# 1 0.038623 0.015884 0.004214 0.000000 0.000000 0.000000
# 2 0.015884 0.034552 -0.004606 0.000000 0.000000 0.000000
# 3 0.004214 -0.004606 0.022158 0.000000 0.000000 0.000000
# 4 0.000000 0.000000 0.000000 0.049725 0.000000 0.000000
# 5 0.000000 0.000000 0.000000 0.000000 0.036325 0.000000
# 6 0.000000 0.000000 0.000000 0.000000 0.000000 0.060402
#
#
# Mechanical properties :
#
#
# Convention : Reuss Voigt Hill
#
# Bulk Modulus (GPa) = 7.91647 10.00162 8.95905
# Shear Modulus (GPa) = 19.77010 21.98934 20.87972
#
# Velocity S-wave (km/s) = 3.14542 3.31727 3.23249
# Velocity P-wave (km/s) = 4.14165 4.43593 4.29131
#
# Compressibility (1/GPa) = 0.12631893
#
# Stress axis : x y z
#
# Youngs Moduli (GPa) = 25.89146 28.94150 45.12987
#
# Poissons Ratio (x) = -0.45972 -0.19019
# Poissons Ratio (y) = -0.41127 0.20787
# Poissons Ratio (z) = -0.10911 0.13330
#
# Static dielectric constant tensor:
#      x y z
#    x 1.709140 0.000000 0.000000 
#    y 0.000000 1.699390 0.000000 
#    z 0.000000 0.000000 1.719330 
# 
# From -- ./inp_files/20981.got.cif
#   From: 2010.05.17/outbox.cif.g08.bks.cpg/sg57_11_cif.got.tgz:20981.got - 2010.06.03 13:58:18.
