data_PCOD9437482
_publ_section_title
;
Structure prediction by ZEFSAII (Michael W. Deem and Ramdas Pophale) SiO2 
 PCOD9437482
Probable space group: P B C M
;
_chemical_formula_sum "Si O2"
_cell_formula_units_Z 48
_cell_length_a 31.724304
_cell_length_b 9.444559
_cell_length_c 8.610551
_cell_angle_alpha 90.000000
_cell_angle_beta 90.000000
_cell_angle_gamma 90.000000
_cell_volume 2579.911036
_symmetry_space_group_name_H-M "P B C M"
_symmetry_group_IT_number 57
_symmetry_cell_setting 'orthorhombic'
loop_
_space_group_symop_operation_xyz
x,y,z
-x,-y,1/2+z
x,1/2-y,-z
-x,1/2+y,1/2-z
-x,-y,-z
x,y,1/2-z
-x,1/2+y,z
x,1/2-y,1/2+z
loop_
_atom_site_type_symbol
_atom_site_label
_atom_site_fract_x
_atom_site_fract_y
_atom_site_fract_z
Si Si1 0.204151 0.908651 0.436722
Si Si2 0.378859 0.408506 0.562527
Si Si3 0.961302 0.590206 0.064255
Si Si4 0.299560 0.908403 0.437181
Si Si5 0.872302 0.908834 0.064710
Si Si6 0.460811 0.909806 0.436732
O O1 0.199110 0.750000 0.500000
O O2 0.200735 0.910265 0.250000
O O3 0.251962 0.953269 0.480108
O O4 0.167984 0.003974 0.509700
O O5 0.383240 0.250000 0.500000
O O6 0.378394 0.402006 0.750000
O O7 0.335603 0.483743 0.509689
O O8 0.418112 0.507797 0.516782
O O9 0.961544 0.592415 0.250000
O O10 0.964827 0.750000 0.000000
O O11 0.916242 0.532947 0.004319
O O12 0.000000 0.500000 0.000000
O O13 0.306985 0.750000 0.500000
O O14 0.301253 0.901119 0.250000
O O15 0.875184 0.905865 0.250000
O O16 0.868206 0.750000 0.000000
O O17 0.461385 0.750000 0.500000
O O18 0.462718 0.905146 0.250000
O O19 0.500000 0.000000 0.500000
#
# Coordination Sequence:
#
# PCOD9437482 Si02
#       6
#     8   8   8   8   8   8
#     4  10  20  36  57  83 113 146 185 231 278 331
#     4  10  22  38  56  82 113 147 186 231 278 332
#     4  11  22  39  60  85 114 147 186 230 279 332
#     4   9  19  36  57  81 110 143 183 227 276 329
#     4  11  22  38  58  82 112 148 186 228 278 332
#     4  11  23  39  60  85 115 149 189 233 283 336
#
# _framework density 18.605291999999999
#
# number of rings (size 3 to 8) (size 9 to 14) (size 15 to 20)
#    0.000    1.667    0.000    6.000    0.000    5.333 
#    0.000    5.000    0.000    0.000    0.000    0.000 
#    0.000    0.000    0.000    0.000    0.000    0.000 
#
# Total GULP energy -268210.323674 kJ/mol
# GULP energy per Si atom -5587.715077 kJ/mol
# Density = 1.856295 g / cm^3
# Si number density = 18.605292 Si / 1000 Ang^3
#
#
#
# Elastic Constant Matrix: (Units=GPa)
#
#
# Indices 1 2 3 4 5 6 
#
# 1 199.0742 112.4969 67.5280 0.0000 0.0000 0.0000
# 2 112.4969 123.5596 44.3239 0.0000 0.0000 0.0000
# 3 67.5280 44.3239 105.4735 0.0000 0.0000 0.0000
# 4 0.0000 0.0000 0.0000 37.0999 0.0000 0.0000
# 5 0.0000 0.0000 0.0000 0.0000 27.2784 0.0000
# 6 0.0000 0.0000 0.0000 0.0000 0.0000 44.8430
#
#
#
# Elastic Compliance Matrix: (Units=1/GPa)
#
#
# Indices 1 2 3 4 5 6 
#
# 1 0.011311 -0.009068 -0.003431 0.000000 0.000000 0.000000
# 2 -0.009068 0.016799 -0.001254 0.000000 0.000000 0.000000
# 3 -0.003431 -0.001254 0.012205 0.000000 0.000000 0.000000
# 4 0.000000 0.000000 0.000000 0.026954 0.000000 0.000000
# 5 0.000000 0.000000 0.000000 0.000000 0.036659 0.000000
# 6 0.000000 0.000000 0.000000 0.000000 0.000000 0.022300
#
#
# Mechanical properties :
#
#
# Convention : Reuss Voigt Hill
#
# Bulk Modulus (GPa) = 78.07012 97.42276 87.74644
# Shear Modulus (GPa) = 31.64465 35.42815 33.53640
#
# Velocity S-wave (km/s) = 4.12860 4.36845 4.25021
# Velocity P-wave (km/s) = 8.04857 8.82729 8.44691
#
# Compressibility (1/GPa) = 0.01280900
#
# Stress axis : x y z
#
# Youngs Moduli (GPa) = 88.40666 59.52749 81.93394
#
# Poissons Ratio (x) = 0.53978 0.28115
# Poissons Ratio (y) = 0.80165 0.10275
# Poissons Ratio (z) = 0.30336 0.07465
#
# Static dielectric constant tensor:
#      x y z
#    x 1.651790 0.000000 0.000000 
#    y 0.000000 1.590720 0.000000 
#    z 0.000000 0.000000 1.626860 
# 
# From -- ./inp_files/10060.got.cif
#   From: 2010.05.17/outbox.cif.g08.bks.cpg/sg57_6_cif.got.tgz:10060.got - 2010.06.03 13:58:18.
