data_PCOD9437833
_publ_section_title
;
Structure prediction by ZEFSAII (Michael W. Deem and Ramdas Pophale) SiO2 
 PCOD9437833
Probable space group: P B C M
;
_chemical_formula_sum "Si O2"
_cell_formula_units_Z 48
_cell_length_a 9.540644
_cell_length_b 31.344668
_cell_length_c 8.803003
_cell_angle_alpha 90.000000
_cell_angle_beta 90.000000
_cell_angle_gamma 90.000000
_cell_volume 2632.523247
_symmetry_space_group_name_H-M "P B C M"
_symmetry_group_IT_number 57
_symmetry_cell_setting 'orthorhombic'
loop_
_space_group_symop_operation_xyz
x,y,z
-x,-y,1/2+z
x,1/2-y,-z
-x,1/2+y,1/2-z
-x,-y,-z
x,y,1/2-z
-x,1/2+y,z
x,1/2-y,1/2+z
loop_
_atom_site_type_symbol
_atom_site_label
_atom_site_fract_x
_atom_site_fract_y
_atom_site_fract_z
Si Si1 0.834299 0.542832 0.431996
Si Si2 0.838739 0.203820 0.067546
Si Si3 0.663920 0.373934 0.430833
Si Si4 0.645870 0.624135 0.433802
Si Si5 0.164812 0.204219 0.067429
Si Si6 0.162040 0.951103 0.569315
O O1 0.825229 0.535849 0.250000
O O2 0.732831 0.581608 0.473287
O O3 0.800506 0.498844 0.516362
O O4 0.996354 0.554526 0.465269
O O5 0.828137 0.204596 0.250000
O O6 0.002218 0.195665 0.026266
O O7 0.801160 0.250000 0.000000
O O8 0.742474 0.166864 0.001238
O O9 0.664943 0.371143 0.250000
O O10 0.506015 0.375759 0.492341
O O11 0.746769 0.415896 0.485174
O O12 0.632407 0.625077 0.250000
O O13 0.735386 0.665646 0.480755
O O14 0.170309 0.206889 0.250000
O O15 0.205354 0.250000 0.000000
O O16 0.180781 0.946606 0.750000
#
# Coordination Sequence:
#
# PCOD9437833 Si02
#       6
#     8   8   8   8   8   8
#     4   9  19  37  61  86 110 141 185 233 281 334
#     4  10  20  38  62  87 113 144 184 230 280 331
#     4  12  25  38  54  81 115 152 191 229 273 328
#     4  10  21  38  57  79 112 151 186 227 279 331
#     4   9  19  36  60  86 111 142 182 227 275 328
#     4  10  20  37  61  86 112 144 182 229 282 333
#
# _framework density 18.233457000000001
#
# number of rings (size 3 to 8) (size 9 to 14) (size 15 to 20)
#    0.000    2.000    0.000    3.500    0.000    6.667 
#    0.000    3.333    0.000    0.000    0.000    0.000 
#    0.000    0.000    0.000    0.000    0.000    0.000 
#
# Total GULP energy -268178.586047 kJ/mol
# GULP energy per Si atom -5587.053876 kJ/mol
# Density = 1.819196 g / cm^3
# Si number density = 18.233457 Si / 1000 Ang^3
#
#
#
# Elastic Constant Matrix: (Units=GPa)
#
#
# Indices 1 2 3 4 5 6 
#
# 1 121.1806 119.1476 61.5168 0.0000 0.0000 0.0000
# 2 119.1476 169.6562 71.9163 0.0000 0.0000 0.0000
# 3 61.5168 71.9163 65.3212 0.0000 0.0000 0.0000
# 4 0.0000 0.0000 0.0000 36.4800 0.0000 0.0000
# 5 0.0000 0.0000 0.0000 0.0000 24.4566 0.0000
# 6 0.0000 0.0000 0.0000 0.0000 0.0000 -16.1030
#
#
#
# Elastic Compliance Matrix: (Units=1/GPa)
#
#
# Indices 1 2 3 4 5 6 
#
# 1 0.029391 -0.016703 -0.009290 0.000000 0.000000 0.000000
# 2 -0.016703 0.020545 -0.006889 0.000000 0.000000 0.000000
# 3 -0.009290 -0.006889 0.031642 0.000000 0.000000 0.000000
# 4 0.000000 0.000000 0.000000 0.027412 0.000000 0.000000
# 5 0.000000 0.000000 0.000000 0.000000 0.040889 0.000000
# 6 0.000000 0.000000 0.000000 0.000000 0.000000 -0.062100
#
#
# Mechanical properties :
#
#
# Convention : Reuss Voigt Hill
#
# Bulk Modulus (GPa) = 63.23304 95.70217 79.46761
# Shear Modulus (GPa) = 31.48374 15.87188 23.67781
#
# Velocity S-wave (km/s) = 4.15987 2.95359 3.60751
# Velocity P-wave (km/s) = 7.60445 8.01453 7.81218
#
# Compressibility (1/GPa) = 0.01581452
#
# Stress axis : x y z
#
# Youngs Moduli (GPa) = 34.02437 48.67438 31.60370
#
# Poissons Ratio (x) = 0.81301 0.29359
# Poissons Ratio (y) = 0.56831 0.21771
# Poissons Ratio (z) = 0.31607 0.33531
#
# Static dielectric constant tensor:
#      x y z
#    x 1.603750 0.000000 0.000000 
#    y 0.000000 1.597170 0.000000 
#    z 0.000000 0.000000 1.608870 
# 
# From -- ./inp_files/1973.got.cif
#   From: 2010.05.17/outbox.cif.g08.bks.cpg/sg57_1_cif.got.tgz:1973.got - 2010.06.03 13:58:18.
