data_PCOD9437560
_publ_section_title
;
Structure prediction by ZEFSAII (Michael W. Deem and Ramdas Pophale) SiO2 
 PCOD9437560
Probable space group: P B C M
;
_chemical_formula_sum "Si O2"
_cell_formula_units_Z 36
_cell_length_a 10.734843
_cell_length_b 14.765918
_cell_length_c 11.446815
_cell_angle_alpha 90.000000
_cell_angle_beta 90.000000
_cell_angle_gamma 90.000000
_cell_volume 1814.432488
_symmetry_space_group_name_H-M "P B C M"
_symmetry_group_IT_number 57
_symmetry_cell_setting 'orthorhombic'
loop_
_space_group_symop_operation_xyz
x,y,z
-x,-y,1/2+z
x,1/2-y,-z
-x,1/2+y,1/2-z
-x,-y,-z
x,y,1/2-z
-x,1/2+y,z
x,1/2-y,1/2+z
loop_
_atom_site_type_symbol
_atom_site_label
_atom_site_fract_x
_atom_site_fract_y
_atom_site_fract_z
Si Si1 0.816578 0.750000 0.500000
Si Si2 0.341582 0.089248 0.113952
Si Si3 0.803190 0.048856 0.044334
Si Si4 0.603504 0.185800 0.116621
Si Si5 0.021204 0.390480 0.377335
O O1 0.734114 0.824636 0.564824
O O2 0.903314 0.699194 0.592194
O O3 0.312589 0.074002 0.250000
O O4 0.485480 0.118136 0.104412
O O5 0.294641 0.004458 0.038560
O O6 0.911950 0.094144 0.968692
O O7 0.727340 0.124935 0.111990
O O8 0.878110 0.971913 0.114886
O O9 0.593209 0.226985 0.250000
O O10 0.602929 0.250000 0.000000
O O11 0.964891 0.387597 0.250000
#
# Coordination Sequence:
#
# PCOD9437560 Si02
#       5
#     4   8   8   8   8
#     4  10  20  36  58  88 122 158 210 244 306 354
#     4  10  20  38  62  87 122 162 207 253 305 367
#     4  10  22  39  60  89 121 159 205 250 304 363
#     4  11  24  42  63  93 125 161 205 256 311 365
#     4  10  21  38  60  87 121 161 203 248 299 356
#
# _framework density 19.840916
#
# number of rings (size 3 to 8) (size 9 to 14) (size 15 to 20)
#    0.000    1.778    1.111    2.667    1.556    1.778 
#    0.000    3.333    0.000    0.000    0.000    0.000 
#    0.000    0.000    0.000    0.000    0.000    0.000 
#
# Total GULP energy -200866.334548 kJ/mol
# GULP energy per Si atom -5579.620404 kJ/mol
# Density = 1.979576 g / cm^3
# Si number density = 19.840916 Si / 1000 Ang^3
#
#
#
# Elastic Constant Matrix: (Units=GPa)
#
#
# Indices 1 2 3 4 5 6 
#
# 1 73.1629 17.4948 20.8494 0.0000 0.0000 0.0000
# 2 17.4948 9.4982 6.2082 0.0000 0.0000 0.0000
# 3 20.8494 6.2082 103.1832 0.0000 0.0000 0.0000
# 4 0.0000 0.0000 0.0000 4.6321 0.0000 0.0000
# 5 0.0000 0.0000 0.0000 0.0000 4.5585 0.0000
# 6 0.0000 0.0000 0.0000 0.0000 0.0000 78.7146
#
#
#
# Elastic Compliance Matrix: (Units=1/GPa)
#
#
# Indices 1 2 3 4 5 6 
#
# 1 0.024972 -0.044446 -0.002372 0.000000 0.000000 0.000000
# 2 -0.044446 0.188699 -0.002373 0.000000 0.000000 0.000000
# 3 -0.002372 -0.002373 0.010313 0.000000 0.000000 0.000000
# 4 0.000000 0.000000 0.000000 0.215886 0.000000 0.000000
# 5 0.000000 0.000000 0.000000 0.000000 0.219371 0.000000
# 6 0.000000 0.000000 0.000000 0.000000 0.000000 0.012704
#
#
# Mechanical properties :
#
#
# Convention : Reuss Voigt Hill
#
# Bulk Modulus (GPa) = 7.96152 30.54989 19.25571
# Shear Modulus (GPa) = 6.15617 27.00049 16.57833
#
# Velocity S-wave (km/s) = 1.76338 3.69297 2.89375
# Velocity P-wave (km/s) = 2.85786 5.79783 4.57068
#
# Compressibility (1/GPa) = 0.12560415
#
# Stress axis : x y z
#
# Youngs Moduli (GPa) = 40.04490 5.29944 96.96046
#
# Poissons Ratio (x) = 0.23554 0.22996
# Poissons Ratio (y) = 1.77983 0.23004
# Poissons Ratio (z) = 0.09498 0.01257
#
# Static dielectric constant tensor:
#      x y z
#    x 1.674020 0.000000 0.000000 
#    y 0.000000 1.681840 0.000000 
#    z 0.000000 0.000000 1.712560 
# 
# From -- ./inp_files/12521.got.cif
#   From: 2010.05.17/outbox.cif.g08.bks.cpg/sg57_7_cif.got.tgz:12521.got - 2010.06.03 13:58:18.
