data_PCOD9437982
_publ_section_title
;
Structure prediction by ZEFSAII (Michael W. Deem and Ramdas Pophale) SiO2 
 PCOD9437982
Probable space group: P B C M
;
_chemical_formula_sum "Si O2"
_cell_formula_units_Z 36
_cell_length_a 20.911847
_cell_length_b 7.767762
_cell_length_c 10.548142
_cell_angle_alpha 90.000000
_cell_angle_beta 90.000000
_cell_angle_gamma 90.000000
_cell_volume 1713.421732
_symmetry_space_group_name_H-M "P B C M"
_symmetry_group_IT_number 57
_symmetry_cell_setting 'orthorhombic'
loop_
_space_group_symop_operation_xyz
x,y,z
-x,-y,1/2+z
x,1/2-y,-z
-x,1/2+y,1/2-z
-x,-y,-z
x,y,1/2-z
-x,1/2+y,z
x,1/2-y,1/2+z
loop_
_atom_site_type_symbol
_atom_site_label
_atom_site_fract_x
_atom_site_fract_y
_atom_site_fract_z
Si Si1 0.506342 0.750000 0.500000
Si Si2 0.721651 0.900330 0.398000
Si Si3 0.857787 0.456588 0.517923
Si Si4 0.056684 0.905805 0.750000
Si Si5 0.411274 0.963982 0.611759
Si Si6 0.910755 0.999389 0.750000
O O1 0.454109 0.706892 0.392010
O O2 0.554086 0.908224 0.484164
O O3 0.708983 0.750000 0.500000
O O4 0.721217 0.842747 0.250000
O O5 0.664205 0.039769 0.412106
O O6 0.790583 0.977808 0.429543
O O7 0.854018 0.250000 0.500000
O O8 0.912562 0.488002 0.623433
O O9 0.874190 0.538714 0.381212
O O10 0.077024 0.705652 0.750000
O O11 0.980640 0.916344 0.750000
O O12 0.418705 0.045390 0.750000
#
# Coordination Sequence:
#
# PCOD9437982 Si02
#       6
#     4   8   8   4   8   4
#     4  10  20  38  60  88 120 154 200 250 306 362
#     4  11  24  42  61  89 124 163 207 255 305 363
#     4  10  22  40  61  88 124 163 203 250 300 362
#     4  10  20  40  60  92 120 159 196 255 297 361
#     4  10  21  38  60  87 120 158 202 252 305 357
#     4  10  22  36  64  90 122 153 204 243 307 359
#
# _framework density 21.010589
#
# number of rings (size 3 to 8) (size 9 to 14) (size 15 to 20)
#    0.000    1.778    2.222    1.333    3.111    1.778 
#    0.000    1.111    0.000    0.000    0.000    0.000 
#    0.000    0.000    0.000    0.000    0.000    0.000 
#
# Total GULP energy -200650.062021 kJ/mol
# GULP energy per Si atom -5573.612834 kJ/mol
# Density = 2.096277 g / cm^3
# Si number density = 21.010589 Si / 1000 Ang^3
#
#
#
# Elastic Constant Matrix: (Units=GPa)
#
#
# Indices 1 2 3 4 5 6 
#
# 1 134.5342 9.1006 50.1058 0.0000 0.0000 0.0000
# 2 9.1006 17.3188 12.0132 0.0000 0.0000 0.0000
# 3 50.1058 12.0132 139.7364 0.0000 0.0000 0.0000
# 4 0.0000 0.0000 0.0000 13.8879 0.0000 0.0000
# 5 0.0000 0.0000 0.0000 0.0000 46.1105 0.0000
# 6 0.0000 0.0000 0.0000 0.0000 0.0000 25.4359
#
#
#
# Elastic Compliance Matrix: (Units=1/GPa)
#
#
# Indices 1 2 3 4 5 6 
#
# 1 0.008684 -0.002556 -0.002894 0.000000 0.000000 0.000000
# 2 -0.002556 0.062155 -0.004427 0.000000 0.000000 0.000000
# 3 -0.002894 -0.004427 0.008575 0.000000 0.000000 0.000000
# 4 0.000000 0.000000 0.000000 0.072005 0.000000 0.000000
# 5 0.000000 0.000000 0.000000 0.000000 0.021687 0.000000
# 6 0.000000 0.000000 0.000000 0.000000 0.000000 0.039315
#
#
# Mechanical properties :
#
#
# Convention : Reuss Voigt Hill
#
# Bulk Modulus (GPa) = 16.76181 48.22540 32.49360
# Shear Modulus (GPa) = 19.83659 31.77819 25.80739
#
# Velocity S-wave (km/s) = 3.07599 3.89329 3.50852
# Velocity P-wave (km/s) = 4.53991 6.57366 5.64906
#
# Compressibility (1/GPa) = 0.05965943
#
# Stress axis : x y z
#
# Youngs Moduli (GPa) = 115.15699 16.08893 116.62265
#
# Poissons Ratio (x) = 0.04112 0.33751
# Poissons Ratio (y) = 0.29430 0.51630
# Poissons Ratio (z) = 0.33327 0.07123
#
# Static dielectric constant tensor:
#      x y z
#    x 1.716860 0.000000 0.000000 
#    y 0.000000 1.829640 0.000000 
#    z 0.000000 0.000000 1.815890 
# 
# From -- ./inp_files/7668.got.cif
#   From: 2010.05.17/outbox.cif.g08.bks.cpg/sg57_4_cif.got.tgz:7668.got - 2010.06.03 13:58:18.
