data_PCOD9437977
_publ_section_title
;
Structure prediction by ZEFSAII (Michael W. Deem and Ramdas Pophale) SiO2 
 PCOD9437977
Probable space group: P B C M
;
_chemical_formula_sum "Si O2"
_cell_formula_units_Z 40
_cell_length_a 6.025822
_cell_length_b 13.148641
_cell_length_c 24.267414
_cell_angle_alpha 90.000000
_cell_angle_beta 90.000000
_cell_angle_gamma 90.000000
_cell_volume 1922.740463
_symmetry_space_group_name_H-M "P B C M"
_symmetry_group_IT_number 57
_symmetry_cell_setting 'orthorhombic'
loop_
_space_group_symop_operation_xyz
x,y,z
-x,-y,1/2+z
x,1/2-y,-z
-x,1/2+y,1/2-z
-x,-y,-z
x,y,1/2-z
-x,1/2+y,z
x,1/2-y,1/2+z
loop_
_atom_site_type_symbol
_atom_site_label
_atom_site_fract_x
_atom_site_fract_y
_atom_site_fract_z
Si Si1 0.689814 0.839393 0.856432
Si Si2 0.402016 0.662819 0.874210
Si Si3 0.926420 0.192892 0.056542
Si Si4 0.314231 0.511277 0.402446
Si Si5 0.937651 0.481410 0.188116
O O1 0.573944 0.733982 0.841037
O O2 0.492605 0.913539 0.875111
O O3 0.835398 0.904512 0.814228
O O4 0.850809 0.819435 0.908173
O O5 0.240865 0.735249 0.909065
O O6 0.545221 0.589763 0.914712
O O7 0.250885 0.595058 0.834136
O O8 0.813244 0.080573 0.052763
O O9 0.969087 0.250000 0.000000
O O10 0.134494 0.481006 0.356247
O O11 0.007104 0.456572 0.250000
#
# Coordination Sequence:
#
# PCOD9437977 Si02
#       5
#     8   8   8   8   8
#     4   9  20  38  57  83 118 148 184 233 280 336
#     4  10  20  38  60  85 118 149 187 238 286 338
#     4  10  21  38  60  85 115 153 194 235 283 339
#     4   9  20  38  57  84 118 147 186 238 282 333
#     4  10  21  38  60  85 114 150 191 233 281 340
#
# _framework density 20.803640999999999
#
# number of rings (size 3 to 8) (size 9 to 14) (size 15 to 20)
#    0.000    2.400    0.000    1.200    0.000    8.000 
#    0.000   28.000    0.000    0.000    0.000    0.000 
#    0.000    0.000    0.000    0.000    0.000    0.000 
#
# Total GULP energy -223070.523574 kJ/mol
# GULP energy per Si atom -5576.763089 kJ/mol
# Density = 2.075629 g / cm^3
# Si number density = 20.803641 Si / 1000 Ang^3
#
#
#
# Elastic Constant Matrix: (Units=GPa)
#
#
# Indices 1 2 3 4 5 6 
#
# 1 85.1067 25.1417 -8.0532 0.0000 0.0000 0.0000
# 2 25.1417 89.8687 -9.0046 0.0000 0.0000 0.0000
# 3 -8.0532 -9.0046 27.5229 0.0000 0.0000 0.0000
# 4 0.0000 0.0000 0.0000 8.4117 0.0000 0.0000
# 5 0.0000 0.0000 0.0000 0.0000 2.5122 0.0000
# 6 0.0000 0.0000 0.0000 0.0000 0.0000 31.3777
#
#
#
# Elastic Compliance Matrix: (Units=1/GPa)
#
#
# Indices 1 2 3 4 5 6 
#
# 1 0.013000 -0.003366 0.002703 0.000000 0.000000 0.000000
# 2 -0.003366 0.012376 0.003064 0.000000 0.000000 0.000000
# 3 0.002703 0.003064 0.038127 0.000000 0.000000 0.000000
# 4 0.000000 0.000000 0.000000 0.118882 0.000000 0.000000
# 5 0.000000 0.000000 0.000000 0.000000 0.398060 0.000000
# 6 0.000000 0.000000 0.000000 0.000000 0.000000 0.031870
#
#
# Mechanical properties :
#
#
# Convention : Reuss Voigt Hill
#
# Bulk Modulus (GPa) = 14.64048 24.29623 19.46836
# Shear Modulus (GPa) = 7.93296 21.42128 14.67712
#
# Velocity S-wave (km/s) = 1.95487 3.21236 2.65902
# Velocity P-wave (km/s) = 3.48542 5.04611 4.33655
#
# Compressibility (1/GPa) = 0.06830376
#
# Stress axis : x y z
#
# Youngs Moduli (GPa) = 76.92253 80.80109 26.22844
#
# Poissons Ratio (x) = 0.27199 -0.07088
# Poissons Ratio (y) = 0.25893 -0.08037
# Poissons Ratio (z) = -0.20789 -0.24758
#
# Static dielectric constant tensor:
#      x y z
#    x 1.743000 0.000000 0.000000 
#    y 0.000000 1.808460 0.000000 
#    z 0.000000 0.000000 1.718210 
# 
# From -- ./inp_files/27777.got.cif
#   From: 2010.05.17/outbox.cif.g08.bks.cpg/sg57_14_cif.got.tgz:27777.got - 2010.06.03 13:58:18.
