data_PCOD9437586
_publ_section_title
;
Structure prediction by ZEFSAII (Michael W. Deem and Ramdas Pophale) SiO2 
 PCOD9437586
Probable space group: P B C M
;
_chemical_formula_sum "Si O2"
_cell_formula_units_Z 48
_cell_length_a 8.697957
_cell_length_b 16.098788
_cell_length_c 18.151107
_cell_angle_alpha 90.000000
_cell_angle_beta 90.000000
_cell_angle_gamma 90.000000
_cell_volume 2541.637178
_symmetry_space_group_name_H-M "P B C M"
_symmetry_group_IT_number 57
_symmetry_cell_setting 'orthorhombic'
loop_
_space_group_symop_operation_xyz
x,y,z
-x,-y,1/2+z
x,1/2-y,-z
-x,1/2+y,1/2-z
-x,-y,-z
x,y,1/2-z
-x,1/2+y,z
x,1/2-y,1/2+z
loop_
_atom_site_type_symbol
_atom_site_label
_atom_site_fract_x
_atom_site_fract_y
_atom_site_fract_z
Si Si1 0.601238 0.672289 0.664931
Si Si2 0.074003 0.925662 0.081314
Si Si3 0.596099 0.687965 0.437741
Si Si4 0.916624 0.609976 0.073903
Si Si5 0.573132 0.078284 0.539618
Si Si6 0.957721 0.724292 0.664625
O O1 0.565477 0.658026 0.750000
O O2 0.544636 0.760681 0.633013
O O3 0.526674 0.604365 0.611161
O O4 0.784966 0.685828 0.656567
O O5 0.249756 0.931900 0.056301
O O6 0.062474 0.852401 0.140256
O O7 0.033042 0.019945 0.105984
O O8 0.970754 0.897697 0.011104
O O9 0.666766 0.750000 0.500000
O O10 0.731813 0.623222 0.421253
O O11 0.452481 0.650057 0.479586
O O12 0.976588 0.693231 0.114559
O O13 0.500000 0.000000 0.500000
O O14 0.977828 0.746890 0.750000
#
# Coordination Sequence:
#
# PCOD9437586 Si02
#       6
#     8   8   8   8   8   8
#     4   9  20  38  59  79 111 157 197 234 290 352
#     4  11  22  34  60  91 115 149 196 244 289 342
#     4   9  17  34  58  81 111 150 193 233 283 348
#     4  10  20  36  59  86 115 151 195 242 285 346
#     4  11  21  35  57  88 118 148 189 242 290 343
#     4  10  22  40  60  83 117 157 194 239 294 348
#
# _framework density 18.885463999999999
#
# number of rings (size 3 to 8) (size 9 to 14) (size 15 to 20)
#    0.000    2.000    1.667    3.500    2.333    5.333 
#    0.000    0.833    0.000    0.000    0.000    0.000 
#    0.000    0.000    0.000    0.000    0.000    0.000 
#
# Total GULP energy -267420.871650 kJ/mol
# GULP energy per Si atom -5571.268159 kJ/mol
# Density = 1.884248 g / cm^3
# Si number density = 18.885464 Si / 1000 Ang^3
#
#
#
# Elastic Constant Matrix: (Units=GPa)
#
#
# Indices 1 2 3 4 5 6 
#
# 1 29.2253 18.3540 14.1415 0.0000 0.0000 0.0000
# 2 18.3540 107.9481 39.9116 0.0000 0.0000 0.0000
# 3 14.1415 39.9116 77.9059 0.0000 0.0000 0.0000
# 4 0.0000 0.0000 0.0000 22.1204 0.0000 0.0000
# 5 0.0000 0.0000 0.0000 0.0000 18.0770 0.0000
# 6 0.0000 0.0000 0.0000 0.0000 0.0000 26.6737
#
#
#
# Elastic Compliance Matrix: (Units=1/GPa)
#
#
# Indices 1 2 3 4 5 6 
#
# 1 0.039607 -0.005029 -0.004613 0.000000 0.000000 0.000000
# 2 -0.005029 0.012067 -0.005269 0.000000 0.000000 0.000000
# 3 -0.004613 -0.005269 0.016373 0.000000 0.000000 0.000000
# 4 0.000000 0.000000 0.000000 0.045207 0.000000 0.000000
# 5 0.000000 0.000000 0.000000 0.000000 0.055319 0.000000
# 6 0.000000 0.000000 0.000000 0.000000 0.000000 0.037490
#
#
# Mechanical properties :
#
#
# Convention : Reuss Voigt Hill
#
# Bulk Modulus (GPa) = 26.16101 39.98816 33.07459
# Shear Modulus (GPa) = 20.11047 22.88571 21.49809
#
# Velocity S-wave (km/s) = 3.26677 3.48489 3.37759
# Velocity P-wave (km/s) = 5.30203 6.11659 5.72382
#
# Compressibility (1/GPa) = 0.03822482
#
# Stress axis : x y z
#
# Youngs Moduli (GPa) = 25.24791 82.87178 61.07694
#
# Poissons Ratio (x) = 0.41673 0.28177
# Poissons Ratio (y) = 0.12696 0.32182
# Poissons Ratio (z) = 0.11648 0.43666
#
# Static dielectric constant tensor:
#      x y z
#    x 1.672860 0.000000 0.000000 
#    y 0.000000 1.742190 0.000000 
#    z 0.000000 0.000000 1.647200 
# 
# From -- ./inp_files/20912.got.cif
#   From: 2010.05.17/outbox.cif.g08.bks.cpg/sg57_11_cif.got.tgz:20912.got - 2010.06.03 13:58:18.
