data_PCOD9437025
_publ_section_title
;
Structure prediction by ZEFSAII (Michael W. Deem and Ramdas Pophale) SiO2 
 PCOD9437025
Probable space group: P B C M
;
_chemical_formula_sum "Si O2"
_cell_formula_units_Z 56
_cell_length_a 8.597857
_cell_length_b 22.344779
_cell_length_c 15.033376
_cell_angle_alpha 90.000000
_cell_angle_beta 90.000000
_cell_angle_gamma 90.000000
_cell_volume 2888.170322
_symmetry_space_group_name_H-M "P B C M"
_symmetry_group_IT_number 57
_symmetry_cell_setting 'orthorhombic'
loop_
_space_group_symop_operation_xyz
x,y,z
-x,-y,1/2+z
x,1/2-y,-z
-x,1/2+y,1/2-z
-x,-y,-z
x,y,1/2-z
-x,1/2+y,z
x,1/2-y,1/2+z
loop_
_atom_site_type_symbol
_atom_site_label
_atom_site_fract_x
_atom_site_fract_y
_atom_site_fract_z
Si Si1 0.109241 0.602682 0.147987
Si Si2 0.275717 0.722974 0.405599
Si Si3 0.601308 0.684916 0.014146
Si Si4 0.657078 0.027627 0.645974
Si Si5 0.392872 0.843704 0.348329
Si Si6 0.817017 0.573932 0.030144
Si Si7 0.713805 0.518574 0.852227
O O1 0.048016 0.599114 0.250000
O O2 0.175783 0.668839 0.131239
O O3 0.240263 0.551297 0.140318
O O4 0.982531 0.586765 0.073849
O O5 0.219474 0.750000 0.500000
O O6 0.449994 0.697057 0.424283
O O7 0.295392 0.782774 0.348424
O O8 0.713086 0.633007 0.045710
O O9 0.678042 0.750000 0.000000
O O10 0.526740 0.664961 0.920492
O O11 0.687829 0.014104 0.750000
O O12 0.702000 0.096615 0.627534
O O13 0.470696 0.024810 0.631491
O O14 0.741533 0.981450 0.582806
O O15 0.457434 0.854602 0.250000
O O16 0.807686 0.555774 0.926333
O O17 0.746992 0.536771 0.750000
#
# Coordination Sequence:
#
# PCOD9437025 Si02
#       7
#     8   8   8   8   8   8   8
#     4  11  24  40  56  82 120 161 200 237 286 354
#     4   9  20  37  62  84 113 152 198 236 285 349
#     4   9  20  36  58  87 111 144 195 241 292 346
#     4  10  20  34  60  93 119 147 195 247 295 353
#     4   9  17  33  58  88 114 143 189 243 290 338
#     4  12  22  36  61  84 122 155 192 243 307 342
#     4  10  22  38  59  86 116 155 200 242 297 356
#
# _framework density 19.389437000000001
#
# number of rings (size 3 to 8) (size 9 to 14) (size 15 to 20)
#    0.000    2.286    1.429    2.571    4.000    0.571 
#    0.000    6.429    0.000    2.571    0.000    0.000 
#    0.000    0.000    0.000    0.000    0.000    0.000 
#
# Total GULP energy -312434.768047 kJ/mol
# GULP energy per Si atom -5579.192287 kJ/mol
# Density = 1.934531 g / cm^3
# Si number density = 19.389437 Si / 1000 Ang^3
#
#
#
# Elastic Constant Matrix: (Units=GPa)
#
#
# Indices 1 2 3 4 5 6 
#
# 1 45.5482 45.1114 28.7887 0.0000 0.0000 0.0000
# 2 45.1114 154.5016 47.4971 0.0000 0.0000 0.0000
# 3 28.7887 47.4971 72.6293 0.0000 0.0000 0.0000
# 4 0.0000 0.0000 0.0000 24.2103 0.0000 0.0000
# 5 0.0000 0.0000 0.0000 0.0000 12.1689 0.0000
# 6 0.0000 0.0000 0.0000 0.0000 0.0000 17.9445
#
#
#
# Elastic Compliance Matrix: (Units=1/GPa)
#
#
# Indices 1 2 3 4 5 6 
#
# 1 0.035038 -0.007461 -0.009009 0.000000 0.000000 0.000000
# 2 -0.007461 0.009690 -0.003379 0.000000 0.000000 0.000000
# 3 -0.009009 -0.003379 0.019550 0.000000 0.000000 0.000000
# 4 0.000000 0.000000 0.000000 0.041305 0.000000 0.000000
# 5 0.000000 0.000000 0.000000 0.000000 0.082177 0.000000
# 6 0.000000 0.000000 0.000000 0.000000 0.000000 0.055727
#
#
# Mechanical properties :
#
#
# Convention : Reuss Voigt Hill
#
# Bulk Modulus (GPa) = 40.68578 57.27480 48.98029
# Shear Modulus (GPa) = 17.15982 20.95023 19.05503
#
# Velocity S-wave (km/s) = 2.97814 3.29066 3.13829
# Velocity P-wave (km/s) = 5.73191 6.63636 6.20064
#
# Compressibility (1/GPa) = 0.02457861
#
# Stress axis : x y z
#
# Youngs Moduli (GPa) = 28.54013 103.20176 51.15173
#
# Poissons Ratio (x) = 0.76997 0.46084
# Poissons Ratio (y) = 0.21293 0.17286
# Poissons Ratio (z) = 0.25713 0.34877
#
# Static dielectric constant tensor:
#      x y z
#    x 1.662430 0.000000 0.000000 
#    y 0.000000 1.692250 0.000000 
#    z 0.000000 0.000000 1.718400 
# 
# From -- ./inp_files/16723.got.cif
#   From: 2010.05.17/outbox.cif.g08.bks.cpg/sg57_9_cif.got.tgz:16723.got - 2010.06.03 13:58:18.
