data_PCOD9437720
_publ_section_title
;
Structure prediction by ZEFSAII (Michael W. Deem and Ramdas Pophale) SiO2 
 PCOD9437720
Probable space group: P B C M
;
_chemical_formula_sum "Si O2"
_cell_formula_units_Z 56
_cell_length_a 15.146438
_cell_length_b 23.086193
_cell_length_c 8.705112
_cell_angle_alpha 90.000000
_cell_angle_beta 90.000000
_cell_angle_gamma 90.000000
_cell_volume 3043.947772
_symmetry_space_group_name_H-M "P B C M"
_symmetry_group_IT_number 57
_symmetry_cell_setting 'orthorhombic'
loop_
_space_group_symop_operation_xyz
x,y,z
-x,-y,1/2+z
x,1/2-y,-z
-x,1/2+y,1/2-z
-x,-y,-z
x,y,1/2-z
-x,1/2+y,z
x,1/2-y,1/2+z
loop_
_atom_site_type_symbol
_atom_site_label
_atom_site_fract_x
_atom_site_fract_y
_atom_site_fract_z
Si Si1 0.426496 0.188615 0.064575
Si Si2 0.912693 0.422309 0.934230
Si Si3 0.297051 0.086513 0.435004
Si Si4 0.405048 0.982545 0.566636
Si Si5 0.623222 0.151765 0.065028
Si Si6 0.191041 0.688260 0.932783
Si Si7 0.888463 0.951714 0.934877
O O1 0.425478 0.189047 0.250000
O O2 0.360636 0.138063 0.011168
O O3 0.527899 0.176673 0.017728
O O4 0.397904 0.250000 0.000000
O O5 0.904556 0.419656 0.750000
O O6 0.016696 0.425140 0.977534
O O7 0.863041 0.367130 0.004302
O O8 0.877386 0.484613 0.991890
O O9 0.302763 0.085487 0.250000
O O10 0.194201 0.088525 0.477554
O O11 0.335208 0.026848 0.498502
O O12 0.408637 0.987280 0.750000
O O13 0.380708 0.916580 0.529294
O O14 0.500000 0.000000 0.500000
O O15 0.632338 0.158488 0.250000
O O16 0.707246 0.179701 0.984584
O O17 0.185477 0.689628 0.750000
O O18 0.159794 0.750000 0.000000
O O19 0.888713 0.959085 0.750000
#
# Coordination Sequence:
#
# PCOD9437720 Si02
#       7
#     8   8   8   8   8   8   8
#     4  10  21  37  54  74 105 144 184 226 269 318
#     4  10  20  37  60  88 119 147 182 233 287 342
#     4  10  20  37  56  80 113 146 183 228 274 328
#     4  11  21  34  54  82 114 147 184 228 278 328
#     4  10  21  38  57  81 112 147 186 231 281 332
#     4  12  25  40  59  84 114 153 195 239 288 343
#     4   9  19  36  62  89 114 148 186 227 285 344
#
# _framework density 18.397162000000002
#
# number of rings (size 3 to 8) (size 9 to 14) (size 15 to 20)
#    0.000    1.714    1.429    3.429    0.000    6.857 
#    0.000    0.714    0.000    1.714    0.000    0.000 
#    0.000    0.000    0.000    0.000    0.000    0.000 
#
# Total GULP energy -312789.890483 kJ/mol
# GULP energy per Si atom -5585.533759 kJ/mol
# Density = 1.835529 g / cm^3
# Si number density = 18.397162 Si / 1000 Ang^3
#
#
#
# Elastic Constant Matrix: (Units=GPa)
#
#
# Indices 1 2 3 4 5 6 
#
# 1 113.2735 57.6726 33.9194 0.0000 0.0000 0.0000
# 2 57.6726 106.4792 36.4995 0.0000 0.0000 0.0000
# 3 33.9194 36.4995 34.0846 0.0000 0.0000 0.0000
# 4 0.0000 0.0000 0.0000 30.5205 0.0000 0.0000
# 5 0.0000 0.0000 0.0000 0.0000 20.0083 0.0000
# 6 0.0000 0.0000 0.0000 0.0000 0.0000 15.4852
#
#
#
# Elastic Compliance Matrix: (Units=1/GPa)
#
#
# Indices 1 2 3 4 5 6 
#
# 1 0.013745 -0.004354 -0.009015 0.000000 0.000000 0.000000
# 2 -0.004354 0.016218 -0.013033 0.000000 0.000000 0.000000
# 3 -0.009015 -0.013033 0.052267 0.000000 0.000000 0.000000
# 4 0.000000 0.000000 0.000000 0.032765 0.000000 0.000000
# 5 0.000000 0.000000 0.000000 0.000000 0.049979 0.000000
# 6 0.000000 0.000000 0.000000 0.000000 0.000000 0.064578
#
#
# Mechanical properties :
#
#
# Convention : Reuss Voigt Hill
#
# Bulk Modulus (GPa) = 33.98647 56.66893 45.32770
# Shear Modulus (GPa) = 17.11359 21.58586 19.34972
#
# Velocity S-wave (km/s) = 3.05328 3.42910 3.24663
# Velocity P-wave (km/s) = 5.56272 6.82263 6.22463
#
# Compressibility (1/GPa) = 0.02942347
#
# Stress axis : x y z
#
# Youngs Moduli (GPa) = 72.75496 61.66145 19.13245
#
# Poissons Ratio (x) = 0.26849 0.17249
# Poissons Ratio (y) = 0.31680 0.24936
# Poissons Ratio (z) = 0.65591 0.80366
#
# Static dielectric constant tensor:
#      x y z
#    x 1.651070 0.000000 0.000000 
#    y 0.000000 1.600560 0.000000 
#    z 0.000000 0.000000 1.615920 
# 
# From -- ./inp_files/5240.got.cif
#   From: 2010.05.17/outbox.cif.g08.bks.cpg/sg57_3_cif.got.tgz:5240.got - 2010.06.03 13:58:18.
