data_PCOD9437872
_publ_section_title
;
Structure prediction by ZEFSAII (Michael W. Deem and Ramdas Pophale) SiO2 
 PCOD9437872
Probable space group: P B C M
;
_chemical_formula_sum "Si O2"
_cell_formula_units_Z 40
_cell_length_a 7.586058
_cell_length_b 15.851509
_cell_length_c 17.760059
_cell_angle_alpha 90.000000
_cell_angle_beta 90.000000
_cell_angle_gamma 90.000000
_cell_volume 2135.655383
_symmetry_space_group_name_H-M "P B C M"
_symmetry_group_IT_number 57
_symmetry_cell_setting 'orthorhombic'
loop_
_space_group_symop_operation_xyz
x,y,z
-x,-y,1/2+z
x,1/2-y,-z
-x,1/2+y,1/2-z
-x,-y,-z
x,y,1/2-z
-x,1/2+y,z
x,1/2-y,1/2+z
loop_
_atom_site_type_symbol
_atom_site_label
_atom_site_fract_x
_atom_site_fract_y
_atom_site_fract_z
Si Si1 0.263828 0.159646 0.471076
Si Si2 0.378655 0.064326 0.164492
Si Si3 0.856097 0.157346 0.985703
Si Si4 0.711180 0.501743 0.576234
Si Si5 0.056453 0.932557 0.162828
O O1 0.323245 0.250000 0.500000
O O2 0.329141 0.142817 0.387506
O O3 0.326012 0.081594 0.522559
O O4 0.051256 0.157334 0.476972
O O5 0.413936 0.088034 0.250000
O O6 0.547023 0.018983 0.128626
O O7 0.212043 0.001441 0.161797
O O8 0.756025 0.079197 0.024230
O O9 0.777959 0.250000 0.000000
O O10 0.885593 0.138893 0.897084
O O11 0.880905 0.526289 0.626793
O O12 0.029754 0.906243 0.250000
#
# Coordination Sequence:
#
# PCOD9437872 Si02
#       5
#     8   8   8   8   8
#     4  10  20  38  62  88 116 157 199 238 289 351
#     4  11  22  37  59  87 114 152 195 242 296 342
#     4  10  20  37  62  89 115 158 203 234 288 354
#     4  11  20  39  61  84 117 158 200 235 288 351
#     4  10  20  38  59  83 117 151 188 249 296 337
#
# _framework density 18.729613000000001
#
# number of rings (size 3 to 8) (size 9 to 14) (size 15 to 20)
#    0.000    1.600    4.000    2.400    0.000    0.800 
#    0.000   12.000    0.000    0.000    0.000    0.000 
#    0.000    0.000    0.000    0.000    0.000    0.000 
#
# Total GULP energy -223415.506739 kJ/mol
# GULP energy per Si atom -5585.387668 kJ/mol
# Density = 1.868698 g / cm^3
# Si number density = 18.729613 Si / 1000 Ang^3
#
#
#
# Elastic Constant Matrix: (Units=GPa)
#
#
# Indices 1 2 3 4 5 6 
#
# 1 73.2518 24.5243 51.2185 0.0000 0.0000 0.0000
# 2 24.5243 144.1557 78.3235 0.0000 0.0000 0.0000
# 3 51.2185 78.3235 165.6232 0.0000 0.0000 0.0000
# 4 0.0000 0.0000 0.0000 12.7435 0.0000 0.0000
# 5 0.0000 0.0000 0.0000 0.0000 20.6506 0.0000
# 6 0.0000 0.0000 0.0000 0.0000 0.0000 -9.3311
#
#
#
# Elastic Compliance Matrix: (Units=1/GPa)
#
#
# Indices 1 2 3 4 5 6 
#
# 1 0.017418 -0.000049 -0.005363 0.000000 0.000000 0.000000
# 2 -0.000049 0.009336 -0.004400 0.000000 0.000000 0.000000
# 3 -0.005363 -0.004400 0.009777 0.000000 0.000000 0.000000
# 4 0.000000 0.000000 0.000000 0.078471 0.000000 0.000000
# 5 0.000000 0.000000 0.000000 0.000000 0.048425 0.000000
# 6 0.000000 0.000000 0.000000 0.000000 0.000000 -0.107168
#
#
# Mechanical properties :
#
#
# Convention : Reuss Voigt Hill
#
# Bulk Modulus (GPa) = 59.14868 76.79589 67.97228
# Shear Modulus (GPa) = 61.33620 20.07690 40.70655
#
# Velocity S-wave (km/s) = 5.72882 3.27759 4.66701
# Velocity P-wave (km/s) = 8.68378 7.44412 8.08773
#
# Compressibility (1/GPa) = 0.01690655
#
# Stress axis : x y z
#
# Youngs Moduli (GPa) = 57.41176 107.11478 102.28133
#
# Poissons Ratio (x) = 0.00528 0.54855
# Poissons Ratio (y) = 0.00283 0.45000
# Poissons Ratio (z) = 0.30791 0.47127
#
# Static dielectric constant tensor:
#      x y z
#    x 1.660650 0.000000 0.000000 
#    y 0.000000 1.644080 0.000000 
#    z 0.000000 0.000000 1.644790 
# 
# From -- ./inp_files/20715.got.cif
#   From: 2010.05.17/outbox.cif.g08.bks.cpg/sg57_11_cif.got.tgz:20715.got - 2010.06.03 13:58:18.
