data_PCOD9437103
_publ_section_title
;
Structure prediction by ZEFSAII (Michael W. Deem and Ramdas Pophale) SiO2 
 PCOD9437103
Probable space group: P B C M
;
_chemical_formula_sum "Si O2"
_cell_formula_units_Z 56
_cell_length_a 21.944448
_cell_length_b 14.268423
_cell_length_c 7.874667
_cell_angle_alpha 90.000000
_cell_angle_beta 90.000000
_cell_angle_gamma 90.000000
_cell_volume 2465.657983
_symmetry_space_group_name_H-M "P B C M"
_symmetry_group_IT_number 57
_symmetry_cell_setting 'orthorhombic'
loop_
_space_group_symop_operation_xyz
x,y,z
-x,-y,1/2+z
x,1/2-y,-z
-x,1/2+y,1/2-z
-x,-y,-z
x,y,1/2-z
-x,1/2+y,z
x,1/2-y,1/2+z
loop_
_atom_site_type_symbol
_atom_site_label
_atom_site_fract_x
_atom_site_fract_y
_atom_site_fract_z
Si Si1 0.470136 0.360680 0.954380
Si Si2 0.887485 0.652162 0.454534
Si Si3 0.016216 0.893737 0.950594
Si Si4 0.145439 0.941563 0.453998
Si Si5 0.663992 0.858098 0.545033
Si Si6 0.724644 0.038854 0.952542
Si Si7 0.399040 0.640430 0.047279
O O1 0.469941 0.370194 0.750000
O O2 0.403450 0.390661 0.017946
O O3 0.535367 0.398699 0.018790
O O4 0.471386 0.250000 0.000000
O O5 0.855563 0.750000 0.500000
O O6 0.887674 0.647733 0.250000
O O7 0.863082 0.550516 0.511027
O O8 0.957035 0.657252 0.525671
O O9 0.013402 0.881935 0.750000
O O10 0.086543 0.880435 0.998056
O O11 0.000000 0.000000 0.000000
O O12 0.144034 0.941549 0.250000
O O13 0.212873 0.914740 0.516902
O O14 0.674200 0.750000 0.500000
O O15 0.662697 0.862327 0.750000
O O16 0.713146 0.933053 0.482551
O O17 0.732209 0.031998 0.750000
O O18 0.662214 0.093243 0.982929
O O19 0.399616 0.632141 0.250000
O O20 0.397022 0.750000 0.000000
#
# Coordination Sequence:
#
# PCOD9437103 Si02
#       7
#     8   8   8   8   8   8   8
#     4   8  15  29  49  73 100 131 169 217 271 321
#     4   9  18  31  49  75 102 126 157 197 241 289
#     4   9  17  31  51  73  96 124 159 198 239 284
#     4   9  19  35  51  70 100 136 170 204 245 296
#     4   9  18  33  52  75 106 142 178 218 267 320
#     4  10  21  36  53  75 107 145 179 215 265 318
#     4  10  20  35  55  77 101 131 174 226 275 324
#
# _framework density 22.71199
#
# number of rings (size 3 to 8) (size 9 to 14) (size 15 to 20)
#    0.000    2.857    0.000    1.714    0.000    5.714 
#    0.000    0.714    0.000    1.714    0.000    0.000 
#    0.000    0.000    0.000    0.000    0.000    0.000 
#
# Total GULP energy -312007.111220 kJ/mol
# GULP energy per Si atom -5571.555558 kJ/mol
# Density = 2.266030 g / cm^3
# Si number density = 22.711990 Si / 1000 Ang^3
#
#
#
# Elastic Constant Matrix: (Units=GPa)
#
#
# Indices 1 2 3 4 5 6 
#
# 1 112.8193 -14.3693 12.8570 0.0000 0.0000 0.0000
# 2 -14.3693 24.6154 -12.5993 0.0000 0.0000 0.0000
# 3 12.8570 -12.5993 30.0649 0.0000 0.0000 0.0000
# 4 0.0000 0.0000 0.0000 18.3951 0.0000 0.0000
# 5 0.0000 0.0000 0.0000 0.0000 11.3363 0.0000
# 6 0.0000 0.0000 0.0000 0.0000 0.0000 10.2126
#
#
#
# Elastic Compliance Matrix: (Units=1/GPa)
#
#
# Indices 1 2 3 4 5 6 
#
# 1 0.009695 0.004503 -0.002259 0.000000 0.000000 0.000000
# 2 0.004503 0.053810 0.020624 0.000000 0.000000 0.000000
# 3 -0.002259 0.020624 0.042870 0.000000 0.000000 0.000000
# 4 0.000000 0.000000 0.000000 0.054362 0.000000 0.000000
# 5 0.000000 0.000000 0.000000 0.000000 0.088212 0.000000
# 6 0.000000 0.000000 0.000000 0.000000 0.000000 0.097918
#
#
# Mechanical properties :
#
#
# Convention : Reuss Voigt Hill
#
# Bulk Modulus (GPa) = 6.57405 15.47516 11.02460
# Shear Modulus (GPa) = 14.21122 20.09621 17.15372
#
# Velocity S-wave (km/s) = 2.50414 2.97783 2.75120
# Velocity P-wave (km/s) = 3.35586 4.31877 3.86740
#
# Compressibility (1/GPa) = 0.15211330
#
# Stress axis : x y z
#
# Youngs Moduli (GPa) = 103.14930 18.58379 23.32616
#
# Poissons Ratio (x) = -0.08369 0.05269
# Poissons Ratio (y) = -0.46450 -0.48109
# Poissons Ratio (z) = 0.23298 -0.38328
#
# Static dielectric constant tensor:
#      x y z
#    x 1.945410 0.000000 0.000000 
#    y 0.000000 1.892250 0.000000 
#    z 0.000000 0.000000 1.806050 
# 
# From -- ./inp_files/8014.got.cif
#   From: 2010.05.17/outbox.cif.g08.bks.cpg/sg57_5_cif.got.tgz:8014.got - 2010.06.03 13:58:18.
