data_PCOD9437729
_publ_section_title
;
Structure prediction by ZEFSAII (Michael W. Deem and Ramdas Pophale) SiO2 
 PCOD9437729
Probable space group: P B C M
;
_chemical_formula_sum "Si O2"
_cell_formula_units_Z 64
_cell_length_a 21.230718
_cell_length_b 19.766208
_cell_length_c 8.460088
_cell_angle_alpha 90.000000
_cell_angle_beta 90.000000
_cell_angle_gamma 90.000000
_cell_volume 3550.282596
_symmetry_space_group_name_H-M "P B C M"
_symmetry_group_IT_number 57
_symmetry_cell_setting 'orthorhombic'
loop_
_space_group_symop_operation_xyz
x,y,z
-x,-y,1/2+z
x,1/2-y,-z
-x,1/2+y,1/2-z
-x,-y,-z
x,y,1/2-z
-x,1/2+y,z
x,1/2-y,1/2+z
loop_
_atom_site_type_symbol
_atom_site_label
_atom_site_fract_x
_atom_site_fract_y
_atom_site_fract_z
Si Si1 0.362659 0.423091 0.941401
Si Si2 0.500000 0.077308 0.440553
Si Si3 1.000000 0.423400 0.062117
Si Si4 0.891890 0.325460 0.560257
Si Si5 0.108110 0.174540 0.060257
Si Si6 0.252319 0.324905 0.559179
Si Si7 0.362659 0.923091 0.558599
Si Si8 0.747681 0.175095 0.440820
O O1 0.361537 0.423949 0.750000
O O2 0.431754 0.394970 0.991709
O O3 0.304413 0.377964 0.997414
O O4 0.357054 0.500000 0.999999
O O5 0.500000 0.077825 0.250000
O O6 0.568246 0.105030 0.491709
O O7 0.500000 0.000000 0.500000
O O8 0.999999 0.424809 0.250000
O O9 0.939544 0.381295 0.003187
O O10 0.000000 0.500000 0.000000
O O11 0.060455 0.381295 0.003188
O O12 0.908293 0.250000 0.500000
O O13 0.894686 0.324879 0.750000
O O14 0.819661 0.339914 0.509729
O O15 0.105314 0.175120 0.250000
O O16 0.180338 0.160086 0.009729
O O17 0.091707 0.250000 0.000000
O O18 0.267816 0.250000 0.500000
O O19 0.252957 0.324909 0.750000
O O20 0.361537 0.923950 0.750000
O O21 0.304413 0.877964 0.502586
O O22 0.732183 0.250000 0.500000
O O23 0.747043 0.175091 0.250000
#
# Coordination Sequence:
#
# PCOD9437729 Si02
#       8
#     8   8   8   8   8   8   8   8
#     4   9  17  30  48  72  98 129 167 208 251 297
#     4   8  14  26  45  66  94 128 164 204 247 294
#     4  12  25  40  57  80 108 136 166 208 255 300
#     4  10  20  37  58  79 103 136 174 210 249 302
#     4  10  20  37  58  79 103 136 174 210 249 302
#     4   9  19  34  52  74 102 133 168 206 247 294
#     4   9  17  30  48  72  98 129 167 208 251 297
#     4   9  19  34  52  74 102 133 168 206 247 294
#
# _framework density 18.026734000000001
#
# number of rings (size 3 to 8) (size 9 to 14) (size 15 to 20)
#    0.000    2.500    0.000    2.250    0.000    3.000 
#    0.000    3.125    0.000    0.000    0.000    0.000 
#    0.000    0.000    0.000    0.000    0.000    0.000 
#
# Total GULP energy -356798.203015 kJ/mol
# GULP energy per Si atom -5574.971922 kJ/mol
# Density = 1.798570 g / cm^3
# Si number density = 18.026734 Si / 1000 Ang^3
#
#
#
# Elastic Constant Matrix: (Units=GPa)
#
#
# Indices 1 2 3 4 5 6 
#
# 1 165.8078 118.2505 33.0277 0.0000 0.0000 0.0000
# 2 118.2505 123.7143 27.8050 0.0000 0.0000 0.0000
# 3 33.0277 27.8050 35.1611 0.0000 0.0000 0.0000
# 4 0.0000 0.0000 0.0000 29.1320 0.0000 0.0000
# 5 0.0000 0.0000 0.0000 0.0000 92.3161 0.0000
# 6 0.0000 0.0000 0.0000 0.0000 0.0000 42.6252
#
#
#
# Elastic Compliance Matrix: (Units=1/GPa)
#
#
# Indices 1 2 3 4 5 6 
#
# 1 0.019478 -0.017641 -0.004346 0.000000 0.000000 0.000000
# 2 -0.017641 0.025807 -0.003838 0.000000 0.000000 0.000000
# 3 -0.004346 -0.003838 0.035557 0.000000 0.000000 0.000000
# 4 0.000000 0.000000 0.000000 0.034327 0.000000 0.000000
# 5 0.000000 0.000000 0.000000 0.000000 0.010832 0.000000
# 6 0.000000 0.000000 0.000000 0.000000 0.000000 0.023460
#
#
# Mechanical properties :
#
#
# Convention : Reuss Voigt Hill
#
# Bulk Modulus (GPa) = 34.25372 75.87217 55.06294
# Shear Modulus (GPa) = 23.71448 42.52133 33.11791
#
# Velocity S-wave (km/s) = 3.63094 4.86201 4.29085
# Velocity P-wave (km/s) = 6.05154 8.58481 7.42698
#
# Compressibility (1/GPa) = 0.02919391
#
# Stress axis : x y z
#
# Youngs Moduli (GPa) = 51.34061 38.74861 28.12353
#
# Poissons Ratio (x) = 0.68356 0.12222
# Poissons Ratio (y) = 0.90569 0.10793
# Poissons Ratio (z) = 0.22312 0.14871
#
# Static dielectric constant tensor:
#      x y z
#    x 1.667240 0.000000 0.000000 
#    y 0.000000 1.573140 0.000000 
#    z 0.000000 0.000000 1.607730 
# 
# From -- ./inp_files/8664.got.cif
#   From: 2010.05.17/outbox.cif.g08.bks.cpg/sg57_5_cif.got.tgz:8664.got - 2010.06.03 13:58:18.
