data_PCOD9437048
_publ_section_title
;
Structure prediction by ZEFSAII (Michael W. Deem and Ramdas Pophale) SiO2 
 PCOD9437048
Probable space group: P B C M
;
_chemical_formula_sum "Si O2"
_cell_formula_units_Z 48
_cell_length_a 12.136715
_cell_length_b 26.787725
_cell_length_c 8.626595
_cell_angle_alpha 90.000000
_cell_angle_beta 90.000000
_cell_angle_gamma 90.000000
_cell_volume 2804.635294
_symmetry_space_group_name_H-M "P B C M"
_symmetry_group_IT_number 57
_symmetry_cell_setting 'orthorhombic'
loop_
_space_group_symop_operation_xyz
x,y,z
-x,-y,1/2+z
x,1/2-y,-z
-x,1/2+y,1/2-z
-x,-y,-z
x,y,1/2-z
-x,1/2+y,z
x,1/2-y,1/2+z
loop_
_atom_site_type_symbol
_atom_site_label
_atom_site_fract_x
_atom_site_fract_y
_atom_site_fract_z
Si Si1 0.485644 0.378099 0.565490
Si Si2 0.353207 0.539447 0.566922
Si Si3 0.676664 0.194754 0.436240
Si Si4 0.039987 0.053879 0.936358
Si Si5 0.163178 0.894635 0.936171
Si Si6 0.296071 0.434201 0.434659
O O1 0.472989 0.375350 0.750000
O O2 0.559364 0.426315 0.522113
O O3 0.562472 0.331928 0.512388
O O4 0.367482 0.386769 0.488007
O O5 0.372090 0.543192 0.750000
O O6 0.235930 0.562976 0.519291
O O7 0.350293 0.482669 0.513226
O O8 0.688894 0.250000 0.500000
O O9 0.673826 0.196546 0.250000
O O10 0.777348 0.157501 0.477915
O O11 0.030786 0.053013 0.750000
O O12 0.167115 0.064932 0.977103
O O13 0.960002 0.095875 0.007154
O O14 0.000000 0.000000 0.000000
O O15 0.170666 0.900960 0.750000
O O16 0.304157 0.439529 0.250000
#
# Coordination Sequence:
#
# PCOD9437048 Si02
#       6
#     8   8   8   8   8   8
#     4  10  21  36  52  75 106 137 174 218 267 318
#     4  11  20  31  50  74 104 143 180 215 261 310
#     4   9  20  37  59  83 105 132 168 221 277 324
#     4  11  22  34  52  76 108 148 186 221 261 311
#     4  10  20  35  53  78 110 140 179 224 265 314
#     4  11  22  34  49  73 107 144 181 218 257 309
#
# _framework density 17.114522999999998
#
# number of rings (size 3 to 8) (size 9 to 14) (size 15 to 20)
#    0.000    1.667    1.667    5.000    0.000    6.000 
#    0.000    0.000    0.000    1.000    0.000    0.000 
#    0.000    0.000    0.000    0.000    0.000    0.000 
#
# Total GULP energy -267935.490414 kJ/mol
# GULP energy per Si atom -5581.989384 kJ/mol
# Density = 1.707557 g / cm^3
# Si number density = 17.114523 Si / 1000 Ang^3
#
#
#
# Elastic Constant Matrix: (Units=GPa)
#
#
# Indices 1 2 3 4 5 6 
#
# 1 80.3979 34.6367 2.6435 0.0000 0.0000 0.0000
# 2 34.6367 95.2947 11.2820 0.0000 0.0000 0.0000
# 3 2.6435 11.2820 21.7035 0.0000 0.0000 0.0000
# 4 0.0000 0.0000 0.0000 27.3513 0.0000 0.0000
# 5 0.0000 0.0000 0.0000 0.0000 30.1997 0.0000
# 6 0.0000 0.0000 0.0000 0.0000 0.0000 13.1906
#
#
#
# Elastic Compliance Matrix: (Units=1/GPa)
#
#
# Indices 1 2 3 4 5 6 
#
# 1 0.014770 -0.005494 0.001057 0.000000 0.000000 0.000000
# 2 -0.005494 0.013225 -0.006206 0.000000 0.000000 0.000000
# 3 0.001057 -0.006206 0.049173 0.000000 0.000000 0.000000
# 4 0.000000 0.000000 0.000000 0.036561 0.000000 0.000000
# 5 0.000000 0.000000 0.000000 0.000000 0.033113 0.000000
# 6 0.000000 0.000000 0.000000 0.000000 0.000000 0.075812
#
#
# Mechanical properties :
#
#
# Convention : Reuss Voigt Hill
#
# Bulk Modulus (GPa) = 17.89456 32.72450 25.30953
# Shear Modulus (GPa) = 19.04277 24.07056 21.55667
#
# Velocity S-wave (km/s) = 3.33929 3.75432 3.55287
# Velocity P-wave (km/s) = 5.03451 6.16082 5.62592
#
# Compressibility (1/GPa) = 0.05588291
#
# Stress axis : x y z
#
# Youngs Moduli (GPa) = 67.70424 75.61319 20.33649
#
# Poissons Ratio (x) = 0.41539 -0.02149
# Poissons Ratio (y) = 0.37194 0.12620
# Poissons Ratio (z) = -0.07154 0.46923
#
# Static dielectric constant tensor:
#      x y z
#    x 1.624720 0.000000 0.000000 
#    y 0.000000 1.562160 0.000000 
#    z 0.000000 0.000000 1.571560 
# 
# From -- ./inp_files/3118.got.cif
#   From: 2010.05.17/outbox.cif.g08.bks.cpg/sg57_2_cif.got.tgz:3118.got - 2010.06.03 13:58:18.
