data_PCOD9437496
_publ_section_title
;
Structure prediction by ZEFSAII (Michael W. Deem and Ramdas Pophale) SiO2 
 PCOD9437496
Probable space group: P B C M
;
_chemical_formula_sum "Si O2"
_cell_formula_units_Z 56
_cell_length_a 20.254005
_cell_length_b 8.541094
_cell_length_c 15.779183
_cell_angle_alpha 90.000000
_cell_angle_beta 90.000000
_cell_angle_gamma 90.000000
_cell_volume 2729.662336
_symmetry_space_group_name_H-M "P B C M"
_symmetry_group_IT_number 57
_symmetry_cell_setting 'orthorhombic'
loop_
_space_group_symop_operation_xyz
x,y,z
-x,-y,1/2+z
x,1/2-y,-z
-x,1/2+y,1/2-z
-x,-y,-z
x,y,1/2-z
-x,1/2+y,z
x,1/2-y,1/2+z
loop_
_atom_site_type_symbol
_atom_site_label
_atom_site_fract_x
_atom_site_fract_y
_atom_site_fract_z
Si Si1 0.657546 0.035108 0.156148
Si Si2 0.287003 0.065099 0.484102
Si Si3 0.532421 0.618949 0.933541
Si Si4 0.964035 0.649876 0.413900
Si Si5 0.389699 0.838719 0.091627
Si Si6 0.850195 0.437105 0.488831
Si Si7 0.910446 0.539773 0.845244
O O1 0.675569 0.981262 0.250000
O O2 0.589829 0.950861 0.123881
O O3 0.646583 0.221136 0.153912
O O4 0.706002 0.003075 0.078847
O O5 0.286572 0.250000 0.500000
O O6 0.347826 0.995284 0.428109
O O7 0.218304 0.997165 0.449244
O O8 0.466339 0.657681 0.880921
O O9 0.556871 0.750000 0.000000
O O10 0.500000 0.500000 0.000000
O O11 0.978696 0.750000 0.500000
O O12 0.911383 0.515005 0.438332
O O13 0.028043 0.569300 0.374230
O O14 0.933323 0.780264 0.352752
O O15 0.391031 0.750000 0.000000
O O16 0.852781 0.250000 0.500000
O O17 0.856561 0.510627 0.582751
O O18 0.890283 0.501939 0.750000
#
# Coordination Sequence:
#
# PCOD9437496 Si02
#       7
#     8   8   8   8   8   8   8
#     4  11  23  37  57  88 120 149 187 243 295 339
#     4  11  22  40  65  83 108 153 200 237 284 349
#     4  11  18  35  60  83 114 155 198 235 280 345
#     4  10  20  36  57  85 120 155 198 240 272 338
#     4   9  19  36  58  80 111 152 191 230 279 347
#     4  11  22  39  62  86 112 152 201 240 279 341
#     4  11  21  35  58  89 124 156 187 237 296 334
#
# _framework density 20.515357000000002
#
# number of rings (size 3 to 8) (size 9 to 14) (size 15 to 20)
#    0.000    1.429    4.286    6.429    0.000    1.143 
#    0.000    1.429    0.000    4.286    0.000    0.000 
#    0.000    0.000    0.000    0.000    0.000    0.000 
#
# Total GULP energy -312315.208040 kJ/mol
# GULP energy per Si atom -5577.057286 kJ/mol
# Density = 2.046866 g / cm^3
# Si number density = 20.515357 Si / 1000 Ang^3
#
#
#
# Elastic Constant Matrix: (Units=GPa)
#
#
# Indices 1 2 3 4 5 6 
#
# 1 79.6553 13.9359 -13.5230 0.0000 0.0000 0.0000
# 2 13.9359 114.2877 -17.8628 0.0000 0.0000 0.0000
# 3 -13.5230 -17.8628 55.9166 0.0000 0.0000 0.0000
# 4 0.0000 0.0000 0.0000 13.3179 0.0000 0.0000
# 5 0.0000 0.0000 0.0000 0.0000 7.7942 0.0000
# 6 0.0000 0.0000 0.0000 0.0000 0.0000 24.9046
#
#
#
# Elastic Compliance Matrix: (Units=1/GPa)
#
#
# Indices 1 2 3 4 5 6 
#
# 1 0.013239 -0.001172 0.002827 0.000000 0.000000 0.000000
# 2 -0.001172 0.009314 0.002692 0.000000 0.000000 0.000000
# 3 0.002827 0.002692 0.019427 0.000000 0.000000 0.000000
# 4 0.000000 0.000000 0.000000 0.075087 0.000000 0.000000
# 5 0.000000 0.000000 0.000000 0.000000 0.128301 0.000000
# 6 0.000000 0.000000 0.000000 0.000000 0.000000 0.040153
#
#
# Mechanical properties :
#
#
# Convention : Reuss Voigt Hill
#
# Bulk Modulus (GPa) = 19.73435 23.88442 21.80939
# Shear Modulus (GPa) = 17.02305 27.02397 22.02351
#
# Velocity S-wave (km/s) = 2.88370 3.63334 3.28001
# Velocity P-wave (km/s) = 4.55278 5.41009 4.99984
#
# Compressibility (1/GPa) = 0.05067306
#
# Stress axis : x y z
#
# Youngs Moduli (GPa) = 75.53332 107.37079 51.47372
#
# Poissons Ratio (x) = 0.12589 -0.14553
# Poissons Ratio (y) = 0.08856 -0.13855
# Poissons Ratio (z) = -0.21355 -0.28901
#
# Static dielectric constant tensor:
#      x y z
#    x 1.841960 0.000000 0.000000 
#    y 0.000000 1.557790 0.000000 
#    z 0.000000 0.000000 1.781330 
# 
# From -- ./inp_files/19332.got.cif
#   From: 2010.05.17/outbox.cif.g08.bks.cpg/sg57_10_cif.got.tgz:19332.got - 2010.06.03 13:58:18.
