data_PCOD9437083
_publ_section_title
;
Structure prediction by ZEFSAII (Michael W. Deem and Ramdas Pophale) SiO2 
 PCOD9437083
Probable space group: P B C M
;
_chemical_formula_sum "Si O2"
_cell_formula_units_Z 40
_cell_length_a 26.387745
_cell_length_b 9.677738
_cell_length_c 8.552339
_cell_angle_alpha 90.000000
_cell_angle_beta 90.000000
_cell_angle_gamma 90.000000
_cell_volume 2184.042305
_symmetry_space_group_name_H-M "P B C M"
_symmetry_group_IT_number 57
_symmetry_cell_setting 'orthorhombic'
loop_
_space_group_symop_operation_xyz
x,y,z
-x,-y,1/2+z
x,1/2-y,-z
-x,1/2+y,1/2-z
-x,-y,-z
x,y,1/2-z
-x,1/2+y,z
x,1/2-y,1/2+z
loop_
_atom_site_type_symbol
_atom_site_label
_atom_site_fract_x
_atom_site_fract_y
_atom_site_fract_z
Si Si1 0.454101 0.906169 0.561885
Si Si2 0.846382 0.094710 0.061818
Si Si3 0.246148 0.403190 0.061372
Si Si4 0.045241 0.906274 0.436756
Si Si5 0.360895 0.095869 0.938705
O O1 0.457046 0.750000 0.500000
O O2 0.455826 0.903004 0.750000
O O3 0.500000 0.000000 0.500000
O O4 0.402301 0.983649 0.511767
O O5 0.848789 0.096003 0.250000
O O6 0.798208 0.005334 0.010003
O O7 0.840598 0.250000 0.000000
O O8 0.900045 0.041535 0.996680
O O9 0.245972 0.401569 0.250000
O O10 0.303479 0.440426 0.010829
O O11 0.235935 0.250000 0.000000
O O12 0.039609 0.750000 0.500000
O O13 0.044989 0.903771 0.250000
O O14 0.000000 0.000000 0.500000
O O15 0.361678 0.101788 0.750000
O O16 0.372807 0.250000 0.000000
#
# Coordination Sequence:
#
# PCOD9437083 Si02
#       5
#     8   8   8   8   8
#     4  11  23  38  57  81 111 144 183 226 273 325
#     4  10  20  35  54  78 108 141 177 219 266 319
#     4   9  19  35  55  79 108 140 178 220 265 317
#     4  11  22  38  58  81 109 142 181 224 271 323
#     4   9  19  36  56  79 107 141 178 221 268 318
#
# _framework density 18.314664
#
# number of rings (size 3 to 8) (size 9 to 14) (size 15 to 20)
#    0.000    2.000    0.000    4.800    0.000    6.400 
#    0.000    2.000    0.000    0.000    0.000    0.000 
#    0.000    0.000    0.000    0.000    0.000    0.000 
#
# Total GULP energy -223342.678574 kJ/mol
# GULP energy per Si atom -5583.566964 kJ/mol
# Density = 1.827298 g / cm^3
# Si number density = 18.314664 Si / 1000 Ang^3
#
#
#
# Elastic Constant Matrix: (Units=GPa)
#
#
# Indices 1 2 3 4 5 6 
#
# 1 184.8998 121.3212 48.4032 0.0000 0.0000 0.0000
# 2 121.3212 120.7509 34.3080 0.0000 0.0000 0.0000
# 3 48.4032 34.3080 68.0260 0.0000 0.0000 0.0000
# 4 0.0000 0.0000 0.0000 34.3784 0.0000 0.0000
# 5 0.0000 0.0000 0.0000 0.0000 27.2843 0.0000
# 6 0.0000 0.0000 0.0000 0.0000 0.0000 43.4110
#
#
#
# Elastic Compliance Matrix: (Units=1/GPa)
#
#
# Indices 1 2 3 4 5 6 
#
# 1 0.016758 -0.015698 -0.004006 0.000000 0.000000 0.000000
# 2 -0.015698 0.024373 -0.001122 0.000000 0.000000 0.000000
# 3 -0.004006 -0.001122 0.018117 0.000000 0.000000 0.000000
# 4 0.000000 0.000000 0.000000 0.029088 0.000000 0.000000
# 5 0.000000 0.000000 0.000000 0.000000 0.036651 0.000000
# 6 0.000000 0.000000 0.000000 0.000000 0.000000 0.023036
#
#
# Mechanical properties :
#
#
# Convention : Reuss Voigt Hill
#
# Bulk Modulus (GPa) = 56.83906 86.86017 71.84962
# Shear Modulus (GPa) = 25.57016 32.32435 28.94725
#
# Velocity S-wave (km/s) = 3.74057 4.20568 3.97993
# Velocity P-wave (km/s) = 7.05393 8.43286 7.77403
#
# Compressibility (1/GPa) = 0.01759353
#
# Stress axis : x y z
#
# Youngs Moduli (GPa) = 59.67451 41.02922 55.19712
#
# Poissons Ratio (x) = 0.64409 0.22114
# Poissons Ratio (y) = 0.93679 0.06194
# Poissons Ratio (z) = 0.23908 0.04604
#
# Static dielectric constant tensor:
#      x y z
#    x 1.645700 0.000000 0.000000 
#    y 0.000000 1.587050 0.000000 
#    z 0.000000 0.000000 1.620670 
# 
# From -- ./inp_files/7803.got.cif
#   From: 2010.05.17/outbox.cif.g08.bks.cpg/sg57_4_cif.got.tgz:7803.got - 2010.06.03 13:58:18.
