data_PCOD9437236
_publ_section_title
;
Structure prediction by ZEFSAII (Michael W. Deem and Ramdas Pophale) SiO2 
 PCOD9437236
Probable space group: P B C M
;
_chemical_formula_sum "Si O2"
_cell_formula_units_Z 40
_cell_length_a 18.757005
_cell_length_b 13.733739
_cell_length_c 8.814464
_cell_angle_alpha 90.000000
_cell_angle_beta 90.000000
_cell_angle_gamma 90.000000
_cell_volume 2270.639519
_symmetry_space_group_name_H-M "P B C M"
_symmetry_group_IT_number 57
_symmetry_cell_setting 'orthorhombic'
loop_
_space_group_symop_operation_xyz
x,y,z
-x,-y,1/2+z
x,1/2-y,-z
-x,1/2+y,1/2-z
-x,-y,-z
x,y,1/2-z
-x,1/2+y,z
x,1/2-y,1/2+z
loop_
_atom_site_type_symbol
_atom_site_label
_atom_site_fract_x
_atom_site_fract_y
_atom_site_fract_z
Si Si1 0.458321 0.144122 0.068906
Si Si2 0.967535 0.851872 0.069135
Si Si3 0.107882 0.945943 0.568912
Si Si4 0.389995 0.544992 0.430967
Si Si5 0.249901 0.858122 0.068896
O O1 0.448308 0.144611 0.250000
O O2 0.540030 0.111026 0.038098
O O3 0.445536 0.250000 0.000000
O O4 0.409094 0.061681 0.993867
O O5 0.976213 0.843644 0.250000
O O6 0.914828 0.942309 0.038343
O O7 0.942733 0.750000 0.000000
O O8 0.043156 0.880676 0.994825
O O9 0.113236 0.932611 0.750000
O O10 0.180887 0.915812 0.490241
O O11 0.379376 0.541722 0.250000
O O12 0.321338 0.589672 0.510857
O O13 0.249512 0.852693 0.250000
O O14 0.247375 0.750000 0.000000
#
# Coordination Sequence:
#
# PCOD9437236 Si02
#       5
#     8   8   8   8   8
#     4  10  20  35  57  83 111 145 183 225 272 322
#     4  10  20  35  57  82 109 142 179 222 269 319
#     4  10  21  37  56  80 110 143 182 224 268 320
#     4  10  21  37  57  82 112 144 183 227 271 323
#     4  12  24  38  57  81 111 144 180 223 274 326
#
# _framework density 17.616182999999999
#
# number of rings (size 3 to 8) (size 9 to 14) (size 15 to 20)
#    0.000    1.600    0.000    5.400    0.000    6.400 
#    0.000    1.000    0.000    2.400    0.000    0.000 
#    0.000    0.000    0.000    0.000    0.000    0.000 
#
# Total GULP energy -223585.015005 kJ/mol
# GULP energy per Si atom -5589.625375 kJ/mol
# Density = 1.757609 g / cm^3
# Si number density = 17.616183 Si / 1000 Ang^3
#
#
#
# Elastic Constant Matrix: (Units=GPa)
#
#
# Indices 1 2 3 4 5 6 
#
# 1 121.3312 61.3833 77.7566 0.0000 0.0000 0.0000
# 2 61.3833 134.6318 73.8708 0.0000 0.0000 0.0000
# 3 77.7566 73.8708 119.5418 0.0000 0.0000 0.0000
# 4 0.0000 0.0000 0.0000 35.8120 0.0000 0.0000
# 5 0.0000 0.0000 0.0000 0.0000 32.1794 0.0000
# 6 0.0000 0.0000 0.0000 0.0000 0.0000 10.7122
#
#
#
# Elastic Compliance Matrix: (Units=1/GPa)
#
#
# Indices 1 2 3 4 5 6 
#
# 1 0.014544 -0.002179 -0.008114 0.000000 0.000000 0.000000
# 2 -0.002179 0.011565 -0.005729 0.000000 0.000000 0.000000
# 3 -0.008114 -0.005729 0.017183 0.000000 0.000000 0.000000
# 4 0.000000 0.000000 0.000000 0.027924 0.000000 0.000000
# 5 0.000000 0.000000 0.000000 0.000000 0.031076 0.000000
# 6 0.000000 0.000000 0.000000 0.000000 0.000000 0.093351
#
#
# Mechanical properties :
#
#
# Convention : Reuss Voigt Hill
#
# Bulk Modulus (GPa) = 88.90291 89.05846 88.98069
# Shear Modulus (GPa) = 21.60430 26.57365 24.08898
#
# Velocity S-wave (km/s) = 3.50578 3.88813 3.70190
# Velocity P-wave (km/s) = 8.18312 8.41554 8.30015
#
# Compressibility (1/GPa) = 0.01124823
#
# Stress axis : x y z
#
# Youngs Moduli (GPa) = 68.75600 86.47069 58.19734
#
# Poissons Ratio (x) = 0.18845 0.47219
# Poissons Ratio (y) = 0.14984 0.33340
# Poissons Ratio (z) = 0.55786 0.49537
#
# Static dielectric constant tensor:
#      x y z
#    x 1.567790 0.000000 0.000000 
#    y 0.000000 1.583740 0.000000 
#    z 0.000000 0.000000 1.582670 
# 
# From -- ./inp_files/6232.got.cif
#   From: 2010.05.17/outbox.cif.g08.bks.cpg/sg57_4_cif.got.tgz:6232.got - 2010.06.03 13:58:18.
