data_PCOD9437457
_publ_section_title
;
Structure prediction by ZEFSAII (Michael W. Deem and Ramdas Pophale) SiO2 
 PCOD9437457
Probable space group: P B C M
;
_chemical_formula_sum "Si O2"
_cell_formula_units_Z 48
_cell_length_a 11.503460
_cell_length_b 9.961255
_cell_length_c 18.708022
_cell_angle_alpha 90.000000
_cell_angle_beta 90.000000
_cell_angle_gamma 90.000000
_cell_volume 2143.731633
_symmetry_space_group_name_H-M "P B C M"
_symmetry_group_IT_number 57
_symmetry_cell_setting 'orthorhombic'
loop_
_space_group_symop_operation_xyz
x,y,z
-x,-y,1/2+z
x,1/2-y,-z
-x,1/2+y,1/2-z
-x,-y,-z
x,y,1/2-z
-x,1/2+y,z
x,1/2-y,1/2+z
loop_
_atom_site_type_symbol
_atom_site_label
_atom_site_fract_x
_atom_site_fract_y
_atom_site_fract_z
Si Si1 0.126109 0.338254 0.330847
Si Si2 0.638743 0.287470 0.583467
Si Si3 0.506829 0.472996 0.086014
Si Si4 0.245780 0.426077 0.624659
Si Si5 0.857162 0.196154 0.829396
Si Si6 0.892000 0.594026 0.516096
O O1 0.132705 0.392947 0.250000
O O2 0.214836 0.216247 0.341968
O O3 0.142201 0.427069 0.401551
O O4 0.993804 0.282154 0.341038
O O5 0.653520 0.250000 0.500000
O O6 0.601815 0.435991 0.607745
O O7 0.762358 0.254441 0.617581
O O8 0.531420 0.183784 0.601587
O O9 0.619880 0.537809 0.123126
O O10 0.500000 0.500000 0.000000
O O11 0.167523 0.536698 0.664213
O O12 0.208501 0.432784 0.541179
O O13 0.829102 0.243053 0.750000
O O14 0.922815 0.750000 0.500000
O O15 0.000000 0.500000 0.500000
#
# Coordination Sequence:
#
# PCOD9437457 Si02
#       6
#     8   8   8   8   8   8
#     4  10  21  36  56  85 123 160 201 252 311 378
#     4   9  19  36  60  85 113 154 199 249 304 362
#     4   9  19  37  59  87 116 152 202 254 308 360
#     4  10  20  37  60  85 122 165 208 257 313 381
#     4  10  20  37  58  84 118 158 206 253 313 377
#     4  10  20  36  56  89 117 155 206 249 300 364
#
# _framework density 22.390863
#
# number of rings (size 3 to 8) (size 9 to 14) (size 15 to 20)
#    0.000    2.333    1.667    0.500    0.000    8.000 
#    6.000    5.833    0.000    0.000    0.000    1.167 
#    0.000    0.000    0.000    0.000    0.000    0.000 
#
# Total GULP energy -267747.745077 kJ/mol
# GULP energy per Si atom -5578.078022 kJ/mol
# Density = 2.233990 g / cm^3
# Si number density = 22.390863 Si / 1000 Ang^3
#
#
#
# Elastic Constant Matrix: (Units=GPa)
#
#
# Indices 1 2 3 4 5 6 
#
# 1 37.8254 11.5503 23.4537 0.0000 0.0000 0.0000
# 2 11.5503 45.5625 6.6155 0.0000 0.0000 0.0000
# 3 23.4537 6.6155 120.1927 0.0000 0.0000 0.0000
# 4 0.0000 0.0000 0.0000 10.7194 0.0000 0.0000
# 5 0.0000 0.0000 0.0000 0.0000 -11.3039 0.0000
# 6 0.0000 0.0000 0.0000 0.0000 0.0000 34.9673
#
#
#
# Elastic Compliance Matrix: (Units=1/GPa)
#
#
# Indices 1 2 3 4 5 6 
#
# 1 0.032341 -0.007341 -0.005907 0.000000 0.000000 0.000000
# 2 -0.007341 0.023791 0.000123 0.000000 0.000000 0.000000
# 3 -0.005907 0.000123 0.009466 0.000000 0.000000 0.000000
# 4 0.000000 0.000000 0.000000 0.093289 0.000000 0.000000
# 5 0.000000 0.000000 0.000000 0.000000 -0.088465 0.000000
# 6 0.000000 0.000000 0.000000 0.000000 0.000000 0.028598
#
#
# Mechanical properties :
#
#
# Convention : Reuss Voigt Hill
#
# Bulk Modulus (GPa) = 25.41395 31.86884 28.64140
# Shear Modulus (GPa) = 36.13071 17.67396 26.90234
#
# Velocity S-wave (km/s) = 4.02137 2.81256 3.47001
# Velocity P-wave (km/s) = 5.73905 4.98109 5.37345
#
# Compressibility (1/GPa) = 0.03934846
#
# Stress axis : x y z
#
# Youngs Moduli (GPa) = 30.92009 42.03272 105.64312
#
# Poissons Ratio (x) = 0.30856 0.62402
# Poissons Ratio (y) = 0.22699 -0.01300
# Poissons Ratio (z) = 0.18264 -0.00517
#
# Static dielectric constant tensor:
#      x y z
#    x 1.824210 0.000000 0.000000 
#    y 0.000000 1.876420 0.000000 
#    z 0.000000 0.000000 1.847670 
# 
# From -- ./inp_files/24956.got.cif
#   From: 2010.05.17/outbox.cif.g08.bks.cpg/sg57_13_cif.got.tgz:24956.got - 2010.06.03 13:58:18.
