data_PCOD9437137
_publ_section_title
;
Structure prediction by ZEFSAII (Michael W. Deem and Ramdas Pophale) SiO2 
 PCOD9437137
Probable space group: P B C M
;
_chemical_formula_sum "Si O2"
_cell_formula_units_Z 48
_cell_length_a 31.920081
_cell_length_b 9.370483
_cell_length_c 8.637028
_cell_angle_alpha 90.000000
_cell_angle_beta 90.000000
_cell_angle_gamma 90.000000
_cell_volume 2583.391875
_symmetry_space_group_name_H-M "P B C M"
_symmetry_group_IT_number 57
_symmetry_cell_setting 'orthorhombic'
loop_
_space_group_symop_operation_xyz
x,y,z
-x,-y,1/2+z
x,1/2-y,-z
-x,1/2+y,1/2-z
-x,-y,-z
x,y,1/2-z
-x,1/2+y,z
x,1/2-y,1/2+z
loop_
_atom_site_type_symbol
_atom_site_label
_atom_site_fract_x
_atom_site_fract_y
_atom_site_fract_z
Si Si1 0.368930 0.590411 0.936644
Si Si2 0.200183 0.089874 0.564714
Si Si3 0.882382 0.089305 0.063799
Si Si4 0.538354 0.410055 0.435559
Si Si5 0.710991 0.909595 0.936057
Si Si6 0.039383 0.411237 0.564420
O O1 0.367924 0.595151 0.750000
O O2 0.415196 0.533982 0.981406
O O3 0.329270 0.498896 0.989006
O O4 0.365433 0.750000 0.000000
O O5 0.192984 0.250000 0.500000
O O6 0.203456 0.099896 0.750000
O O7 0.244327 0.035539 0.497396
O O8 0.161730 0.986650 0.525329
O O9 0.886915 0.091691 0.250000
O O10 0.884204 0.250000 0.000000
O O11 0.919200 0.993660 0.991995
O O12 0.535474 0.250000 0.500000
O O13 0.500000 0.500000 0.500000
O O14 0.536266 0.407277 0.250000
O O15 0.712036 0.906995 0.750000
O O16 0.707045 0.750000 0.000000
O O17 0.038820 0.250000 0.500000
O O18 0.037889 0.407242 0.750000
O O19 0.000000 0.500000 0.500000
#
# Coordination Sequence:
#
# PCOD9437137 Si02
#       6
#     8   8   8   8   8   8
#     4   9  20  36  54  77 106 140 178 221 270 326
#     4  10  21  37  58  83 112 147 187 231 280 332
#     4  11  24  41  61  88 120 155 195 238 286 338
#     4  10  20  36  55  78 107 140 180 224 274 329
#     4  10  20  35  55  80 109 142 182 226 273 327
#     4  12  25  43  66  92 123 158 197 240 288 340
#
# _framework density 18.580224000000001
#
# number of rings (size 3 to 8) (size 9 to 14) (size 15 to 20)
#    0.000    1.667    0.000    5.500    0.000    7.333 
#    0.000    5.000    0.000    0.000    0.000    0.000 
#    0.000    0.000    0.000    0.000    0.000    0.000 
#
# Total GULP energy -268161.290555 kJ/mol
# GULP energy per Si atom -5586.693553 kJ/mol
# Density = 1.853793 g / cm^3
# Si number density = 18.580224 Si / 1000 Ang^3
#
#
#
# Elastic Constant Matrix: (Units=GPa)
#
#
# Indices 1 2 3 4 5 6 
#
# 1 221.0573 110.8175 76.6254 0.0000 0.0000 0.0000
# 2 110.8175 117.4074 50.1375 0.0000 0.0000 0.0000
# 3 76.6254 50.1375 85.1959 0.0000 0.0000 0.0000
# 4 0.0000 0.0000 0.0000 32.2014 0.0000 0.0000
# 5 0.0000 0.0000 0.0000 0.0000 25.7551 0.0000
# 6 0.0000 0.0000 0.0000 0.0000 0.0000 41.6702
#
#
#
# Elastic Compliance Matrix: (Units=1/GPa)
#
#
# Indices 1 2 3 4 5 6 
#
# 1 0.009709 -0.007259 -0.004460 0.000000 0.000000 0.000000
# 2 -0.007259 0.016804 -0.003360 0.000000 0.000000 0.000000
# 3 -0.004460 -0.003360 0.017727 0.000000 0.000000 0.000000
# 4 0.000000 0.000000 0.000000 0.031055 0.000000 0.000000
# 5 0.000000 0.000000 0.000000 0.000000 0.038827 0.000000
# 6 0.000000 0.000000 0.000000 0.000000 0.000000 0.023998
#
#
# Mechanical properties :
#
#
# Convention : Reuss Voigt Hill
#
# Bulk Modulus (GPa) = 71.02062 99.86902 85.44482
# Shear Modulus (GPa) = 28.90646 32.33069 30.61857
#
# Velocity S-wave (km/s) = 3.94860 4.17593 4.06385
# Velocity P-wave (km/s) = 7.68735 8.78169 8.25268
#
# Compressibility (1/GPa) = 0.01408042
#
# Stress axis : x y z
#
# Youngs Moduli (GPa) = 102.99882 59.50933 56.41269
#
# Poissons Ratio (x) = 0.43199 0.25161
# Poissons Ratio (y) = 0.74770 0.18955
# Poissons Ratio (z) = 0.45939 0.19996
#
# Static dielectric constant tensor:
#      x y z
#    x 1.655940 0.000000 0.000000 
#    y 0.000000 1.597310 0.000000 
#    z 0.000000 0.000000 1.626720 
# 
# From -- ./inp_files/9890.got.cif
#   From: 2010.05.17/outbox.cif.g08.bks.cpg/sg57_5_cif.got.tgz:9890.got - 2010.06.03 13:58:18.
