data_PCOD9437947
_publ_section_title
;
Structure prediction by ZEFSAII (Michael W. Deem and Ramdas Pophale) SiO2 
 PCOD9437947
Probable space group: P B C M
;
_chemical_formula_sum "Si O2"
_cell_formula_units_Z 40
_cell_length_a 24.196675
_cell_length_b 9.316367
_cell_length_c 9.242962
_cell_angle_alpha 90.000000
_cell_angle_beta 90.000000
_cell_angle_gamma 90.000000
_cell_volume 2083.595675
_symmetry_space_group_name_H-M "P B C M"
_symmetry_group_IT_number 57
_symmetry_cell_setting 'orthorhombic'
loop_
_space_group_symop_operation_xyz
x,y,z
-x,-y,1/2+z
x,1/2-y,-z
-x,1/2+y,1/2-z
-x,-y,-z
x,y,1/2-z
-x,1/2+y,z
x,1/2-y,1/2+z
loop_
_atom_site_type_symbol
_atom_site_label
_atom_site_fract_x
_atom_site_fract_y
_atom_site_fract_z
Si Si1 0.734625 0.893555 0.911708
Si Si2 0.571164 0.495513 0.750000
Si Si3 0.837175 0.094408 0.572714
Si Si4 0.368763 0.914106 0.026879
Si Si5 0.538800 0.166369 0.750000
Si Si6 0.951375 0.092199 0.071986
O O1 0.748069 0.847320 0.750000
O O2 0.786139 0.990317 0.961258
O O3 0.680729 0.994614 0.909321
O O4 0.725040 0.750000 0.000000
O O5 0.611103 0.496263 0.614170
O O6 0.542253 0.338230 0.750000
O O7 0.523284 0.611930 0.750000
O O8 0.826587 0.250000 0.500000
O O9 0.843469 0.106255 0.750000
O O10 0.892665 0.039308 0.493260
O O11 0.424885 0.892860 0.117698
O O12 0.349345 0.750000 0.000000
O O13 0.952256 0.094572 0.250000
O O14 0.956799 0.250000 0.000000
O O15 0.000000 0.000000 0.000000
#
# Coordination Sequence:
#
# PCOD9437947 Si02
#       6
#     8   4   8   8   4   8
#     4  11  25  41  60  87 120 154 196 250 302 356
#     4  10  22  34  60  88 112 156 185 242 289 358
#     4  10  21  40  63  90 121 160 206 251 300 362
#     4  10  21  40  60  85 115 155 198 240 292 355
#     4  10  20  38  58  84 120 146 197 234 295 348
#     4  11  22  39  63  94 128 168 211 256 306 361
#
# _framework density 19.197583000000002
#
# number of rings (size 3 to 8) (size 9 to 14) (size 15 to 20)
#    0.000    1.600    1.000    4.800    1.400    4.000 
#    0.000    2.000    0.000    0.000    0.000    0.000 
#    0.000    0.000    0.000    0.000    0.000    0.000 
#
# Total GULP energy -223086.292383 kJ/mol
# GULP energy per Si atom -5577.157310 kJ/mol
# Density = 1.915389 g / cm^3
# Si number density = 19.197583 Si / 1000 Ang^3
#
#
#
# Elastic Constant Matrix: (Units=GPa)
#
#
# Indices 1 2 3 4 5 6 
#
# 1 100.5831 48.4200 27.2778 0.0000 0.0000 0.0000
# 2 48.4200 54.8564 22.2993 0.0000 0.0000 0.0000
# 3 27.2778 22.2993 107.9587 0.0000 0.0000 0.0000
# 4 0.0000 0.0000 0.0000 27.0062 0.0000 0.0000
# 5 0.0000 0.0000 0.0000 0.0000 27.8583 0.0000
# 6 0.0000 0.0000 0.0000 0.0000 0.0000 20.8435
#
#
#
# Elastic Compliance Matrix: (Units=1/GPa)
#
#
# Indices 1 2 3 4 5 6 
#
# 1 0.017464 -0.014870 -0.001341 0.000000 0.000000 0.000000
# 2 -0.014870 0.032561 -0.002969 0.000000 0.000000 0.000000
# 3 -0.001341 -0.002969 0.010215 0.000000 0.000000 0.000000
# 4 0.000000 0.000000 0.000000 0.037029 0.000000 0.000000
# 5 0.000000 0.000000 0.000000 0.000000 0.035896 0.000000
# 6 0.000000 0.000000 0.000000 0.000000 0.000000 0.047977
#
#
# Mechanical properties :
#
#
# Convention : Reuss Voigt Hill
#
# Bulk Modulus (GPa) = 45.70155 51.04361 48.37258
# Shear Modulus (GPa) = 22.04654 26.16835 24.10744
#
# Velocity S-wave (km/s) = 3.39248 3.69603 3.54751
# Velocity P-wave (km/s) = 6.26122 6.69780 6.48318
#
# Compressibility (1/GPa) = 0.02188110
#
# Stress axis : x y z
#
# Youngs Moduli (GPa) = 57.26110 30.71160 97.89681
#
# Poissons Ratio (x) = 0.45667 0.13130
# Poissons Ratio (y) = 0.85145 0.29061
# Poissons Ratio (z) = 0.07680 0.09117
#
# Static dielectric constant tensor:
#      x y z
#    x 1.643190 0.000000 0.000000 
#    y 0.000000 1.690600 0.000000 
#    z 0.000000 0.000000 1.668410 
# 
# From -- ./inp_files/8954.got.cif
#   From: 2010.05.17/outbox.cif.g08.bks.cpg/sg57_5_cif.got.tgz:8954.got - 2010.06.03 13:58:18.
