data_PCOD9437079
_publ_section_title
;
Structure prediction by ZEFSAII (Michael W. Deem and Ramdas Pophale) SiO2 
 PCOD9437079
Probable space group: P B C M
;
_chemical_formula_sum "Si O2"
_cell_formula_units_Z 64
_cell_length_a 18.904344
_cell_length_b 21.204862
_cell_length_c 8.424434
_cell_angle_alpha 90.000000
_cell_angle_beta 90.000000
_cell_angle_gamma 90.000000
_cell_volume 3377.052359
_symmetry_space_group_name_H-M "P B C M"
_symmetry_group_IT_number 57
_symmetry_cell_setting 'orthorhombic'
loop_
_space_group_symop_operation_xyz
x,y,z
-x,-y,1/2+z
x,1/2-y,-z
-x,1/2+y,1/2-z
-x,-y,-z
x,y,1/2-z
-x,1/2+y,z
x,1/2-y,1/2+z
loop_
_atom_site_type_symbol
_atom_site_label
_atom_site_fract_x
_atom_site_fract_y
_atom_site_fract_z
Si Si1 0.794961 0.439003 0.556034
Si Si2 0.705087 0.939645 0.440089
Si Si3 0.295811 0.818981 0.558424
Si Si4 0.047665 0.181151 0.441350
Si Si5 0.788986 0.819100 0.940208
Si Si6 0.540849 0.318912 0.558511
Si Si7 0.454626 0.058969 0.059652
Si Si8 0.957786 0.060954 0.442192
O O1 0.794888 0.438765 0.750000
O O2 0.752471 0.501120 0.504433
O O3 0.753994 0.375939 0.504208
O O4 0.876356 0.440349 0.504165
O O5 0.703770 0.941049 0.250000
O O6 0.740572 0.874850 0.495874
O O7 0.625525 0.945375 0.501630
O O8 0.273180 0.750000 0.500000
O O9 0.295397 0.818736 0.750000
O O10 0.377466 0.828986 0.506809
O O11 0.024902 0.250000 0.500000
O O12 0.047258 0.181696 0.250000
O O13 0.129237 0.171063 0.493037
O O14 0.997977 0.124293 0.496024
O O15 0.787381 0.819648 0.750000
O O16 0.766921 0.750000 0.000000
O O17 0.518122 0.250000 0.500000
O O18 0.540495 0.318497 0.750000
O O19 0.491514 0.376026 0.503732
O O20 0.455580 0.059130 0.250000
O O21 0.500000 0.000000 0.000000
O O22 0.957971 0.060868 0.250000
O O23 0.000000 0.000000 0.500000
#
# Coordination Sequence:
#
# PCOD9437079 Si02
#       8
#     8   8   8   8   8   8   8   8
#     4   9  19  35  55  76 106 145 180 214 266 329
#     4  11  22  37  57  81 108 143 183 226 275 329
#     4   9  17  33  54  77 104 136 172 211 253 307
#     4   9  19  34  54  79 109 142 180 224 272 324
#     4  10  20  36  56  80 109 143 181 225 274 327
#     4   9  19  35  56  79 106 138 174 214 261 315
#     4  11  23  39  58  82 111 145 184 228 274 326
#     4  10  20  35  54  78 106 140 179 222 268 319
#
# _framework density 18.951439000000001
#
# number of rings (size 3 to 8) (size 9 to 14) (size 15 to 20)
#    0.000    2.250    0.000    2.625    0.000    5.000 
#    0.000    6.250    0.000    0.000    0.000    0.000 
#    0.000    0.000    0.000    0.000    0.000    0.000 
#
# Total GULP energy -357404.854164 kJ/mol
# GULP energy per Si atom -5584.450846 kJ/mol
# Density = 1.890830 g / cm^3
# Si number density = 18.951439 Si / 1000 Ang^3
#
#
#
# Elastic Constant Matrix: (Units=GPa)
#
#
# Indices 1 2 3 4 5 6 
#
# 1 152.5913 133.2588 26.1099 0.0000 0.0000 0.0000
# 2 133.2588 205.1703 29.1868 0.0000 0.0000 0.0000
# 3 26.1099 29.1868 21.3179 0.0000 0.0000 0.0000
# 4 0.0000 0.0000 0.0000 32.2413 0.0000 0.0000
# 5 0.0000 0.0000 0.0000 0.0000 19.5876 0.0000
# 6 0.0000 0.0000 0.0000 0.0000 0.0000 43.0634
#
#
#
# Elastic Compliance Matrix: (Units=1/GPa)
#
#
# Indices 1 2 3 4 5 6 
#
# 1 0.015858 -0.009360 -0.006608 0.000000 0.000000 0.000000
# 2 -0.009360 0.011577 -0.004387 0.000000 0.000000 0.000000
# 3 -0.006608 -0.004387 0.061009 0.000000 0.000000 0.000000
# 4 0.000000 0.000000 0.000000 0.031016 0.000000 0.000000
# 5 0.000000 0.000000 0.000000 0.000000 0.051053 0.000000
# 6 0.000000 0.000000 0.000000 0.000000 0.000000 0.023222
#
#
# Mechanical properties :
#
#
# Convention : Reuss Voigt Hill
#
# Bulk Modulus (GPa) = 20.94920 84.02115 52.48518
# Shear Modulus (GPa) = 19.97155 31.68007 25.82581
#
# Velocity S-wave (km/s) = 3.24979 4.09301 3.69553
# Velocity P-wave (km/s) = 5.01594 8.17118 6.77967
#
# Compressibility (1/GPa) = 0.04773452
#
# Stress axis : x y z
#
# Youngs Moduli (GPa) = 63.05861 86.37537 16.39108
#
# Poissons Ratio (x) = 0.80847 0.10831
# Poissons Ratio (y) = 0.59023 0.07191
# Poissons Ratio (z) = 0.41670 0.37892
#
# Static dielectric constant tensor:
#      x y z
#    x 1.646550 0.000000 0.000000 
#    y 0.000000 1.629630 0.000000 
#    z 0.000000 0.000000 1.654950 
# 
# From -- ./inp_files/7200.got.cif
#   From: 2010.05.17/outbox.cif.g08.bks.cpg/sg57_4_cif.got.tgz:7200.got - 2010.06.03 13:58:18.
