data_PCOD9437364
_publ_section_title
;
Structure prediction by ZEFSAII (Michael W. Deem and Ramdas Pophale) SiO2 
 PCOD9437364
Probable space group: P B C M
;
_chemical_formula_sum "Si O2"
_cell_formula_units_Z 40
_cell_length_a 5.285285
_cell_length_b 18.269204
_cell_length_c 17.891127
_cell_angle_alpha 90.000000
_cell_angle_beta 90.000000
_cell_angle_gamma 90.000000
_cell_volume 1727.530544
_symmetry_space_group_name_H-M "P B C M"
_symmetry_group_IT_number 57
_symmetry_cell_setting 'orthorhombic'
loop_
_space_group_symop_operation_xyz
x,y,z
-x,-y,1/2+z
x,1/2-y,-z
-x,1/2+y,1/2-z
-x,-y,-z
x,y,1/2-z
-x,1/2+y,z
x,1/2-y,1/2+z
loop_
_atom_site_type_symbol
_atom_site_label
_atom_site_fract_x
_atom_site_fract_y
_atom_site_fract_z
Si Si1 0.793889 0.451921 0.885786
Si Si2 0.056948 0.812396 0.560951
Si Si3 0.714026 0.880276 0.831863
Si Si4 0.807647 0.889312 0.159938
Si Si5 0.684924 0.296740 0.337960
O O1 0.532782 0.426996 0.848501
O O2 0.788731 0.538613 0.890947
O O3 0.842871 0.395048 0.954766
O O4 0.038475 0.432599 0.835390
O O5 0.041104 0.750000 0.500000
O O6 0.790865 0.824429 0.602766
O O7 0.249126 0.778642 0.621620
O O8 0.701742 0.845548 0.750000
O O9 0.786373 0.906896 0.250000
O O10 0.574428 0.836271 0.140569
O O11 0.074608 0.849559 0.148051
O O12 0.677880 0.283588 0.250000
#
# Coordination Sequence:
#
# PCOD9437364 Si02
#       5
#     8   8   8   8   8
#     4  10  22  37  64  92 118 156 203 250 303 358
#     4  10  25  43  61  88 127 167 207 248 300 363
#     4  10  20  35  63  89 114 148 203 256 295 347
#     4  10  20  37  60  91 124 152 195 257 311 359
#     4  10  22  38  61  90 122 157 197 252 313 359
#
# _framework density 23.154437000000001
#
# number of rings (size 3 to 8) (size 9 to 14) (size 15 to 20)
#    1.200    0.800    0.000    3.600    2.800    2.400 
#    0.000    2.000    0.000    0.000    0.000    0.000 
#    0.000    0.000    0.000    0.000    0.000    0.000 
#
# Total GULP energy -223257.381472 kJ/mol
# GULP energy per Si atom -5581.434537 kJ/mol
# Density = 2.310174 g / cm^3
# Si number density = 23.154437 Si / 1000 Ang^3
#
#
#
# Elastic Constant Matrix: (Units=GPa)
#
#
# Indices 1 2 3 4 5 6 
#
# 1 171.0752 34.0663 2.8415 0.0000 0.0000 0.0000
# 2 34.0663 104.4046 -2.8833 0.0000 0.0000 0.0000
# 3 2.8415 -2.8833 16.0158 0.0000 0.0000 0.0000
# 4 0.0000 0.0000 0.0000 22.1405 0.0000 0.0000
# 5 0.0000 0.0000 0.0000 0.0000 6.6658 0.0000
# 6 0.0000 0.0000 0.0000 0.0000 0.0000 27.0292
#
#
#
# Elastic Compliance Matrix: (Units=1/GPa)
#
#
# Indices 1 2 3 4 5 6 
#
# 1 0.006287 -0.002093 -0.001492 0.000000 0.000000 0.000000
# 2 -0.002093 0.010322 0.002230 0.000000 0.000000 0.000000
# 3 -0.001492 0.002230 0.063104 0.000000 0.000000 0.000000
# 4 0.000000 0.000000 0.000000 0.045166 0.000000 0.000000
# 5 0.000000 0.000000 0.000000 0.000000 0.150021 0.000000
# 6 0.000000 0.000000 0.000000 0.000000 0.000000 0.036997
#
#
# Mechanical properties :
#
#
# Convention : Reuss Voigt Hill
#
# Bulk Modulus (GPa) = 12.98642 39.94940 26.46791
# Shear Modulus (GPa) = 14.69398 28.33183 21.51291
#
# Velocity S-wave (km/s) = 2.52187 3.50180 3.05143
# Velocity P-wave (km/s) = 3.75507 5.80009 4.88578
#
# Compressibility (1/GPa) = 0.07700351
#
# Stress axis : x y z
#
# Youngs Moduli (GPa) = 159.06198 96.87604 15.84676
#
# Poissons Ratio (x) = 0.20272 0.02365
# Poissons Ratio (y) = 0.33285 -0.03533
# Poissons Ratio (z) = 0.23734 -0.21599
#
# Static dielectric constant tensor:
#      x y z
#    x 1.854230 0.000000 0.000000 
#    y 0.000000 1.876760 0.000000 
#    z 0.000000 0.000000 1.922870 
# 
# From -- ./inp_files/19962.got.cif
#   From: 2010.05.17/outbox.cif.g08.bks.cpg/sg57_10_cif.got.tgz:19962.got - 2010.06.03 13:58:18.
