data_PCOD9437563
_publ_section_title
;
Structure prediction by ZEFSAII (Michael W. Deem and Ramdas Pophale) SiO2 
 PCOD9437563
Probable space group: P B C M
;
_chemical_formula_sum "Si O2"
_cell_formula_units_Z 56
_cell_length_a 5.113310
_cell_length_b 31.839750
_cell_length_c 15.894775
_cell_angle_alpha 90.000000
_cell_angle_beta 90.000000
_cell_angle_gamma 90.000000
_cell_volume 2587.772878
_symmetry_space_group_name_H-M "P B C M"
_symmetry_group_IT_number 57
_symmetry_cell_setting 'orthorhombic'
loop_
_space_group_symop_operation_xyz
x,y,z
-x,-y,1/2+z
x,1/2-y,-z
-x,1/2+y,1/2-z
-x,-y,-z
x,y,1/2-z
-x,1/2+y,z
x,1/2-y,1/2+z
loop_
_atom_site_type_symbol
_atom_site_label
_atom_site_fract_x
_atom_site_fract_y
_atom_site_fract_z
Si Si1 0.194703 0.523258 0.434752
Si Si2 0.037490 0.989832 0.750000
Si Si3 0.491268 0.061916 0.568834
Si Si4 0.541681 0.453545 0.250000
Si Si5 0.245649 0.766835 0.846534
Si Si6 0.258469 0.210499 0.063346
Si Si7 0.641479 0.331285 0.348050
Si Si8 0.136752 0.138607 0.938456
O O1 0.084684 0.532397 0.340963
O O2 0.410686 0.486929 0.420169
O O3 0.319943 0.561095 0.488178
O O4 0.000000 0.500000 0.500000
O O5 0.243480 0.029116 0.750000
O O6 0.747034 0.008383 0.750000
O O7 0.588398 0.071556 0.663548
O O8 0.245246 0.091681 0.551022
O O9 0.312550 0.774219 0.750000
O O10 0.445334 0.791821 0.905283
O O11 0.296625 0.717714 0.865039
O O12 0.947478 0.778446 0.864211
O O13 0.237053 0.250000 0.000000
O O14 0.174340 0.167553 0.019518
O O15 0.689168 0.338571 0.250000
O O16 0.342743 0.340977 0.371976
O O17 0.844601 0.356688 0.405388
#
# Coordination Sequence:
#
# PCOD9437563 Si02
#       8
#     8   4   8   4   8   8   8   8
#     4  10  20  41  63  87 122 156 211 246 305 365
#     4  10  20  36  64  90 112 157 194 252 293 358
#     4  10  24  38  60  92 123 161 197 253 303 376
#     4  10  20  36  58  90 122 149 190 234 311 366
#     4  11  22  40  64  88 117 163 213 257 301 359
#     4  12  21  39  62  88 121 161 206 250 300 367
#     4  11  23  38  57  91 130 160 195 247 308 370
#     4  12  25  38  59  90 125 163 198 248 311 366
#
# _framework density 21.640231
#
# number of rings (size 3 to 8) (size 9 to 14) (size 15 to 20)
#    0.000    1.143    4.286    2.143    4.000    2.286 
#    0.000    0.000    3.143    0.000    0.000    0.000 
#    0.000    0.000    0.000    0.000    0.000    0.000 
#
# Total GULP energy -312901.982811 kJ/mol
# GULP energy per Si atom -5587.535407 kJ/mol
# Density = 2.159098 g / cm^3
# Si number density = 21.640231 Si / 1000 Ang^3
#
#
#
# Elastic Constant Matrix: (Units=GPa)
#
#
# Indices 1 2 3 4 5 6 
#
# 1 46.5155 -7.0941 17.5413 0.0000 0.0000 0.0000
# 2 -7.0941 47.0640 24.6208 0.0000 0.0000 0.0000
# 3 17.5413 24.6208 117.5860 0.0000 0.0000 0.0000
# 4 0.0000 0.0000 0.0000 24.8284 0.0000 0.0000
# 5 0.0000 0.0000 0.0000 0.0000 33.0811 0.0000
# 6 0.0000 0.0000 0.0000 0.0000 0.0000 30.3901
#
#
#
# Elastic Compliance Matrix: (Units=1/GPa)
#
#
# Indices 1 2 3 4 5 6 
#
# 1 0.024312 0.006246 -0.004935 0.000000 0.000000 0.000000
# 2 0.006246 0.025466 -0.006264 0.000000 0.000000 0.000000
# 3 -0.004935 -0.006264 0.010552 0.000000 0.000000 0.000000
# 4 0.000000 0.000000 0.000000 0.040276 0.000000 0.000000
# 5 0.000000 0.000000 0.000000 0.000000 0.030229 0.000000
# 6 0.000000 0.000000 0.000000 0.000000 0.000000 0.032905
#
#
# Mechanical properties :
#
#
# Convention : Reuss Voigt Hill
#
# Bulk Modulus (GPa) = 19.83154 31.25572 25.54363
# Shear Modulus (GPa) = 26.25307 29.39975 27.82641
#
# Velocity S-wave (km/s) = 3.48682 3.68988 3.58979
# Velocity P-wave (km/s) = 5.03931 5.71212 5.38623
#
# Compressibility (1/GPa) = 0.05042472
#
# Stress axis : x y z
#
# Youngs Moduli (GPa) = 41.13250 39.26795 94.76752
#
# Poissons Ratio (x) = -0.24527 0.46764
# Poissons Ratio (y) = -0.25691 0.59362
# Poissons Ratio (z) = 0.20297 0.24597
#
# Static dielectric constant tensor:
#      x y z
#    x 1.780860 0.000000 0.000000 
#    y 0.000000 1.804640 0.000000 
#    z 0.000000 0.000000 1.833030 
# 
# From -- ./inp_files/15300.got.cif
#   From: 2010.05.17/outbox.cif.g08.bks.cpg/sg57_8_cif.got.tgz:15300.got - 2010.06.03 13:58:18.
