data_PCOD9437291
_publ_section_title
;
Structure prediction by ZEFSAII (Michael W. Deem and Ramdas Pophale) SiO2 
 PCOD9437291
Probable space group: P B C M
;
_chemical_formula_sum "Si O2"
_cell_formula_units_Z 32
_cell_length_a 7.050005
_cell_length_b 14.375910
_cell_length_c 11.393144
_cell_angle_alpha 90.000000
_cell_angle_beta 90.000000
_cell_angle_gamma 90.000000
_cell_volume 1154.697849
_symmetry_space_group_name_H-M "P B C M"
_symmetry_group_IT_number 57
_symmetry_cell_setting 'orthorhombic'
loop_
_space_group_symop_operation_xyz
x,y,z
-x,-y,1/2+z
x,1/2-y,-z
-x,1/2+y,1/2-z
-x,-y,-z
x,y,1/2-z
-x,1/2+y,z
x,1/2-y,1/2+z
loop_
_atom_site_type_symbol
_atom_site_label
_atom_site_fract_x
_atom_site_fract_y
_atom_site_fract_z
Si Si1 0.488864 0.748595 0.624902
Si Si2 0.022152 0.876082 0.378436
Si Si3 0.105410 0.338247 0.876831
Si Si4 0.452690 0.547143 0.623035
O O1 0.384397 0.750000 0.500000
O O2 0.390248 0.765997 0.750000
O O3 0.670763 0.814694 0.618553
O O4 0.567664 0.643763 0.629034
O O5 0.945086 0.906617 0.250000
O O6 0.237167 0.914341 0.378719
O O7 0.995396 0.763116 0.377021
O O8 0.944228 0.897108 0.508776
O O9 0.063916 0.382200 0.750000
O O10 0.500000 0.500000 0.500000
O O11 0.482352 0.498250 0.750000
#
# Coordination Sequence:
#
# PCOD9437291 Si02
#       4
#     8   8   8   8
#     4  10  20  35  58  86 114 145 186 236 286 335
#     4   9  17  32  53  78 110 143 179 227 279 328
#     4   9  17  31  54  84 111 136 176 229 281 330
#     4  10  23  40  56  80 117 157 192 231 280 337
#
# _framework density 27.712876000000001
#
# number of rings (size 3 to 8) (size 9 to 14) (size 15 to 20)
#    0.000    2.500    2.500    0.000    3.500    2.000 
#    0.000    1.250    0.000    0.000    0.000    0.000 
#    0.000    0.000    0.000    0.000    0.000    0.000 
#
# Total GULP energy -178741.592439 kJ/mol
# GULP energy per Si atom -5585.674764 kJ/mol
# Density = 2.764980 g / cm^3
# Si number density = 27.712876 Si / 1000 Ang^3
#
#
#
# Elastic Constant Matrix: (Units=GPa)
#
#
# Indices 1 2 3 4 5 6 
#
# 1 84.4747 11.3635 46.4808 0.0000 0.0000 0.0000
# 2 11.3635 97.7849 50.0513 0.0000 0.0000 0.0000
# 3 46.4808 50.0513 395.3516 0.0000 0.0000 0.0000
# 4 0.0000 0.0000 0.0000 27.2608 0.0000 0.0000
# 5 0.0000 0.0000 0.0000 0.0000 26.9267 0.0000
# 6 0.0000 0.0000 0.0000 0.0000 0.0000 36.3908
#
#
#
# Elastic Compliance Matrix: (Units=1/GPa)
#
#
# Indices 1 2 3 4 5 6 
#
# 1 0.012709 -0.000761 -0.001398 0.000000 0.000000 0.000000
# 2 -0.000761 0.010981 -0.001301 0.000000 0.000000 0.000000
# 3 -0.001398 -0.001301 0.002858 0.000000 0.000000 0.000000
# 4 0.000000 0.000000 0.000000 0.036683 0.000000 0.000000
# 5 0.000000 0.000000 0.000000 0.000000 0.037138 0.000000
# 6 0.000000 0.000000 0.000000 0.000000 0.000000 0.027479
#
#
# Mechanical properties :
#
#
# Convention : Reuss Voigt Hill
#
# Bulk Modulus (GPa) = 50.94578 88.15583 69.55081
# Shear Modulus (GPa) = 35.38288 49.43005 42.40647
#
# Velocity S-wave (km/s) = 3.57706 4.22791 3.91603
# Velocity P-wave (km/s) = 5.95683 7.46412 6.75266
#
# Compressibility (1/GPa) = 0.01962871
#
# Stress axis : x y z
#
# Youngs Moduli (GPa) = 78.68174 91.06849 349.84688
#
# Poissons Ratio (x) = 0.06935 0.48902
# Poissons Ratio (y) = 0.05991 0.45502
# Poissons Ratio (z) = 0.10998 0.11845
#
# Static dielectric constant tensor:
#      x y z
#    x 2.128030 0.000000 0.000000 
#    y 0.000000 2.180640 0.000000 
#    z 0.000000 0.000000 2.215670 
# 
# From -- ./inp_files/11410.got.cif
#   From: 2010.05.17/outbox.cif.g08.bks.cpg/sg57_6_cif.got.tgz:11410.got - 2010.06.03 13:58:18.
