data_PCOD9437468
_publ_section_title
;
Structure prediction by ZEFSAII (Michael W. Deem and Ramdas Pophale) SiO2 
 PCOD9437468
Probable space group: P B C M
;
_chemical_formula_sum "Si O2"
_cell_formula_units_Z 64
_cell_length_a 10.930536
_cell_length_b 14.712901
_cell_length_c 14.254560
_cell_angle_alpha 90.000000
_cell_angle_beta 90.000000
_cell_angle_gamma 90.000000
_cell_volume 2292.416829
_symmetry_space_group_name_H-M "P B C M"
_symmetry_group_IT_number 57
_symmetry_cell_setting 'orthorhombic'
loop_
_space_group_symop_operation_xyz
x,y,z
-x,-y,1/2+z
x,1/2-y,-z
-x,1/2+y,1/2-z
-x,-y,-z
x,y,1/2-z
-x,1/2+y,z
x,1/2-y,1/2+z
loop_
_atom_site_type_symbol
_atom_site_label
_atom_site_fract_x
_atom_site_fract_y
_atom_site_fract_z
Si Si1 0.548549 0.695740 0.137379
Si Si2 0.556667 0.014303 0.399708
Si Si3 0.675327 0.404457 0.144091
Si Si4 0.699294 0.647024 0.637228
Si Si5 0.963428 0.854844 0.364286
Si Si6 0.799206 0.234037 0.363361
Si Si7 0.939921 0.065255 0.364703
Si Si8 0.207945 0.417439 0.864235
O O1 0.538451 0.705473 0.250000
O O2 0.444585 0.621602 0.116664
O O3 0.584077 0.795100 0.099814
O O4 0.674679 0.642550 0.111597
O O5 0.453615 0.956121 0.344620
O O6 0.679209 0.958653 0.384375
O O7 0.500000 0.000000 0.500000
O O8 0.723461 0.394075 0.250000
O O9 0.688054 0.301684 0.106053
O O10 0.761375 0.481208 0.099151
O O11 0.699595 0.654699 0.750000
O O12 0.830636 0.681847 0.604815
O O13 0.963442 0.854201 0.250000
O O14 0.082302 0.796752 0.387857
O O15 0.956755 0.960579 0.393725
O O16 0.788866 0.221447 0.250000
O O17 0.835044 0.133932 0.399501
O O18 0.931110 0.061988 0.250000
O O19 0.071526 0.110335 0.389255
O O20 0.209874 0.419334 0.750000
#
# Coordination Sequence:
#
# PCOD9437468 Si02
#       8
#     8   8   8   8   8   8   8   8
#     4   9  18  34  58  84 105 140 188 232 277 326
#     4  11  23  38  56  77 108 145 190 234 282 332
#     4   9  16  30  51  74 104 139 182 229 269 321
#     4  10  20  36  57  81 111 142 181 234 285 330
#     4   9  16  27  45  76 113 141 169 221 281 332
#     4   9  15  24  43  74 108 139 171 215 274 331
#     4   9  14  21  38  71 111 141 166 206 270 333
#     4   8  12  22  43  71 104 136 167 211 262 315
#
# _framework density 27.918132
#
# number of rings (size 3 to 8) (size 9 to 14) (size 15 to 20)
#    0.000    2.750    1.250    2.625    0.000    3.500 
#    2.250    0.000    0.000    0.750    0.000    0.000 
#    0.000    0.000    0.000    0.000    0.000    0.000 
#
# Total GULP energy -357531.336262 kJ/mol
# GULP energy per Si atom -5586.427129 kJ/mol
# Density = 2.785459 g / cm^3
# Si number density = 27.918132 Si / 1000 Ang^3
#
#
#
# Elastic Constant Matrix: (Units=GPa)
#
#
# Indices 1 2 3 4 5 6 
#
# 1 96.6206 17.6267 -5.3925 0.0000 0.0000 0.0000
# 2 17.6267 154.4302 0.3548 0.0000 0.0000 0.0000
# 3 -5.3925 0.3548 77.6928 0.0000 0.0000 0.0000
# 4 0.0000 0.0000 0.0000 15.6778 0.0000 0.0000
# 5 0.0000 0.0000 0.0000 0.0000 1.2689 0.0000
# 6 0.0000 0.0000 0.0000 0.0000 0.0000 42.8407
#
#
#
# Elastic Compliance Matrix: (Units=1/GPa)
#
#
# Indices 1 2 3 4 5 6 
#
# 1 0.010612 -0.001213 0.000742 0.000000 0.000000 0.000000
# 2 -0.001213 0.006614 -0.000114 0.000000 0.000000 0.000000
# 3 0.000742 -0.000114 0.012923 0.000000 0.000000 0.000000
# 4 0.000000 0.000000 0.000000 0.063785 0.000000 0.000000
# 5 0.000000 0.000000 0.000000 0.000000 0.788099 0.000000
# 6 0.000000 0.000000 0.000000 0.000000 0.000000 0.023342
#
#
# Mechanical properties :
#
#
# Convention : Reuss Voigt Hill
#
# Bulk Modulus (GPa) = 34.50744 39.32465 36.91604
# Shear Modulus (GPa) = 5.45729 33.03444 19.24587
#
# Velocity S-wave (km/s) = 1.39964 3.44359 2.62843
# Velocity P-wave (km/s) = 3.87286 5.47059 4.73954
#
# Compressibility (1/GPa) = 0.02897926
#
# Stress axis : x y z
#
# Youngs Moduli (GPa) = 94.22873 151.19140 77.38002
#
# Poissons Ratio (x) = 0.18340 -0.05743
# Poissons Ratio (y) = 0.11430 0.00885
# Poissons Ratio (z) = -0.06993 0.01730
#
# Static dielectric constant tensor:
#      x y z
#    x 2.190790 0.000000 0.000000 
#    y 0.000000 2.220400 0.000000 
#    z 0.000000 0.000000 2.015070 
# 
# From -- ./inp_files/22038.got.cif
#   From: 2010.05.17/outbox.cif.g08.bks.cpg/sg57_12_cif.got.tgz:22038.got - 2010.06.03 13:58:18.
