data_PCOD9437469
_publ_section_title
;
Structure prediction by ZEFSAII (Michael W. Deem and Ramdas Pophale) SiO2 
 PCOD9437469
Probable space group: P B C M
;
_chemical_formula_sum "Si O2"
_cell_formula_units_Z 40
_cell_length_a 11.833563
_cell_length_b 21.544597
_cell_length_c 8.551325
_cell_angle_alpha 90.000000
_cell_angle_beta 90.000000
_cell_angle_gamma 90.000000
_cell_volume 2180.154715
_symmetry_space_group_name_H-M "P B C M"
_symmetry_group_IT_number 57
_symmetry_cell_setting 'orthorhombic'
loop_
_space_group_symop_operation_xyz
x,y,z
-x,-y,1/2+z
x,1/2-y,-z
-x,1/2+y,1/2-z
-x,-y,-z
x,y,1/2-z
-x,1/2+y,z
x,1/2-y,1/2+z
loop_
_atom_site_type_symbol
_atom_site_label
_atom_site_fract_x
_atom_site_fract_y
_atom_site_fract_z
Si Si1 0.830024 0.029331 0.564711
Si Si2 0.776325 0.683892 0.069234
Si Si3 0.534575 0.820521 0.435544
Si Si4 0.057647 0.407610 0.070005
Si Si5 0.580862 0.444440 0.937433
O O1 0.828089 0.013013 0.750000
O O2 0.705743 0.045672 0.507338
O O3 0.924148 0.083004 0.546245
O O4 0.880555 0.972703 0.465011
O O5 0.744106 0.688780 0.250000
O O6 0.807512 0.750000 0.000000
O O7 0.664914 0.663097 0.975705
O O8 0.881446 0.639562 0.043934
O O9 0.515198 0.750000 0.500000
O O10 0.517374 0.819776 0.250000
O O11 0.462989 0.876356 0.510720
O O12 0.077467 0.389425 0.250000
O O13 0.583225 0.447889 0.750000
O O14 0.500000 0.500000 0.000000
#
# Coordination Sequence:
#
# PCOD9437469 Si02
#       5
#     8   8   8   8   8
#     4  10  21  37  57  82 111 144 183 226 275 328
#     4  11  21  35  56  82 111 143 183 226 271 323
#     4  11  22  39  60  84 115 150 189 232 283 338
#     4  10  20  36  57  81 111 144 179 223 275 328
#     4  12  24  39  59  85 116 150 191 236 283 334
#
# _framework density 18.347321999999998
#
# number of rings (size 3 to 8) (size 9 to 14) (size 15 to 20)
#    0.000    1.200    0.000    9.000    0.000    2.400 
#    0.000    1.000    0.000    4.800    0.000    0.000 
#    0.000    0.000    0.000    0.000    0.000    0.000 
#
# Total GULP energy -223408.184892 kJ/mol
# GULP energy per Si atom -5585.204622 kJ/mol
# Density = 1.830556 g / cm^3
# Si number density = 18.347322 Si / 1000 Ang^3
#
#
#
# Elastic Constant Matrix: (Units=GPa)
#
#
# Indices 1 2 3 4 5 6 
#
# 1 117.0949 53.9699 21.2350 0.0000 0.0000 0.0000
# 2 53.9699 41.0913 12.9988 0.0000 0.0000 0.0000
# 3 21.2350 12.9988 87.4072 0.0000 0.0000 0.0000
# 4 0.0000 0.0000 0.0000 30.7796 0.0000 0.0000
# 5 0.0000 0.0000 0.0000 0.0000 22.7607 0.0000
# 6 0.0000 0.0000 0.0000 0.0000 0.0000 29.5923
#
#
#
# Elastic Compliance Matrix: (Units=1/GPa)
#
#
# Indices 1 2 3 4 5 6 
#
# 1 0.021738 -0.028208 -0.001086 0.000000 0.000000 0.000000
# 2 -0.028208 0.062140 -0.002388 0.000000 0.000000 0.000000
# 3 -0.001086 -0.002388 0.012060 0.000000 0.000000 0.000000
# 4 0.000000 0.000000 0.000000 0.032489 0.000000 0.000000
# 5 0.000000 0.000000 0.000000 0.000000 0.043935 0.000000
# 6 0.000000 0.000000 0.000000 0.000000 0.000000 0.033793
#
#
# Mechanical properties :
#
#
# Convention : Reuss Voigt Hill
#
# Bulk Modulus (GPa) = 30.69979 46.88899 38.79439
# Shear Modulus (GPa) = 17.83313 27.11917 22.47615
#
# Velocity S-wave (km/s) = 3.12103 3.84878 3.50385
# Velocity P-wave (km/s) = 5.45497 6.73517 6.12859
#
# Compressibility (1/GPa) = 0.03257351
#
# Stress axis : x y z
#
# Youngs Moduli (GPa) = 46.00207 16.09272 82.92028
#
# Poissons Ratio (x) = 0.45394 0.09007
# Poissons Ratio (y) = 1.29761 0.19804
# Poissons Ratio (z) = 0.04997 0.03843
#
# Static dielectric constant tensor:
#      x y z
#    x 1.615050 0.000000 0.000000 
#    y 0.000000 1.635980 0.000000 
#    z 0.000000 0.000000 1.616000 
# 
# From -- ./inp_files/2879.got.cif
#   From: 2010.05.17/outbox.cif.g08.bks.cpg/sg57_2_cif.got.tgz:2879.got - 2010.06.03 13:58:18.
