data_PCOD9437645
_publ_section_title
;
Structure prediction by ZEFSAII (Michael W. Deem and Ramdas Pophale) SiO2 
 PCOD9437645
Probable space group: P B C M
;
_chemical_formula_sum "Si O2"
_cell_formula_units_Z 64
_cell_length_a 22.659899
_cell_length_b 9.084602
_cell_length_c 14.525844
_cell_angle_alpha 90.000000
_cell_angle_beta 90.000000
_cell_angle_gamma 90.000000
_cell_volume 2990.234521
_symmetry_space_group_name_H-M "P B C M"
_symmetry_group_IT_number 57
_symmetry_cell_setting 'orthorhombic'
loop_
_space_group_symop_operation_xyz
x,y,z
-x,-y,1/2+z
x,1/2-y,-z
-x,1/2+y,1/2-z
-x,-y,-z
x,y,1/2-z
-x,1/2+y,z
x,1/2-y,1/2+z
loop_
_atom_site_type_symbol
_atom_site_label
_atom_site_fract_x
_atom_site_fract_y
_atom_site_fract_z
Si Si1 0.303285 0.407155 0.477286
Si Si2 0.579737 0.655046 0.637744
Si Si3 0.260752 0.641679 0.346805
Si Si4 0.472735 0.032610 0.142244
Si Si5 0.636555 0.350620 0.410636
Si Si6 0.083514 0.401974 0.027958
Si Si7 0.135051 0.812331 0.897940
Si Si8 0.034558 0.591223 0.643193
O O1 0.276156 0.250000 0.500000
O O2 0.357552 0.373201 0.408151
O O3 0.262195 0.525956 0.428929
O O4 0.331224 0.497206 0.561739
O O5 0.583884 0.653068 0.750000
O O6 0.534491 0.528076 0.604627
O O7 0.553112 0.812988 0.607647
O O8 0.267508 0.561591 0.250000
O O9 0.315431 0.753187 0.356939
O O10 0.197148 0.717190 0.350044
O O11 0.483521 0.058544 0.250000
O O12 0.424324 0.902740 0.133849
O O13 0.623797 0.250000 0.500000
O O14 0.120933 0.516274 0.087927
O O15 0.026232 0.367795 0.091475
O O16 0.113501 0.250000 0.000000
O O17 0.063274 0.478400 0.931427
O O18 0.078813 0.730287 0.855538
O O19 0.141027 0.750000 0.000000
O O20 0.026693 0.541335 0.750000
#
# Coordination Sequence:
#
# PCOD9437645 Si02
#       8
#     8   8   8   8   8   8   8   8
#     4  11  22  40  60  86 119 152 194 247 305 355
#     4  10  22  37  57  85 118 157 195 238 297 361
#     4  11  24  42  65  88 114 155 204 249 296 361
#     4  10  21  37  56  83 117 153 193 241 296 355
#     4  10  22  38  59  85 112 152 197 244 297 354
#     4  10  21  36  58  92 129 164 201 254 312 354
#     4  10  21  40  63  89 123 163 206 248 299 359
#     4  10  20  36  60  90 127 169 211 251 297 362
#
# _framework density 21.403003999999999
#
# number of rings (size 3 to 8) (size 9 to 14) (size 15 to 20)
#    0.000    1.750    1.250    4.125    3.500    4.000 
#    0.000    0.000    0.000    0.000    0.000    0.000 
#    0.000    0.000    0.000    0.000    0.000    0.000 
#
# Total GULP energy -357339.463709 kJ/mol
# GULP energy per Si atom -5583.429120 kJ/mol
# Density = 2.135429 g / cm^3
# Si number density = 21.403004 Si / 1000 Ang^3
#
#
#
# Elastic Constant Matrix: (Units=GPa)
#
#
# Indices 1 2 3 4 5 6 
#
# 1 76.5771 9.3230 9.0205 0.0000 0.0000 0.0000
# 2 9.3230 74.9223 -3.7474 0.0000 0.0000 0.0000
# 3 9.0205 -3.7474 78.8394 0.0000 0.0000 0.0000
# 4 0.0000 0.0000 0.0000 12.4449 0.0000 0.0000
# 5 0.0000 0.0000 0.0000 0.0000 48.4569 0.0000
# 6 0.0000 0.0000 0.0000 0.0000 0.0000 14.5750
#
#
#
# Elastic Compliance Matrix: (Units=1/GPa)
#
#
# Indices 1 2 3 4 5 6 
#
# 1 0.013464 -0.001757 -0.001624 0.000000 0.000000 0.000000
# 2 -0.001757 0.013608 0.000848 0.000000 0.000000 0.000000
# 3 -0.001624 0.000848 0.012910 0.000000 0.000000 0.000000
# 4 0.000000 0.000000 0.000000 0.080354 0.000000 0.000000
# 5 0.000000 0.000000 0.000000 0.000000 0.020637 0.000000
# 6 0.000000 0.000000 0.000000 0.000000 0.000000 0.068611
#
#
# Mechanical properties :
#
#
# Convention : Reuss Voigt Hill
#
# Bulk Modulus (GPa) = 28.63967 28.83677 28.73822
# Shear Modulus (GPa) = 22.09572 29.47821 25.78697
#
# Velocity S-wave (km/s) = 3.21653 3.71522 3.47483
# Velocity P-wave (km/s) = 5.21584 5.64856 5.43651
#
# Compressibility (1/GPa) = 0.03491660
#
# Stress axis : x y z
#
# Youngs Moduli (GPa) = 74.27271 73.48537 77.45857
#
# Poissons Ratio (x) = 0.12909 0.12579
# Poissons Ratio (y) = 0.13047 -0.06567
# Poissons Ratio (z) = 0.12062 -0.06230
#
# Static dielectric constant tensor:
#      x y z
#    x 1.772470 0.000000 0.000000 
#    y 0.000000 1.794310 0.000000 
#    z 0.000000 0.000000 1.783520 
# 
# From -- ./inp_files/19540.got.cif
#   From: 2010.05.17/outbox.cif.g08.bks.cpg/sg57_10_cif.got.tgz:19540.got - 2010.06.03 13:58:18.
