data_PCOD9437821
_publ_section_title
;
Structure prediction by ZEFSAII (Michael W. Deem and Ramdas Pophale) SiO2 
 PCOD9437821
Probable space group: P B C M
;
_chemical_formula_sum "Si O2"
_cell_formula_units_Z 36
_cell_length_a 21.662873
_cell_length_b 9.271404
_cell_length_c 9.460252
_cell_angle_alpha 90.000000
_cell_angle_beta 90.000000
_cell_angle_gamma 90.000000
_cell_volume 1900.046653
_symmetry_space_group_name_H-M "P B C M"
_symmetry_group_IT_number 57
_symmetry_cell_setting 'orthorhombic'
loop_
_space_group_symop_operation_xyz
x,y,z
-x,-y,1/2+z
x,1/2-y,-z
-x,1/2+y,1/2-z
-x,-y,-z
x,y,1/2-z
-x,1/2+y,z
x,1/2-y,1/2+z
loop_
_atom_site_type_symbol
_atom_site_label
_atom_site_fract_x
_atom_site_fract_y
_atom_site_fract_z
Si Si1 0.194933 0.900956 0.918191
Si Si2 0.310061 0.100955 0.916686
Si Si3 0.912993 0.999126 0.597677
Si Si4 0.450579 0.402508 0.080210
Si Si5 0.000250 0.750000 0.500000
O O1 0.191497 0.879298 0.750000
O O2 0.257560 0.986323 0.953630
O O3 0.192778 0.750000 0.000000
O O4 0.136490 0.992366 0.972984
O O5 0.304098 0.132530 0.750000
O O6 0.379847 0.044494 0.938908
O O7 0.302231 0.250000 0.000000
O O8 0.881135 0.998781 0.750000
O O9 0.955685 0.141602 0.586009
O O10 0.956430 0.859723 0.584351
O O11 0.462082 0.391178 0.250000
O O12 0.452940 0.250000 0.000000
O O13 0.500000 0.500000 0.000000
#
# Coordination Sequence:
#
# PCOD9437821 Si02
#       5
#     8   8   8   8   4
#     4  11  24  41  60  86 118 154 197 244 294 351
#     4   9  21  40  61  87 119 156 198 243 291 349
#     4  11  23  41  63  88 117 154 194 240 293 350
#     4  10  20  37  60  89 124 160 201 245 295 349
#     4  10  24  40  62  90 120 148 192 238 296 352
#
# _framework density 18.946902999999999
#
# number of rings (size 3 to 8) (size 9 to 14) (size 15 to 20)
#    0.000    1.778    1.111    2.000    1.556    8.000 
#    0.000    2.222    0.000    0.000    0.000    0.000 
#    0.000    0.000    0.000    0.000    0.000    0.000 
#
# Total GULP energy -200937.225835 kJ/mol
# GULP energy per Si atom -5581.589607 kJ/mol
# Density = 1.890378 g / cm^3
# Si number density = 18.946903 Si / 1000 Ang^3
#
#
#
# Elastic Constant Matrix: (Units=GPa)
#
#
# Indices 1 2 3 4 5 6 
#
# 1 122.5257 49.5740 53.8590 0.0000 0.0000 0.0000
# 2 49.5740 70.6622 30.0413 0.0000 0.0000 0.0000
# 3 53.8590 30.0413 93.9440 0.0000 0.0000 0.0000
# 4 0.0000 0.0000 0.0000 19.9221 0.0000 0.0000
# 5 0.0000 0.0000 0.0000 0.0000 15.2762 0.0000
# 6 0.0000 0.0000 0.0000 0.0000 0.0000 32.9447
#
#
#
# Elastic Compliance Matrix: (Units=1/GPa)
#
#
# Indices 1 2 3 4 5 6 
#
# 1 0.013422 -0.007112 -0.005421 0.000000 0.000000 0.000000
# 2 -0.007112 0.020147 -0.002365 0.000000 0.000000 0.000000
# 3 -0.005421 -0.002365 0.014509 0.000000 0.000000 0.000000
# 4 0.000000 0.000000 0.000000 0.050195 0.000000 0.000000
# 5 0.000000 0.000000 0.000000 0.000000 0.065461 0.000000
# 6 0.000000 0.000000 0.000000 0.000000 0.000000 0.030354
#
#
# Mechanical properties :
#
#
# Convention : Reuss Voigt Hill
#
# Bulk Modulus (GPa) = 54.69887 61.56453 58.13170
# Shear Modulus (GPa) = 21.74133 23.87245 22.80689
#
# Velocity S-wave (km/s) = 3.39113 3.55345 3.47324
# Velocity P-wave (km/s) = 6.65322 7.02850 6.84343
#
# Compressibility (1/GPa) = 0.01828191
#
# Stress axis : x y z
#
# Youngs Moduli (GPa) = 74.50621 49.63595 68.92404
#
# Poissons Ratio (x) = 0.35299 0.37361
# Poissons Ratio (y) = 0.52986 0.16303
# Poissons Ratio (z) = 0.40387 0.11740
#
# Static dielectric constant tensor:
#      x y z
#    x 1.662680 0.000000 0.000000 
#    y 0.000000 1.637210 0.000000 
#    z 0.000000 0.000000 1.651250 
# 
# From -- ./inp_files/7585.got.cif
#   From: 2010.05.17/outbox.cif.g08.bks.cpg/sg57_4_cif.got.tgz:7585.got - 2010.06.03 13:58:18.
