data_PCOD9437434
_publ_section_title
;
Structure prediction by ZEFSAII (Michael W. Deem and Ramdas Pophale) SiO2 
 PCOD9437434
Probable space group: P B C M
;
_chemical_formula_sum "Si O2"
_cell_formula_units_Z 48
_cell_length_a 31.024194
_cell_length_b 9.712244
_cell_length_c 8.685702
_cell_angle_alpha 90.000000
_cell_angle_beta 90.000000
_cell_angle_gamma 90.000000
_cell_volume 2617.128320
_symmetry_space_group_name_H-M "P B C M"
_symmetry_group_IT_number 57
_symmetry_cell_setting 'orthorhombic'
loop_
_space_group_symop_operation_xyz
x,y,z
-x,-y,1/2+z
x,1/2-y,-z
-x,1/2+y,1/2-z
-x,-y,-z
x,y,1/2-z
-x,1/2+y,z
x,1/2-y,1/2+z
loop_
_atom_site_type_symbol
_atom_site_label
_atom_site_fract_x
_atom_site_fract_y
_atom_site_fract_z
Si Si1 0.714606 0.399935 0.564894
Si Si2 0.614895 0.398637 0.565070
Si Si3 0.787133 0.903350 0.564884
Si Si4 0.865634 0.402511 0.435329
Si Si5 0.538008 0.904160 0.435392
Si Si6 0.963238 0.402610 0.434561
O O1 0.727307 0.250000 0.500000
O O2 0.717320 0.398565 0.750000
O O3 0.664583 0.423027 0.519109
O O4 0.745710 0.514963 0.497010
O O5 0.601158 0.250000 0.500000
O O6 0.613855 0.389336 0.750000
O O7 0.582579 0.519771 0.518745
O O8 0.788464 0.750000 0.500000
O O9 0.786032 0.899725 0.750000
O O10 0.829323 0.990032 0.515080
O O11 0.857246 0.250000 0.500000
O O12 0.864361 0.393934 0.250000
O O13 0.914353 0.444694 0.479847
O O14 0.535331 0.750000 0.500000
O O15 0.535516 0.899801 0.250000
O O16 0.500000 0.000000 0.500000
O O17 0.969616 0.250000 0.500000
O O18 0.965469 0.400430 0.250000
O O19 0.000000 0.500000 0.500000
#
# Coordination Sequence:
#
# PCOD9437434 Si02
#       6
#     8   8   8   8   8   8
#     4  10  20  37  59  84 112 146 184 224 269 324
#     4   9  20  37  58  83 112 144 182 224 271 323
#     4  11  23  38  55  80 111 145 182 226 275 324
#     4   9  20  37  57  79 106 140 181 222 268 323
#     4  11  23  39  58  83 113 148 186 228 275 326
#     4  10  20  36  56  81 110 143 180 222 269 322
#
# _framework density 18.340713999999998
#
# number of rings (size 3 to 8) (size 9 to 14) (size 15 to 20)
#    0.000    2.000    0.000    3.000    0.000    8.000 
#    0.000    3.333    0.000    0.000    0.000    0.000 
#    0.000    0.000    0.000    0.000    0.000    0.000 
#
# Total GULP energy -268101.197254 kJ/mol
# GULP energy per Si atom -5585.441609 kJ/mol
# Density = 1.829897 g / cm^3
# Si number density = 18.340714 Si / 1000 Ang^3
#
#
#
# Elastic Constant Matrix: (Units=GPa)
#
#
# Indices 1 2 3 4 5 6 
#
# 1 127.6407 115.8293 43.6756 0.0000 0.0000 0.0000
# 2 115.8293 171.0846 46.6043 0.0000 0.0000 0.0000
# 3 43.6756 46.6043 48.6897 0.0000 0.0000 0.0000
# 4 0.0000 0.0000 0.0000 37.9983 0.0000 0.0000
# 5 0.0000 0.0000 0.0000 0.0000 25.1027 0.0000
# 6 0.0000 0.0000 0.0000 0.0000 0.0000 38.6918
#
#
#
# Elastic Compliance Matrix: (Units=1/GPa)
#
#
# Indices 1 2 3 4 5 6 
#
# 1 0.022154 -0.012967 -0.007462 0.000000 0.000000 0.000000
# 2 -0.012967 0.015496 -0.003201 0.000000 0.000000 0.000000
# 3 -0.007462 -0.003201 0.030295 0.000000 0.000000 0.000000
# 4 0.000000 0.000000 0.000000 0.026317 0.000000 0.000000
# 5 0.000000 0.000000 0.000000 0.000000 0.039836 0.000000
# 6 0.000000 0.000000 0.000000 0.000000 0.000000 0.025845
#
#
# Mechanical properties :
#
#
# Convention : Reuss Voigt Hill
#
# Bulk Modulus (GPa) = 48.33905 84.40372 66.37138
# Shear Modulus (GPa) = 23.35380 29.77893 26.56636
#
# Velocity S-wave (km/s) = 3.57225 4.03383 3.81003
# Velocity P-wave (km/s) = 6.58999 8.23501 7.45800
#
# Compressibility (1/GPa) = 0.02068721
#
# Stress axis : x y z
#
# Youngs Moduli (GPa) = 45.13767 64.53392 33.00851
#
# Poissons Ratio (x) = 0.83679 0.24630
# Poissons Ratio (y) = 0.58528 0.10565
# Poissons Ratio (z) = 0.33681 0.20656
#
# Static dielectric constant tensor:
#      x y z
#    x 1.644850 0.000000 0.000000 
#    y 0.000000 1.577490 0.000000 
#    z 0.000000 0.000000 1.618990 
# 
# From -- ./inp_files/9966.got.cif
#   From: 2010.05.17/outbox.cif.g08.bks.cpg/sg57_5_cif.got.tgz:9966.got - 2010.06.03 13:58:18.
