data_PCOD9437538
_publ_section_title
;
Structure prediction by ZEFSAII (Michael W. Deem and Ramdas Pophale) SiO2 
 PCOD9437538
Probable space group: P B C M
;
_chemical_formula_sum "Si O2"
_cell_formula_units_Z 40
_cell_length_a 26.335514
_cell_length_b 9.321113
_cell_length_c 8.687585
_cell_angle_alpha 90.000000
_cell_angle_beta 90.000000
_cell_angle_gamma 90.000000
_cell_volume 2132.596238
_symmetry_space_group_name_H-M "P B C M"
_symmetry_group_IT_number 57
_symmetry_cell_setting 'orthorhombic'
loop_
_space_group_symop_operation_xyz
x,y,z
-x,-y,1/2+z
x,1/2-y,-z
-x,1/2+y,1/2-z
-x,-y,-z
x,y,1/2-z
-x,1/2+y,z
x,1/2-y,1/2+z
loop_
_atom_site_type_symbol
_atom_site_label
_atom_site_fract_x
_atom_site_fract_y
_atom_site_fract_z
Si Si1 0.353857 0.090558 0.934688
Si Si2 0.952631 0.589219 0.064689
Si Si3 0.546881 0.090321 0.434569
Si Si4 0.245089 0.089950 0.064861
Si Si5 0.146989 0.590464 0.564606
O O1 0.350207 0.098757 0.750000
O O2 0.400389 0.987919 0.976840
O O3 0.363358 0.250000 0.000000
O O4 0.299822 0.041544 0.002168
O O5 0.955225 0.593715 0.250000
O O6 0.900888 0.507378 0.018746
O O7 0.953143 0.750000 0.000000
O O8 0.000000 0.500000 0.000000
O O9 0.545499 0.250000 0.500000
O O10 0.543470 0.094111 0.250000
O O11 0.500000 0.000000 0.500000
O O12 0.246724 0.097038 0.250000
O O13 0.199332 0.986259 0.016728
O O14 0.236254 0.250000 0.000000
O O15 0.142533 0.750000 0.500000
O O16 0.146975 0.598106 0.750000
#
# Coordination Sequence:
#
# PCOD9437538 Si02
#       5
#     8   8   8   8   8
#     4  10  21  37  58  85 114 148 187 231 281 335
#     4  11  23  40  61  87 117 151 191 236 286 341
#     4  11  24  40  60  85 115 150 190 234 284 338
#     4  10  20  36  58  84 112 147 188 231 279 334
#     4  10  23  39  57  83 115 150 190 234 282 334
#
# _framework density 18.756481999999998
#
# number of rings (size 3 to 8) (size 9 to 14) (size 15 to 20)
#    0.000    1.600    0.000    5.400    0.000   10.400 
#    0.000    4.000    0.000    0.000    0.000    0.000 
#    0.000    0.000    0.000    0.000    0.000    0.000 
#
# Total GULP energy -223629.335345 kJ/mol
# GULP energy per Si atom -5590.733384 kJ/mol
# Density = 1.871379 g / cm^3
# Si number density = 18.756482 Si / 1000 Ang^3
#
#
#
# Elastic Constant Matrix: (Units=GPa)
#
#
# Indices 1 2 3 4 5 6 
#
# 1 204.0353 140.3734 63.8265 0.0000 0.0000 0.0000
# 2 140.3734 173.2091 52.2602 0.0000 0.0000 0.0000
# 3 63.8265 52.2602 56.0664 0.0000 0.0000 0.0000
# 4 0.0000 0.0000 0.0000 37.6194 0.0000 0.0000
# 5 0.0000 0.0000 0.0000 0.0000 30.5532 0.0000
# 6 0.0000 0.0000 0.0000 0.0000 0.0000 41.2008
#
#
#
# Elastic Compliance Matrix: (Units=1/GPa)
#
#
# Indices 1 2 3 4 5 6 
#
# 1 0.012685 -0.008241 -0.006760 0.000000 0.000000 0.000000
# 2 -0.008241 0.013386 -0.003096 0.000000 0.000000 0.000000
# 3 -0.006760 -0.003096 0.028417 0.000000 0.000000 0.000000
# 4 0.000000 0.000000 0.000000 0.026582 0.000000 0.000000
# 5 0.000000 0.000000 0.000000 0.000000 0.032730 0.000000
# 6 0.000000 0.000000 0.000000 0.000000 0.000000 0.024271
#
#
# Mechanical properties :
#
#
# Convention : Reuss Voigt Hill
#
# Bulk Modulus (GPa) = 54.65799 105.13679 79.89739
# Shear Modulus (GPa) = 27.72190 33.66474 30.69332
#
# Velocity S-wave (km/s) = 3.84864 4.24114 4.04965
# Velocity P-wave (km/s) = 6.99667 8.95312 8.03467
#
# Compressibility (1/GPa) = 0.01829559
#
# Stress axis : x y z
#
# Youngs Moduli (GPa) = 78.83058 74.70347 35.19061
#
# Poissons Ratio (x) = 0.61564 0.23787
# Poissons Ratio (y) = 0.64966 0.10894
# Poissons Ratio (z) = 0.53286 0.23126
#
# Static dielectric constant tensor:
#      x y z
#    x 1.642180 0.000000 0.000000 
#    y 0.000000 1.603640 0.000000 
#    z 0.000000 0.000000 1.634050 
# 
# From -- ./inp_files/8894.got.cif
#   From: 2010.05.17/outbox.cif.g08.bks.cpg/sg57_5_cif.got.tgz:8894.got - 2010.06.03 13:58:18.
