data_PCOD9437183
_publ_section_title
;
Structure prediction by ZEFSAII (Michael W. Deem and Ramdas Pophale) SiO2 
 PCOD9437183
Probable space group: P B C M
;
_chemical_formula_sum "Si O2"
_cell_formula_units_Z 64
_cell_length_a 25.259282
_cell_length_b 15.274198
_cell_length_c 7.655555
_cell_angle_alpha 90.000000
_cell_angle_beta 90.000000
_cell_angle_gamma 90.000000
_cell_volume 2953.630055
_symmetry_space_group_name_H-M "P B C M"
_symmetry_group_IT_number 57
_symmetry_cell_setting 'orthorhombic'
loop_
_space_group_symop_operation_xyz
x,y,z
-x,-y,1/2+z
x,1/2-y,-z
-x,1/2+y,1/2-z
-x,-y,-z
x,y,1/2-z
-x,1/2+y,z
x,1/2-y,1/2+z
loop_
_atom_site_type_symbol
_atom_site_label
_atom_site_fract_x
_atom_site_fract_y
_atom_site_fract_z
Si Si1 0.604051 0.845181 0.959425
Si Si2 0.128306 0.852797 0.958363
Si Si3 0.311706 0.483152 0.544362
Si Si4 0.806272 0.981356 0.543110
Si Si5 0.987275 0.353700 0.959247
Si Si6 0.491094 0.601713 0.040581
Si Si7 0.102359 0.146443 0.460710
Si Si8 0.625339 0.348709 0.542218
O O1 0.600238 0.856241 0.750000
O O2 0.544026 0.852014 0.029227
O O3 0.642874 0.919764 0.030126
O O4 0.626077 0.750000 0.000000
O O5 0.127102 0.859236 0.750000
O O6 0.070099 0.882896 0.027609
O O7 0.136436 0.750000 0.000000
O O8 0.172125 0.920142 0.022796
O O9 0.308214 0.462124 0.750000
O O10 0.252925 0.472621 0.469445
O O11 0.333559 0.581008 0.528691
O O12 0.803044 0.963837 0.750000
O O13 0.849882 0.913437 0.471399
O O14 0.986918 0.365858 0.750000
O O15 0.044312 0.385562 0.026274
O O16 0.987926 0.250000 0.000000
O O17 0.489409 0.613624 0.250000
O O18 0.434275 0.633098 0.971839
O O19 0.500000 0.500000 0.000000
O O20 0.108845 0.250000 0.500000
O O21 0.101095 0.139178 0.250000
O O22 0.640286 0.250000 0.500000
O O23 0.623962 0.360342 0.750000
#
# Coordination Sequence:
#
# PCOD9437183 Si02
#       8
#     8   8   8   8   8   8   8   8
#     4  10  21  37  58  84 113 146 181 221 270 323
#     4  10  20  35  56  81 109 142 180 225 276 330
#     4  10  22  41  59  77 109 149 189 232 275 321
#     4  10  22  38  56  79 108 146 187 228 276 326
#     4   8  15  29  50  77 108 140 174 216 270 328
#     4  10  20  35  58  87 117 148 180 220 272 325
#     4   9  18  34  55  80 111 144 180 223 272 328
#     4  11  23  38  60  88 114 146 185 227 277 330
#
# _framework density 21.668251999999999
#
# number of rings (size 3 to 8) (size 9 to 14) (size 15 to 20)
#    0.000    2.250    1.250    1.125    0.000    4.500 
#    0.000    0.000    0.000    0.000    0.000    0.000 
#    0.000    0.000    0.000    0.000    0.000    0.000 
#
# Total GULP energy -357253.255323 kJ/mol
# GULP energy per Si atom -5582.082114 kJ/mol
# Density = 2.161893 g / cm^3
# Si number density = 21.668252 Si / 1000 Ang^3
#
#
#
# Elastic Constant Matrix: (Units=GPa)
#
#
# Indices 1 2 3 4 5 6 
#
# 1 98.0261 0.8637 4.1610 0.0000 0.0000 0.0000
# 2 0.8637 58.0228 -22.4795 0.0000 0.0000 0.0000
# 3 4.1610 -22.4795 45.4536 0.0000 0.0000 0.0000
# 4 0.0000 0.0000 0.0000 22.1731 0.0000 0.0000
# 5 0.0000 0.0000 0.0000 0.0000 -3.3936 0.0000
# 6 0.0000 0.0000 0.0000 0.0000 0.0000 70.2948
#
#
#
# Elastic Compliance Matrix: (Units=1/GPa)
#
#
# Indices 1 2 3 4 5 6 
#
# 1 0.010260 -0.000639 -0.001255 0.000000 0.000000 0.000000
# 2 -0.000639 0.021359 0.010622 0.000000 0.000000 0.000000
# 3 -0.001255 0.010622 0.027369 0.000000 0.000000 0.000000
# 4 0.000000 0.000000 0.000000 0.045100 0.000000 0.000000
# 5 0.000000 0.000000 0.000000 0.000000 -0.294673 0.000000
# 6 0.000000 0.000000 0.000000 0.000000 0.000000 0.014226
#
#
# Mechanical properties :
#
#
# Convention : Reuss Voigt Hill
#
# Bulk Modulus (GPa) = 13.08163 18.51035 15.79599
# Shear Modulus (GPa) = -29.70292 32.41201 1.35455
#
# Velocity S-wave (km/s) = -3.70645 3.87179 0.79151
# Velocity P-wave (km/s) = 3.50239 5.34311 2.85325
#
# Compressibility (1/GPa) = 0.07644309
#
# Stress axis : x y z
#
# Youngs Moduli (GPa) = 97.46323 46.81803 36.53834
#
# Poissons Ratio (x) = 0.02992 0.04587
# Poissons Ratio (y) = 0.06229 -0.38811
# Poissons Ratio (z) = 0.12235 -0.49730
#
# Static dielectric constant tensor:
#      x y z
#    x 1.830820 0.000000 0.000000 
#    y 0.000000 1.745730 0.000000 
#    z 0.000000 0.000000 1.811340 
# 
# From -- ./inp_files/9354.got.cif
#   From: 2010.05.17/outbox.cif.g08.bks.cpg/sg57_5_cif.got.tgz:9354.got - 2010.06.03 13:58:18.
