data_PCOD9437992
_publ_section_title
;
Structure prediction by ZEFSAII (Michael W. Deem and Ramdas Pophale) SiO2 
 PCOD9437992
Probable space group: P B C M
;
_chemical_formula_sum "Si O2"
_cell_formula_units_Z 48
_cell_length_a 14.851402
_cell_length_b 8.603873
_cell_length_c 18.596951
_cell_angle_alpha 90.000000
_cell_angle_beta 90.000000
_cell_angle_gamma 90.000000
_cell_volume 2376.310526
_symmetry_space_group_name_H-M "P B C M"
_symmetry_group_IT_number 57
_symmetry_cell_setting 'orthorhombic'
loop_
_space_group_symop_operation_xyz
x,y,z
-x,-y,1/2+z
x,1/2-y,-z
-x,1/2+y,1/2-z
-x,-y,-z
x,y,1/2-z
-x,1/2+y,z
x,1/2-y,1/2+z
loop_
_atom_site_type_symbol
_atom_site_label
_atom_site_fract_x
_atom_site_fract_y
_atom_site_fract_z
Si Si1 0.064151 0.507686 0.337174
Si Si2 0.711797 0.034318 0.833489
Si Si3 0.120201 0.337750 0.836791
Si Si4 0.383902 0.027292 0.563582
Si Si5 0.438708 0.131412 0.403972
Si Si6 0.784607 0.319529 0.578393
O O1 0.073378 0.521585 0.250000
O O2 0.093950 0.335229 0.360253
O O3 0.128375 0.629323 0.376925
O O4 0.960671 0.545073 0.355545
O O5 0.729689 0.065674 0.750000
O O6 0.731452 0.186895 0.878632
O O7 0.783785 0.904357 0.860154
O O8 0.612419 0.967575 0.844329
O O9 0.122999 0.329993 0.750000
O O10 0.401730 0.062427 0.479601
O O11 0.410252 0.189330 0.601249
O O12 0.454943 0.898005 0.590901
O O13 0.283568 0.965246 0.572716
O O14 0.805795 0.250000 0.500000
#
# Coordination Sequence:
#
# PCOD9437992 Si02
#       6
#     8   8   8   8   8   8
#     4  10  20  38  61  86 116 156 201 246 296 357
#     4  11  22  39  61  89 122 156 198 251 300 351
#     4   9  19  37  63  88 116 156 198 240 301 365
#     4  10  21  37  62  86 117 152 198 237 293 354
#     4  10  20  38  63  88 112 155 198 241 288 357
#     4  12  23  38  58  89 120 161 200 246 295 360
#
# _framework density 20.199379
#
# number of rings (size 3 to 8) (size 9 to 14) (size 15 to 20)
#    0.000    1.667    1.667    3.500    2.333    2.667 
#    0.000    8.333    0.000    0.000    0.000    0.000 
#    0.000    0.000    0.000    0.000    0.000    0.000 
#
# Total GULP energy -268089.475879 kJ/mol
# GULP energy per Si atom -5585.197414 kJ/mol
# Density = 2.015340 g / cm^3
# Si number density = 20.199379 Si / 1000 Ang^3
#
#
#
# Elastic Constant Matrix: (Units=GPa)
#
#
# Indices 1 2 3 4 5 6 
#
# 1 65.8727 -3.9594 2.4734 0.0000 0.0000 0.0000
# 2 -3.9594 77.5589 13.8735 0.0000 0.0000 0.0000
# 3 2.4734 13.8735 45.1174 0.0000 0.0000 0.0000
# 4 0.0000 0.0000 0.0000 20.4819 0.0000 0.0000
# 5 0.0000 0.0000 0.0000 0.0000 21.0967 0.0000
# 6 0.0000 0.0000 0.0000 0.0000 0.0000 35.5558
#
#
#
# Elastic Compliance Matrix: (Units=1/GPa)
#
#
# Indices 1 2 3 4 5 6 
#
# 1 0.015283 0.000984 -0.001140 0.000000 0.000000 0.000000
# 2 0.000984 0.013707 -0.004269 0.000000 0.000000 0.000000
# 3 -0.001140 -0.004269 0.023540 0.000000 0.000000 0.000000
# 4 0.000000 0.000000 0.000000 0.048824 0.000000 0.000000
# 5 0.000000 0.000000 0.000000 0.000000 0.047401 0.000000
# 6 0.000000 0.000000 0.000000 0.000000 0.000000 0.028125
#
#
# Mechanical properties :
#
#
# Convention : Reuss Voigt Hill
#
# Bulk Modulus (GPa) = 22.89415 23.70267 23.29841
# Shear Modulus (GPa) = 24.96393 27.17098 26.06745
#
# Velocity S-wave (km/s) = 3.51932 3.67159 3.59626
# Velocity P-wave (km/s) = 5.27947 5.45288 5.36688
#
# Compressibility (1/GPa) = 0.04367929
#
# Stress axis : x y z
#
# Youngs Moduli (GPa) = 65.43311 72.95392 42.48163
#
# Poissons Ratio (x) = -0.07180 0.04845
# Poissons Ratio (y) = -0.06440 0.18135
# Poissons Ratio (z) = 0.07462 0.31143
#
# Static dielectric constant tensor:
#      x y z
#    x 1.696860 0.000000 0.000000 
#    y 0.000000 1.732330 0.000000 
#    z 0.000000 0.000000 1.689910 
# 
# From -- ./inp_files/22453.got.cif
#   From: 2010.05.17/outbox.cif.g08.bks.cpg/sg57_12_cif.got.tgz:22453.got - 2010.06.03 13:58:18.
