data_PCOD9437077
_publ_section_title
;
Structure prediction by ZEFSAII (Michael W. Deem and Ramdas Pophale) SiO2 
 PCOD9437077
Probable space group: P B C M
;
_chemical_formula_sum "Si O2"
_cell_formula_units_Z 56
_cell_length_a 16.067089
_cell_length_b 20.518410
_cell_length_c 8.629021
_cell_angle_alpha 90.000000
_cell_angle_beta 90.000000
_cell_angle_gamma 90.000000
_cell_volume 2844.739014
_symmetry_space_group_name_H-M "P B C M"
_symmetry_group_IT_number 57
_symmetry_cell_setting 'orthorhombic'
loop_
_space_group_symop_operation_xyz
x,y,z
-x,-y,1/2+z
x,1/2-y,-z
-x,1/2+y,1/2-z
-x,-y,-z
x,y,1/2-z
-x,1/2+y,z
x,1/2-y,1/2+z
loop_
_atom_site_type_symbol
_atom_site_label
_atom_site_fract_x
_atom_site_fract_y
_atom_site_fract_z
Si Si1 0.831769 0.916648 0.564148
Si Si2 0.572849 0.454828 0.936273
Si Si3 0.691951 0.821134 0.435421
Si Si4 0.240551 0.956797 0.937556
Si Si5 0.493574 0.180329 0.064221
Si Si6 0.832500 0.180703 0.063336
Si Si7 0.974695 0.680396 0.063347
O O1 0.828709 0.916874 0.750000
O O2 0.754492 0.875014 0.499183
O O3 0.915013 0.878352 0.514004
O O4 0.822279 0.989572 0.502070
O O5 0.571719 0.459736 0.750000
O O6 0.665419 0.473101 0.989421
O O7 0.552521 0.379926 0.976463
O O8 0.500000 0.500000 0.000000
O O9 0.716621 0.750000 0.500000
O O10 0.692942 0.820515 0.250000
O O11 0.597994 0.832751 0.494382
O O12 0.238281 0.959200 0.750000
O O13 0.217310 0.883451 0.985413
O O14 0.486202 0.184326 0.250000
O O15 0.522220 0.250000 0.000000
O O16 0.830482 0.183537 0.250000
O O17 0.929245 0.172659 0.014150
O O18 0.801934 0.250000 0.000000
O O19 0.973280 0.683087 0.250000
O O20 0.944222 0.750000 0.000000
#
# Coordination Sequence:
#
# PCOD9437077 Si02
#       7
#     8   8   8   8   8   8   8
#     4  11  22  35  52  79 113 145 183 226 267 319
#     4  10  22  38  56  78 106 141 180 222 268 322
#     4  11  21  34  53  78 109 145 183 223 272 325
#     4  10  22  39  57  80 110 144 181 223 276 328
#     4  10  20  35  54  78 106 137 177 224 273 324
#     4   9  19  38  61  83 110 143 180 224 271 322
#     4   9  19  35  56  82 111 144 181 220 264 316
#
# _framework density 19.685462000000001
#
# number of rings (size 3 to 8) (size 9 to 14) (size 15 to 20)
#    0.000    2.000    0.000    4.286    0.000    8.000 
#    0.000    0.000    0.000    0.000    0.000    0.000 
#    0.000    0.000    0.000    0.000    0.000    0.000 
#
# Total GULP energy -312853.738853 kJ/mol
# GULP energy per Si atom -5586.673908 kJ/mol
# Density = 1.964066 g / cm^3
# Si number density = 19.685462 Si / 1000 Ang^3
#
#
#
# Elastic Constant Matrix: (Units=GPa)
#
#
# Indices 1 2 3 4 5 6 
#
# 1 59.7321 44.6378 14.4652 0.0000 0.0000 0.0000
# 2 44.6378 113.5128 23.4734 0.0000 0.0000 0.0000
# 3 14.4652 23.4734 37.3443 0.0000 0.0000 0.0000
# 4 0.0000 0.0000 0.0000 35.3975 0.0000 0.0000
# 5 0.0000 0.0000 0.0000 0.0000 15.5278 0.0000
# 6 0.0000 0.0000 0.0000 0.0000 0.0000 35.3767
#
#
#
# Elastic Compliance Matrix: (Units=1/GPa)
#
#
# Indices 1 2 3 4 5 6 
#
# 1 0.024192 -0.008707 -0.003898 0.000000 0.000000 0.000000
# 2 -0.008707 0.013260 -0.004962 0.000000 0.000000 0.000000
# 3 -0.003898 -0.004962 0.031406 0.000000 0.000000 0.000000
# 4 0.000000 0.000000 0.000000 0.028251 0.000000 0.000000
# 5 0.000000 0.000000 0.000000 0.000000 0.064400 0.000000
# 6 0.000000 0.000000 0.000000 0.000000 0.000000 0.028267
#
#
# Mechanical properties :
#
#
# Convention : Reuss Voigt Hill
#
# Bulk Modulus (GPa) = 29.65181 41.74910 35.70046
# Shear Modulus (GPa) = 21.17278 25.79458 23.48368
#
# Velocity S-wave (km/s) = 3.28312 3.62378 3.45765
# Velocity P-wave (km/s) = 5.42838 6.22601 5.84083
#
# Compressibility (1/GPa) = 0.03372475
#
# Stress axis : x y z
#
# Youngs Moduli (GPa) = 41.33536 75.41629 31.84057
#
# Poissons Ratio (x) = 0.65668 0.12410
# Poissons Ratio (y) = 0.35992 0.15799
# Poissons Ratio (z) = 0.16111 0.37420
#
# Static dielectric constant tensor:
#      x y z
#    x 1.690340 0.000000 0.000000 
#    y 0.000000 1.687880 0.000000 
#    z 0.000000 0.000000 1.667950 
# 
# From -- ./inp_files/5117.got.cif
#   From: 2010.05.17/outbox.cif.g08.bks.cpg/sg57_3_cif.got.tgz:5117.got - 2010.06.03 13:58:18.
