data_PCOD9437969
_publ_section_title
;
Structure prediction by ZEFSAII (Michael W. Deem and Ramdas Pophale) SiO2 
 PCOD9437969
Probable space group: P B C M
;
_chemical_formula_sum "Si O2"
_cell_formula_units_Z 48
_cell_length_a 15.927644
_cell_length_b 18.367620
_cell_length_c 8.424971
_cell_angle_alpha 90.000000
_cell_angle_beta 90.000000
_cell_angle_gamma 90.000000
_cell_volume 2464.749804
_symmetry_space_group_name_H-M "P B C M"
_symmetry_group_IT_number 57
_symmetry_cell_setting 'orthorhombic'
loop_
_space_group_symop_operation_xyz
x,y,z
-x,-y,1/2+z
x,1/2-y,-z
-x,1/2+y,1/2-z
-x,-y,-z
x,y,1/2-z
-x,1/2+y,z
x,1/2-y,1/2+z
loop_
_atom_site_type_symbol
_atom_site_label
_atom_site_fract_x
_atom_site_fract_y
_atom_site_fract_z
Si Si1 0.997969 0.917414 0.940441
Si Si2 0.834592 0.332672 0.941887
Si Si3 0.665594 0.914795 0.056365
Si Si4 0.496770 0.832616 0.059609
Si Si5 0.834519 0.832576 0.440513
Si Si6 0.332990 0.582809 0.442096
O O1 0.997949 0.917633 0.750000
O O2 0.081300 0.874293 0.994878
O O3 0.915294 0.876490 0.000327
O O4 0.000000 0.000000 0.000000
O O5 0.834502 0.332345 0.750000
O O6 0.751353 0.375744 0.994835
O O7 0.833602 0.250000 0.000000
O O8 0.665694 0.914894 0.250000
O O9 0.581285 0.873674 0.004366
O O10 0.749090 0.872317 0.004894
O O11 0.666686 0.998799 0.004788
O O12 0.496653 0.832263 0.250000
O O13 0.495821 0.750000 0.000000
O O14 0.415032 0.875310 0.000633
O O15 0.836939 0.750000 0.500000
O O16 0.835034 0.832574 0.250000
O O17 0.333480 0.582999 0.250000
#
# Coordination Sequence:
#
# PCOD9437969 Si02
#       6
#     8   8   8   8   8   8
#     4  11  23  40  61  87 116 152 193 238 290 345
#     4  10  22  38  58  82 113 150 188 228 280 337
#     4   9  20  38  60  83 114 152 190 233 286 339
#     4  11  22  37  57  84 114 149 189 233 283 339
#     4  11  22  39  61  87 118 154 193 237 286 342
#     4  10  20  38  60  83 111 147 187 233 284 336
#
# _framework density 19.474592999999999
#
# number of rings (size 3 to 8) (size 9 to 14) (size 15 to 20)
#    0.000    1.667    0.000    4.500    0.000    7.333 
#    0.000    6.667    0.000    0.000    0.000    0.000 
#    0.000    0.000    0.000    0.000    0.000    0.000 
#
# Total GULP energy -268388.267963 kJ/mol
# GULP energy per Si atom -5591.422249 kJ/mol
# Density = 1.943027 g / cm^3
# Si number density = 19.474593 Si / 1000 Ang^3
#
#
#
# Elastic Constant Matrix: (Units=GPa)
#
#
# Indices 1 2 3 4 5 6 
#
# 1 233.3072 138.3259 32.6782 0.0000 0.0000 0.0000
# 2 138.3259 231.6574 29.5836 0.0000 0.0000 0.0000
# 3 32.6782 29.5836 29.8338 0.0000 0.0000 0.0000
# 4 0.0000 0.0000 0.0000 26.7685 0.0000 0.0000
# 5 0.0000 0.0000 0.0000 0.0000 21.6963 0.0000
# 6 0.0000 0.0000 0.0000 0.0000 0.0000 47.6793
#
#
#
# Elastic Compliance Matrix: (Units=1/GPa)
#
#
# Indices 1 2 3 4 5 6 
#
# 1 0.007039 -0.003685 -0.004056 0.000000 0.000000 0.000000
# 2 -0.003685 0.006872 -0.002778 0.000000 0.000000 0.000000
# 3 -0.004056 -0.002778 0.040716 0.000000 0.000000 0.000000
# 4 0.000000 0.000000 0.000000 0.037357 0.000000 0.000000
# 5 0.000000 0.000000 0.000000 0.000000 0.046091 0.000000
# 6 0.000000 0.000000 0.000000 0.000000 0.000000 0.020973
#
#
# Mechanical properties :
#
#
# Convention : Reuss Voigt Hill
#
# Bulk Modulus (GPa) = 29.77132 99.55266 64.66199
# Shear Modulus (GPa) = 26.13922 38.84288 32.49105
#
# Velocity S-wave (km/s) = 3.66761 4.47087 4.08901
# Velocity P-wave (km/s) = 5.76677 8.82507 7.45444
#
# Compressibility (1/GPa) = 0.03358937
#
# Stress axis : x y z
#
# Youngs Moduli (GPa) = 142.06004 145.51859 24.56027
#
# Poissons Ratio (x) = 0.53628 0.09962
# Poissons Ratio (y) = 0.52353 0.06822
# Poissons Ratio (z) = 0.57620 0.40421
#
# Static dielectric constant tensor:
#      x y z
#    x 1.657380 0.000000 0.000000 
#    y 0.000000 1.634030 0.000000 
#    z 0.000000 0.000000 1.679480 
# 
# From -- ./inp_files/4650.got.cif
#   From: 2010.05.17/outbox.cif.g08.bks.cpg/sg57_3_cif.got.tgz:4650.got - 2010.06.03 13:58:18.
