data_PCOD9437788
_publ_section_title
;
Structure prediction by ZEFSAII (Michael W. Deem and Ramdas Pophale) SiO2 
 PCOD9437788
Probable space group: P B C M
;
_chemical_formula_sum "Si O2"
_cell_formula_units_Z 48
_cell_length_a 9.742596
_cell_length_b 31.323084
_cell_length_c 8.505751
_cell_angle_alpha 90.000000
_cell_angle_beta 90.000000
_cell_angle_gamma 90.000000
_cell_volume 2595.684322
_symmetry_space_group_name_H-M "P B C M"
_symmetry_group_IT_number 57
_symmetry_cell_setting 'orthorhombic'
loop_
_space_group_symop_operation_xyz
x,y,z
-x,-y,1/2+z
x,1/2-y,-z
-x,1/2+y,1/2-z
-x,-y,-z
x,y,1/2-z
-x,1/2+y,z
x,1/2-y,1/2+z
loop_
_atom_site_type_symbol
_atom_site_label
_atom_site_fract_x
_atom_site_fract_y
_atom_site_fract_z
Si Si1 0.652822 0.875164 0.440338
Si Si2 0.846523 0.951820 0.439839
Si Si3 0.156550 0.203008 0.939584
Si Si4 0.656217 0.374049 0.561605
Si Si5 0.159309 0.797201 0.061346
Si Si6 0.850105 0.450746 0.939830
O O1 0.651037 0.874969 0.250000
O O2 0.733862 0.917687 0.492328
O O3 0.740365 0.833908 0.492718
O O4 0.498360 0.873974 0.500092
O O5 0.849417 0.951282 0.250000
O O6 0.998040 0.939782 0.499200
O O7 0.818739 0.000611 0.491055
O O8 0.158030 0.203764 0.750000
O O9 0.998876 0.193993 0.988481
O O10 0.194078 0.250000 0.000000
O O11 0.654400 0.374223 0.750000
O O12 0.739500 0.332841 0.503861
O O13 0.739290 0.416135 0.506859
O O14 0.164249 0.797424 0.250000
O O15 0.194607 0.750000 0.000000
O O16 0.853300 0.450438 0.750000
#
# Coordination Sequence:
#
# PCOD9437788 Si02
#       6
#     8   8   8   8   8   8
#     4  10  21  36  53  76 107 142 179 219 265 318
#     4   9  18  35  58  80 103 136 179 225 272 321
#     4   9  19  35  56  80 103 131 171 217 262 311
#     4  11  23  36  51  77 112 146 178 215 263 318
#     4  10  20  37  60  83 106 136 176 220 266 314
#     4   9  19  35  55  80 108 137 175 224 272 319
#
# _framework density 18.492232999999999
#
# number of rings (size 3 to 8) (size 9 to 14) (size 15 to 20)
#    0.000    2.333    0.000    2.000    0.000    6.000 
#    0.000    1.667    0.000    0.000    0.000    0.000 
#    0.000    0.000    0.000    0.000    0.000    0.000 
#
# Total GULP energy -267977.227304 kJ/mol
# GULP energy per Si atom -5582.858902 kJ/mol
# Density = 1.845014 g / cm^3
# Si number density = 18.492233 Si / 1000 Ang^3
#
#
#
# Elastic Constant Matrix: (Units=GPa)
#
#
# Indices 1 2 3 4 5 6 
#
# 1 171.7360 140.4371 27.8560 0.0000 0.0000 0.0000
# 2 140.4371 159.9054 28.9601 0.0000 0.0000 0.0000
# 3 27.8560 28.9601 14.7080 0.0000 0.0000 0.0000
# 4 0.0000 0.0000 0.0000 23.9370 0.0000 0.0000
# 5 0.0000 0.0000 0.0000 0.0000 29.4258 0.0000
# 6 0.0000 0.0000 0.0000 0.0000 0.0000 -4.7548
#
#
#
# Elastic Compliance Matrix: (Units=1/GPa)
#
#
# Indices 1 2 3 4 5 6 
#
# 1 0.020930 -0.017412 -0.005357 0.000000 0.000000 0.000000
# 2 -0.017412 0.024205 -0.014682 0.000000 0.000000 0.000000
# 3 -0.005357 -0.014682 0.107044 0.000000 0.000000 0.000000
# 4 0.000000 0.000000 0.000000 0.041776 0.000000 0.000000
# 5 0.000000 0.000000 0.000000 0.000000 0.033984 0.000000
# 6 0.000000 0.000000 0.000000 0.000000 0.000000 -0.210315
#
#
# Mechanical properties :
#
#
# Convention : Reuss Voigt Hill
#
# Bulk Modulus (GPa) = 12.94031 82.31732 47.62882
# Shear Modulus (GPa) = 42.27081 19.66136 30.96608
#
# Velocity S-wave (km/s) = 4.78626 3.26425 4.09656
# Velocity P-wave (km/s) = 6.12840 7.66931 6.94174
#
# Compressibility (1/GPa) = 0.07727787
#
# Stress axis : x y z
#
# Youngs Moduli (GPa) = 47.77719 41.31388 9.34197
#
# Poissons Ratio (x) = 0.71936 0.05004
# Poissons Ratio (y) = 0.83190 0.13716
# Poissons Ratio (z) = 0.25592 0.60657
#
# Static dielectric constant tensor:
#      x y z
#    x 1.600730 0.000000 0.000000 
#    y 0.000000 1.635480 0.000000 
#    z 0.000000 0.000000 1.635870 
# 
# From -- ./inp_files/2093.got.cif
#   From: 2010.05.17/outbox.cif.g08.bks.cpg/sg57_2_cif.got.tgz:2093.got - 2010.06.03 13:58:18.
