data_PCOD9437588
_publ_section_title
;
Structure prediction by ZEFSAII (Michael W. Deem and Ramdas Pophale) SiO2 
 PCOD9437588
Probable space group: P B C M
;
_chemical_formula_sum "Si O2"
_cell_formula_units_Z 48
_cell_length_a 15.415915
_cell_length_b 19.623022
_cell_length_c 8.673051
_cell_angle_alpha 90.000000
_cell_angle_beta 90.000000
_cell_angle_gamma 90.000000
_cell_volume 2623.657244
_symmetry_space_group_name_H-M "P B C M"
_symmetry_group_IT_number 57
_symmetry_cell_setting 'orthorhombic'
loop_
_space_group_symop_operation_xyz
x,y,z
-x,-y,1/2+z
x,1/2-y,-z
-x,1/2+y,1/2-z
-x,-y,-z
x,y,1/2-z
-x,1/2+y,z
x,1/2-y,1/2+z
loop_
_atom_site_type_symbol
_atom_site_label
_atom_site_fract_x
_atom_site_fract_y
_atom_site_fract_z
Si Si1 0.891981 0.825867 0.564244
Si Si2 0.239170 0.566317 0.434741
Si Si3 0.960941 0.070143 0.436142
Si Si4 0.373502 0.825190 0.066128
Si Si5 0.562371 0.824994 0.564941
Si Si6 0.726288 0.917277 0.936052
O O1 0.889060 0.750000 0.500000
O O2 0.891994 0.822265 0.750000
O O3 0.807728 0.869919 0.518449
O O4 0.977350 0.867675 0.514584
O O5 0.244286 0.572115 0.250000
O O6 0.139071 0.577767 0.483001
O O7 0.302653 0.621108 0.510206
O O8 0.265540 0.490506 0.486175
O O9 0.963577 0.066805 0.250000
O O10 0.000000 0.000000 0.500000
O O11 0.376409 0.821984 0.250000
O O12 0.354263 0.750000 0.000000
O O13 0.468832 0.844443 0.002784
O O14 0.584066 0.750000 0.500000
O O15 0.556253 0.820727 0.750000
O O16 0.637672 0.878120 0.524550
O O17 0.729293 0.925827 0.750000
#
# Coordination Sequence:
#
# PCOD9437588 Si02
#       6
#     8   8   8   8   8   8
#     4  10  21  37  57  85 119 151 192 237 285 345
#     4  11  23  38  60  89 117 152 198 243 291 349
#     4  10  21  38  60  84 115 153 194 239 289 346
#     4  11  23  41  63  85 115 154 194 243 295 346
#     4  10  20  36  59  86 117 154 195 240 292 349
#     4  10  21  37  58  85 119 156 192 237 292 348
#
# _framework density 18.295072000000001
#
# number of rings (size 3 to 8) (size 9 to 14) (size 15 to 20)
#    0.000    1.667    1.667    4.000    0.000    4.667 
#    0.000    1.667    0.000    0.000    0.000    0.000 
#    0.000    0.000    0.000    0.000    0.000    0.000 
#
# Total GULP energy -268224.983454 kJ/mol
# GULP energy per Si atom -5588.020489 kJ/mol
# Density = 1.825343 g / cm^3
# Si number density = 18.295072 Si / 1000 Ang^3
#
#
#
# Elastic Constant Matrix: (Units=GPa)
#
#
# Indices 1 2 3 4 5 6 
#
# 1 183.1511 125.2201 65.5423 0.0000 0.0000 0.0000
# 2 125.2201 151.3228 53.8952 0.0000 0.0000 0.0000
# 3 65.5423 53.8952 61.1741 0.0000 0.0000 0.0000
# 4 0.0000 0.0000 0.0000 38.4004 0.0000 0.0000
# 5 0.0000 0.0000 0.0000 0.0000 11.1082 0.0000
# 6 0.0000 0.0000 0.0000 0.0000 0.0000 40.4717
#
#
#
# Elastic Compliance Matrix: (Units=1/GPa)
#
#
# Indices 1 2 3 4 5 6 
#
# 1 0.014476 -0.009406 -0.007222 0.000000 0.000000 0.000000
# 2 -0.009406 0.015742 -0.003791 0.000000 0.000000 0.000000
# 3 -0.007222 -0.003791 0.027425 0.000000 0.000000 0.000000
# 4 0.000000 0.000000 0.000000 0.026041 0.000000 0.000000
# 5 0.000000 0.000000 0.000000 0.000000 0.090024 0.000000
# 6 0.000000 0.000000 0.000000 0.000000 0.000000 0.024709
#
#
# Mechanical properties :
#
#
# Convention : Reuss Voigt Hill
#
# Bulk Modulus (GPa) = 59.51203 98.32924 78.92064
# Shear Modulus (GPa) = 20.42007 28.06208 24.24108
#
# Velocity S-wave (km/s) = 3.34451 3.92070 3.64401
# Velocity P-wave (km/s) = 6.89304 8.62316 7.80618
#
# Compressibility (1/GPa) = 0.01680333
#
# Stress axis : x y z
#
# Youngs Moduli (GPa) = 69.08189 63.52239 36.46333
#
# Poissons Ratio (x) = 0.59751 0.26334
# Poissons Ratio (y) = 0.64981 0.13824
# Poissons Ratio (z) = 0.49892 0.24083
#
# Static dielectric constant tensor:
#      x y z
#    x 1.624420 0.000000 0.000000 
#    y 0.000000 1.583410 0.000000 
#    z 0.000000 0.000000 1.621170 
# 
# From -- ./inp_files/4683.got.cif
#   From: 2010.05.17/outbox.cif.g08.bks.cpg/sg57_3_cif.got.tgz:4683.got - 2010.06.03 13:58:18.
