data_PCOD9437432
_publ_section_title
;
Structure prediction by ZEFSAII (Michael W. Deem and Ramdas Pophale) SiO2 
 PCOD9437432
Probable space group: P B C M
;
_chemical_formula_sum "Si O2"
_cell_formula_units_Z 56
_cell_length_a 18.572381
_cell_length_b 19.541050
_cell_length_c 8.309545
_cell_angle_alpha 90.000000
_cell_angle_beta 90.000000
_cell_angle_gamma 90.000000
_cell_volume 3015.731862
_symmetry_space_group_name_H-M "P B C M"
_symmetry_group_IT_number 57
_symmetry_cell_setting 'orthorhombic'
loop_
_space_group_symop_operation_xyz
x,y,z
-x,-y,1/2+z
x,1/2-y,-z
-x,1/2+y,1/2-z
-x,-y,-z
x,y,1/2-z
-x,1/2+y,z
x,1/2-y,1/2+z
loop_
_atom_site_type_symbol
_atom_site_label
_atom_site_fract_x
_atom_site_fract_y
_atom_site_fract_z
Si Si1 0.472658 0.828745 0.056001
Si Si2 0.803454 0.434257 0.942280
Si Si3 0.966176 0.428482 0.442693
Si Si4 0.090255 0.172304 0.944213
Si Si5 0.230942 0.412468 0.446756
Si Si6 0.315451 0.828487 0.442900
Si Si7 0.629922 0.828788 0.444894
O O1 0.472641 0.831380 0.250000
O O2 0.394645 0.855632 0.001250
O O3 0.550798 0.855622 0.001698
O O4 0.472853 0.750000 0.000000
O O5 0.804211 0.436255 0.750000
O O6 0.778041 0.509316 0.000728
O O7 0.884677 0.421326 0.999263
O O8 0.748291 0.376241 0.996966
O O9 0.966539 0.428304 0.250000
O O10 0.000000 0.500000 0.500000
O O11 0.019155 0.368076 0.499911
O O12 0.090475 0.171314 0.750000
O O13 0.161303 0.131136 0.997907
O O14 0.091893 0.250000 0.000000
O O15 0.231565 0.412707 0.250000
O O16 0.303994 0.375405 0.500962
O O17 0.307544 0.750000 0.500000
O O18 0.314944 0.828151 0.250000
O O19 0.638539 0.750000 0.500000
O O20 0.630755 0.828404 0.250000
#
# Coordination Sequence:
#
# PCOD9437432 Si02
#       7
#     8   8   8   8   8   8   8
#     4   8  15  28  49  75 104 138 177 222 270 321
#     4  11  22  38  58  80 109 145 184 224 274 330
#     4  11  22  39  60  81 109 144 186 228 274 330
#     4  10  21  37  56  82 111 140 177 222 267 320
#     4   9  18  34  53  76 110 146 179 217 267 324
#     4  10  20  36  56  81 109 139 181 230 278 326
#     4   9  16  29  51  77 106 142 181 222 269 319
#
# _framework density 18.569291
#
# number of rings (size 3 to 8) (size 9 to 14) (size 15 to 20)
#    0.000    2.286    1.429    1.714    0.000    2.286 
#    0.000    3.571    0.000    0.000    0.000    0.000 
#    0.000    0.000    0.000    0.000    0.000    0.000 
#
# Total GULP energy -312298.345199 kJ/mol
# GULP energy per Si atom -5576.756164 kJ/mol
# Density = 1.852703 g / cm^3
# Si number density = 18.569291 Si / 1000 Ang^3
#
#
#
# Elastic Constant Matrix: (Units=GPa)
#
#
# Indices 1 2 3 4 5 6 
#
# 1 231.6186 100.8846 28.3993 0.0000 0.0000 0.0000
# 2 100.8846 120.8040 17.1790 0.0000 0.0000 0.0000
# 3 28.3993 17.1790 22.7754 0.0000 0.0000 0.0000
# 4 0.0000 0.0000 0.0000 25.1140 0.0000 0.0000
# 5 0.0000 0.0000 0.0000 0.0000 15.7761 0.0000
# 6 0.0000 0.0000 0.0000 0.0000 0.0000 30.6487
#
#
#
# Elastic Compliance Matrix: (Units=1/GPa)
#
#
# Indices 1 2 3 4 5 6 
#
# 1 0.007264 -0.005353 -0.005021 0.000000 0.000000 0.000000
# 2 -0.005353 0.013216 -0.003294 0.000000 0.000000 0.000000
# 3 -0.005021 -0.003294 0.052653 0.000000 0.000000 0.000000
# 4 0.000000 0.000000 0.000000 0.039818 0.000000 0.000000
# 5 0.000000 0.000000 0.000000 0.000000 0.063387 0.000000
# 6 0.000000 0.000000 0.000000 0.000000 0.000000 0.032628
#
#
# Mechanical properties :
#
#
# Convention : Reuss Voigt Hill
#
# Bulk Modulus (GPa) = 21.83525 74.23599 48.03562
# Shear Modulus (GPa) = 19.87528 29.55677 24.71603
#
# Velocity S-wave (km/s) = 3.27514 3.99394 3.65227
# Velocity P-wave (km/s) = 5.10748 7.83156 6.61134
#
# Compressibility (1/GPa) = 0.04579751
#
# Stress axis : x y z
#
# Youngs Moduli (GPa) = 137.65603 75.66357 18.99238
#
# Poissons Ratio (x) = 0.40500 0.09536
# Poissons Ratio (y) = 0.73682 0.06257
# Poissons Ratio (z) = 0.69116 0.24927
#
# Static dielectric constant tensor:
#      x y z
#    x 1.661730 0.000000 0.000000 
#    y 0.000000 1.599890 0.000000 
#    z 0.000000 0.000000 1.652500 
# 
# From -- ./inp_files/7080.got.cif
#   From: 2010.05.17/outbox.cif.g08.bks.cpg/sg57_4_cif.got.tgz:7080.got - 2010.06.03 13:58:18.
