data_PCOD9437449
_publ_section_title
;
Structure prediction by ZEFSAII (Michael W. Deem and Ramdas Pophale) SiO2 
 PCOD9437449
Probable space group: P B C M
;
_chemical_formula_sum "Si O2"
_cell_formula_units_Z 32
_cell_length_a 5.029736
_cell_length_b 28.692858
_cell_length_c 9.399804
_cell_angle_alpha 90.000000
_cell_angle_beta 90.000000
_cell_angle_gamma 90.000000
_cell_volume 1356.556222
_symmetry_space_group_name_H-M "P B C M"
_symmetry_group_IT_number 57
_symmetry_cell_setting 'orthorhombic'
loop_
_space_group_symop_operation_xyz
x,y,z
-x,-y,1/2+z
x,1/2-y,-z
-x,1/2+y,1/2-z
-x,-y,-z
x,y,1/2-z
-x,1/2+y,z
x,1/2-y,1/2+z
loop_
_atom_site_type_symbol
_atom_site_label
_atom_site_fract_x
_atom_site_fract_y
_atom_site_fract_z
Si Si1 0.112966 0.836956 0.587296
Si Si2 0.374114 0.299150 0.075672
Si Si3 0.300176 0.938691 0.955421
Si Si4 0.196161 0.455230 0.105353
O O1 0.085342 0.817495 0.750000
O O2 0.340379 0.812651 0.491350
O O3 0.205650 0.890214 0.605579
O O4 0.845110 0.833369 0.494169
O O5 0.372520 0.298001 0.250000
O O6 0.303628 0.250000 0.000000
O O7 0.614300 0.938898 0.979217
O O8 0.109877 0.942758 0.092413
O O9 0.229256 0.988876 0.890178
O O10 0.306769 0.434259 0.250000
#
# Coordination Sequence:
#
# PCOD9437449 Si02
#       4
#     8   8   8   8
#     4  12  25  44  70 100 135 174 220 271 327 393
#     4  12  27  48  72 100 133 170 214 268 333 398
#     4  10  22  36  57  88 121 166 214 260 316 376
#     4  10  20  36  56  82 123 168 214 265 315 369
#
# _framework density 23.589144999999998
#
# number of rings (size 3 to 8) (size 9 to 14) (size 15 to 20)
#    0.000    1.000    0.000    6.750    0.000    6.000 
#    0.000    7.500    0.000    0.000    0.000    0.000 
#    0.000    0.000    0.000    0.000    0.000    0.000 
#
# Total GULP energy -178360.870635 kJ/mol
# GULP energy per Si atom -5573.777207 kJ/mol
# Density = 2.353546 g / cm^3
# Si number density = 23.589145 Si / 1000 Ang^3
#
#
#
# Elastic Constant Matrix: (Units=GPa)
#
#
# Indices 1 2 3 4 5 6 
#
# 1 89.5339 -5.5611 38.9647 0.0000 0.0000 0.0000
# 2 -5.5611 78.6927 21.2334 0.0000 0.0000 0.0000
# 3 38.9647 21.2334 198.1115 0.0000 0.0000 0.0000
# 4 0.0000 0.0000 0.0000 292.7130 0.0000 0.0000
# 5 0.0000 0.0000 0.0000 0.0000 16.2941 0.0000
# 6 0.0000 0.0000 0.0000 0.0000 0.0000 38.3357
#
#
#
# Elastic Compliance Matrix: (Units=1/GPa)
#
#
# Indices 1 2 3 4 5 6 
#
# 1 0.012402 0.001580 -0.002609 0.000000 0.000000 0.000000
# 2 0.001580 0.013287 -0.001735 0.000000 0.000000 0.000000
# 3 -0.002609 -0.001735 0.005747 0.000000 0.000000 0.000000
# 4 0.000000 0.000000 0.000000 0.003416 0.000000 0.000000
# 5 0.000000 0.000000 0.000000 0.000000 0.061372 0.000000
# 6 0.000000 0.000000 0.000000 0.000000 0.000000 0.026085
#
#
# Mechanical properties :
#
#
# Convention : Reuss Voigt Hill
#
# Bulk Modulus (GPa) = 38.59518 52.84578 45.72048
# Shear Modulus (GPa) = 36.63722 90.24865 63.44293
#
# Velocity S-wave (km/s) = 3.94526 6.19206 5.19166
# Velocity P-wave (km/s) = 6.09511 8.57749 7.44056
#
# Compressibility (1/GPa) = 0.02590997
#
# Stress axis : x y z
#
# Youngs Moduli (GPa) = 80.62956 75.25883 174.01313
#
# Poissons Ratio (x) = -0.11894 0.45395
# Poissons Ratio (y) = -0.12742 0.30191
# Poissons Ratio (z) = 0.21034 0.13057
#
# Static dielectric constant tensor:
#      x y z
#    x 1.831060 0.000000 0.000000 
#    y 0.000000 1.941080 0.000000 
#    z 0.000000 0.000000 1.909260 
# 
# From -- ./inp_files/834.got.cif
#   From: 2010.05.17/outbox.cif.g08.bks.cpg/sg57_1_cif.got.tgz:834.got - 2010.06.03 13:58:18.
