data_PCOD9437375
_publ_section_title
;
Structure prediction by ZEFSAII (Michael W. Deem and Ramdas Pophale) SiO2 
 PCOD9437375
Probable space group: P B C M
;
_chemical_formula_sum "Si O2"
_cell_formula_units_Z 40
_cell_length_a 26.916874
_cell_length_b 9.665984
_cell_length_c 8.590858
_cell_angle_alpha 90.000000
_cell_angle_beta 90.000000
_cell_angle_gamma 90.000000
_cell_volume 2235.152883
_symmetry_space_group_name_H-M "P B C M"
_symmetry_group_IT_number 57
_symmetry_cell_setting 'orthorhombic'
loop_
_space_group_symop_operation_xyz
x,y,z
-x,-y,1/2+z
x,1/2-y,-z
-x,1/2+y,1/2-z
-x,-y,-z
x,y,1/2-z
-x,1/2+y,z
x,1/2-y,1/2+z
loop_
_atom_site_type_symbol
_atom_site_label
_atom_site_fract_x
_atom_site_fract_y
_atom_site_fract_z
Si Si1 0.351846 0.592821 0.936925
Si Si2 0.955840 0.905912 0.436204
Si Si3 0.544454 0.407064 0.564370
Si Si4 0.150741 0.405344 0.562391
Si Si5 0.757287 0.405819 0.437554
O O1 0.356428 0.593482 0.750000
O O2 0.297425 0.535554 0.980847
O O3 0.350411 0.750000 0.000000
O O4 0.402166 0.533118 0.008947
O O5 0.961783 0.750000 0.500000
O O6 0.956049 0.903788 0.250000
O O7 0.902092 0.956227 0.496806
O O8 0.000000 0.000000 0.500000
O O9 0.540280 0.250000 0.500000
O O10 0.500000 0.500000 0.500000
O O11 0.543243 0.402054 0.750000
O O12 0.157684 0.250000 0.500000
O O13 0.148354 0.402621 0.750000
O O14 0.196792 0.500161 0.511832
O O15 0.762013 0.250000 0.500000
O O16 0.758120 0.399007 0.250000
#
# Coordination Sequence:
#
# PCOD9437375 Si02
#       5
#     8   8   8   8   8
#     4   9  16  30  50  74 102 135 171 213 259 308
#     4  11  22  38  58  81 107 140 177 218 263 313
#     4  11  21  35  54  78 105 138 175 217 264 315
#     4  10  20  36  54  77 107 141 175 212 258 312
#     4   9  19  33  53  78 105 134 172 216 258 304
#
# _framework density 17.895866999999999
#
# number of rings (size 3 to 8) (size 9 to 14) (size 15 to 20)
#    0.000    2.000    0.000    7.200    0.000    3.200 
#    0.000    3.000    0.000    2.400    0.000    0.000 
#    0.000    0.000    0.000    0.000    0.000    0.000 
#
# Total GULP energy -223152.926924 kJ/mol
# GULP energy per Si atom -5578.823173 kJ/mol
# Density = 1.785513 g / cm^3
# Si number density = 17.895867 Si / 1000 Ang^3
#
#
#
# Elastic Constant Matrix: (Units=GPa)
#
#
# Indices 1 2 3 4 5 6 
#
# 1 229.4205 80.0311 70.2007 0.0000 0.0000 0.0000
# 2 80.0311 48.7147 28.6762 0.0000 0.0000 0.0000
# 3 70.2007 28.6762 117.8518 0.0000 0.0000 0.0000
# 4 0.0000 0.0000 0.0000 26.6997 0.0000 0.0000
# 5 0.0000 0.0000 0.0000 0.0000 32.3336 0.0000
# 6 0.0000 0.0000 0.0000 0.0000 0.0000 39.3268
#
#
#
# Elastic Compliance Matrix: (Units=1/GPa)
#
#
# Indices 1 2 3 4 5 6 
#
# 1 0.010792 -0.016277 -0.002468 0.000000 0.000000 0.000000
# 2 -0.016277 0.048509 -0.002108 0.000000 0.000000 0.000000
# 3 -0.002468 -0.002108 0.010468 0.000000 0.000000 0.000000
# 4 0.000000 0.000000 0.000000 0.037454 0.000000 0.000000
# 5 0.000000 0.000000 0.000000 0.000000 0.030928 0.000000
# 6 0.000000 0.000000 0.000000 0.000000 0.000000 0.025428
#
#
# Mechanical properties :
#
#
# Convention : Reuss Voigt Hill
#
# Bulk Modulus (GPa) = 35.63273 83.75589 59.69431
# Shear Modulus (GPa) = 23.29498 34.14397 28.71948
#
# Velocity S-wave (km/s) = 3.61182 4.37272 4.01035
# Velocity P-wave (km/s) = 6.11130 8.50868 7.40762
#
# Compressibility (1/GPa) = 0.02806408
#
# Stress axis : x y z
#
# Youngs Moduli (GPa) = 92.66082 20.61464 95.52784
#
# Poissons Ratio (x) = 0.33554 0.23575
# Poissons Ratio (y) = 1.50824 0.20135
# Poissons Ratio (z) = 0.22868 0.04345
#
# Static dielectric constant tensor:
#      x y z
#    x 1.653290 0.000000 0.000000 
#    y 0.000000 1.568460 0.000000 
#    z 0.000000 0.000000 1.601960 
# 
# From -- ./inp_files/9829.got.cif
#   From: 2010.05.17/outbox.cif.g08.bks.cpg/sg57_5_cif.got.tgz:9829.got - 2010.06.03 13:58:18.
