data_PCOD9437517
_publ_section_title
;
Structure prediction by ZEFSAII (Michael W. Deem and Ramdas Pophale) SiO2 
 PCOD9437517
Probable space group: P B C M
;
_chemical_formula_sum "Si O2"
_cell_formula_units_Z 56
_cell_length_a 22.146069
_cell_length_b 14.906902
_cell_length_c 8.411463
_cell_angle_alpha 90.000000
_cell_angle_beta 90.000000
_cell_angle_gamma 90.000000
_cell_volume 2776.870226
_symmetry_space_group_name_H-M "P B C M"
_symmetry_group_IT_number 57
_symmetry_cell_setting 'orthorhombic'
loop_
_space_group_symop_operation_xyz
x,y,z
-x,-y,1/2+z
x,1/2-y,-z
-x,1/2+y,1/2-z
-x,-y,-z
x,y,1/2-z
-x,1/2+y,z
x,1/2-y,1/2+z
loop_
_atom_site_type_symbol
_atom_site_label
_atom_site_fract_x
_atom_site_fract_y
_atom_site_fract_z
Si Si1 0.346029 0.474422 0.560315
Si Si2 0.453784 0.351126 0.440902
Si Si3 0.842730 0.148366 0.940290
Si Si4 0.783309 0.975788 0.060788
Si Si5 0.893414 0.852903 0.057172
Si Si6 0.975500 0.353000 0.441818
Si Si7 0.409013 0.849787 0.441495
O O1 0.340718 0.475650 0.750000
O O2 0.402465 0.413506 0.512391
O O3 0.282590 0.443396 0.490201
O O4 0.362692 0.574753 0.502903
O O5 0.443860 0.250000 0.500000
O O6 0.450924 0.354604 0.250000
O O7 0.522413 0.375101 0.491263
O O8 0.842439 0.150652 0.750000
O O9 0.909614 0.114687 0.996887
O O10 0.833559 0.250000 0.000000
O O11 0.794840 0.076152 0.998566
O O12 0.786815 0.976844 0.250000
O O13 0.837423 0.912223 0.999646
O O14 0.892924 0.852164 0.250000
O O15 0.959496 0.890591 0.004812
O O16 0.888085 0.750000 0.000000
O O17 0.976886 0.250000 0.500000
O O18 0.975014 0.355728 0.250000
O O19 0.395805 0.750000 0.500000
O O20 0.408592 0.848790 0.250000
#
# Coordination Sequence:
#
# PCOD9437517 Si02
#       7
#     8   8   8   8   8   8   8
#     4  11  23  39  57  81 114 151 190 231 274 324
#     4  10  20  37  61  89 116 144 180 224 276 330
#     4  10  20  36  58  82 109 142 181 228 281 335
#     4  11  24  39  54  78 112 151 192 230 273 328
#     4   9  19  36  57  80 108 141 180 228 280 332
#     4   8  15  30  53  80 106 134 173 223 279 334
#     4   9  20  37  60  88 115 143 179 225 276 329
#
# _framework density 20.166588000000001
#
# number of rings (size 3 to 8) (size 9 to 14) (size 15 to 20)
#    0.000    2.286    0.000    2.143    0.000    5.143 
#    0.000    2.857    0.000    0.000    0.000    0.000 
#    0.000    0.000    0.000    0.000    0.000    0.000 
#
# Total GULP energy -312540.455074 kJ/mol
# GULP energy per Si atom -5581.079555 kJ/mol
# Density = 2.012069 g / cm^3
# Si number density = 20.166588 Si / 1000 Ang^3
#
#
#
# Elastic Constant Matrix: (Units=GPa)
#
#
# Indices 1 2 3 4 5 6 
#
# 1 49.6852 10.3659 5.9030 0.0000 0.0000 0.0000
# 2 10.3659 35.4133 -1.5949 0.0000 0.0000 0.0000
# 3 5.9030 -1.5949 24.8390 0.0000 0.0000 0.0000
# 4 0.0000 0.0000 0.0000 27.1154 0.0000 0.0000
# 5 0.0000 0.0000 0.0000 0.0000 4.8562 0.0000
# 6 0.0000 0.0000 0.0000 0.0000 0.0000 22.5140
#
#
#
# Elastic Compliance Matrix: (Units=1/GPa)
#
#
# Indices 1 2 3 4 5 6 
#
# 1 0.022216 -0.006760 -0.005714 0.000000 0.000000 0.000000
# 2 -0.006760 0.030377 0.003557 0.000000 0.000000 0.000000
# 3 -0.005714 0.003557 0.041845 0.000000 0.000000 0.000000
# 4 0.000000 0.000000 0.000000 0.036879 0.000000 0.000000
# 5 0.000000 0.000000 0.000000 0.000000 0.205921 0.000000
# 6 0.000000 0.000000 0.000000 0.000000 0.000000 0.044417
#
#
# Mechanical properties :
#
#
# Convention : Reuss Voigt Hill
#
# Bulk Modulus (GPa) = 13.05402 15.47616 14.26509
# Shear Modulus (GPa) = 11.76404 17.24801 14.50602
#
# Velocity S-wave (km/s) = 2.41787 2.92768 2.68490
# Velocity P-wave (km/s) = 3.77915 4.37256 4.08664
#
# Compressibility (1/GPa) = 0.07660474
#
# Stress axis : x y z
#
# Youngs Moduli (GPa) = 45.01269 32.91967 23.89744
#
# Poissons Ratio (x) = 0.22254 0.13654
# Poissons Ratio (y) = 0.30430 -0.08500
# Poissons Ratio (z) = 0.25719 -0.11710
#
# Static dielectric constant tensor:
#      x y z
#    x 1.739100 0.000000 0.000000 
#    y 0.000000 1.674840 0.000000 
#    z 0.000000 0.000000 1.685910 
# 
# From -- ./inp_files/8103.got.cif
#   From: 2010.05.17/outbox.cif.g08.bks.cpg/sg57_5_cif.got.tgz:8103.got - 2010.06.03 13:58:18.
