data_PCOD9437612
_publ_section_title
;
Structure prediction by ZEFSAII (Michael W. Deem and Ramdas Pophale) SiO2 
 PCOD9437612
Probable space group: P B C M
;
_chemical_formula_sum "Si O2"
_cell_formula_units_Z 32
_cell_length_a 10.023562
_cell_length_b 17.710352
_cell_length_c 10.292079
_cell_angle_alpha 90.000000
_cell_angle_beta 90.000000
_cell_angle_gamma 90.000000
_cell_volume 1827.058214
_symmetry_space_group_name_H-M "P B C M"
_symmetry_group_IT_number 57
_symmetry_cell_setting 'orthorhombic'
loop_
_space_group_symop_operation_xyz
x,y,z
-x,-y,1/2+z
x,1/2-y,-z
-x,1/2+y,1/2-z
-x,-y,-z
x,y,1/2-z
-x,1/2+y,z
x,1/2-y,1/2+z
loop_
_atom_site_type_symbol
_atom_site_label
_atom_site_fract_x
_atom_site_fract_y
_atom_site_fract_z
Si Si1 0.431736 0.894241 0.594517
Si Si2 0.731667 0.250000 0.500000
Si Si3 0.856481 0.007013 0.750000
Si Si4 0.133460 0.679734 0.750000
Si Si5 0.709475 0.548040 0.997030
Si Si6 0.122064 0.089607 0.750000
O O1 0.438899 0.894015 0.750000
O O2 0.359936 0.819528 0.544200
O O3 0.580000 0.904240 0.537676
O O4 0.346606 0.966938 0.549745
O O5 0.819694 0.277095 0.378123
O O6 0.802937 0.966350 0.621680
O O7 0.804521 0.094398 0.750000
O O8 0.016027 0.019506 0.750000
O O9 0.975990 0.661588 0.750000
O O10 0.789683 0.584317 0.878418
#
# Coordination Sequence:
#
# PCOD9437612 Si02
#       6
#     8   4   4   4   8   4
#     4  11  22  36  64  92 122 161 199 261 296 367
#     4  12  22  42  62  90 126 164 208 238 314 368
#     4  10  20  36  59  95 116 155 200 260 296 354
#     4  10  24  37  64  89 120 162 201 246 300 363
#     4  11  21  38  63  94 122 152 211 252 310 346
#     4  10  22  39  61  90 122 155 197 264 300 353
#
# _framework density 17.514493999999999
#
# number of rings (size 3 to 8) (size 9 to 14) (size 15 to 20)
#    0.750    0.500    6.250    0.750    0.000    1.000 
#    0.000    2.500    0.000    0.000    0.000    0.000 
#    0.000    0.000    0.000    0.000    0.000    0.000 
#
# Total GULP energy -178575.451790 kJ/mol
# GULP energy per Si atom -5580.482868 kJ/mol
# Density = 1.747463 g / cm^3
# Si number density = 17.514494 Si / 1000 Ang^3
#
#
#
# Elastic Constant Matrix: (Units=GPa)
#
#
# Indices 1 2 3 4 5 6 
#
# 1 86.7387 16.7817 68.8078 0.0000 0.0000 0.0000
# 2 16.7817 49.8160 38.3606 0.0000 0.0000 0.0000
# 3 68.8078 38.3606 185.8069 0.0000 0.0000 0.0000
# 4 0.0000 0.0000 0.0000 7.3111 0.0000 0.0000
# 5 0.0000 0.0000 0.0000 0.0000 31.4212 0.0000
# 6 0.0000 0.0000 0.0000 0.0000 0.0000 13.8582
#
#
#
# Elastic Compliance Matrix: (Units=1/GPa)
#
#
# Indices 1 2 3 4 5 6 
#
# 1 0.016367 -0.001006 -0.005853 0.000000 0.000000 0.000000
# 2 -0.001006 0.023930 -0.004568 0.000000 0.000000 0.000000
# 3 -0.005853 -0.004568 0.008493 0.000000 0.000000 0.000000
# 4 0.000000 0.000000 0.000000 0.136777 0.000000 0.000000
# 5 0.000000 0.000000 0.000000 0.000000 0.031826 0.000000
# 6 0.000000 0.000000 0.000000 0.000000 0.000000 0.072159
#
#
# Mechanical properties :
#
#
# Convention : Reuss Voigt Hill
#
# Bulk Modulus (GPa) = 38.55801 63.36241 50.96021
# Shear Modulus (GPa) = 15.57381 23.74554 19.65968
#
# Velocity S-wave (km/s) = 2.98517 3.68607 3.35398
# Velocity P-wave (km/s) = 5.82618 7.37372 6.64515
#
# Compressibility (1/GPa) = 0.02593495
#
# Stress axis : x y z
#
# Youngs Moduli (GPa) = 61.09946 41.78793 117.75068
#
# Poissons Ratio (x) = 0.04205 0.68921
# Poissons Ratio (y) = 0.06149 0.53787
# Poissons Ratio (z) = 0.35762 0.19088
#
# Static dielectric constant tensor:
#      x y z
#    x 1.581650 0.000000 0.000000 
#    y 0.000000 1.576150 0.000000 
#    z 0.000000 0.000000 1.564540 
# 
# From -- ./inp_files/11440.got.cif
#   From: 2010.05.17/outbox.cif.g08.bks.cpg/sg57_6_cif.got.tgz:11440.got - 2010.06.03 13:58:18.
