data_PCOD9437604
_publ_section_title
;
Structure prediction by ZEFSAII (Michael W. Deem and Ramdas Pophale) SiO2 
 PCOD9437604
Probable space group: P B C M
;
_chemical_formula_sum "Si O2"
_cell_formula_units_Z 64
_cell_length_a 24.502128
_cell_length_b 15.927588
_cell_length_c 8.500123
_cell_angle_alpha 90.000000
_cell_angle_beta 90.000000
_cell_angle_gamma 90.000000
_cell_volume 3317.256301
_symmetry_space_group_name_H-M "P B C M"
_symmetry_group_IT_number 57
_symmetry_cell_setting 'orthorhombic'
loop_
_space_group_symop_operation_xyz
x,y,z
-x,-y,1/2+z
x,1/2-y,-z
-x,1/2+y,1/2-z
-x,-y,-z
x,y,1/2-z
-x,1/2+y,z
x,1/2-y,1/2+z
loop_
_atom_site_type_symbol
_atom_site_label
_atom_site_fract_x
_atom_site_fract_y
_atom_site_fract_z
Si Si1 0.561368 0.341543 0.438763
Si Si2 0.438599 0.341542 0.561242
Si Si3 0.242872 0.997744 0.938461
Si Si4 0.940316 0.596002 0.559806
Si Si5 0.365780 0.499971 0.559608
Si Si6 0.175199 0.161020 0.560376
Si Si7 0.175794 0.839236 0.438104
Si Si8 0.939764 0.404870 0.059792
O O1 0.578919 0.250000 0.500000
O O2 0.559777 0.339342 0.250000
O O3 0.499985 0.356619 0.499986
O O4 0.600890 0.416876 0.489178
O O5 0.421075 0.250000 0.500000
O O6 0.440217 0.339407 0.750000
O O7 0.399071 0.416850 0.510724
O O8 0.240267 0.995055 0.750000
O O9 0.211140 0.081776 0.991933
O O10 0.305124 0.999773 0.993130
O O11 0.212114 0.916407 0.004194
O O12 0.939449 0.594836 0.750000
O O13 0.887297 0.646431 0.505215
O O14 0.934862 0.500315 0.500852
O O15 0.000345 0.627158 0.508816
O O16 0.363172 0.500113 0.750000
O O17 0.195852 0.250000 0.500000
O O18 0.175258 0.161988 0.750000
O O19 0.195783 0.750000 0.500000
O O20 0.175824 0.838351 0.250000
O O21 0.113357 0.854669 0.494680
O O22 0.939140 0.406429 0.250000
#
# Coordination Sequence:
#
# PCOD9437604 Si02
#       8
#     8   8   8   8   8   8   8   8
#     4  10  20  36  59  88 121 153 188 229 280 335
#     4  10  20  36  59  88 122 156 191 232 282 334
#     4  11  24  42  61  83 112 151 197 245 293 338
#     4   9  17  33  55  81 115 145 181 231 283 344
#     4  10  23  40  59  84 116 155 194 237 285 338
#     4  10  22  38  58  83 112 148 189 236 288 343
#     4  11  23  39  60  85 114 149 192 237 290 350
#     4   9  18  32  55  84 111 146 183 226 286 345
#
# _framework density 19.293051999999999
#
# number of rings (size 3 to 8) (size 9 to 14) (size 15 to 20)
#    0.000    2.000    1.250    2.625    0.000    5.500 
#    0.000    3.750    0.000    0.000    0.000    0.000 
#    0.000    0.000    0.000    0.000    0.000    0.000 
#
# Total GULP energy -357427.416796 kJ/mol
# GULP energy per Si atom -5584.803387 kJ/mol
# Density = 1.924914 g / cm^3
# Si number density = 19.293052 Si / 1000 Ang^3
#
#
#
# Elastic Constant Matrix: (Units=GPa)
#
#
# Indices 1 2 3 4 5 6 
#
# 1 136.4068 108.9997 33.3766 0.0000 0.0000 0.0000
# 2 108.9997 177.5935 33.8547 0.0000 0.0000 0.0000
# 3 33.3766 33.8547 26.1302 0.0000 0.0000 0.0000
# 4 0.0000 0.0000 0.0000 26.8530 0.0000 0.0000
# 5 0.0000 0.0000 0.0000 0.0000 17.9655 0.0000
# 6 0.0000 0.0000 0.0000 0.0000 0.0000 -0.6036
#
#
#
# Elastic Compliance Matrix: (Units=1/GPa)
#
#
# Indices 1 2 3 4 5 6 
#
# 1 0.016276 -0.008003 -0.010421 0.000000 0.000000 0.000000
# 2 -0.008003 0.011413 -0.004564 0.000000 0.000000 0.000000
# 3 -0.010421 -0.004564 0.057494 0.000000 0.000000 0.000000
# 4 0.000000 0.000000 0.000000 0.037240 0.000000 0.000000
# 5 0.000000 0.000000 0.000000 0.000000 0.055662 0.000000
# 6 0.000000 0.000000 0.000000 0.000000 0.000000 -1.656806
#
#
# Mechanical properties :
#
#
# Convention : Reuss Voigt Hill
#
# Bulk Modulus (GPa) = 25.50575 76.95472 51.23024
# Shear Modulus (GPa) = -3.52193 19.76962 8.12385
#
# Velocity S-wave (km/s) = -1.35257 3.20457 2.05424
# Velocity P-wave (km/s) = 3.28780 7.32572 5.67784
#
# Compressibility (1/GPa) = 0.03920684
#
# Stress axis : x y z
#
# Youngs Moduli (GPa) = 61.44125 87.62096 17.39310
#
# Poissons Ratio (x) = 0.70122 0.18125
# Poissons Ratio (y) = 0.49171 0.07939
# Poissons Ratio (z) = 0.64026 0.39993
#
# Static dielectric constant tensor:
#      x y z
#    x 1.667060 0.000000 0.000000 
#    y 0.000000 1.658480 0.000000 
#    z 0.000000 0.000000 1.654350 
# 
# From -- ./inp_files/9255.got.cif
#   From: 2010.05.17/outbox.cif.g08.bks.cpg/sg57_5_cif.got.tgz:9255.got - 2010.06.03 13:58:18.
