data_PCOD9437801
_publ_section_title
;
Structure prediction by ZEFSAII (Michael W. Deem and Ramdas Pophale) SiO2 
 PCOD9437801
Probable space group: P B C M
;
_chemical_formula_sum "Si O2"
_cell_formula_units_Z 56
_cell_length_a 20.564403
_cell_length_b 8.752267
_cell_length_c 15.165038
_cell_angle_alpha 90.000000
_cell_angle_beta 90.000000
_cell_angle_gamma 90.000000
_cell_volume 2729.481575
_symmetry_space_group_name_H-M "P B C M"
_symmetry_group_IT_number 57
_symmetry_cell_setting 'orthorhombic'
loop_
_space_group_symop_operation_xyz
x,y,z
-x,-y,1/2+z
x,1/2-y,-z
-x,1/2+y,1/2-z
-x,-y,-z
x,y,1/2-z
-x,1/2+y,z
x,1/2-y,1/2+z
loop_
_atom_site_type_symbol
_atom_site_label
_atom_site_fract_x
_atom_site_fract_y
_atom_site_fract_z
Si Si1 0.449584 0.577023 0.147473
Si Si2 0.782759 0.069014 0.480481
Si Si3 0.890109 0.349091 0.847860
Si Si4 0.348226 0.070211 0.517636
Si Si5 0.027951 0.375005 0.566939
Si Si6 0.154577 0.000472 0.346161
Si Si7 0.411277 0.930627 0.352282
O O1 0.434302 0.541716 0.250000
O O2 0.407094 0.475953 0.081700
O O3 0.525377 0.537765 0.135471
O O4 0.433637 0.755476 0.132640
O O5 0.772048 0.250000 0.500000
O O6 0.846330 0.060851 0.418287
O O7 0.798377 0.980123 0.571075
O O8 0.718308 0.995057 0.441216
O O9 0.889323 0.418048 0.750000
O O10 0.858419 0.181538 0.843749
O O11 0.963864 0.325493 0.879721
O O12 0.345848 0.250000 0.500000
O O13 0.359825 0.981959 0.425052
O O14 0.054682 0.250000 0.500000
O O15 0.084817 0.428126 0.630609
O O16 0.000000 0.500000 0.500000
O O17 0.177869 0.050809 0.250000
O O18 0.389660 0.943108 0.250000
#
# Coordination Sequence:
#
# PCOD9437801 Si02
#       7
#     8   8   8   8   8   8   8
#     4  10  21  39  64  93 124 158 199 247 298 355
#     4  10  21  40  59  80 112 157 203 249 293 351
#     4  10  20  37  60  86 116 153 195 240 294 354
#     4  12  25  39  60  87 123 162 203 249 302 357
#     4  12  20  36  61  86 120 151 187 240 295 352
#     4  10  21  38  61  87 114 150 195 242 298 355
#     4  10  21  39  64  93 124 158 199 248 300 355
#
# _framework density 20.516715999999999
#
# number of rings (size 3 to 8) (size 9 to 14) (size 15 to 20)
#    0.000    1.429    2.857    3.429    0.000    3.429 
#    0.000    2.857    0.000    0.000    0.000    0.000 
#    0.000    0.000    0.000    0.000    0.000    0.000 
#
# Total GULP energy -312791.898518 kJ/mol
# GULP energy per Si atom -5585.569616 kJ/mol
# Density = 2.047002 g / cm^3
# Si number density = 20.516716 Si / 1000 Ang^3
#
#
#
# Elastic Constant Matrix: (Units=GPa)
#
#
# Indices 1 2 3 4 5 6 
#
# 1 53.0320 -1.7851 17.3388 0.0000 0.0000 0.0000
# 2 -1.7851 53.4705 13.7315 0.0000 0.0000 0.0000
# 3 17.3388 13.7315 89.0086 0.0000 0.0000 0.0000
# 4 0.0000 0.0000 0.0000 19.9144 0.0000 0.0000
# 5 0.0000 0.0000 0.0000 0.0000 6.8758 0.0000
# 6 0.0000 0.0000 0.0000 0.0000 0.0000 20.8300
#
#
#
# Elastic Compliance Matrix: (Units=1/GPa)
#
#
# Indices 1 2 3 4 5 6 
#
# 1 0.020298 0.001763 -0.004226 0.000000 0.000000 0.000000
# 2 0.001763 0.019626 -0.003371 0.000000 0.000000 0.000000
# 3 -0.004226 -0.003371 0.012578 0.000000 0.000000 0.000000
# 4 0.000000 0.000000 0.000000 0.050215 0.000000 0.000000
# 5 0.000000 0.000000 0.000000 0.000000 0.145439 0.000000
# 6 0.000000 0.000000 0.000000 0.000000 0.000000 0.048008
#
#
# Mechanical properties :
#
#
# Convention : Reuss Voigt Hill
#
# Bulk Modulus (GPa) = 24.48961 28.23129 26.36045
# Shear Modulus (GPa) = 15.55485 20.60575 18.08030
#
# Velocity S-wave (km/s) = 2.75645 3.17257 2.97180
# Velocity P-wave (km/s) = 4.70032 5.21635 4.96504
#
# Compressibility (1/GPa) = 0.04083365
#
# Stress axis : x y z
#
# Youngs Moduli (GPa) = 49.26703 50.95156 79.50285
#
# Poissons Ratio (x) = -0.08982 0.33597
# Poissons Ratio (y) = -0.08685 0.26802
# Poissons Ratio (z) = 0.20820 0.17177
#
# Static dielectric constant tensor:
#      x y z
#    x 1.709100 0.000000 0.000000 
#    y 0.000000 1.711700 0.000000 
#    z 0.000000 0.000000 1.753680 
# 
# From -- ./inp_files/19322.got.cif
#   From: 2010.05.17/outbox.cif.g08.bks.cpg/sg57_10_cif.got.tgz:19322.got - 2010.06.03 13:58:18.
