data_PCOD9437752
_publ_section_title
;
Structure prediction by ZEFSAII (Michael W. Deem and Ramdas Pophale) SiO2 
 PCOD9437752
Probable space group: P B C M
;
_chemical_formula_sum "Si O2"
_cell_formula_units_Z 64
_cell_length_a 29.088680
_cell_length_b 5.537262
_cell_length_c 18.675084
_cell_angle_alpha 90.000000
_cell_angle_beta 90.000000
_cell_angle_gamma 90.000000
_cell_volume 3008.026452
_symmetry_space_group_name_H-M "P B C M"
_symmetry_group_IT_number 57
_symmetry_cell_setting 'orthorhombic'
loop_
_space_group_symop_operation_xyz
x,y,z
-x,-y,1/2+z
x,1/2-y,-z
-x,1/2+y,1/2-z
-x,-y,-z
x,y,1/2-z
-x,1/2+y,z
x,1/2-y,1/2+z
loop_
_atom_site_type_symbol
_atom_site_label
_atom_site_fract_x
_atom_site_fract_y
_atom_site_fract_z
Si Si1 0.656580 0.532515 0.580137
Si Si2 0.620952 0.471625 0.084861
Si Si3 0.890985 0.292202 0.670862
Si Si4 0.022722 0.491163 0.663435
Si Si5 0.250223 0.627528 0.070187
Si Si6 0.471427 0.914714 0.333346
Si Si7 0.156232 0.128602 0.928271
Si Si8 0.795342 0.019630 0.828841
O O1 0.634883 0.504362 0.499524
O O2 0.647380 0.267174 0.612106
O O3 0.711682 0.573893 0.584638
O O4 0.633961 0.765661 0.615697
O O5 0.568610 0.424747 0.107329
O O6 0.905952 0.382046 0.750000
O O7 0.925182 0.077924 0.649083
O O8 0.885001 0.498379 0.612719
O O9 0.839424 0.195494 0.677578
O O10 0.018703 0.479097 0.750000
O O11 0.007059 0.225625 0.638261
O O12 0.199164 0.540762 0.049934
O O13 0.243022 0.824036 0.131765
O O14 0.270412 0.750000 0.000000
O O15 0.454279 0.917410 0.250000
O O16 0.498680 0.660786 0.341616
O O17 0.183336 0.306519 0.875337
O O18 0.138976 0.250000 0.000000
O O19 0.781841 0.935752 0.750000
#
# Coordination Sequence:
#
# PCOD9437752 Si02
#       8
#     8   8   8   8   8   8   8   8
#     4  10  22  36  61  82 122 155 194 244 301 352
#     4  10  20  37  58  90 115 154 194 243 292 359
#     4   9  20  36  54  83 121 152 190 256 316 358
#     4   9  18  32  55  85 114 151 198 244 303 378
#     4  11  21  38  60  84 118 165 208 247 307 364
#     4  10  21  39  63  86 118 160 200 247 300 359
#     4  11  22  33  61  85 111 159 209 255 296 372
#     4  10  22  38  58  86 119 153 200 259 311 358
#
# _framework density 21.276408
#
# number of rings (size 3 to 8) (size 9 to 14) (size 15 to 20)
#    0.000    2.000    2.500    1.125    5.250    0.500 
#    0.000    8.750    0.000    0.750    0.000    0.000 
#    0.000    0.000    0.000    0.000    0.000    0.000 
#
# Total GULP energy -356568.144362 kJ/mol
# GULP energy per Si atom -5571.377256 kJ/mol
# Density = 2.122798 g / cm^3
# Si number density = 21.276408 Si / 1000 Ang^3
#
#
#
# Elastic Constant Matrix: (Units=GPa)
#
#
# Indices 1 2 3 4 5 6 
#
# 1 75.8932 5.9429 7.2658 0.0000 0.0000 0.0000
# 2 5.9429 97.9638 11.3754 0.0000 0.0000 0.0000
# 3 7.2658 11.3754 54.7309 0.0000 0.0000 0.0000
# 4 0.0000 0.0000 0.0000 19.9264 0.0000 0.0000
# 5 0.0000 0.0000 0.0000 0.0000 15.6001 0.0000
# 6 0.0000 0.0000 0.0000 0.0000 0.0000 71.5337
#
#
#
# Elastic Compliance Matrix: (Units=1/GPa)
#
#
# Indices 1 2 3 4 5 6 
#
# 1 0.013383 -0.000621 -0.001648 0.000000 0.000000 0.000000
# 2 -0.000621 0.010489 -0.002098 0.000000 0.000000 0.000000
# 3 -0.001648 -0.002098 0.018926 0.000000 0.000000 0.000000
# 4 0.000000 0.000000 0.000000 0.050185 0.000000 0.000000
# 5 0.000000 0.000000 0.000000 0.000000 0.064102 0.000000
# 6 0.000000 0.000000 0.000000 0.000000 0.000000 0.013979
#
#
# Mechanical properties :
#
#
# Convention : Reuss Voigt Hill
#
# Bulk Modulus (GPa) = 29.35480 30.86180 30.10830
# Shear Modulus (GPa) = 26.15732 35.01230 30.58481
#
# Velocity S-wave (km/s) = 3.51009 4.06099 3.79555
# Velocity P-wave (km/s) = 5.50041 6.04364 5.77841
#
# Compressibility (1/GPa) = 0.03406598
#
# Stress axis : x y z
#
# Youngs Moduli (GPa) = 74.72307 95.33730 52.83757
#
# Poissons Ratio (x) = 0.05916 0.08706
# Poissons Ratio (y) = 0.04637 0.11084
# Poissons Ratio (z) = 0.12312 0.19999
#
# Static dielectric constant tensor:
#      x y z
#    x 1.769260 0.000000 0.000000 
#    y 0.000000 1.883250 0.000000 
#    z 0.000000 0.000000 1.656320 
# 
# From -- ./inp_files/23196.got.cif
#   From: 2010.05.17/outbox.cif.g08.bks.cpg/sg57_12_cif.got.tgz:23196.got - 2010.06.03 13:58:18.
