data_PCOD9437204
_publ_section_title
;
Structure prediction by ZEFSAII (Michael W. Deem and Ramdas Pophale) SiO2 
 PCOD9437204
Probable space group: P B C M
;
_chemical_formula_sum "Si O2"
_cell_formula_units_Z 64
_cell_length_a 12.193988
_cell_length_b 31.881189
_cell_length_c 8.698410
_cell_angle_alpha 90.000000
_cell_angle_beta 90.000000
_cell_angle_gamma 90.000000
_cell_volume 3381.583747
_symmetry_space_group_name_H-M "P B C M"
_symmetry_group_IT_number 57
_symmetry_cell_setting 'orthorhombic'
loop_
_space_group_symop_operation_xyz
x,y,z
-x,-y,1/2+z
x,1/2-y,-z
-x,1/2+y,1/2-z
-x,-y,-z
x,y,1/2-z
-x,1/2+y,z
x,1/2-y,1/2+z
loop_
_atom_site_type_symbol
_atom_site_label
_atom_site_fract_x
_atom_site_fract_y
_atom_site_fract_z
Si Si1 0.002063 0.204125 0.566958
Si Si2 0.995041 0.952567 0.432734
Si Si3 0.128329 0.875033 0.567210
Si Si4 0.360847 0.886216 0.066154
Si Si5 0.406977 0.131493 0.067448
Si Si6 0.738109 0.795232 0.067113
Si Si7 0.613123 0.017573 0.934513
Si Si8 0.238302 0.057758 0.434948
O O1 0.971295 0.250000 0.500000
O O2 0.983618 0.204250 0.750000
O O3 0.132223 0.198414 0.538956
O O4 0.940460 0.164803 0.492735
O O5 0.008212 0.955147 0.250000
O O6 0.082122 0.918805 0.497201
O O7 0.875240 0.934805 0.479135
O O8 0.000000 0.000000 0.500000
O O9 0.120276 0.877708 0.750000
O O10 0.253348 0.868325 0.514087
O O11 0.347996 0.884007 0.250000
O O12 0.368513 0.934952 0.017360
O O13 0.476651 0.867000 0.016634
O O14 0.425291 0.130421 0.250000
O O15 0.334772 0.090439 0.026487
O O16 0.332468 0.170169 0.018369
O O17 0.719778 0.796995 0.250000
O O18 0.709117 0.750000 0.000000
O O19 0.605295 0.016329 0.750000
O O20 0.714025 0.987739 0.977489
O O21 0.500000 0.000000 0.000000
O O22 0.219664 0.059665 0.250000
#
# Coordination Sequence:
#
# PCOD9437204 Si02
#       8
#     8   8   8   8   8   8   8   8
#     4  10  21  40  67  98 128 160 202 252 307 370
#     4  12  25  41  61  87 121 162 207 256 310 369
#     4  12  25  42  64  90 123 165 209 257 313 371
#     4  11  23  39  60  86 120 162 206 252 299 356
#     4  11  22  37  59  87 120 156 196 241 292 350
#     4  10  21  38  62  91 122 154 191 238 296 357
#     4  10  20  35  56  82 114 154 198 245 293 346
#     4  10  21  37  58  86 119 155 197 246 297 352
#
# _framework density 18.926043
#
# number of rings (size 3 to 8) (size 9 to 14) (size 15 to 20)
#    0.000    1.250    1.250    5.250    0.000    6.500 
#    0.000    0.625    0.000    0.000    0.000    0.000 
#    0.000    0.000    0.000    0.000    0.000    0.000 
#
# Total GULP energy -357829.320796 kJ/mol
# GULP energy per Si atom -5591.083137 kJ/mol
# Density = 1.888297 g / cm^3
# Si number density = 18.926043 Si / 1000 Ang^3
#
#
#
# Elastic Constant Matrix: (Units=GPa)
#
#
# Indices 1 2 3 4 5 6 
#
# 1 76.6196 31.1931 43.6578 0.0000 0.0000 0.0000
# 2 31.1931 99.4208 45.5683 0.0000 0.0000 0.0000
# 3 43.6578 45.5683 84.6392 0.0000 0.0000 0.0000
# 4 0.0000 0.0000 0.0000 31.7503 0.0000 0.0000
# 5 0.0000 0.0000 0.0000 0.0000 32.9543 0.0000
# 6 0.0000 0.0000 0.0000 0.0000 0.0000 66.2583
#
#
#
# Elastic Compliance Matrix: (Units=1/GPa)
#
#
# Indices 1 2 3 4 5 6 
#
# 1 0.018758 -0.001926 -0.008639 0.000000 0.000000 0.000000
# 2 -0.001926 0.013551 -0.006302 0.000000 0.000000 0.000000
# 3 -0.008639 -0.006302 0.019664 0.000000 0.000000 0.000000
# 4 0.000000 0.000000 0.000000 0.031496 0.000000 0.000000
# 5 0.000000 0.000000 0.000000 0.000000 0.030345 0.000000
# 6 0.000000 0.000000 0.000000 0.000000 0.000000 0.015092
#
#
# Mechanical properties :
#
#
# Convention : Reuss Voigt Hill
#
# Bulk Modulus (GPa) = 54.82711 55.72423 55.27567
# Shear Modulus (GPa) = 29.63503 35.54326 32.58914
#
# Velocity S-wave (km/s) = 3.96135 4.33830 4.15410
# Velocity P-wave (km/s) = 7.06789 7.38928 7.23038
#
# Compressibility (1/GPa) = 0.01823915
#
# Stress axis : x y z
#
# Youngs Moduli (GPa) = 53.31118 73.79492 50.85484
#
# Poissons Ratio (x) = 0.14211 0.43932
# Poissons Ratio (y) = 0.10267 0.32050
# Poissons Ratio (z) = 0.46054 0.46508
#
# Static dielectric constant tensor:
#      x y z
#    x 1.653660 0.000000 0.000000 
#    y 0.000000 1.652110 0.000000 
#    z 0.000000 0.000000 1.636010 
# 
# From -- ./inp_files/3892.got.cif
#   From: 2010.05.17/outbox.cif.g08.bks.cpg/sg57_2_cif.got.tgz:3892.got - 2010.06.03 13:58:18.
