data_PCOD9437269
_publ_section_title
;
Structure prediction by ZEFSAII (Michael W. Deem and Ramdas Pophale) SiO2 
 PCOD9437269
Probable space group: P B C M
;
_chemical_formula_sum "Si O2"
_cell_formula_units_Z 56
_cell_length_a 24.405426
_cell_length_b 5.105728
_cell_length_c 20.858670
_cell_angle_alpha 90.000000
_cell_angle_beta 90.000000
_cell_angle_gamma 90.000000
_cell_volume 2599.146031
_symmetry_space_group_name_H-M "P B C M"
_symmetry_group_IT_number 57
_symmetry_cell_setting 'orthorhombic'
loop_
_space_group_symop_operation_xyz
x,y,z
-x,-y,1/2+z
x,1/2-y,-z
-x,1/2+y,1/2-z
-x,-y,-z
x,y,1/2-z
-x,1/2+y,z
x,1/2-y,1/2+z
loop_
_atom_site_type_symbol
_atom_site_label
_atom_site_fract_x
_atom_site_fract_y
_atom_site_fract_z
Si Si1 0.690357 0.062150 0.938468
Si Si2 0.653896 0.929400 0.127915
Si Si3 0.233176 0.076160 0.818559
Si Si4 0.129828 0.423415 0.678373
Si Si5 0.532181 0.687434 0.827210
Si Si6 0.810887 0.305784 0.073332
Si Si7 0.969918 0.548337 0.673011
O O1 0.666359 0.264348 0.885484
O O2 0.756020 0.015389 0.933963
O O3 0.662785 0.780035 0.929735
O O4 0.682597 0.250000 0.000000
O O5 0.703617 0.848148 0.174845
O O6 0.592964 0.888299 0.152145
O O7 0.225726 0.929177 0.750000
O O8 0.191070 0.313365 0.815052
O O9 0.214784 0.922988 0.882273
O O10 0.113960 0.530291 0.750000
O O11 0.137985 0.600800 0.616098
O O12 0.088496 0.185636 0.663172
O O13 0.531522 0.689960 0.750000
O O14 0.488819 0.469179 0.849714
O O15 0.827060 0.250000 0.000000
O O16 0.974893 0.529075 0.750000
O O17 0.985048 0.259939 0.649289
#
# Coordination Sequence:
#
# PCOD9437269 Si02
#       7
#     8   8   8   8   8   8   8
#     4  10  21  36  57  83 115 152 193 235 285 350
#     4  11  20  37  59  84 115 151 188 238 292 352
#     4  10  21  35  56  89 120 150 189 247 310 355
#     4  10  20  35  57  86 120 151 190 250 301 345
#     4  10  21  37  57  82 111 147 188 231 286 354
#     4  10  21  36  55  83 119 161 198 235 294 371
#     4   9  19  34  55  82 114 155 199 240 290 350
#
# _framework density 21.545538000000001
#
# number of rings (size 3 to 8) (size 9 to 14) (size 15 to 20)
#    0.000    2.000    1.429    2.143    2.000    0.571 
#    0.000    1.429    0.000    9.429    0.000    0.000 
#    0.000    0.000    0.000    0.000    0.000    0.000 
#
# Total GULP energy -311979.653755 kJ/mol
# GULP energy per Si atom -5571.065246 kJ/mol
# Density = 2.149650 g / cm^3
# Si number density = 21.545538 Si / 1000 Ang^3
#
#
#
# Elastic Constant Matrix: (Units=GPa)
#
#
# Indices 1 2 3 4 5 6 
#
# 1 84.9479 -0.8332 12.0548 0.0000 0.0000 0.0000
# 2 -0.8332 63.5484 12.4151 0.0000 0.0000 0.0000
# 3 12.0548 12.4151 104.9621 0.0000 0.0000 0.0000
# 4 0.0000 0.0000 0.0000 17.7666 0.0000 0.0000
# 5 0.0000 0.0000 0.0000 0.0000 11.3695 0.0000
# 6 0.0000 0.0000 0.0000 0.0000 0.0000 34.1625
#
#
#
# Elastic Compliance Matrix: (Units=1/GPa)
#
#
# Indices 1 2 3 4 5 6 
#
# 1 0.011979 0.000436 -0.001427 0.000000 0.000000 0.000000
# 2 0.000436 0.016124 -0.001957 0.000000 0.000000 0.000000
# 3 -0.001427 -0.001957 0.009923 0.000000 0.000000 0.000000
# 4 0.000000 0.000000 0.000000 0.056285 0.000000 0.000000
# 5 0.000000 0.000000 0.000000 0.000000 0.087955 0.000000
# 6 0.000000 0.000000 0.000000 0.000000 0.000000 0.029272
#
#
# Mechanical properties :
#
#
# Convention : Reuss Voigt Hill
#
# Bulk Modulus (GPa) = 31.12529 33.41466 32.26997
# Shear Modulus (GPa) = 21.91596 27.98116 24.94856
#
# Velocity S-wave (km/s) = 3.19281 3.60766 3.40655
# Velocity P-wave (km/s) = 5.29808 5.73551 5.52113
#
# Compressibility (1/GPa) = 0.03212822
#
# Stress axis : x y z
#
# Youngs Moduli (GPa) = 83.48118 62.01885 100.77923
#
# Poissons Ratio (x) = -0.02703 0.14384
# Poissons Ratio (y) = -0.03639 0.19725
# Poissons Ratio (z) = 0.11915 0.12139
#
# Static dielectric constant tensor:
#      x y z
#    x 1.778920 0.000000 0.000000 
#    y 0.000000 1.854910 0.000000 
#    z 0.000000 0.000000 1.894970 
# 
# From -- ./inp_files/25810.got.cif
#   From: 2010.05.17/outbox.cif.g08.bks.cpg/sg57_13_cif.got.tgz:25810.got - 2010.06.03 13:58:18.
