data_PCOD9437378
_publ_section_title
;
Structure prediction by ZEFSAII (Michael W. Deem and Ramdas Pophale) SiO2 
 PCOD9437378
Probable space group: P B C M
;
_chemical_formula_sum "Si O2"
_cell_formula_units_Z 40
_cell_length_a 9.629675
_cell_length_b 26.867891
_cell_length_c 8.775196
_cell_angle_alpha 90.000000
_cell_angle_beta 90.000000
_cell_angle_gamma 90.000000
_cell_volume 2270.398197
_symmetry_space_group_name_H-M "P B C M"
_symmetry_group_IT_number 57
_symmetry_cell_setting 'orthorhombic'
loop_
_space_group_symop_operation_xyz
x,y,z
-x,-y,1/2+z
x,1/2-y,-z
-x,1/2+y,1/2-z
-x,-y,-z
x,y,1/2-z
-x,1/2+y,z
x,1/2-y,1/2+z
loop_
_atom_site_type_symbol
_atom_site_label
_atom_site_fract_x
_atom_site_fract_y
_atom_site_fract_z
Si Si1 0.334018 0.603070 0.432733
Si Si2 0.851828 0.302570 0.933437
Si Si3 0.159968 0.197515 0.568326
Si Si4 0.339199 0.109236 0.433264
Si Si5 0.344721 0.999177 0.067958
O O1 0.328284 0.597743 0.250000
O O2 0.245174 0.651137 0.476625
O O3 0.496622 0.610448 0.472681
O O4 0.280026 0.551544 0.504736
O O5 0.858326 0.299475 0.750000
O O6 0.800031 0.250000 0.000000
O O7 0.006183 0.310045 0.999223
O O8 0.211952 0.250000 0.500000
O O9 0.151493 0.201190 0.750000
O O10 0.256603 0.152270 0.517093
O O11 0.327611 0.115815 0.250000
O O12 0.284429 0.053551 0.471516
O O13 0.353065 0.996633 0.250000
O O14 0.500000 0.000000 0.000000
#
# Coordination Sequence:
#
# PCOD9437378 Si02
#       5
#     8   8   8   8   8
#     4   9  19  34  54  79 106 134 168 210 255 300
#     4  10  20  36  55  75 102 136 170 210 257 305
#     4  11  22  36  54  75 100 135 173 210 254 305
#     4   9  18  34  53  77 106 134 167 209 252 297
#     4   9  17  30  51  76 105 137 168 205 252 301
#
# _framework density 17.618054999999998
#
# number of rings (size 3 to 8) (size 9 to 14) (size 15 to 20)
#    0.000    2.400    0.000    5.400    0.000    6.400 
#    0.000    3.000    0.000    0.000    0.000    0.000 
#    0.000    0.000    0.000    0.000    0.000    0.000 
#
# Total GULP energy -223041.239644 kJ/mol
# GULP energy per Si atom -5576.030991 kJ/mol
# Density = 1.757796 g / cm^3
# Si number density = 17.618055 Si / 1000 Ang^3
#
#
#
# Elastic Constant Matrix: (Units=GPa)
#
#
# Indices 1 2 3 4 5 6 
#
# 1 39.8930 70.8598 29.7777 0.0000 0.0000 0.0000
# 2 70.8598 211.9223 72.0458 0.0000 0.0000 0.0000
# 3 29.7777 72.0458 65.6274 0.0000 0.0000 0.0000
# 4 0.0000 0.0000 0.0000 37.4427 0.0000 0.0000
# 5 0.0000 0.0000 0.0000 0.0000 23.0279 0.0000
# 6 0.0000 0.0000 0.0000 0.0000 0.0000 -106.9227
#
#
#
# Elastic Compliance Matrix: (Units=1/GPa)
#
#
# Indices 1 2 3 4 5 6 
#
# 1 0.064879 -0.018644 -0.008971 0.000000 0.000000 0.000000
# 2 -0.018644 0.012886 -0.005687 0.000000 0.000000 0.000000
# 3 -0.008971 -0.005687 0.025551 0.000000 0.000000 0.000000
# 4 0.000000 0.000000 0.000000 0.026707 0.000000 0.000000
# 5 0.000000 0.000000 0.000000 0.000000 0.043426 0.000000
# 6 0.000000 0.000000 0.000000 0.000000 0.000000 -0.009353
#
#
# Mechanical properties :
#
#
# Convention : Reuss Voigt Hill
#
# Bulk Modulus (GPa) = 27.23839 73.64546 50.44192
# Shear Modulus (GPa) = 20.58145 0.36020 10.47083
#
# Velocity S-wave (km/s) = 3.42161 0.45265 2.44052
# Velocity P-wave (km/s) = 5.57709 6.49346 6.05264
#
# Compressibility (1/GPa) = 0.03671289
#
# Stress axis : x y z
#
# Youngs Moduli (GPa) = 15.41328 77.60494 39.13735
#
# Poissons Ratio (x) = 1.44683 0.35111
# Poissons Ratio (y) = 0.28736 0.22256
# Poissons Ratio (z) = 0.13828 0.44132
#
# Static dielectric constant tensor:
#      x y z
#    x 1.580530 0.000000 0.000000 
#    y 0.000000 1.636190 0.000000 
#    z 0.000000 0.000000 1.589510 
# 
# From -- ./inp_files/1745.got.cif
#   From: 2010.05.17/outbox.cif.g08.bks.cpg/sg57_1_cif.got.tgz:1745.got - 2010.06.03 13:58:18.
