data_PCOD9437191
_publ_section_title
;
Structure prediction by ZEFSAII (Michael W. Deem and Ramdas Pophale) SiO2 
 PCOD9437191
Probable space group: P B C M
;
_chemical_formula_sum "Si O2"
_cell_formula_units_Z 48
_cell_length_a 9.841880
_cell_length_b 31.104658
_cell_length_c 8.827853
_cell_angle_alpha 90.000000
_cell_angle_beta 90.000000
_cell_angle_gamma 90.000000
_cell_volume 2702.455733
_symmetry_space_group_name_H-M "P B C M"
_symmetry_group_IT_number 57
_symmetry_cell_setting 'orthorhombic'
loop_
_space_group_symop_operation_xyz
x,y,z
-x,-y,1/2+z
x,1/2-y,-z
-x,1/2+y,1/2-z
-x,-y,-z
x,y,1/2-z
-x,1/2+y,z
x,1/2-y,1/2+z
loop_
_atom_site_type_symbol
_atom_site_label
_atom_site_fract_x
_atom_site_fract_y
_atom_site_fract_z
Si Si1 0.801391 0.703145 0.568786
Si Si2 0.355921 0.514700 0.430746
Si Si3 0.690331 0.108446 0.568685
Si Si4 0.788693 0.935879 0.929462
Si Si5 0.419683 0.142358 0.069729
Si Si6 0.002127 0.873636 0.431291
O O1 0.821539 0.750000 0.500000
O O2 0.792749 0.705708 0.750000
O O3 0.665961 0.680819 0.503542
O O4 0.923477 0.670263 0.528796
O O5 0.500000 0.500000 0.500000
O O6 0.366699 0.516853 0.250000
O O7 0.320053 0.561059 0.497559
O O8 0.246930 0.479077 0.481783
O O9 0.675855 0.105488 0.750000
O O10 0.567074 0.136016 0.501595
O O11 0.838947 0.127124 0.533177
O O12 0.793324 0.944202 0.750000
O O13 0.667807 0.901252 0.958631
O O14 0.924743 0.912398 0.985278
O O15 0.428232 0.147985 0.250000
O O16 0.986896 0.879974 0.250000
#
# Coordination Sequence:
#
# PCOD9437191 Si02
#       6
#     8   8   8   8   8   8
#     4  10  20  38  63  88 113 142 183 229 278 340
#     4  12  23  35  54  80 112 151 196 242 286 334
#     4  11  22  37  57  82 115 153 191 236 287 336
#     4  10  20  35  56  81 110 148 194 238 280 330
#     4  10  20  35  57  84 113 145 186 231 279 334
#     4   9  21  39  58  82 114 152 190 230 284 342
#
# _framework density 17.761621999999999
#
# number of rings (size 3 to 8) (size 9 to 14) (size 15 to 20)
#    0.000    1.667    1.667    3.500    0.000    4.000 
#    0.000    0.833    0.000    2.000    0.000    0.000 
#    0.000    0.000    0.000    0.000    0.000    0.000 
#
# Total GULP energy -268215.069266 kJ/mol
# GULP energy per Si atom -5587.813943 kJ/mol
# Density = 1.772120 g / cm^3
# Si number density = 17.761622 Si / 1000 Ang^3
#
#
#
# Elastic Constant Matrix: (Units=GPa)
#
#
# Indices 1 2 3 4 5 6 
#
# 1 142.3626 57.2614 61.5137 0.0000 0.0000 0.0000
# 2 57.2614 109.3926 47.6321 0.0000 0.0000 0.0000
# 3 61.5137 47.6321 76.1404 0.0000 0.0000 0.0000
# 4 0.0000 0.0000 0.0000 32.1461 0.0000 0.0000
# 5 0.0000 0.0000 0.0000 0.0000 27.1067 0.0000
# 6 0.0000 0.0000 0.0000 0.0000 0.0000 15.0928
#
#
#
# Elastic Compliance Matrix: (Units=1/GPa)
#
#
# Indices 1 2 3 4 5 6 
#
# 1 0.011333 -0.002674 -0.007483 0.000000 0.000000 0.000000
# 2 -0.002674 0.013195 -0.006094 0.000000 0.000000 0.000000
# 3 -0.007483 -0.006094 0.022992 0.000000 0.000000 0.000000
# 4 0.000000 0.000000 0.000000 0.031108 0.000000 0.000000
# 5 0.000000 0.000000 0.000000 0.000000 0.036891 0.000000
# 6 0.000000 0.000000 0.000000 0.000000 0.000000 0.066257
#
#
# Mechanical properties :
#
#
# Convention : Reuss Voigt Hill
#
# Bulk Modulus (GPa) = 66.59152 73.41222 70.00187
# Shear Modulus (GPa) = 22.80147 25.63500 24.21823
#
# Velocity S-wave (km/s) = 3.58683 3.80317 3.69659
# Velocity P-wave (km/s) = 7.39777 7.79148 7.59718
#
# Compressibility (1/GPa) = 0.01501693
#
# Stress axis : x y z
#
# Youngs Moduli (GPa) = 88.23506 75.78896 43.49390
#
# Poissons Ratio (x) = 0.20266 0.32548
# Poissons Ratio (y) = 0.23594 0.26505
# Poissons Ratio (z) = 0.66030 0.46186
#
# Static dielectric constant tensor:
#      x y z
#    x 1.601710 0.000000 0.000000 
#    y 0.000000 1.578020 0.000000 
#    z 0.000000 0.000000 1.590790 
# 
# From -- ./inp_files/1988.got.cif
#   From: 2010.05.17/outbox.cif.g08.bks.cpg/sg57_1_cif.got.tgz:1988.got - 2010.06.03 13:58:18.
