data_PCOD9437583
_publ_section_title
;
Structure prediction by ZEFSAII (Michael W. Deem and Ramdas Pophale) SiO2 
 PCOD9437583
Probable space group: P B C M
;
_chemical_formula_sum "Si O2"
_cell_formula_units_Z 48
_cell_length_a 31.332085
_cell_length_b 9.332686
_cell_length_c 8.738355
_cell_angle_alpha 90.000000
_cell_angle_beta 90.000000
_cell_angle_gamma 90.000000
_cell_volume 2555.204328
_symmetry_space_group_name_H-M "P B C M"
_symmetry_group_IT_number 57
_symmetry_cell_setting 'orthorhombic'
loop_
_space_group_symop_operation_xyz
x,y,z
-x,-y,1/2+z
x,1/2-y,-z
-x,1/2+y,1/2-z
-x,-y,-z
x,y,1/2-z
-x,1/2+y,z
x,1/2-y,1/2+z
loop_
_atom_site_type_symbol
_atom_site_label
_atom_site_fract_x
_atom_site_fract_y
_atom_site_fract_z
Si Si1 0.539299 0.409749 0.066429
Si Si2 0.623400 0.908118 0.933286
Si Si3 0.122763 0.092101 0.565670
Si Si4 0.960642 0.409751 0.934035
Si Si5 0.797289 0.407148 0.934377
Si Si6 0.699508 0.091712 0.066214
O O1 0.535904 0.403433 0.250000
O O2 0.583136 0.491564 0.026431
O O3 0.539246 0.250000 0.000000
O O4 0.500000 0.500000 0.000000
O O5 0.626222 0.900429 0.750000
O O6 0.617201 0.750000 0.000000
O O7 0.665950 0.980047 0.999733
O O8 0.117258 0.250000 0.500000
O O9 0.123454 0.101069 0.750000
O O10 0.083226 0.990312 0.522971
O O11 0.167129 0.019766 0.514056
O O12 0.963441 0.404587 0.750000
O O13 0.961226 0.250000 0.000000
O O14 0.000000 0.500000 0.000000
O O15 0.799000 0.398892 0.750000
O O16 0.748534 0.444446 0.976798
O O17 0.806809 0.250000 0.000000
O O18 0.696419 0.095949 0.250000
O O19 0.690406 0.250000 0.000000
#
# Coordination Sequence:
#
# PCOD9437583 Si02
#       6
#     8   8   8   8   8   8
#     4  11  24  41  63  89 118 152 190 234 283 336
#     4  11  24  40  59  85 117 153 192 235 284 337
#     4  10  22  38  56  81 113 148 187 231 280 334
#     4  11  23  39  60  85 114 148 187 232 282 336
#     4   9  19  36  57  83 112 145 187 232 280 334
#     4  10  20  36  59  85 115 150 190 236 284 337
#
# _framework density 18.785191999999999
#
# number of rings (size 3 to 8) (size 9 to 14) (size 15 to 20)
#    0.000    1.667    0.000    4.000    0.000   10.000 
#    0.000    1.667    0.000    0.000    0.000    0.000 
#    0.000    0.000    0.000    0.000    0.000    0.000 
#
# Total GULP energy -268332.492689 kJ/mol
# GULP energy per Si atom -5590.260264 kJ/mol
# Density = 1.874244 g / cm^3
# Si number density = 18.785192 Si / 1000 Ang^3
#
#
#
# Elastic Constant Matrix: (Units=GPa)
#
#
# Indices 1 2 3 4 5 6 
#
# 1 137.5343 115.3998 51.9940 0.0000 0.0000 0.0000
# 2 115.3998 196.4376 55.9787 0.0000 0.0000 0.0000
# 3 51.9940 55.9787 42.4075 0.0000 0.0000 0.0000
# 4 0.0000 0.0000 0.0000 40.6260 0.0000 0.0000
# 5 0.0000 0.0000 0.0000 0.0000 27.8946 0.0000
# 6 0.0000 0.0000 0.0000 0.0000 0.0000 42.5431
#
#
#
# Elastic Compliance Matrix: (Units=1/GPa)
#
#
# Indices 1 2 3 4 5 6 
#
# 1 0.017877 -0.006822 -0.012912 0.000000 0.000000 0.000000
# 2 -0.006822 0.010764 -0.005844 0.000000 0.000000 0.000000
# 3 -0.012912 -0.005844 0.047126 0.000000 0.000000 0.000000
# 4 0.000000 0.000000 0.000000 0.024615 0.000000 0.000000
# 5 0.000000 0.000000 0.000000 0.000000 0.035849 0.000000
# 6 0.000000 0.000000 0.000000 0.000000 0.000000 0.023506
#
#
# Mechanical properties :
#
#
# Convention : Reuss Voigt Hill
#
# Bulk Modulus (GPa) = 40.63459 91.45827 66.04643
# Shear Modulus (GPa) = 22.82097 32.41319 27.61708
#
# Velocity S-wave (km/s) = 3.48923 4.15838 3.83842
# Velocity P-wave (km/s) = 6.15720 8.47633 7.40808
#
# Compressibility (1/GPa) = 0.02460957
#
# Stress axis : x y z
#
# Youngs Moduli (GPa) = 55.93894 92.90341 21.21960
#
# Poissons Ratio (x) = 0.63381 0.27399
# Poissons Ratio (y) = 0.38163 0.12401
# Poissons Ratio (z) = 0.72230 0.54293
#
# Static dielectric constant tensor:
#      x y z
#    x 1.646660 0.000000 0.000000 
#    y 0.000000 1.601160 0.000000 
#    z 0.000000 0.000000 1.633340 
# 
# From -- ./inp_files/9961.got.cif
#   From: 2010.05.17/outbox.cif.g08.bks.cpg/sg57_5_cif.got.tgz:9961.got - 2010.06.03 13:58:18.
