data_PCOD9437404
_publ_section_title
;
Structure prediction by ZEFSAII (Michael W. Deem and Ramdas Pophale) SiO2 
 PCOD9437404
Probable space group: P B C M
;
_chemical_formula_sum "Si O2"
_cell_formula_units_Z 64
_cell_length_a 17.059556
_cell_length_b 22.081944
_cell_length_c 8.613270
_cell_angle_alpha 90.000000
_cell_angle_beta 90.000000
_cell_angle_gamma 90.000000
_cell_volume 3244.689095
_symmetry_space_group_name_H-M "P B C M"
_symmetry_group_IT_number 57
_symmetry_cell_setting 'orthorhombic'
loop_
_space_group_symop_operation_xyz
x,y,z
-x,-y,1/2+z
x,1/2-y,-z
-x,1/2+y,1/2-z
-x,-y,-z
x,y,1/2-z
-x,1/2+y,z
x,1/2-y,1/2+z
loop_
_atom_site_type_symbol
_atom_site_label
_atom_site_fract_x
_atom_site_fract_y
_atom_site_fract_z
Si Si1 0.059306 0.818323 0.437051
Si Si2 0.699153 0.690835 0.932015
Si Si3 0.385319 0.619878 0.935970
Si Si4 0.218031 0.436339 0.433831
Si Si5 0.454400 0.362022 0.564981
Si Si6 0.373401 0.485004 0.935580
Si Si7 0.231975 0.682862 0.435633
Si Si8 0.961574 0.561710 0.561960
O O1 0.040779 0.750000 0.500000
O O2 0.059139 0.814578 0.250000
O O3 0.147084 0.834324 0.495372
O O4 0.003183 0.874627 0.484726
O O5 0.683672 0.697100 0.750000
O O6 0.752113 0.632093 0.955282
O O7 0.739232 0.750000 0.000000
O O8 0.617437 0.681013 0.020714
O O9 0.378502 0.621617 0.750000
O O10 0.399491 0.550702 0.990378
O O11 0.463130 0.654837 0.989000
O O12 0.304635 0.642650 0.009064
O O13 0.221228 0.450438 0.250000
O O14 0.282717 0.476419 0.519206
O O15 0.129171 0.440587 0.487775
O O16 0.463745 0.364215 0.750000
O O17 0.423177 0.427866 0.504368
O O18 0.379945 0.483383 0.750000
O O19 0.247807 0.750000 0.500000
O O20 0.226988 0.683428 0.250000
O O21 0.964001 0.560800 0.750000
O O22 0.000000 0.500000 0.500000
#
# Coordination Sequence:
#
# PCOD9437404 Si02
#       8
#     8   8   8   8   8   8   8   8
#     4  10  21  40  63  87 119 157 199 246 298 358
#     4  10  20  36  58  82 112 150 189 234 286 338
#     4  11  22  36  56  83 114 148 187 233 286 338
#     4   9  20  38  57  82 115 149 188 234 283 339
#     4  10  20  36  55  81 113 147 191 235 280 336
#     4   9  20  36  56  81 113 149 187 231 280 337
#     4  11  23  40  60  83 111 146 190 237 286 343
#     4  10  23  40  60  90 125 158 197 248 300 354
#
# _framework density 19.724540000000001
#
# number of rings (size 3 to 8) (size 9 to 14) (size 15 to 20)
#    0.000    2.000    0.000    3.750    1.750    4.500 
#    0.000    2.500    0.000    0.000    0.000    0.000 
#    0.000    0.000    0.000    0.000    0.000    0.000 
#
# Total GULP energy -357260.259880 kJ/mol
# GULP energy per Si atom -5582.191561 kJ/mol
# Density = 1.967965 g / cm^3
# Si number density = 19.724540 Si / 1000 Ang^3
#
#
#
# Elastic Constant Matrix: (Units=GPa)
#
#
# Indices 1 2 3 4 5 6 
#
# 1 102.3741 27.3702 14.0850 0.0000 0.0000 0.0000
# 2 27.3702 47.7969 14.0512 0.0000 0.0000 0.0000
# 3 14.0850 14.0512 43.2283 0.0000 0.0000 0.0000
# 4 0.0000 0.0000 0.0000 29.5850 0.0000 0.0000
# 5 0.0000 0.0000 0.0000 0.0000 27.6170 0.0000
# 6 0.0000 0.0000 0.0000 0.0000 0.0000 20.2914
#
#
#
# Elastic Compliance Matrix: (Units=1/GPa)
#
#
# Indices 1 2 3 4 5 6 
#
# 1 0.011659 -0.006147 -0.001801 0.000000 0.000000 0.000000
# 2 -0.006147 0.026373 -0.006570 0.000000 0.000000 0.000000
# 3 -0.001801 -0.006570 0.025855 0.000000 0.000000 0.000000
# 4 0.000000 0.000000 0.000000 0.033801 0.000000 0.000000
# 5 0.000000 0.000000 0.000000 0.000000 0.036210 0.000000
# 6 0.000000 0.000000 0.000000 0.000000 0.000000 0.049282
#
#
# Mechanical properties :
#
#
# Convention : Reuss Voigt Hill
#
# Bulk Modulus (GPa) = 28.69228 33.82358 31.25793
# Shear Modulus (GPa) = 22.33809 24.69154 23.51481
#
# Velocity S-wave (km/s) = 3.36892 3.54194 3.45651
# Velocity P-wave (km/s) = 5.45077 5.82343 5.64018
#
# Compressibility (1/GPa) = 0.03485258
#
# Stress axis : x y z
#
# Youngs Moduli (GPa) = 85.76821 37.91722 38.67696
#
# Poissons Ratio (x) = 0.23308 0.06965
# Poissons Ratio (y) = 0.52723 0.25409
# Poissons Ratio (z) = 0.15445 0.24910
#
# Static dielectric constant tensor:
#      x y z
#    x 1.674490 0.000000 0.000000 
#    y 0.000000 1.705920 0.000000 
#    z 0.000000 0.000000 1.669660 
# 
# From -- ./inp_files/5713.got.cif
#   From: 2010.05.17/outbox.cif.g08.bks.cpg/sg57_3_cif.got.tgz:5713.got - 2010.06.03 13:58:18.
