data_PCOD9437595
_publ_section_title
;
Structure prediction by ZEFSAII (Michael W. Deem and Ramdas Pophale) SiO2 
 PCOD9437595
Probable space group: P B C M
;
_chemical_formula_sum "Si O2"
_cell_formula_units_Z 48
_cell_length_a 15.894173
_cell_length_b 18.236268
_cell_length_c 8.771080
_cell_angle_alpha 90.000000
_cell_angle_beta 90.000000
_cell_angle_gamma 90.000000
_cell_volume 2542.301033
_symmetry_space_group_name_H-M "P B C M"
_symmetry_group_IT_number 57
_symmetry_cell_setting 'orthorhombic'
loop_
_space_group_symop_operation_xyz
x,y,z
-x,-y,1/2+z
x,1/2-y,-z
-x,1/2+y,1/2-z
-x,-y,-z
x,y,1/2-z
-x,1/2+y,z
x,1/2-y,1/2+z
loop_
_atom_site_type_symbol
_atom_site_label
_atom_site_fract_x
_atom_site_fract_y
_atom_site_fract_z
Si Si1 0.488768 0.419216 0.066573
Si Si2 0.189387 0.576698 0.432556
Si Si3 0.657818 0.331223 0.067990
Si Si4 0.665282 0.670141 0.067869
Si Si5 0.170992 0.096818 0.567293
Si Si6 0.002764 0.917732 0.933176
O O1 0.482400 0.421801 0.250000
O O2 0.569957 0.370164 0.024753
O O3 0.500000 0.500000 0.000000
O O4 0.405321 0.384067 0.996790
O O5 0.199724 0.581857 0.250000
O O6 0.264872 0.618992 0.511703
O O7 0.186825 0.489654 0.470121
O O8 0.096907 0.609265 0.471201
O O9 0.660424 0.326383 0.250000
O O10 0.662892 0.250000 0.000000
O O11 0.662973 0.671730 0.250000
O O12 0.647753 0.750000 0.000000
O O13 0.755747 0.643180 0.009386
O O14 0.173127 0.103775 0.750000
O O15 0.079098 0.119323 0.505310
O O16 0.995402 0.920130 0.750000
O O17 0.000000 0.000000 0.000000
#
# Coordination Sequence:
#
# PCOD9437595 Si02
#       6
#     8   8   8   8   8   8
#     4  11  24  42  64  91 118 150 192 238 287 342
#     4   9  19  35  57  84 116 151 190 236 285 337
#     4  11  24  39  58  83 114 151 190 232 283 338
#     4  12  25  41  61  86 118 156 194 239 292 350
#     4  10  20  36  59  87 117 152 193 241 292 346
#     4   9  17  31  53  83 116 152 193 240 290 339
#
# _framework density 18.880534000000001
#
# number of rings (size 3 to 8) (size 9 to 14) (size 15 to 20)
#    0.000    1.667    0.000    6.000    0.000   10.667 
#    0.000    0.833    0.000    4.000    0.000    0.000 
#    0.000    0.000    0.000    0.000    0.000    0.000 
#
# Total GULP energy -268185.445955 kJ/mol
# GULP energy per Si atom -5587.196791 kJ/mol
# Density = 1.883756 g / cm^3
# Si number density = 18.880534 Si / 1000 Ang^3
#
#
#
# Elastic Constant Matrix: (Units=GPa)
#
#
# Indices 1 2 3 4 5 6 
#
# 1 62.8527 -13.5476 23.2589 0.0000 0.0000 0.0000
# 2 -13.5476 41.0158 14.9187 0.0000 0.0000 0.0000
# 3 23.2589 14.9187 69.6925 0.0000 0.0000 0.0000
# 4 0.0000 0.0000 0.0000 30.4426 0.0000 0.0000
# 5 0.0000 0.0000 0.0000 0.0000 39.5506 0.0000
# 6 0.0000 0.0000 0.0000 0.0000 0.0000 -10.1560
#
#
#
# Elastic Compliance Matrix: (Units=1/GPa)
#
#
# Indices 1 2 3 4 5 6 
#
# 1 0.021732 0.010645 -0.009531 0.000000 0.000000 0.000000
# 2 0.010645 0.031654 -0.010329 0.000000 0.000000 0.000000
# 3 -0.009531 -0.010329 0.019741 0.000000 0.000000 0.000000
# 4 0.000000 0.000000 0.000000 0.032849 0.000000 0.000000
# 5 0.000000 0.000000 0.000000 0.000000 0.025284 0.000000
# 6 0.000000 0.000000 0.000000 0.000000 0.000000 -0.098464
#
#
# Mechanical properties :
#
#
# Convention : Reuss Voigt Hill
#
# Bulk Modulus (GPa) = 18.28282 24.75790 21.52036
# Shear Modulus (GPa) = 71.98680 21.89617 46.94148
#
# Velocity S-wave (km/s) = 6.18145 3.40916 4.99163
# Velocity P-wave (km/s) = 7.78791 5.35144 6.68167
#
# Compressibility (1/GPa) = 0.05469616
#
# Stress axis : x y z
#
# Youngs Moduli (GPa) = 46.01550 31.59190 50.65682
#
# Poissons Ratio (x) = -0.33629 0.48283
# Poissons Ratio (y) = -0.48983 0.52321
# Poissons Ratio (z) = 0.43859 0.32630
#
# Static dielectric constant tensor:
#      x y z
#    x 1.642340 0.000000 0.000000 
#    y 0.000000 1.553350 0.000000 
#    z 0.000000 0.000000 1.626150 
# 
# From -- ./inp_files/4713.got.cif
#   From: 2010.05.17/outbox.cif.g08.bks.cpg/sg57_3_cif.got.tgz:4713.got - 2010.06.03 13:58:18.
