data_PCOD9437320
_publ_section_title
;
Structure prediction by ZEFSAII (Michael W. Deem and Ramdas Pophale) SiO2 
 PCOD9437320
Probable space group: P B C M
;
_chemical_formula_sum "Si O2"
_cell_formula_units_Z 64
_cell_length_a 20.344855
_cell_length_b 18.901904
_cell_length_c 8.265939
_cell_angle_alpha 90.000000
_cell_angle_beta 90.000000
_cell_angle_gamma 90.000000
_cell_volume 3178.720539
_symmetry_space_group_name_H-M "P B C M"
_symmetry_group_IT_number 57
_symmetry_cell_setting 'orthorhombic'
loop_
_space_group_symop_operation_xyz
x,y,z
-x,-y,1/2+z
x,1/2-y,-z
-x,1/2+y,1/2-z
-x,-y,-z
x,y,1/2-z
-x,1/2+y,z
x,1/2-y,1/2+z
loop_
_atom_site_type_symbol
_atom_site_label
_atom_site_fract_x
_atom_site_fract_y
_atom_site_fract_z
Si Si1 0.789585 0.828169 0.055099
Si Si2 0.608301 0.169622 0.554891
Si Si3 0.015722 0.829598 0.938581
Si Si4 0.335879 0.408391 0.444765
Si Si5 0.869520 0.417193 0.440505
Si Si6 0.719401 0.440353 0.445945
Si Si7 0.483540 0.079497 0.945931
Si Si8 0.095171 0.432824 0.058971
O O1 0.790146 0.829064 0.250000
O O2 0.717281 0.851205 0.996534
O O3 0.842262 0.886694 0.001698
O O4 0.807710 0.750000 0.000000
O O5 0.613018 0.250000 0.500000
O O6 0.607744 0.168308 0.750000
O O7 0.669904 0.121685 0.501831
O O8 0.540993 0.132057 0.498061
O O9 0.999818 0.832747 0.750000
O O10 0.006942 0.750000 0.000000
O O11 0.089366 0.857167 0.969552
O O12 0.967800 0.884054 0.029348
O O13 0.337715 0.403816 0.250000
O O14 0.308030 0.485379 0.490177
O O15 0.410460 0.400607 0.504425
O O16 0.869155 0.400909 0.250000
O O17 0.794327 0.426395 0.497445
O O18 0.904882 0.492508 0.469445
O O19 0.719049 0.443811 0.250000
O O20 0.483213 0.080438 0.750000
O O21 0.500000 0.000000 0.000000
O O22 0.101865 0.447260 0.250000
#
# Coordination Sequence:
#
# PCOD9437320 Si02
#       8
#     8   8   8   8   8   8   8   8
#     4  10  22  37  56  85 121 155 194 238 291 350
#     4  10  22  39  57  86 122 157 200 249 300 355
#     4  12  26  44  64  89 123 161 201 250 304 362
#     4  10  20  36  58  86 116 153 196 243 296 355
#     4  11  23  40  64  93 122 157 203 252 303 361
#     4  10  21  38  61  88 119 155 199 249 296 354
#     4  10  20  35  59  85 116 152 197 246 295 354
#     4  11  22  40  64  91 122 160 202 248 298 359
#
# _framework density 20.133887999999999
#
# number of rings (size 3 to 8) (size 9 to 14) (size 15 to 20)
#    0.000    1.500    2.500    2.625    0.000    5.000 
#    0.000    1.250    0.000    0.000    0.000    0.000 
#    0.000    0.000    0.000    0.000    0.000    0.000 
#
# Total GULP energy -357759.046634 kJ/mol
# GULP energy per Si atom -5589.985104 kJ/mol
# Density = 2.008806 g / cm^3
# Si number density = 20.133888 Si / 1000 Ang^3
#
#
#
# Elastic Constant Matrix: (Units=GPa)
#
#
# Indices 1 2 3 4 5 6 
#
# 1 97.3803 11.4322 -3.0048 0.0000 0.0000 0.0000
# 2 11.4322 66.0395 -6.0958 0.0000 0.0000 0.0000
# 3 -3.0048 -6.0958 11.3024 0.0000 0.0000 0.0000
# 4 0.0000 0.0000 0.0000 32.9085 0.0000 0.0000
# 5 0.0000 0.0000 0.0000 0.0000 15.5351 0.0000
# 6 0.0000 0.0000 0.0000 0.0000 0.0000 25.9708
#
#
#
# Elastic Compliance Matrix: (Units=1/GPa)
#
#
# Indices 1 2 3 4 5 6 
#
# 1 0.010521 -0.001645 0.001910 0.000000 0.000000 0.000000
# 2 -0.001645 0.016193 0.008296 0.000000 0.000000 0.000000
# 3 0.001910 0.008296 0.093459 0.000000 0.000000 0.000000
# 4 0.000000 0.000000 0.000000 0.030387 0.000000 0.000000
# 5 0.000000 0.000000 0.000000 0.000000 0.064370 0.000000
# 6 0.000000 0.000000 0.000000 0.000000 0.000000 0.038505
#
#
# Mechanical properties :
#
#
# Convention : Reuss Voigt Hill
#
# Bulk Modulus (GPa) = 7.28357 19.93170 13.60764
# Shear Modulus (GPa) = 17.72553 26.37558 22.05055
#
# Velocity S-wave (km/s) = 2.97034 3.62333 3.31296
# Velocity P-wave (km/s) = 3.92293 5.23696 4.62683
#
# Compressibility (1/GPa) = 0.13729525
#
# Stress axis : x y z
#
# Youngs Moduli (GPa) = 95.04732 61.75504 10.69985
#
# Poissons Ratio (x) = 0.10159 -0.02044
# Poissons Ratio (y) = 0.15636 -0.08877
# Poissons Ratio (z) = -0.18153 -0.51233
#
# Static dielectric constant tensor:
#      x y z
#    x 1.743040 0.000000 0.000000 
#    y 0.000000 1.655590 0.000000 
#    z 0.000000 0.000000 1.696370 
# 
# From -- ./inp_files/8524.got.cif
#   From: 2010.05.17/outbox.cif.g08.bks.cpg/sg57_5_cif.got.tgz:8524.got - 2010.06.03 13:58:18.
