data_PCOD9437305
_publ_section_title
;
Structure prediction by ZEFSAII (Michael W. Deem and Ramdas Pophale) SiO2 
 PCOD9437305
Probable space group: P B C M
;
_chemical_formula_sum "Si O2"
_cell_formula_units_Z 32
_cell_length_a 7.435096
_cell_length_b 8.518612
_cell_length_c 21.401450
_cell_angle_alpha 90.000000
_cell_angle_beta 90.000000
_cell_angle_gamma 90.000000
_cell_volume 1355.497176
_symmetry_space_group_name_H-M "P B C M"
_symmetry_group_IT_number 57
_symmetry_cell_setting 'orthorhombic'
loop_
_space_group_symop_operation_xyz
x,y,z
-x,-y,1/2+z
x,1/2-y,-z
-x,1/2+y,1/2-z
-x,-y,-z
x,y,1/2-z
-x,1/2+y,z
x,1/2-y,1/2+z
loop_
_atom_site_type_symbol
_atom_site_label
_atom_site_fract_x
_atom_site_fract_y
_atom_site_fract_z
Si Si1 0.078615 0.825098 0.861037
Si Si2 0.815859 0.610915 0.562701
Si Si3 0.258746 0.528556 0.817401
Si Si4 0.365455 0.425079 0.551117
O O1 0.192020 0.707747 0.819089
O O2 0.984553 0.708244 0.911077
O O3 0.197007 0.956952 0.895001
O O4 0.916434 0.915552 0.826168
O O5 0.816929 0.559053 0.490378
O O6 0.651647 0.738634 0.566112
O O7 0.344105 0.493661 0.750000
O O8 0.366801 0.503046 0.881461
O O9 0.500000 0.500000 0.500000
#
# Coordination Sequence:
#
# PCOD9437305 Si02
#       4
#     8   8   8   8
#     4   9  19  35  59  92 121 149 194 249 313 369
#     4   9  20  36  59  88 117 152 196 254 302 346
#     4  10  20  35  58  87 123 159 194 248 310 367
#     4  10  22  37  56  83 117 160 208 245 287 353
#
# _framework density 23.607575000000001
#
# number of rings (size 3 to 8) (size 9 to 14) (size 15 to 20)
#    0.000    2.500    0.000    0.750    0.000   23.000 
#    0.000    1.250    0.000   30.000    0.000    0.000 
#    0.000    0.000    0.000    0.000    0.000    0.000 
#
# Total GULP energy -178228.510720 kJ/mol
# GULP energy per Si atom -5569.640960 kJ/mol
# Density = 2.355384 g / cm^3
# Si number density = 23.607575 Si / 1000 Ang^3
#
#
#
# Elastic Constant Matrix: (Units=GPa)
#
#
# Indices 1 2 3 4 5 6 
#
# 1 47.6990 39.6867 50.3368 0.0000 0.0000 0.0000
# 2 39.6867 149.8399 65.4013 0.0000 0.0000 0.0000
# 3 50.3368 65.4013 226.5453 0.0000 0.0000 0.0000
# 4 0.0000 0.0000 0.0000 16.7292 0.0000 0.0000
# 5 0.0000 0.0000 0.0000 0.0000 20.2803 0.0000
# 6 0.0000 0.0000 0.0000 0.0000 0.0000 32.2874
#
#
#
# Elastic Compliance Matrix: (Units=1/GPa)
#
#
# Indices 1 2 3 4 5 6 
#
# 1 0.031563 -0.006063 -0.005263 0.000000 0.000000 0.000000
# 2 -0.006063 0.008801 -0.001194 0.000000 0.000000 0.000000
# 3 -0.005263 -0.001194 0.005928 0.000000 0.000000 0.000000
# 4 0.000000 0.000000 0.000000 0.059776 0.000000 0.000000
# 5 0.000000 0.000000 0.000000 0.000000 0.049309 0.000000
# 6 0.000000 0.000000 0.000000 0.000000 0.000000 0.030972
#
#
# Mechanical properties :
#
#
# Convention : Reuss Voigt Hill
#
# Bulk Modulus (GPa) = 47.05121 81.65929 64.35525
# Shear Modulus (GPa) = 22.88639 31.77001 27.32820
#
# Velocity S-wave (km/s) = 3.11698 3.67243 3.40605
# Velocity P-wave (km/s) = 5.73828 7.25588 6.54124
#
# Compressibility (1/GPa) = 0.02125344
#
# Stress axis : x y z
#
# Youngs Moduli (GPa) = 31.68265 113.62985 168.68935
#
# Poissons Ratio (x) = 0.68890 0.88779
# Poissons Ratio (y) = 0.19208 0.20134
# Poissons Ratio (z) = 0.16674 0.13562
#
# Static dielectric constant tensor:
#      x y z
#    x 2.074130 0.000000 0.000000 
#    y 0.000000 1.944250 0.000000 
#    z 0.000000 0.000000 1.958260 
# 
# From -- ./inp_files/23954.got.cif
#   From: 2010.05.17/outbox.cif.g08.bks.cpg/sg57_12_cif.got.tgz:23954.got - 2010.06.03 13:58:18.
