data_PCOD9437217
_publ_section_title
;
Structure prediction by ZEFSAII (Michael W. Deem and Ramdas Pophale) SiO2 
 PCOD9437217
Probable space group: P B C M
;
_chemical_formula_sum "Si O2"
_cell_formula_units_Z 64
_cell_length_a 20.024337
_cell_length_b 20.612292
_cell_length_c 8.847241
_cell_angle_alpha 90.000000
_cell_angle_beta 90.000000
_cell_angle_gamma 90.000000
_cell_volume 3651.676440
_symmetry_space_group_name_H-M "P B C M"
_symmetry_group_IT_number 57
_symmetry_cell_setting 'orthorhombic'
loop_
_space_group_symop_operation_xyz
x,y,z
-x,-y,1/2+z
x,1/2-y,-z
-x,1/2+y,1/2-z
-x,-y,-z
x,y,1/2-z
-x,1/2+y,z
x,1/2-y,1/2+z
loop_
_atom_site_type_symbol
_atom_site_label
_atom_site_fract_x
_atom_site_fract_y
_atom_site_fract_z
Si Si1 0.435034 0.320189 0.430165
Si Si2 0.183200 0.562872 0.569111
Si Si3 0.663375 0.041819 0.928987
Si Si4 0.473679 0.932364 0.930077
Si Si5 0.689544 0.595755 0.929042
Si Si6 0.099556 0.819881 0.569283
Si Si7 0.842036 0.577325 0.930153
Si Si8 0.942530 0.680161 0.430405
O O1 0.446474 0.250000 0.500000
O O2 0.445084 0.318912 0.250000
O O3 0.483145 0.373826 0.502897
O O4 0.359261 0.344563 0.459666
O O5 0.175641 0.560604 0.750000
O O6 0.262500 0.567912 0.535490
O O7 0.143065 0.622785 0.500850
O O8 0.158225 0.494865 0.499306
O O9 0.651470 0.047774 0.750000
O O10 0.603317 0.074154 0.019854
O O11 0.665591 0.966166 0.975952
O O12 0.479673 0.935002 0.750000
O O13 0.500000 0.000000 0.000000
O O14 0.683193 0.579452 0.750000
O O15 0.767709 0.605808 0.960298
O O16 0.117736 0.750000 0.500000
O O17 0.107349 0.818272 0.750000
O O18 0.020941 0.830963 0.535114
O O19 0.851055 0.573355 0.750000
O O20 0.897298 0.623584 0.001628
O O21 0.924050 0.750000 0.500000
O O22 0.934834 0.682501 0.250000
#
# Coordination Sequence:
#
# PCOD9437217 Si02
#       8
#     8   8   8   8   8   8   8   8
#     4  11  23  39  57  82 116 152 190 236 286 338
#     4  10  21  37  58  86 117 148 186 234 283 337
#     4  10  20  35  58  86 113 144 185 230 278 334
#     4  12  23  37  60  87 113 148 191 235 281 335
#     4   9  19  35  55  79 110 148 187 227 276 333
#     4  10  21  38  60  83 110 147 190 236 288 346
#     4  10  20  35  56  84 116 151 190 234 282 332
#     4  10  21  37  56  80 110 148 192 236 285 341
#
# _framework density 17.526195999999999
#
# number of rings (size 3 to 8) (size 9 to 14) (size 15 to 20)
#    0.000    1.750    1.250    3.375    0.000    5.000 
#    0.000    1.875    0.000    3.000    0.000    0.000 
#    0.000    0.000    0.000    0.000    0.000    0.000 
#
# Total GULP energy -357483.446745 kJ/mol
# GULP energy per Si atom -5585.678855 kJ/mol
# Density = 1.748631 g / cm^3
# Si number density = 17.526196 Si / 1000 Ang^3
#
#
#
# Elastic Constant Matrix: (Units=GPa)
#
#
# Indices 1 2 3 4 5 6 
#
# 1 105.8721 99.8995 70.3621 0.0000 0.0000 0.0000
# 2 99.8995 157.5076 78.7810 0.0000 0.0000 0.0000
# 3 70.3621 78.7810 95.5572 0.0000 0.0000 0.0000
# 4 0.0000 0.0000 0.0000 35.9401 0.0000 0.0000
# 5 0.0000 0.0000 0.0000 0.0000 26.3872 0.0000
# 6 0.0000 0.0000 0.0000 0.0000 0.0000 28.5513
#
#
#
# Elastic Compliance Matrix: (Units=1/GPa)
#
#
# Indices 1 2 3 4 5 6 
#
# 1 0.028488 -0.012893 -0.010347 0.000000 0.000000 0.000000
# 2 -0.012893 0.016639 -0.004224 0.000000 0.000000 0.000000
# 3 -0.010347 -0.004224 0.021566 0.000000 0.000000 0.000000
# 4 0.000000 0.000000 0.000000 0.027824 0.000000 0.000000
# 5 0.000000 0.000000 0.000000 0.000000 0.037897 0.000000
# 6 0.000000 0.000000 0.000000 0.000000 0.000000 0.035025
#
#
# Mechanical properties :
#
#
# Convention : Reuss Voigt Hill
#
# Bulk Modulus (GPa) = 85.00079 95.22469 90.11274
# Shear Modulus (GPa) = 22.09557 25.50200 23.79878
#
# Velocity S-wave (km/s) = 3.55451 3.81869 3.68896
# Velocity P-wave (km/s) = 8.09016 8.59616 8.34699
#
# Compressibility (1/GPa) = 0.01176460
#
# Stress axis : x y z
#
# Youngs Moduli (GPa) = 35.10303 60.09848 46.36825
#
# Poissons Ratio (x) = 0.77486 0.47976
# Poissons Ratio (y) = 0.45259 0.19588
# Poissons Ratio (z) = 0.36320 0.25388
#
# Static dielectric constant tensor:
#      x y z
#    x 1.604610 0.000000 0.000000 
#    y 0.000000 1.550700 0.000000 
#    z 0.000000 0.000000 1.583350 
# 
# From -- ./inp_files/8462.got.cif
#   From: 2010.05.17/outbox.cif.g08.bks.cpg/sg57_5_cif.got.tgz:8462.got - 2010.06.03 13:58:18.
