data_PCOD9437520
_publ_section_title
;
Structure prediction by ZEFSAII (Michael W. Deem and Ramdas Pophale) SiO2 
 PCOD9437520
Probable space group: P B C M
;
_chemical_formula_sum "Si O2"
_cell_formula_units_Z 64
_cell_length_a 11.286895
_cell_length_b 15.405862
_cell_length_c 18.829515
_cell_angle_alpha 90.000000
_cell_angle_beta 90.000000
_cell_angle_gamma 90.000000
_cell_volume 3274.157916
_symmetry_space_group_name_H-M "P B C M"
_symmetry_group_IT_number 57
_symmetry_cell_setting 'orthorhombic'
loop_
_space_group_symop_operation_xyz
x,y,z
-x,-y,1/2+z
x,1/2-y,-z
-x,1/2+y,1/2-z
-x,-y,-z
x,y,1/2-z
-x,1/2+y,z
x,1/2-y,1/2+z
loop_
_atom_site_type_symbol
_atom_site_label
_atom_site_fract_x
_atom_site_fract_y
_atom_site_fract_z
Si Si1 0.921857 0.312843 0.565189
Si Si2 0.566058 0.606375 0.081642
Si Si3 0.155328 0.391047 0.910904
Si Si4 0.518415 0.274148 0.335336
Si Si5 0.571320 0.567571 0.583328
Si Si6 0.040778 0.542104 0.666957
Si Si7 0.787376 0.303744 0.165538
Si Si8 0.162364 0.009112 0.940910
O O1 0.895868 0.250000 0.500000
O O2 0.850039 0.278942 0.632297
O O3 0.875700 0.409413 0.550341
O O4 0.062775 0.312679 0.580916
O O5 0.705261 0.622535 0.096716
O O6 0.501715 0.683735 0.123462
O O7 0.520499 0.509825 0.102649
O O8 0.546124 0.605171 0.996147
O O9 0.102553 0.450015 0.848353
O O10 0.142082 0.443841 0.984432
O O11 0.508748 0.262842 0.250000
O O12 0.434307 0.351133 0.363649
O O13 0.650415 0.306876 0.354570
O O14 0.700958 0.523788 0.579410
O O15 0.014749 0.552863 0.750000
O O16 0.136130 0.613474 0.642944
O O17 0.924137 0.547347 0.619073
O O18 0.791653 0.299840 0.250000
#
# Coordination Sequence:
#
# PCOD9437520 Si02
#       8
#     8   8   8   8   8   8   8   8
#     4  11  21  34  59  87 112 147 187 236 291 344
#     4  10  22  40  62  88 119 157 204 250 295 356
#     4  10  21  37  57  82 114 148 188 237 290 344
#     4  11  24  40  60  87 120 157 197 247 305 363
#     4  10  22  41  64  88 117 159 203 250 299 353
#     4  10  20  36  58  82 112 151 191 233 284 348
#     4  10  22  38  55  80 114 149 187 232 286 347
#     4  10  21  38  58  85 116 148 193 242 292 348
#
# _framework density 19.547011000000001
#
# number of rings (size 3 to 8) (size 9 to 14) (size 15 to 20)
#    0.000    1.750    0.000    4.875    0.000    9.500 
#    0.000    1.250    0.000    0.000    0.000    0.000 
#    0.000    0.000    0.000    0.000    0.000    0.000 
#
# Total GULP energy -357349.639919 kJ/mol
# GULP energy per Si atom -5583.588124 kJ/mol
# Density = 1.950252 g / cm^3
# Si number density = 19.547011 Si / 1000 Ang^3
#
#
#
# Elastic Constant Matrix: (Units=GPa)
#
#
# Indices 1 2 3 4 5 6 
#
# 1 91.3775 33.5584 34.2645 0.0000 0.0000 0.0000
# 2 33.5584 70.3946 34.0091 0.0000 0.0000 0.0000
# 3 34.2645 34.0091 43.1966 0.0000 0.0000 0.0000
# 4 0.0000 0.0000 0.0000 23.6068 0.0000 0.0000
# 5 0.0000 0.0000 0.0000 0.0000 26.4007 0.0000
# 6 0.0000 0.0000 0.0000 0.0000 0.0000 28.9689
#
#
#
# Elastic Compliance Matrix: (Units=1/GPa)
#
#
# Indices 1 2 3 4 5 6 
#
# 1 0.015822 -0.002387 -0.010670 0.000000 0.000000 0.000000
# 2 -0.002387 0.023286 -0.016440 0.000000 0.000000 0.000000
# 3 -0.010670 -0.016440 0.044557 0.000000 0.000000 0.000000
# 4 0.000000 0.000000 0.000000 0.042361 0.000000 0.000000
# 5 0.000000 0.000000 0.000000 0.000000 0.037878 0.000000
# 6 0.000000 0.000000 0.000000 0.000000 0.000000 0.034520
#
#
# Mechanical properties :
#
#
# Convention : Reuss Voigt Hill
#
# Bulk Modulus (GPa) = 40.53528 45.40363 42.96946
# Shear Modulus (GPa) = 18.82241 22.67106 20.74673
#
# Velocity S-wave (km/s) = 3.10648 3.40931 3.26141
# Velocity P-wave (km/s) = 5.80080 6.22705 6.01770
#
# Compressibility (1/GPa) = 0.02466987
#
# Stress axis : x y z
#
# Youngs Moduli (GPa) = 63.20505 42.94421 22.44315
#
# Poissons Ratio (x) = 0.10252 0.23948
# Poissons Ratio (y) = 0.15089 0.36896
# Poissons Ratio (z) = 0.67442 0.70599
#
# Static dielectric constant tensor:
#      x y z
#    x 1.700970 0.000000 0.000000 
#    y 0.000000 1.596940 0.000000 
#    z 0.000000 0.000000 1.671100 
# 
# From -- ./inp_files/22069.got.cif
#   From: 2010.05.17/outbox.cif.g08.bks.cpg/sg57_12_cif.got.tgz:22069.got - 2010.06.03 13:58:18.
