data_PCOD9437219
_publ_section_title
;
Structure prediction by ZEFSAII (Michael W. Deem and Ramdas Pophale) SiO2 
 PCOD9437219
Probable space group: P B C M
;
_chemical_formula_sum "Si O2"
_cell_formula_units_Z 32
_cell_length_a 6.842121
_cell_length_b 13.099686
_cell_length_c 16.174475
_cell_angle_alpha 90.000000
_cell_angle_beta 90.000000
_cell_angle_gamma 90.000000
_cell_volume 1449.712318
_symmetry_space_group_name_H-M "P B C M"
_symmetry_group_IT_number 57
_symmetry_cell_setting 'orthorhombic'
loop_
_space_group_symop_operation_xyz
x,y,z
-x,-y,1/2+z
x,1/2-y,-z
-x,1/2+y,1/2-z
-x,-y,-z
x,y,1/2-z
-x,1/2+y,z
x,1/2-y,1/2+z
loop_
_atom_site_type_symbol
_atom_site_label
_atom_site_fract_x
_atom_site_fract_y
_atom_site_fract_z
Si Si1 0.735010 0.010772 0.493022
Si Si2 0.309383 0.197235 0.578951
Si Si3 0.923583 0.198798 0.409918
Si Si4 0.694338 0.378112 0.159024
O O1 0.822797 0.089751 0.426144
O O2 0.776545 0.049482 0.586076
O O3 0.500000 0.000000 0.500000
O O4 0.800778 0.899552 0.462468
O O5 0.415566 0.250000 0.500000
O O6 0.468553 0.151217 0.640002
O O7 0.151587 0.278585 0.611852
O O8 0.899272 0.250000 0.500000
O O9 0.803378 0.269930 0.348174
O O10 0.716449 0.422761 0.250000
#
# Coordination Sequence:
#
# PCOD9437219 Si02
#       4
#     8   8   8   8
#     4   9  18  37  61  83 112 152 199 242 289 352
#     4  10  20  36  59  82 111 152 200 243 282 344
#     4   9  19  34  57  82 108 147 193 236 284 343
#     4  10  20  35  56  84 118 149 185 241 300 349
#
# _framework density 22.073346000000001
#
# number of rings (size 3 to 8) (size 9 to 14) (size 15 to 20)
#    0.000    2.500    0.000    3.750    0.000   10.000 
#    0.000   11.250    0.000   15.000    0.000    0.000 
#    0.000    0.000    0.000    0.000    0.000    0.000 
#
# Total GULP energy -178224.851753 kJ/mol
# GULP energy per Si atom -5569.526617 kJ/mol
# Density = 2.202311 g / cm^3
# Si number density = 22.073346 Si / 1000 Ang^3
#
#
#
# Elastic Constant Matrix: (Units=GPa)
#
#
# Indices 1 2 3 4 5 6 
#
# 1 122.4299 12.4489 9.8191 0.0000 0.0000 0.0000
# 2 12.4489 67.0260 -10.0213 0.0000 0.0000 0.0000
# 3 9.8191 -10.0213 73.9509 0.0000 0.0000 0.0000
# 4 0.0000 0.0000 0.0000 10.9089 0.0000 0.0000
# 5 0.0000 0.0000 0.0000 0.0000 -7.8944 0.0000
# 6 0.0000 0.0000 0.0000 0.0000 0.0000 22.6490
#
#
#
# Elastic Compliance Matrix: (Units=1/GPa)
#
#
# Indices 1 2 3 4 5 6 
#
# 1 0.008458 -0.001775 -0.001364 0.000000 0.000000 0.000000
# 2 -0.001775 0.015601 0.002350 0.000000 0.000000 0.000000
# 3 -0.001364 0.002350 0.014022 0.000000 0.000000 0.000000
# 4 0.000000 0.000000 0.000000 0.091669 0.000000 0.000000
# 5 0.000000 0.000000 0.000000 0.000000 -0.126672 0.000000
# 6 0.000000 0.000000 0.000000 0.000000 0.000000 0.044152
#
#
# Mechanical properties :
#
#
# Convention : Reuss Voigt Hill
#
# Bulk Modulus (GPa) = 27.39487 31.98890 29.69188
# Shear Modulus (GPa) = 82.00214 21.87670 51.93942
#
# Velocity S-wave (km/s) = 6.10168 3.15158 4.85607
# Velocity P-wave (km/s) = 7.87899 5.26942 6.70243
#
# Compressibility (1/GPa) = 0.03650319
#
# Stress axis : x y z
#
# Youngs Moduli (GPa) = 118.23475 64.10036 71.31677
#
# Poissons Ratio (x) = 0.11376 0.09724
# Poissons Ratio (y) = 0.20984 -0.16757
# Poissons Ratio (z) = 0.16121 -0.15062
#
# Static dielectric constant tensor:
#      x y z
#    x 1.950530 0.000000 0.000000 
#    y 0.000000 1.885810 0.000000 
#    z 0.000000 0.000000 1.823300 
# 
# From -- ./inp_files/20468.got.cif
#   From: 2010.05.17/outbox.cif.g08.bks.cpg/sg57_11_cif.got.tgz:20468.got - 2010.06.03 13:58:18.
