data_PCOD9437076
_publ_section_title
;
Structure prediction by ZEFSAII (Michael W. Deem and Ramdas Pophale) SiO2 
 PCOD9437076
Probable space group: P B C M
;
_chemical_formula_sum "Si O2"
_cell_formula_units_Z 64
_cell_length_a 17.371521
_cell_length_b 9.242595
_cell_length_c 22.542579
_cell_angle_alpha 90.000000
_cell_angle_beta 90.000000
_cell_angle_gamma 90.000000
_cell_volume 3619.389892
_symmetry_space_group_name_H-M "P B C M"
_symmetry_group_IT_number 57
_symmetry_cell_setting 'orthorhombic'
loop_
_space_group_symop_operation_xyz
x,y,z
-x,-y,1/2+z
x,1/2-y,-z
-x,1/2+y,1/2-z
-x,-y,-z
x,y,1/2-z
-x,1/2+y,z
x,1/2-y,1/2+z
loop_
_atom_site_type_symbol
_atom_site_label
_atom_site_fract_x
_atom_site_fract_y
_atom_site_fract_z
Si Si1 0.496847 0.693193 0.876199
Si Si2 0.159182 0.836516 0.061065
Si Si3 0.098445 0.488335 0.183030
Si Si4 0.247616 0.572724 0.114386
Si Si5 0.944171 0.178274 0.679581
Si Si6 0.403284 0.555441 0.181508
Si Si7 0.436030 0.450241 0.951631
Si Si8 0.262573 0.414735 0.994641
O O1 0.560734 0.584495 0.850783
O O2 0.436523 0.583173 0.905422
O O3 0.455295 0.803370 0.831631
O O4 0.532882 0.801494 0.924156
O O5 0.222104 0.726748 0.088081
O O6 0.104062 0.864016 0.119205
O O7 0.129472 0.750000 0.000000
O O8 0.201259 0.981952 0.038753
O O9 0.125104 0.460450 0.250000
O O10 0.172353 0.497297 0.141747
O O11 0.061638 0.648568 0.180785
O O12 0.030541 0.377260 0.169343
O O13 0.317429 0.586075 0.159387
O O14 0.273776 0.477281 0.059915
O O15 0.923255 0.133282 0.750000
O O16 0.403508 0.523362 0.250000
O O17 0.500000 0.500000 0.000000
O O18 0.348315 0.423552 0.968710
O O19 0.235680 0.250000 0.000000
#
# Coordination Sequence:
#
# PCOD9437076 Si02
#       8
#     8   8   8   8   8   8   8   8
#     4  10  22  35  52  77 104 137 181 225 272 328
#     4   9  20  37  55  79 113 147 181 222 276 336
#     4   9  18  34  55  80 106 137 178 223 268 321
#     4  10  20  35  54  78 105 140 179 219 269 329
#     4   9  18  35  59  82 108 141 182 227 271 327
#     4  11  21  36  55  76 106 144 183 226 272 324
#     4  11  20  34  54  77 103 136 178 227 277 329
#     4  11  21  34  52  77 108 138 174 225 278 326
#
# _framework density 17.682538000000001
#
# number of rings (size 3 to 8) (size 9 to 14) (size 15 to 20)
#    0.000    2.000    0.000    4.875    0.000    3.500 
#    0.000    6.250    0.000    3.750    0.000    0.000 
#    0.000    0.000    0.000    0.000    0.000    0.000 
#
# Total GULP energy -356357.479259 kJ/mol
# GULP energy per Si atom -5568.085613 kJ/mol
# Density = 1.764229 g / cm^3
# Si number density = 17.682538 Si / 1000 Ang^3
#
#
#
# Elastic Constant Matrix: (Units=GPa)
#
#
# Indices 1 2 3 4 5 6 
#
# 1 60.3575 18.0384 31.8492 0.0000 0.0000 0.0000
# 2 18.0384 70.2354 28.8294 0.0000 0.0000 0.0000
# 3 31.8492 28.8294 84.2002 0.0000 0.0000 0.0000
# 4 0.0000 0.0000 0.0000 15.6026 0.0000 0.0000
# 5 0.0000 0.0000 0.0000 0.0000 34.4850 0.0000
# 6 0.0000 0.0000 0.0000 0.0000 0.0000 19.2404
#
#
#
# Elastic Compliance Matrix: (Units=1/GPa)
#
#
# Indices 1 2 3 4 5 6 
#
# 1 0.021067 -0.002490 -0.007116 0.000000 0.000000 0.000000
# 2 -0.002490 0.016860 -0.004831 0.000000 0.000000 0.000000
# 3 -0.007116 -0.004831 0.016222 0.000000 0.000000 0.000000
# 4 0.000000 0.000000 0.000000 0.064092 0.000000 0.000000
# 5 0.000000 0.000000 0.000000 0.000000 0.028998 0.000000
# 6 0.000000 0.000000 0.000000 0.000000 0.000000 0.051974
#
#
# Mechanical properties :
#
#
# Convention : Reuss Voigt Hill
#
# Bulk Modulus (GPa) = 39.56372 41.35857 40.46115
# Shear Modulus (GPa) = 21.14050 22.93734 22.03892
#
# Velocity S-wave (km/s) = 3.46144 3.60554 3.53422
# Velocity P-wave (km/s) = 6.19665 6.38541 6.29174
#
# Compressibility (1/GPa) = 0.02527568
#
# Stress axis : x y z
#
# Youngs Moduli (GPa) = 47.46736 59.31110 61.64332
#
# Poissons Ratio (x) = 0.14766 0.43867
# Poissons Ratio (y) = 0.11817 0.29780
# Poissons Ratio (z) = 0.33779 0.28654
#
# Static dielectric constant tensor:
#      x y z
#    x 1.586960 0.000000 0.000000 
#    y 0.000000 1.592610 0.000000 
#    z 0.000000 0.000000 1.665360 
# 
# From -- ./inp_files/25585.got.cif
#   From: 2010.05.17/outbox.cif.g08.bks.cpg/sg57_13_cif.got.tgz:25585.got - 2010.06.03 13:58:18.
