data_PCOD9437455
_publ_section_title
;
Structure prediction by ZEFSAII (Michael W. Deem and Ramdas Pophale) SiO2 
 PCOD9437455
Probable space group: P B C M
;
_chemical_formula_sum "Si O2"
_cell_formula_units_Z 32
_cell_length_a 13.573715
_cell_length_b 5.277260
_cell_length_c 20.631173
_cell_angle_alpha 90.000000
_cell_angle_beta 90.000000
_cell_angle_gamma 90.000000
_cell_volume 1477.852663
_symmetry_space_group_name_H-M "P B C M"
_symmetry_group_IT_number 57
_symmetry_cell_setting 'orthorhombic'
loop_
_space_group_symop_operation_xyz
x,y,z
-x,-y,1/2+z
x,1/2-y,-z
-x,1/2+y,1/2-z
-x,-y,-z
x,y,1/2-z
-x,1/2+y,z
x,1/2-y,1/2+z
loop_
_atom_site_type_symbol
_atom_site_label
_atom_site_fract_x
_atom_site_fract_y
_atom_site_fract_z
Si Si1 0.928722 0.692220 0.750000
Si Si2 0.060988 0.750000 0.500000
Si Si3 0.249821 0.316366 0.352893
Si Si4 0.462338 0.157390 0.177178
Si Si5 0.247253 0.688867 0.928639
O O1 0.850640 0.691363 0.810763
O O2 0.999645 0.942852 0.750000
O O3 0.132262 0.754782 0.561341
O O4 0.000000 0.500000 0.500000
O O5 0.347693 0.216045 0.317644
O O6 0.276286 0.600802 0.376092
O O7 0.246908 0.106711 0.410457
O O8 0.505607 0.127158 0.250000
O O9 0.483931 0.891762 0.143665
O O10 0.291535 0.750000 0.000000
#
# Coordination Sequence:
#
# PCOD9437455 Si02
#       5
#     4   4   8   8   8
#     4  12  28  42  60  96 132 172 206 244 324 386
#     4  10  20  36  56  86 112 150 224 262 284 332
#     4  12  22  44  65  90 133 165 203 261 315 375
#     4  10  21  38  65  95 120 154 209 261 309 370
#     4  10  24  38  63  89 118 174 206 255 310 357
#
# _framework density 21.653041000000002
#
# number of rings (size 3 to 8) (size 9 to 14) (size 15 to 20)
#    0.750    0.500    1.250    5.250    0.000    6.000 
#    0.000    0.000    0.000   15.000    0.000    0.000 
#    0.000    0.000    0.000    0.000    0.000    0.000 
#
# Total GULP energy -178151.107817 kJ/mol
# GULP energy per Si atom -5567.222119 kJ/mol
# Density = 2.160376 g / cm^3
# Si number density = 21.653041 Si / 1000 Ang^3
#
#
#
# Elastic Constant Matrix: (Units=GPa)
#
#
# Indices 1 2 3 4 5 6 
#
# 1 97.5618 33.8881 5.3243 0.0000 0.0000 0.0000
# 2 33.8881 140.7209 6.6662 0.0000 0.0000 0.0000
# 3 5.3243 6.6662 47.6745 0.0000 0.0000 0.0000
# 4 0.0000 0.0000 0.0000 16.2298 0.0000 0.0000
# 5 0.0000 0.0000 0.0000 0.0000 10.6753 0.0000
# 6 0.0000 0.0000 0.0000 0.0000 0.0000 46.4790
#
#
#
# Elastic Compliance Matrix: (Units=1/GPa)
#
#
# Indices 1 2 3 4 5 6 
#
# 1 0.011222 -0.002661 -0.000881 0.000000 0.000000 0.000000
# 2 -0.002661 0.007785 -0.000791 0.000000 0.000000 0.000000
# 3 -0.000881 -0.000791 0.021185 0.000000 0.000000 0.000000
# 4 0.000000 0.000000 0.000000 0.061615 0.000000 0.000000
# 5 0.000000 0.000000 0.000000 0.000000 0.093674 0.000000
# 6 0.000000 0.000000 0.000000 0.000000 0.000000 0.021515
#
#
# Mechanical properties :
#
#
# Convention : Reuss Voigt Hill
#
# Bulk Modulus (GPa) = 31.72118 41.96826 36.84472
# Shear Modulus (GPa) = 21.17115 30.68207 25.92661
#
# Velocity S-wave (km/s) = 3.13028 3.76837 3.46405
# Velocity P-wave (km/s) = 5.26749 6.19342 5.74912
#
# Compressibility (1/GPa) = 0.03152468
#
# Stress axis : x y z
#
# Youngs Moduli (GPa) = 89.10895 128.46025 47.20398
#
# Poissons Ratio (x) = 0.34180 0.04160
# Poissons Ratio (y) = 0.23710 0.03735
# Poissons Ratio (z) = 0.07853 0.10165
#
# Static dielectric constant tensor:
#      x y z
#    x 1.751850 0.000000 0.000000 
#    y 0.000000 1.992560 0.000000 
#    z 0.000000 0.000000 1.779380 
# 
# From -- ./inp_files/24791.got.cif
#   From: 2010.05.17/outbox.cif.g08.bks.cpg/sg57_13_cif.got.tgz:24791.got - 2010.06.03 13:58:18.
