data_PCOD9437003
_publ_section_title
;
Structure prediction by ZEFSAII (Michael W. Deem and Ramdas Pophale) SiO2 
 PCOD9437003
Probable space group: P B C M
;
_chemical_formula_sum "Si O2"
_cell_formula_units_Z 40
_cell_length_a 16.590359
_cell_length_b 4.989482
_cell_length_c 25.281426
_cell_angle_alpha 90.000000
_cell_angle_beta 90.000000
_cell_angle_gamma 90.000000
_cell_volume 2092.728124
_symmetry_space_group_name_H-M "P B C M"
_symmetry_group_IT_number 57
_symmetry_cell_setting 'orthorhombic'
loop_
_space_group_symop_operation_xyz
x,y,z
-x,-y,1/2+z
x,1/2-y,-z
-x,1/2+y,1/2-z
-x,-y,-z
x,y,1/2-z
-x,1/2+y,z
x,1/2-y,1/2+z
loop_
_atom_site_type_symbol
_atom_site_label
_atom_site_fract_x
_atom_site_fract_y
_atom_site_fract_z
Si Si1 0.689427 0.796124 0.688476
Si Si2 0.302681 0.009581 0.964860
Si Si3 0.224754 0.691257 0.141622
Si Si4 0.055924 0.760945 0.688358
Si Si5 0.445129 0.103772 0.888399
O O1 0.680571 0.858466 0.750000
O O2 0.754666 0.560885 0.679370
O O3 0.608184 0.677979 0.662702
O O4 0.718043 0.060099 0.657207
O O5 0.383212 0.125644 0.937134
O O6 0.246010 0.911087 0.916935
O O7 0.267449 0.250000 0.000000
O O8 0.321181 0.750000 0.000000
O O9 0.133314 0.775833 0.151791
O O10 0.081987 0.735965 0.750000
O O11 0.985667 0.546059 0.679995
O O12 0.519434 0.306601 0.889617
#
# Coordination Sequence:
#
# PCOD9437003 Si02
#       5
#     8   8   8   8   8
#     4  11  22  37  59  84 115 157 193 227 282 350
#     4  11  23  40  61  83 109 151 202 249 297 338
#     4  11  22  39  60  85 118 151 194 239 278 343
#     4  10  20  34  57  89 120 149 180 222 282 342
#     4  11  23  38  56  84 115 144 189 242 291 343
#
# _framework density 19.113809
#
# number of rings (size 3 to 8) (size 9 to 14) (size 15 to 20)
#    0.000    1.200    0.000    9.000    0.000    4.800 
#    0.000    0.000    0.000    3.600    0.000    0.000 
#    0.000    0.000    0.000    0.000    0.000    0.000 
#
# Total GULP energy -223563.980921 kJ/mol
# GULP energy per Si atom -5589.099523 kJ/mol
# Density = 1.907030 g / cm^3
# Si number density = 19.113809 Si / 1000 Ang^3
#
#
#
# Elastic Constant Matrix: (Units=GPa)
#
#
# Indices 1 2 3 4 5 6 
#
# 1 69.9251 -7.2261 35.4601 0.0000 0.0000 0.0000
# 2 -7.2261 72.7230 15.2925 0.0000 0.0000 0.0000
# 3 35.4601 15.2925 102.6464 0.0000 0.0000 0.0000
# 4 0.0000 0.0000 0.0000 25.3081 0.0000 0.0000
# 5 0.0000 0.0000 0.0000 0.0000 8.0695 0.0000
# 6 0.0000 0.0000 0.0000 0.0000 0.0000 18.3125
#
#
#
# Elastic Compliance Matrix: (Units=1/GPa)
#
#
# Indices 1 2 3 4 5 6 
#
# 1 0.018033 0.003202 -0.006707 0.000000 0.000000 0.000000
# 2 0.003202 0.014764 -0.003306 0.000000 0.000000 0.000000
# 3 -0.006707 -0.003306 0.012552 0.000000 0.000000 0.000000
# 4 0.000000 0.000000 0.000000 0.039513 0.000000 0.000000
# 5 0.000000 0.000000 0.000000 0.000000 0.123923 0.000000
# 6 0.000000 0.000000 0.000000 0.000000 0.000000 0.054607
#
#
# Mechanical properties :
#
#
# Convention : Reuss Voigt Hill
#
# Bulk Modulus (GPa) = 31.51791 36.92750 34.22271
# Shear Modulus (GPa) = 17.38594 23.78923 20.58759
#
# Velocity S-wave (km/s) = 3.01923 3.53173 3.28549
# Velocity P-wave (km/s) = 5.35535 5.99938 5.68649
#
# Compressibility (1/GPa) = 0.03172799
#
# Stress axis : x y z
#
# Youngs Moduli (GPa) = 55.45381 67.73170 79.67120
#
# Poissons Ratio (x) = -0.21689 0.53433
# Poissons Ratio (y) = -0.17757 0.26338
# Poissons Ratio (z) = 0.37191 0.22391
#
# Static dielectric constant tensor:
#      x y z
#    x 1.661720 0.000000 0.000000 
#    y 0.000000 1.664830 0.000000 
#    z 0.000000 0.000000 1.662760 
# 
# From -- ./inp_files/27349.got.cif
#   From: 2010.05.17/outbox.cif.g08.bks.cpg/sg57_14_cif.got.tgz:27349.got - 2010.06.03 13:58:18.
