data_PCOD9437253
_publ_section_title
;
Structure prediction by ZEFSAII (Michael W. Deem and Ramdas Pophale) SiO2 
 PCOD9437253
Probable space group: P B C M
;
_chemical_formula_sum "Si O2"
_cell_formula_units_Z 48
_cell_length_a 9.816538
_cell_length_b 31.190753
_cell_length_c 8.815889
_cell_angle_alpha 90.000000
_cell_angle_beta 90.000000
_cell_angle_gamma 90.000000
_cell_volume 2699.294843
_symmetry_space_group_name_H-M "P B C M"
_symmetry_group_IT_number 57
_symmetry_cell_setting 'orthorhombic'
loop_
_space_group_symop_operation_xyz
x,y,z
-x,-y,1/2+z
x,1/2-y,-z
-x,1/2+y,1/2-z
-x,-y,-z
x,y,1/2-z
-x,1/2+y,z
x,1/2-y,1/2+z
loop_
_atom_site_type_symbol
_atom_site_label
_atom_site_fract_x
_atom_site_fract_y
_atom_site_fract_z
Si Si1 0.979380 0.129805 0.068789
Si Si2 0.404613 0.360803 0.431287
Si Si3 0.784093 0.565352 0.431756
Si Si4 0.802822 0.703212 0.068244
Si Si5 0.354385 0.986071 0.930843
Si Si6 0.698176 0.106711 0.570014
O O1 0.956046 0.129917 0.250000
O O2 0.071941 0.088014 0.033253
O O3 0.072711 0.170907 0.031212
O O4 0.837727 0.128172 0.982732
O O5 0.384239 0.362159 0.250000
O O6 0.329774 0.401792 0.505505
O O7 0.331174 0.319344 0.499715
O O8 0.564676 0.364869 0.463261
O O9 0.771076 0.562256 0.250000
O O10 0.756355 0.519859 0.507607
O O11 0.791458 0.705021 0.250000
O O12 0.823269 0.750000 0.000000
O O13 0.362013 0.988175 0.750000
O O14 0.319440 0.938456 0.985097
O O15 0.500000 0.000000 0.000000
O O16 0.700104 0.098599 0.750000
#
# Coordination Sequence:
#
# PCOD9437253 Si02
#       6
#     8   8   8   8   8   8
#     4   9  21  39  58  83 115 152 190 232 287 343
#     4  10  20  35  57  84 114 147 187 232 281 336
#     4  10  20  36  57  81 111 151 197 240 281 333
#     4  10  21  39  64  90 114 144 186 231 282 346
#     4  12  23  35  55  81 113 153 197 244 288 334
#     4  11  23  37  56  84 116 152 193 236 285 339
#
# _framework density 17.782423000000001
#
# number of rings (size 3 to 8) (size 9 to 14) (size 15 to 20)
#    0.000    1.667    1.667    4.500    0.000    6.667 
#    0.000    0.833    0.000    2.000    0.000    0.000 
#    0.000    0.000    0.000    0.000    0.000    0.000 
#
# Total GULP energy -268165.814230 kJ/mol
# GULP energy per Si atom -5586.787796 kJ/mol
# Density = 1.774195 g / cm^3
# Si number density = 17.782423 Si / 1000 Ang^3
#
#
#
# Elastic Constant Matrix: (Units=GPa)
#
#
# Indices 1 2 3 4 5 6 
#
# 1 123.2686 43.3198 67.1235 0.0000 0.0000 0.0000
# 2 43.3198 99.5562 47.1921 0.0000 0.0000 0.0000
# 3 67.1235 47.1921 93.4404 0.0000 0.0000 0.0000
# 4 0.0000 0.0000 0.0000 27.4764 0.0000 0.0000
# 5 0.0000 0.0000 0.0000 0.0000 31.7231 0.0000
# 6 0.0000 0.0000 0.0000 0.0000 0.0000 13.5708
#
#
#
# Elastic Compliance Matrix: (Units=1/GPa)
#
#
# Indices 1 2 3 4 5 6 
#
# 1 0.013536 -0.001684 -0.008873 0.000000 0.000000 0.000000
# 2 -0.001684 0.013416 -0.005566 0.000000 0.000000 0.000000
# 3 -0.008873 -0.005566 0.019887 0.000000 0.000000 0.000000
# 4 0.000000 0.000000 0.000000 0.036395 0.000000 0.000000
# 5 0.000000 0.000000 0.000000 0.000000 0.031523 0.000000
# 6 0.000000 0.000000 0.000000 0.000000 0.000000 0.073688
#
#
# Mechanical properties :
#
#
# Convention : Reuss Voigt Hill
#
# Bulk Modulus (GPa) = 68.52696 70.17067 69.34881
# Shear Modulus (GPa) = 22.16762 25.12938 23.64850
#
# Velocity S-wave (km/s) = 3.53456 3.76328 3.65071
# Velocity P-wave (km/s) = 7.43488 7.64391 7.54012
#
# Compressibility (1/GPa) = 0.01459280
#
# Stress axis : x y z
#
# Youngs Moduli (GPa) = 73.87833 74.53969 50.28350
#
# Poissons Ratio (x) = 0.12550 0.44617
# Poissons Ratio (y) = 0.12439 0.27988
# Poissons Ratio (z) = 0.65553 0.41489
#
# Static dielectric constant tensor:
#      x y z
#    x 1.603200 0.000000 0.000000 
#    y 0.000000 1.588190 0.000000 
#    z 0.000000 0.000000 1.591520 
# 
# From -- ./inp_files/1990.got.cif
#   From: 2010.05.17/outbox.cif.g08.bks.cpg/sg57_1_cif.got.tgz:1990.got - 2010.06.03 13:58:18.
