data_PCOD9437616
_publ_section_title
;
Structure prediction by ZEFSAII (Michael W. Deem and Ramdas Pophale) SiO2 
 PCOD9437616
Probable space group: P B C M
;
_chemical_formula_sum "Si O2"
_cell_formula_units_Z 48
_cell_length_a 9.804735
_cell_length_b 16.817204
_cell_length_c 14.463046
_cell_angle_alpha 90.000000
_cell_angle_beta 90.000000
_cell_angle_gamma 90.000000
_cell_volume 2384.786036
_symmetry_space_group_name_H-M "P B C M"
_symmetry_group_IT_number 57
_symmetry_cell_setting 'orthorhombic'
loop_
_space_group_symop_operation_xyz
x,y,z
-x,-y,1/2+z
x,1/2-y,-z
-x,1/2+y,1/2-z
-x,-y,-z
x,y,1/2-z
-x,1/2+y,z
x,1/2-y,1/2+z
loop_
_atom_site_type_symbol
_atom_site_label
_atom_site_fract_x
_atom_site_fract_y
_atom_site_fract_z
Si Si1 0.418509 0.831363 0.544187
Si Si2 0.198275 0.872998 0.250000
Si Si3 0.062543 0.170453 0.048132
Si Si4 0.303036 0.690601 0.250000
Si Si5 0.998342 0.864029 0.750000
Si Si6 0.319848 0.079617 0.048687
Si Si7 0.735486 0.957711 0.750000
Si Si8 0.167369 0.588242 0.955705
O O1 0.473540 0.750000 0.500000
O O2 0.383754 0.825044 0.653810
O O3 0.527626 0.900260 0.519841
O O4 0.278123 0.848950 0.491456
O O5 0.256602 0.783833 0.250000
O O6 0.128935 0.890024 0.150356
O O7 0.301799 0.948885 0.250000
O O8 0.048265 0.179945 0.157421
O O9 0.213892 0.147064 0.017518
O O10 0.014597 0.250000 0.000000
O O11 0.963991 0.098325 0.019292
O O12 0.163180 0.637170 0.250000
O O13 0.901378 0.943234 0.750000
O O14 0.321494 0.082823 0.159732
O O15 0.244545 0.995698 0.032010
#
# Coordination Sequence:
#
# PCOD9437616 Si02
#       8
#     8   4   8   4   4   8   4   8
#     4  12  23  38  60  89 117 157 199 243 296 349
#     4  10  20  36  60  90 118 148 199 250 281 353
#     4  11  21  38  62  91 117 156 199 246 302 349
#     4  12  21  36  62  88 119 154 203 248 284 352
#     4  10  20  36  60  86 120 152 200 251 287 359
#     4  10  22  38  59  87 125 155 192 245 299 357
#     4   8  19  38  58  84 119 162 190 231 314 348
#     4  11  21  39  62  87 116 160 201 238 293 351
#
# _framework density 20.127592
#
# number of rings (size 3 to 8) (size 9 to 14) (size 15 to 20)
#    0.000    1.333    3.333    3.500    0.000    0.000 
#    0.000    0.000    0.000    3.000    0.000    0.000 
#    0.000    0.000    0.000    0.000    0.000    0.000 
#
# Total GULP energy -267414.736157 kJ/mol
# GULP energy per Si atom -5571.140337 kJ/mol
# Density = 2.008178 g / cm^3
# Si number density = 20.127592 Si / 1000 Ang^3
#
#
#
# Elastic Constant Matrix: (Units=GPa)
#
#
# Indices 1 2 3 4 5 6 
#
# 1 80.9097 14.9387 6.8181 0.0000 0.0000 0.0000
# 2 14.9387 81.3937 14.0807 0.0000 0.0000 0.0000
# 3 6.8181 14.0807 90.8648 0.0000 0.0000 0.0000
# 4 0.0000 0.0000 0.0000 14.4690 0.0000 0.0000
# 5 0.0000 0.0000 0.0000 0.0000 5.2564 0.0000
# 6 0.0000 0.0000 0.0000 0.0000 0.0000 27.6172
#
#
#
# Elastic Compliance Matrix: (Units=1/GPa)
#
#
# Indices 1 2 3 4 5 6 
#
# 1 0.012826 -0.002248 -0.000614 0.000000 0.000000 0.000000
# 2 -0.002248 0.013018 -0.001849 0.000000 0.000000 0.000000
# 3 -0.000614 -0.001849 0.011338 0.000000 0.000000 0.000000
# 4 0.000000 0.000000 0.000000 0.069113 0.000000 0.000000
# 5 0.000000 0.000000 0.000000 0.000000 0.190244 0.000000
# 6 0.000000 0.000000 0.000000 0.000000 0.000000 0.036209
#
#
# Mechanical properties :
#
#
# Convention : Reuss Voigt Hill
#
# Bulk Modulus (GPa) = 36.02147 36.09370 36.05758
# Shear Modulus (GPa) = 14.22782 23.95723 19.09253
#
# Velocity S-wave (km/s) = 2.66161 3.45377 3.08324
# Velocity P-wave (km/s) = 5.23268 5.82032 5.53430
#
# Compressibility (1/GPa) = 0.02776122
#
# Stress axis : x y z
#
# Youngs Moduli (GPa) = 77.96522 76.81470 88.19963
#
# Poissons Ratio (x) = 0.17267 0.05416
# Poissons Ratio (y) = 0.17525 0.16305
# Poissons Ratio (z) = 0.04788 0.14201
#
# Static dielectric constant tensor:
#      x y z
#    x 1.719280 0.000000 0.000000 
#    y 0.000000 1.780750 0.000000 
#    z 0.000000 0.000000 1.718850 
# 
# From -- ./inp_files/16485.got.cif
#   From: 2010.05.17/outbox.cif.g08.bks.cpg/sg57_9_cif.got.tgz:16485.got - 2010.06.03 13:58:18.
