data_PCOD9437941
_publ_section_title
;
Structure prediction by ZEFSAII (Michael W. Deem and Ramdas Pophale) SiO2 
 PCOD9437941
Probable space group: P B C M
;
_chemical_formula_sum "Si O2"
_cell_formula_units_Z 64
_cell_length_a 24.363468
_cell_length_b 15.679583
_cell_length_c 8.422237
_cell_angle_alpha 90.000000
_cell_angle_beta 90.000000
_cell_angle_gamma 90.000000
_cell_volume 3217.370491
_symmetry_space_group_name_H-M "P B C M"
_symmetry_group_IT_number 57
_symmetry_cell_setting 'orthorhombic'
loop_
_space_group_symop_operation_xyz
x,y,z
-x,-y,1/2+z
x,1/2-y,-z
-x,1/2+y,1/2-z
-x,-y,-z
x,y,1/2-z
-x,1/2+y,z
x,1/2-y,1/2+z
loop_
_atom_site_type_symbol
_atom_site_label
_atom_site_fract_x
_atom_site_fract_y
_atom_site_fract_z
Si Si1 0.213591 0.842191 0.940088
Si Si2 0.122894 0.379420 0.936629
Si Si3 0.579295 0.486078 0.059743
Si Si4 0.508564 0.650298 0.059673
Si Si5 0.702934 0.010936 0.056717
Si Si6 0.998878 0.659389 0.441183
Si Si7 0.894704 0.064409 0.057550
Si Si8 0.759236 0.661985 0.562328
O O1 0.215448 0.842824 0.750000
O O2 0.255636 0.914661 0.995777
O O3 0.150917 0.865291 0.983570
O O4 0.229356 0.750000 0.000000
O O5 0.125493 0.359923 0.750000
O O6 0.063293 0.351230 0.001300
O O7 0.123401 0.479681 0.969569
O O8 0.176656 0.342723 0.017824
O O9 0.574295 0.482819 0.250000
O O10 0.555449 0.580047 0.008770
O O11 0.545008 0.405335 0.991434
O O12 0.641910 0.478357 0.006601
O O13 0.510049 0.655945 0.250000
O O14 0.511269 0.750000 0.000000
O O15 0.701739 0.010902 0.250000
O O16 0.728419 0.921362 0.000398
O O17 0.019858 0.750000 0.500000
O O18 0.996892 0.657463 0.250000
O O19 0.043814 0.590109 0.490605
O O20 0.893373 0.051457 0.250000
O O21 0.735286 0.750000 0.500000
O O22 0.755250 0.661003 0.750000
#
# Coordination Sequence:
#
# PCOD9437941 Si02
#       8
#     8   8   8   8   8   8   8   8
#     4  10  21  38  59  84 112 151 197 241 299 357
#     4  11  22  36  56  84 111 145 193 240 298 364
#     4  10  22  39  62  93 127 164 206 252 300 348
#     4  10  21  39  64  94 129 167 206 247 296 350
#     4  10  22  41  61  84 121 163 202 247 302 354
#     4  10  22  36  53  79 110 143 184 238 297 362
#     4  10  20  38  58  78 110 147 187 239 300 361
#     4  11  23  41  62  85 116 157 200 249 303 358
#
# _framework density 19.892021
#
# number of rings (size 3 to 8) (size 9 to 14) (size 15 to 20)
#    0.000    1.750    1.250    2.625    0.000    7.000 
#    0.000    3.750    0.000    0.000    0.000    0.000 
#    0.000    0.000    0.000    0.000    0.000    0.000 
#
# Total GULP energy -357177.604685 kJ/mol
# GULP energy per Si atom -5580.900073 kJ/mol
# Density = 1.984675 g / cm^3
# Si number density = 19.892021 Si / 1000 Ang^3
#
#
#
# Elastic Constant Matrix: (Units=GPa)
#
#
# Indices 1 2 3 4 5 6 
#
# 1 95.0185 28.2903 8.0111 0.0000 0.0000 0.0000
# 2 28.2903 133.4305 13.0840 0.0000 0.0000 0.0000
# 3 8.0111 13.0840 14.0187 0.0000 0.0000 0.0000
# 4 0.0000 0.0000 0.0000 32.2812 0.0000 0.0000
# 5 0.0000 0.0000 0.0000 0.0000 29.4399 0.0000
# 6 0.0000 0.0000 0.0000 0.0000 0.0000 16.9794
#
#
#
# Elastic Compliance Matrix: (Units=1/GPa)
#
#
# Indices 1 2 3 4 5 6 
#
# 1 0.011512 -0.001977 -0.004734 0.000000 0.000000 0.000000
# 2 -0.001977 0.008589 -0.006887 0.000000 0.000000 0.000000
# 3 -0.004734 -0.006887 0.080466 0.000000 0.000000 0.000000
# 4 0.000000 0.000000 0.000000 0.030978 0.000000 0.000000
# 5 0.000000 0.000000 0.000000 0.000000 0.033968 0.000000
# 6 0.000000 0.000000 0.000000 0.000000 0.000000 0.058895
#
#
# Mechanical properties :
#
#
# Convention : Reuss Voigt Hill
#
# Bulk Modulus (GPa) = 13.62905 37.91540 25.77223
# Shear Modulus (GPa) = 18.11209 28.61225 23.36217
#
# Velocity S-wave (km/s) = 3.02076 3.79671 3.43074
# Velocity P-wave (km/s) = 4.36268 6.19048 5.35514
#
# Compressibility (1/GPa) = 0.07337270
#
# Stress axis : x y z
#
# Youngs Moduli (GPa) = 86.86677 116.42904 12.42760
#
# Poissons Ratio (x) = 0.23013 0.05883
# Poissons Ratio (y) = 0.17170 0.08559
# Poissons Ratio (z) = 0.41121 0.80181
#
# Static dielectric constant tensor:
#      x y z
#    x 1.692840 0.000000 0.000000 
#    y 0.000000 1.709710 0.000000 
#    z 0.000000 0.000000 1.690780 
# 
# From -- ./inp_files/9281.got.cif
#   From: 2010.05.17/outbox.cif.g08.bks.cpg/sg57_5_cif.got.tgz:9281.got - 2010.06.03 13:58:18.
