data_PCOD9437529
_publ_section_title
;
Structure prediction by ZEFSAII (Michael W. Deem and Ramdas Pophale) SiO2 
 PCOD9437529
Probable space group: P B C M
;
_chemical_formula_sum "Si O2"
_cell_formula_units_Z 48
_cell_length_a 19.441059
_cell_length_b 15.360774
_cell_length_c 8.522867
_cell_angle_alpha 90.000000
_cell_angle_beta 90.000000
_cell_angle_gamma 90.000000
_cell_volume 2545.181331
_symmetry_space_group_name_H-M "P B C M"
_symmetry_group_IT_number 57
_symmetry_cell_setting 'orthorhombic'
loop_
_space_group_symop_operation_xyz
x,y,z
-x,-y,1/2+z
x,1/2-y,-z
-x,1/2+y,1/2-z
-x,-y,-z
x,y,1/2-z
-x,1/2+y,z
x,1/2-y,1/2+z
loop_
_atom_site_type_symbol
_atom_site_label
_atom_site_fract_x
_atom_site_fract_y
_atom_site_fract_z
Si Si1 0.002389 0.350123 0.438199
Si Si2 0.646829 0.341544 0.938768
Si Si3 0.498116 0.401806 0.560498
Si Si4 0.743731 0.000204 0.438229
Si Si5 0.652714 0.656841 0.061731
Si Si6 0.897905 0.502415 0.062210
O O1 0.001136 0.250000 0.500000
O O2 0.002595 0.344801 0.250000
O O3 0.938718 0.413916 0.487397
O O4 0.066642 0.410330 0.492644
O O5 0.645375 0.341570 0.750000
O O6 0.568399 0.356680 0.995044
O O7 0.696692 0.418680 0.990230
O O8 0.672523 0.250000 0.000000
O O9 0.500000 0.500000 0.500000
O O10 0.498756 0.401970 0.750000
O O11 0.426337 0.359584 0.508949
O O12 0.749072 0.001663 0.250000
O O13 0.702101 0.915833 0.492072
O O14 0.819299 0.002979 0.510138
O O15 0.654480 0.653342 0.250000
O O16 0.674964 0.750000 0.000000
O O17 0.903242 0.507893 0.250000
#
# Coordination Sequence:
#
# PCOD9437529 Si02
#       6
#     8   8   8   8   8   8
#     4  10  21  39  65  94 123 156 193 235 283 338
#     4  10  22  38  57  83 114 151 195 242 294 348
#     4  10  20  36  58  83 111 148 194 245 299 350
#     4  11  23  40  60  84 120 157 195 242 291 347
#     4  11  23  38  59  85 114 152 197 246 299 354
#     4  10  22  40  62  90 123 156 195 238 284 341
#
# _framework density 18.859168
#
# number of rings (size 3 to 8) (size 9 to 14) (size 15 to 20)
#    0.000    1.667    1.667    2.500    0.000    6.000 
#    0.000    6.667    0.000    0.000    0.000    0.000 
#    0.000    0.000    0.000    0.000    0.000    0.000 
#
# Total GULP energy -268039.049562 kJ/mol
# GULP energy per Si atom -5584.146866 kJ/mol
# Density = 1.881624 g / cm^3
# Si number density = 18.859168 Si / 1000 Ang^3
#
#
#
# Elastic Constant Matrix: (Units=GPa)
#
#
# Indices 1 2 3 4 5 6 
#
# 1 139.6027 70.3820 21.6777 0.0000 0.0000 0.0000
# 2 70.3820 183.9145 26.1823 0.0000 0.0000 0.0000
# 3 21.6777 26.1823 24.5055 0.0000 0.0000 0.0000
# 4 0.0000 0.0000 0.0000 34.1941 0.0000 0.0000
# 5 0.0000 0.0000 0.0000 0.0000 -58.6547 0.0000
# 6 0.0000 0.0000 0.0000 0.0000 0.0000 -980.5672
#
#
#
# Elastic Compliance Matrix: (Units=1/GPa)
#
#
# Indices 1 2 3 4 5 6 
#
# 1 0.009423 -0.002853 -0.005287 0.000000 0.000000 0.000000
# 2 -0.002853 0.007277 -0.005251 0.000000 0.000000 0.000000
# 3 -0.005287 -0.005251 0.051094 0.000000 0.000000 0.000000
# 4 0.000000 0.000000 0.000000 0.029245 0.000000 0.000000
# 5 0.000000 0.000000 0.000000 0.000000 -0.017049 0.000000
# 6 0.000000 0.000000 0.000000 0.000000 0.000000 -0.001020
#
#
# Mechanical properties :
#
#
# Convention : Reuss Voigt Hill
#
# Bulk Modulus (GPa) = 24.38325 64.94521 44.66423
# Shear Modulus (GPa) = 41.86865 -185.68683 -71.90909
#
# Velocity S-wave (km/s) = 4.71687 -9.93345 -6.18161
# Velocity P-wave (km/s) = 6.52858 9.85154 5.21683
#
# Compressibility (1/GPa) = 0.04101176
#
# Stress axis : x y z
#
# Youngs Moduli (GPa) = 106.12734 137.42466 19.57186
#
# Poissons Ratio (x) = 0.39211 0.10347
# Poissons Ratio (y) = 0.30281 0.10276
# Poissons Ratio (z) = 0.56107 0.72156
#
# Static dielectric constant tensor:
#      x y z
#    x 1.651350 0.000000 0.000000 
#    y 0.000000 1.619640 0.000000 
#    z 0.000000 0.000000 1.637730 
# 
# From -- ./inp_files/6490.got.cif
#   From: 2010.05.17/outbox.cif.g08.bks.cpg/sg57_4_cif.got.tgz:6490.got - 2010.06.03 13:58:18.
