data_PCOD9437040
_publ_section_title
;
Structure prediction by ZEFSAII (Michael W. Deem and Ramdas Pophale) SiO2 
 PCOD9437040
Probable space group: P B C M
;
_chemical_formula_sum "Si O2"
_cell_formula_units_Z 64
_cell_length_a 18.000856
_cell_length_b 20.390572
_cell_length_c 8.894012
_cell_angle_alpha 90.000000
_cell_angle_beta 90.000000
_cell_angle_gamma 90.000000
_cell_volume 3264.527096
_symmetry_space_group_name_H-M "P B C M"
_symmetry_group_IT_number 57
_symmetry_cell_setting 'orthorhombic'
loop_
_space_group_symop_operation_xyz
x,y,z
-x,-y,1/2+z
x,1/2-y,-z
-x,1/2+y,1/2-z
-x,-y,-z
x,y,1/2-z
-x,1/2+y,z
x,1/2-y,1/2+z
loop_
_atom_site_type_symbol
_atom_site_label
_atom_site_fract_x
_atom_site_fract_y
_atom_site_fract_z
Si Si1 0.569572 0.962393 0.931909
Si Si2 0.383684 0.178268 0.069917
Si Si3 0.930666 0.881267 0.071675
Si Si4 0.717675 0.456639 0.431732
Si Si5 0.759193 0.317723 0.571233
Si Si6 0.213443 0.321120 0.928744
Si Si7 0.119741 0.998970 0.078743
Si Si8 0.085892 0.655094 0.577040
O O1 0.566363 0.962765 0.750000
O O2 0.570731 0.885784 0.979872
O O3 0.645241 0.001407 0.973301
O O4 0.500000 0.000000 0.000000
O O5 0.390779 0.185219 0.250000
O O6 0.297935 0.158377 0.038071
O O7 0.398897 0.250000 0.000000
O O8 0.929886 0.874113 0.250000
O O9 0.001666 0.838817 0.018325
O O10 0.853206 0.860723 0.999928
O O11 0.931365 0.957428 0.026886
O O12 0.719219 0.448610 0.250000
O O13 0.722804 0.384249 0.504589
O O14 0.793748 0.495238 0.470659
O O15 0.729191 0.250000 0.500000
O O16 0.751841 0.316720 0.750000
O O17 0.846338 0.320827 0.523583
O O18 0.205356 0.319512 0.750000
O O19 0.206717 0.250000 0.000000
O O20 0.116377 0.024957 0.250000
O O21 0.095873 0.923485 0.083827
O O22 0.093268 0.679720 0.750000
#
# Coordination Sequence:
#
# PCOD9437040 Si02
#       8
#     8   8   8   8   8   8   8   8
#     4  10  21  38  61  90 124 156 186 225 275 330
#     4   9  19  37  60  85 114 151 191 228 271 326
#     4  11  21  31  47  73 104 138 178 225 276 332
#     4   9  19  38  60  82 112 149 187 231 284 338
#     4  11  22  37  59  83 107 141 189 242 292 346
#     4  10  20  35  53  73 100 135 176 220 267 319
#     4   9  17  32  53  73  98 135 177 223 276 329
#     4   9  20  36  50  69 102 141 180 226 281 336
#
# _framework density 19.604676999999999
#
# number of rings (size 3 to 8) (size 9 to 14) (size 15 to 20)
#    0.000    2.250    0.000    3.750    0.000    7.000 
#    0.000    1.875    0.000    1.500    0.000    0.000 
#    0.000    0.000    0.000    0.000    0.000    0.000 
#
# Total GULP energy -357026.580342 kJ/mol
# GULP energy per Si atom -5578.540318 kJ/mol
# Density = 1.956006 g / cm^3
# Si number density = 19.604677 Si / 1000 Ang^3
#
#
#
# Elastic Constant Matrix: (Units=GPa)
#
#
# Indices 1 2 3 4 5 6 
#
# 1 83.2596 56.0215 24.8814 0.0000 0.0000 0.0000
# 2 56.0215 101.2737 31.3741 0.0000 0.0000 0.0000
# 3 24.8814 31.3741 40.9099 0.0000 0.0000 0.0000
# 4 0.0000 0.0000 0.0000 28.0448 0.0000 0.0000
# 5 0.0000 0.0000 0.0000 0.0000 18.7115 0.0000
# 6 0.0000 0.0000 0.0000 0.0000 0.0000 22.8776
#
#
#
# Elastic Compliance Matrix: (Units=1/GPa)
#
#
# Indices 1 2 3 4 5 6 
#
# 1 0.019820 -0.009482 -0.004783 0.000000 0.000000 0.000000
# 2 -0.009482 0.017488 -0.007644 0.000000 0.000000 0.000000
# 3 -0.004783 -0.007644 0.033215 0.000000 0.000000 0.000000
# 4 0.000000 0.000000 0.000000 0.035657 0.000000 0.000000
# 5 0.000000 0.000000 0.000000 0.000000 0.053443 0.000000
# 6 0.000000 0.000000 0.000000 0.000000 0.000000 0.043711
#
#
# Mechanical properties :
#
#
# Convention : Reuss Voigt Hill
#
# Bulk Modulus (GPa) = 37.44664 49.99968 43.72316
# Shear Modulus (GPa) = 19.52715 21.47119 20.49917
#
# Velocity S-wave (km/s) = 3.15944 3.31298 3.23712
# Velocity P-wave (km/s) = 5.69665 6.33986 6.02684
#
# Compressibility (1/GPa) = 0.02670467
#
# Stress axis : x y z
#
# Youngs Moduli (GPa) = 50.45409 57.18305 30.10673
#
# Poissons Ratio (x) = 0.54222 0.14399
# Poissons Ratio (y) = 0.47842 0.23015
# Poissons Ratio (z) = 0.24130 0.43713
#
# Static dielectric constant tensor:
#      x y z
#    x 1.738240 0.000000 0.000000 
#    y 0.000000 1.748120 0.000000 
#    z 0.000000 0.000000 1.659790 
# 
# From -- ./inp_files/7241.got.cif
#   From: 2010.05.17/outbox.cif.g08.bks.cpg/sg57_4_cif.got.tgz:7241.got - 2010.06.03 13:58:18.
