data_PCOD9437662
_publ_section_title
;
Structure prediction by ZEFSAII (Michael W. Deem and Ramdas Pophale) SiO2 
 PCOD9437662
Probable space group: P B C M
;
_chemical_formula_sum "Si O2"
_cell_formula_units_Z 48
_cell_length_a 14.472832
_cell_length_b 11.464415
_cell_length_c 14.223239
_cell_angle_alpha 90.000000
_cell_angle_beta 90.000000
_cell_angle_gamma 90.000000
_cell_volume 2359.956116
_symmetry_space_group_name_H-M "P B C M"
_symmetry_group_IT_number 57
_symmetry_cell_setting 'orthorhombic'
loop_
_space_group_symop_operation_xyz
x,y,z
-x,-y,1/2+z
x,1/2-y,-z
-x,1/2+y,1/2-z
-x,-y,-z
x,y,1/2-z
-x,1/2+y,z
x,1/2-y,1/2+z
loop_
_atom_site_type_symbol
_atom_site_label
_atom_site_fract_x
_atom_site_fract_y
_atom_site_fract_z
Si Si1 0.965546 0.905392 0.857332
Si Si2 0.128357 0.958194 0.525451
Si Si3 0.174590 0.295117 0.395183
Si Si4 0.574776 0.284907 0.359514
Si Si5 0.626200 0.640386 0.853567
Si Si6 0.341955 0.922451 0.518159
O O1 0.982276 0.944437 0.750000
O O2 0.900129 0.792210 0.853477
O O3 0.058635 0.877349 0.916061
O O4 0.915247 0.999430 0.926270
O O5 0.231335 0.912469 0.510429
O O6 0.138278 0.073278 0.592263
O O7 0.189470 0.250000 0.500000
O O8 0.275822 0.294984 0.350954
O O9 0.598484 0.291124 0.250000
O O10 0.463765 0.281216 0.368572
O O11 0.620446 0.174769 0.410049
O O12 0.610771 0.396113 0.418509
O O13 0.613555 0.583250 0.750000
O O14 0.634022 0.546335 0.936305
#
# Coordination Sequence:
#
# PCOD9437662 Si02
#       6
#     8   8   8   8   8   8
#     4  10  20  37  61  88 116 150 193 243 292 341
#     4   9  21  40  58  86 119 152 196 236 288 356
#     4   9  19  36  60  86 118 153 193 240 291 348
#     4  10  22  38  58  90 118 152 201 242 289 351
#     4  10  20  36  61  88 117 154 201 242 285 351
#     4  10  21  40  62  81 120 163 189 242 299 345
#
# _framework density 20.339362000000001
#
# number of rings (size 3 to 8) (size 9 to 14) (size 15 to 20)
#    0.000    2.333    0.000    1.500    2.333    4.667 
#   18.000    0.000    0.000    0.000    0.000    0.000 
#    0.000    0.000    0.000    0.000    0.000    0.000 
#
# Total GULP energy -267827.097508 kJ/mol
# GULP energy per Si atom -5579.731198 kJ/mol
# Density = 2.029307 g / cm^3
# Si number density = 20.339362 Si / 1000 Ang^3
#
#
#
# Elastic Constant Matrix: (Units=GPa)
#
#
# Indices 1 2 3 4 5 6 
#
# 1 112.3317 13.3769 33.6707 0.0000 0.0000 0.0000
# 2 13.3769 27.4065 6.1813 0.0000 0.0000 0.0000
# 3 33.6707 6.1813 128.9481 0.0000 0.0000 0.0000
# 4 0.0000 0.0000 0.0000 -5.4411 0.0000 0.0000
# 5 0.0000 0.0000 0.0000 0.0000 31.3286 0.0000
# 6 0.0000 0.0000 0.0000 0.0000 0.0000 21.1907
#
#
#
# Elastic Compliance Matrix: (Units=1/GPa)
#
#
# Indices 1 2 3 4 5 6 
#
# 1 0.010159 -0.004408 -0.002441 0.000000 0.000000 0.000000
# 2 -0.004408 0.038799 -0.000709 0.000000 0.000000 0.000000
# 3 -0.002441 -0.000709 0.008427 0.000000 0.000000 0.000000
# 4 0.000000 0.000000 0.000000 -0.183786 0.000000 0.000000
# 5 0.000000 0.000000 0.000000 0.000000 0.031920 0.000000
# 6 0.000000 0.000000 0.000000 0.000000 0.000000 0.047190
#
#
# Mechanical properties :
#
#
# Convention : Reuss Voigt Hill
#
# Bulk Modulus (GPa) = 23.65848 41.68267 32.67057
# Shear Modulus (GPa) = -276.46588 23.77947 -126.34320
#
# Velocity S-wave (km/s) = -11.67140 3.42297 -7.89002
# Velocity P-wave (km/s) = 13.03732 6.01335 8.17959
#
# Compressibility (1/GPa) = 0.04226815
#
# Stress axis : x y z
#
# Youngs Moduli (GPa) = 98.43594 25.77390 118.67280
#
# Poissons Ratio (x) = 0.11361 0.28973
# Poissons Ratio (y) = 0.43389 0.08413
# Poissons Ratio (z) = 0.24032 0.01827
#
# Static dielectric constant tensor:
#      x y z
#    x 1.734230 0.000000 0.000000 
#    y 0.000000 1.760650 0.000000 
#    z 0.000000 0.000000 1.826840 
# 
# From -- ./inp_files/18431.got.cif
#   From: 2010.05.17/outbox.cif.g08.bks.cpg/sg57_10_cif.got.tgz:18431.got - 2010.06.03 13:58:18.
