data_PCOD9437102
_publ_section_title
;
Structure prediction by ZEFSAII (Michael W. Deem and Ramdas Pophale) SiO2 
 PCOD9437102
Probable space group: P B C M
;
_chemical_formula_sum "Si O2"
_cell_formula_units_Z 64
_cell_length_a 24.778516
_cell_length_b 13.746011
_cell_length_c 7.664893
_cell_angle_alpha 90.000000
_cell_angle_beta 90.000000
_cell_angle_gamma 90.000000
_cell_volume 2610.706656
_symmetry_space_group_name_H-M "P B C M"
_symmetry_group_IT_number 57
_symmetry_cell_setting 'orthorhombic'
loop_
_space_group_symop_operation_xyz
x,y,z
-x,-y,1/2+z
x,1/2-y,-z
-x,1/2+y,1/2-z
-x,-y,-z
x,y,1/2-z
-x,1/2+y,z
x,1/2-y,1/2+z
loop_
_atom_site_type_symbol
_atom_site_label
_atom_site_fract_x
_atom_site_fract_y
_atom_site_fract_z
Si Si1 0.510607 0.112110 0.545961
Si Si2 0.372601 0.927313 0.959033
Si Si3 0.795329 0.862747 0.039796
Si Si4 0.395874 0.351804 0.459820
Si Si5 0.740274 0.453975 0.955718
Si Si6 0.970257 0.133604 0.539908
Si Si7 0.913932 0.634185 0.540502
Si Si8 0.145678 0.635863 0.957487
O O1 0.505495 0.128240 0.750000
O O2 0.573270 0.130413 0.507871
O O3 0.456906 0.157427 0.462781
O O4 0.500000 0.000000 0.500000
O O5 0.374991 0.924720 0.750000
O O6 0.312787 0.898537 0.023470
O O7 0.376852 0.041050 0.017353
O O8 0.796994 0.870375 0.250000
O O9 0.854875 0.896306 0.973594
O O10 0.750565 0.937346 0.972489
O O11 0.786724 0.750000 0.000000
O O12 0.366662 0.250000 0.500000
O O13 0.395792 0.358462 0.250000
O O14 0.730062 0.464932 0.750000
O O15 0.798020 0.403793 0.973612
O O16 0.970179 0.250000 0.500000
O O17 0.970376 0.123857 0.750000
O O18 0.912186 0.095708 0.473033
O O19 0.028273 0.096199 0.471132
O O20 0.914297 0.750000 0.500000
O O21 0.914209 0.622488 0.750000
O O22 0.145938 0.622778 0.750000
O O23 0.144983 0.750000 0.000000
#
# Coordination Sequence:
#
# PCOD9437102 Si02
#       8
#     8   8   8   8   8   8   8   8
#     4   9  17  31  51  74  99 127 160 196 237 285
#     4   9  19  35  52  71  99 135 173 210 247 290
#     4   9  18  32  51  74 103 140 179 219 264 316
#     4   9  18  31  49  76 105 130 158 195 239 288
#     4  10  21  37  54  74 105 144 181 219 265 313
#     4   8  14  25  44  69  95 123 159 208 264 320
#     4   8  13  24  43  67  95 128 165 206 258 318
#     4  10  20  35  55  77 100 129 170 221 274 326
#
# _framework density 24.514433
#
# number of rings (size 3 to 8) (size 9 to 14) (size 15 to 20)
#    0.000    3.000    0.000    1.500    0.000    4.500 
#    0.000    1.250    0.000    1.500    0.000    0.000 
#    0.000    0.000    0.000    0.000    0.000    0.000 
#
# Total GULP energy -356700.888849 kJ/mol
# GULP energy per Si atom -5573.451388 kJ/mol
# Density = 2.445864 g / cm^3
# Si number density = 24.514433 Si / 1000 Ang^3
#
#
#
# Elastic Constant Matrix: (Units=GPa)
#
#
# Indices 1 2 3 4 5 6 
#
# 1 138.5273 -7.7073 9.0504 0.0000 0.0000 0.0000
# 2 -7.7073 42.0224 -11.5139 0.0000 0.0000 0.0000
# 3 9.0504 -11.5139 62.2495 0.0000 0.0000 0.0000
# 4 0.0000 0.0000 0.0000 17.3843 0.0000 0.0000
# 5 0.0000 0.0000 0.0000 0.0000 10.5924 0.0000
# 6 0.0000 0.0000 0.0000 0.0000 0.0000 6.7825
#
#
#
# Elastic Compliance Matrix: (Units=1/GPa)
#
#
# Indices 1 2 3 4 5 6 
#
# 1 0.007337 0.001110 -0.000861 0.000000 0.000000 0.000000
# 2 0.001110 0.025235 0.004506 0.000000 0.000000 0.000000
# 3 -0.000861 0.004506 0.017023 0.000000 0.000000 0.000000
# 4 0.000000 0.000000 0.000000 0.057523 0.000000 0.000000
# 5 0.000000 0.000000 0.000000 0.000000 0.094407 0.000000
# 6 0.000000 0.000000 0.000000 0.000000 0.000000 0.147437
#
#
# Mechanical properties :
#
#
# Convention : Reuss Voigt Hill
#
# Bulk Modulus (GPa) = 16.91938 24.71749 20.81844
# Shear Modulus (GPa) = 13.92156 23.81652 18.86904
#
# Velocity S-wave (km/s) = 2.38563 3.12032 2.77738
# Velocity P-wave (km/s) = 3.80856 4.80485 4.33542
#
# Compressibility (1/GPa) = 0.05910381
#
# Stress axis : x y z
#
# Youngs Moduli (GPa) = 136.29895 39.62742 58.74363
#
# Poissons Ratio (x) = -0.04397 0.05060
# Poissons Ratio (y) = -0.15124 -0.26471
# Poissons Ratio (z) = 0.11742 -0.17857
#
# Static dielectric constant tensor:
#      x y z
#    x 2.069420 0.000000 0.000000 
#    y 0.000000 2.022580 0.000000 
#    z 0.000000 0.000000 1.890500 
# 
# From -- ./inp_files/9344.got.cif
#   From: 2010.05.17/outbox.cif.g08.bks.cpg/sg57_5_cif.got.tgz:9344.got - 2010.06.03 13:58:18.
