data_PCOD9437129
_publ_section_title
;
Structure prediction by ZEFSAII (Michael W. Deem and Ramdas Pophale) SiO2 
 PCOD9437129
Probable space group: P B C M
;
_chemical_formula_sum "Si O2"
_cell_formula_units_Z 56
_cell_length_a 22.243876
_cell_length_b 14.785116
_cell_length_c 8.962908
_cell_angle_alpha 90.000000
_cell_angle_beta 90.000000
_cell_angle_gamma 90.000000
_cell_volume 2947.705829
_symmetry_space_group_name_H-M "P B C M"
_symmetry_group_IT_number 57
_symmetry_cell_setting 'orthorhombic'
loop_
_space_group_symop_operation_xyz
x,y,z
-x,-y,1/2+z
x,1/2-y,-z
-x,1/2+y,1/2-z
-x,-y,-z
x,y,1/2-z
-x,1/2+y,z
x,1/2-y,1/2+z
loop_
_atom_site_type_symbol
_atom_site_label
_atom_site_fract_x
_atom_site_fract_y
_atom_site_fract_z
Si Si1 0.216526 0.538928 0.568724
Si Si2 0.084523 0.967611 0.071207
Si Si3 0.564867 0.016594 0.930603
Si Si4 0.966428 0.648727 0.929907
Si Si5 0.226573 0.161173 0.080303
Si Si6 0.333437 0.848104 0.430769
Si Si7 0.628550 0.837473 0.918827
O O1 0.222415 0.532706 0.750000
O O2 0.149911 0.574020 0.534948
O O3 0.215269 0.436161 0.510335
O O4 0.275019 0.593759 0.519651
O O5 0.082066 0.983530 0.250000
O O6 0.032301 0.895338 0.035156
O O7 0.074772 0.066017 0.993931
O O8 0.560207 0.018136 0.750000
O O9 0.603953 0.103761 0.974348
O O10 0.605827 0.931851 0.979787
O O11 0.500000 0.000000 0.000000
O O12 0.959639 0.655039 0.750000
O O13 0.959116 0.750000 0.000000
O O14 0.204272 0.161949 0.250000
O O15 0.299276 0.166282 0.082603
O O16 0.202815 0.250000 0.000000
O O17 0.329495 0.750000 0.500000
O O18 0.331929 0.844388 0.250000
O O19 0.607534 0.832958 0.750000
O O20 0.604573 0.750000 0.000000
#
# Coordination Sequence:
#
# PCOD9437129 Si02
#       7
#     8   8   8   8   8   8   8
#     4   9  17  34  58  79 107 144 179 218 270 326
#     4   9  19  35  56  82 108 143 188 230 274 325
#     4  10  21  37  56  77 105 140 178 218 267 319
#     4  10  20  35  55  79 111 148 186 229 276 325
#     4   9  16  29  50  74 100 131 164 204 256 314
#     4  10  21  39  59  80 109 145 182 223 270 321
#     4   9  17  31  51  74  98 128 163 203 254 310
#
# _framework density 18.997824999999999
#
# number of rings (size 3 to 8) (size 9 to 14) (size 15 to 20)
#    0.000    2.571    1.429    0.429    0.000    3.429 
#    0.000    6.429    0.000    0.000    0.000    0.000 
#    0.000    0.000    0.000    0.000    0.000    0.000 
#
# Total GULP energy -311864.533948 kJ/mol
# GULP energy per Si atom -5569.009535 kJ/mol
# Density = 1.895459 g / cm^3
# Si number density = 18.997825 Si / 1000 Ang^3
#
#
#
# Elastic Constant Matrix: (Units=GPa)
#
#
# Indices 1 2 3 4 5 6 
#
# 1 99.7860 45.5726 22.9482 0.0000 0.0000 0.0000
# 2 45.5726 112.3393 24.3421 0.0000 0.0000 0.0000
# 3 22.9482 24.3421 19.4301 0.0000 0.0000 0.0000
# 4 0.0000 0.0000 0.0000 32.8072 0.0000 0.0000
# 5 0.0000 0.0000 0.0000 0.0000 14.6654 0.0000
# 6 0.0000 0.0000 0.0000 0.0000 0.0000 5.8848
#
#
#
# Elastic Compliance Matrix: (Units=1/GPa)
#
#
# Indices 1 2 3 4 5 6 
#
# 1 0.014446 -0.002969 -0.013341 0.000000 0.000000 0.000000
# 2 -0.002969 0.012829 -0.012565 0.000000 0.000000 0.000000
# 3 -0.013341 -0.012565 0.082965 0.000000 0.000000 0.000000
# 4 0.000000 0.000000 0.000000 0.030481 0.000000 0.000000
# 5 0.000000 0.000000 0.000000 0.000000 0.068188 0.000000
# 6 0.000000 0.000000 0.000000 0.000000 0.000000 0.169928
#
#
# Mechanical properties :
#
#
# Convention : Reuss Voigt Hill
#
# Bulk Modulus (GPa) = 19.05196 46.36458 32.70827
# Shear Modulus (GPa) = 11.01118 19.91764 15.46441
#
# Velocity S-wave (km/s) = 2.41010 3.24144 2.85618
# Velocity P-wave (km/s) = 4.21842 6.20221 5.30389
#
# Compressibility (1/GPa) = 0.05248805
#
# Stress axis : x y z
#
# Youngs Moduli (GPa) = 69.22472 77.94965 12.05332
#
# Poissons Ratio (x) = 0.23146 0.16081
# Poissons Ratio (y) = 0.20555 0.15145
# Poissons Ratio (z) = 0.92355 0.97943
#
# Static dielectric constant tensor:
#      x y z
#    x 1.689360 0.000000 0.000000 
#    y 0.000000 1.666960 0.000000 
#    z 0.000000 0.000000 1.662250 
# 
# From -- ./inp_files/14314.got.cif
#   From: 2010.05.17/outbox.cif.g08.bks.cpg/sg57_8_cif.got.tgz:14314.got - 2010.06.03 13:58:18.
