data_PCOD9437316
_publ_section_title
;
Structure prediction by ZEFSAII (Michael W. Deem and Ramdas Pophale) SiO2 
 PCOD9437316
Probable space group: P B C M
;
_chemical_formula_sum "Si O2"
_cell_formula_units_Z 56
_cell_length_a 15.493281
_cell_length_b 8.991719
_cell_length_c 20.192853
_cell_angle_alpha 90.000000
_cell_angle_beta 90.000000
_cell_angle_gamma 90.000000
_cell_volume 2813.091171
_symmetry_space_group_name_H-M "P B C M"
_symmetry_group_IT_number 57
_symmetry_cell_setting 'orthorhombic'
loop_
_space_group_symop_operation_xyz
x,y,z
-x,-y,1/2+z
x,1/2-y,-z
-x,1/2+y,1/2-z
-x,-y,-z
x,y,1/2-z
-x,1/2+y,z
x,1/2-y,1/2+z
loop_
_atom_site_type_symbol
_atom_site_label
_atom_site_fract_x
_atom_site_fract_y
_atom_site_fract_z
Si Si1 0.501466 0.247789 0.601791
Si Si2 0.214449 0.552594 0.117474
Si Si3 0.384911 0.001559 0.536460
Si Si4 0.808445 0.094176 0.633847
Si Si5 0.092666 0.571885 0.998605
Si Si6 0.937298 0.159517 0.750000
Si Si7 0.120030 0.495274 0.250000
Si Si8 0.624096 0.503364 0.123603
O O1 0.444253 0.139347 0.556670
O O2 0.562095 0.357420 0.559835
O O3 0.433271 0.352550 0.639716
O O4 0.566002 0.140103 0.641701
O O5 0.300750 0.495334 0.082613
O O6 0.220016 0.732493 0.125121
O O7 0.140475 0.522613 0.064422
O O8 0.181865 0.485257 0.186199
O O9 0.367149 0.998851 0.457764
O O10 0.849235 0.036963 0.565329
O O11 0.885115 0.095498 0.687074
O O12 0.720720 0.007235 0.651088
O O13 0.084421 0.750000 0.000000
O O14 0.000000 0.500000 0.000000
O O15 0.921604 0.337691 0.750000
O O16 0.037767 0.114634 0.750000
#
# Coordination Sequence:
#
# PCOD9437316 Si02
#       8
#     8   8   8   8   8   4   4   8
#     4  10  21  30  54  83 118 153 182 229 270 331
#     4  10  20  35  59  80 112 145 183 226 274 335
#     4  11  18  33  52  84 117 148 187 223 277 322
#     4  10  20  35  59  80 112 145 183 226 274 335
#     4  10  20  36  54  81 109 140 172 229 289 324
#     4  10  22  42  62  81 105 150 192 223 277 340
#     4  10  22  42  62  81 105 150 192 223 277 340
#     4  11  18  33  52  84 117 148 187 223 277 322
#
# _framework density 19.906925000000001
#
# number of rings (size 3 to 8) (size 9 to 14) (size 15 to 20)
#    0.000    1.714    2.857    4.286    0.000    0.000 
#    5.143    0.000    0.000    5.143    0.000    0.000 
#    0.000    0.000    0.000    0.000    0.000    0.000 
#
# Total GULP energy -312655.414704 kJ/mol
# GULP energy per Si atom -5583.132405 kJ/mol
# Density = 1.986162 g / cm^3
# Si number density = 19.906925 Si / 1000 Ang^3
#
#
#
# Elastic Constant Matrix: (Units=GPa)
#
#
# Indices 1 2 3 4 5 6 
#
# 1 148.2132 25.1252 27.4169 0.0000 0.0000 0.0000
# 2 25.1252 49.5495 -2.5953 0.0000 0.0000 0.0000
# 3 27.4169 -2.5953 68.7686 0.0000 0.0000 0.0000
# 4 0.0000 0.0000 0.0000 4.4125 0.0000 0.0000
# 5 0.0000 0.0000 0.0000 0.0000 22.2829 0.0000
# 6 0.0000 0.0000 0.0000 0.0000 0.0000 18.3405
#
#
#
# Elastic Compliance Matrix: (Units=1/GPa)
#
#
# Indices 1 2 3 4 5 6 
#
# 1 0.008101 -0.004285 -0.003391 0.000000 0.000000 0.000000
# 2 -0.004285 0.022489 0.002557 0.000000 0.000000 0.000000
# 3 -0.003391 0.002557 0.015990 0.000000 0.000000 0.000000
# 4 0.000000 0.000000 0.000000 0.226631 0.000000 0.000000
# 5 0.000000 0.000000 0.000000 0.000000 0.044878 0.000000
# 6 0.000000 0.000000 0.000000 0.000000 0.000000 0.054524
#
#
# Mechanical properties :
#
#
# Convention : Reuss Voigt Hill
#
# Bulk Modulus (GPa) = 27.51740 40.71388 34.11564
# Shear Modulus (GPa) = 12.65936 23.44613 18.05274
#
# Velocity S-wave (km/s) = 2.52450 3.43561 3.01467
# Velocity P-wave (km/s) = 4.72763 6.01951 5.41225
#
# Compressibility (1/GPa) = 0.03634065
#
# Stress axis : x y z
#
# Youngs Moduli (GPa) = 123.44387 44.46667 62.53863
#
# Poissons Ratio (x) = 0.19056 0.21209
# Poissons Ratio (y) = 0.52900 -0.15993
# Poissons Ratio (z) = 0.41865 -0.11371
#
# Static dielectric constant tensor:
#      x y z
#    x 1.710300 0.000000 0.000000 
#    y 0.000000 1.740720 0.000000 
#    z 0.000000 0.000000 1.721330 
# 
# From -- ./inp_files/25429.got.cif
#   From: 2010.05.17/outbox.cif.g08.bks.cpg/sg57_13_cif.got.tgz:25429.got - 2010.06.03 13:58:18.
