data_PCOD9437556
_publ_section_title
;
Structure prediction by ZEFSAII (Michael W. Deem and Ramdas Pophale) SiO2 
 PCOD9437556
Probable space group: P B C M
;
_chemical_formula_sum "Si O2"
_cell_formula_units_Z 64
_cell_length_a 22.427574
_cell_length_b 16.513157
_cell_length_c 8.640924
_cell_angle_alpha 90.000000
_cell_angle_beta 90.000000
_cell_angle_gamma 90.000000
_cell_volume 3200.166641
_symmetry_space_group_name_H-M "P B C M"
_symmetry_group_IT_number 57
_symmetry_cell_setting 'orthorhombic'
loop_
_space_group_symop_operation_xyz
x,y,z
-x,-y,1/2+z
x,1/2-y,-z
-x,1/2+y,1/2-z
-x,-y,-z
x,y,1/2-z
-x,1/2+y,z
x,1/2-y,1/2+z
loop_
_atom_site_type_symbol
_atom_site_label
_atom_site_fract_x
_atom_site_fract_y
_atom_site_fract_z
Si Si1 0.567148 0.504589 0.936541
Si Si2 0.100565 0.080855 0.923959
Si Si3 0.993841 0.332878 0.933041
Si Si4 0.374824 0.838696 0.062440
Si Si5 0.774658 0.659693 0.936944
Si Si6 0.872446 0.104810 0.424137
Si Si7 0.762262 0.165529 0.932423
Si Si8 0.644124 0.657057 0.063505
O O1 0.568362 0.507781 0.750000
O O2 0.500000 0.500000 0.000000
O O3 0.595410 0.419490 0.994785
O O4 0.600535 0.585685 0.001055
O O5 0.091953 0.115193 0.750000
O O6 0.165367 0.111420 0.979448
O O7 0.103580 0.985265 0.912520
O O8 0.043751 0.102765 0.024633
O O9 0.986775 0.329911 0.750000
O O10 0.927411 0.347166 0.999221
O O11 0.018250 0.250000 0.000000
O O12 0.379577 0.838666 0.250000
O O13 0.305288 0.845755 0.013499
O O14 0.395845 0.750000 0.000000
O O15 0.768673 0.658440 0.750000
O O16 0.783636 0.750000 0.000000
O O17 0.711309 0.633321 0.009326
O O18 0.859766 0.135425 0.250000
O O19 0.810645 0.102060 0.513569
O O20 0.760216 0.169929 0.750000
O O21 0.785089 0.250000 0.000000
O O22 0.641095 0.660033 0.250000
O O23 0.632922 0.750000 0.000000
#
# Coordination Sequence:
#
# PCOD9437556 Si02
#       8
#     8   8   8   8   8   8   8   8
#     4  12  26  45  69  99 134 174 217 265 318 377
#     4  10  22  38  57  83 115 150 193 245 303 364
#     4  11  23  38  57  78 107 149 197 247 302 362
#     4  10  22  42  66  98 134 173 219 267 320 379
#     4  10  20  36  58  87 118 156 200 248 306 367
#     4  10  22  38  56  83 116 152 194 245 302 362
#     4  10  21  37  60  89 120 157 201 248 300 359
#     4  11  23  42  67  97 133 172 217 268 319 381
#
# _framework density 19.998957999999998
#
# number of rings (size 3 to 8) (size 9 to 14) (size 15 to 20)
#    0.000    1.500    0.000    5.625    1.750    6.500 
#    0.000    2.500    0.000    0.000    0.000    0.000 
#    0.000    0.000    0.000    0.000    0.000    0.000 
#
# Total GULP energy -357095.140816 kJ/mol
# GULP energy per Si atom -5579.611575 kJ/mol
# Density = 1.995344 g / cm^3
# Si number density = 19.998958 Si / 1000 Ang^3
#
#
#
# Elastic Constant Matrix: (Units=GPa)
#
#
# Indices 1 2 3 4 5 6 
#
# 1 87.5957 42.3031 34.6230 0.0000 0.0000 0.0000
# 2 42.3031 84.0562 30.0874 0.0000 0.0000 0.0000
# 3 34.6230 30.0874 89.3778 0.0000 0.0000 0.0000
# 4 0.0000 0.0000 0.0000 32.3405 0.0000 0.0000
# 5 0.0000 0.0000 0.0000 0.0000 34.8448 0.0000
# 6 0.0000 0.0000 0.0000 0.0000 0.0000 34.3282
#
#
#
# Elastic Compliance Matrix: (Units=1/GPa)
#
#
# Indices 1 2 3 4 5 6 
#
# 1 0.016266 -0.006743 -0.004031 0.000000 0.000000 0.000000
# 2 -0.006743 0.016322 -0.002882 0.000000 0.000000 0.000000
# 3 -0.004031 -0.002882 0.013720 0.000000 0.000000 0.000000
# 4 0.000000 0.000000 0.000000 0.030921 0.000000 0.000000
# 5 0.000000 0.000000 0.000000 0.000000 0.028699 0.000000
# 6 0.000000 0.000000 0.000000 0.000000 0.000000 0.029131
#
#
# Mechanical properties :
#
#
# Convention : Reuss Voigt Hill
#
# Bulk Modulus (GPa) = 52.64535 52.78406 52.71470
# Shear Modulus (GPa) = 29.63772 30.57046 30.10409
#
# Velocity S-wave (km/s) = 3.85380 3.91398 3.88401
# Velocity P-wave (km/s) = 6.79585 6.84663 6.82129
#
# Compressibility (1/GPa) = 0.01899503
#
# Stress axis : x y z
#
# Youngs Moduli (GPa) = 61.47795 61.26609 72.88473
#
# Poissons Ratio (x) = 0.41314 0.29380
# Poissons Ratio (y) = 0.41457 0.21008
# Poissons Ratio (z) = 0.24782 0.17659
#
# Static dielectric constant tensor:
#      x y z
#    x 1.717420 0.000000 0.000000 
#    y 0.000000 1.719710 0.000000 
#    z 0.000000 0.000000 1.712980 
# 
# From -- ./inp_files/8418.got.cif
#   From: 2010.05.17/outbox.cif.g08.bks.cpg/sg57_5_cif.got.tgz:8418.got - 2010.06.03 13:58:18.
