data_PCOD9437261
_publ_section_title
;
Structure prediction by ZEFSAII (Michael W. Deem and Ramdas Pophale) SiO2 
 PCOD9437261
Probable space group: P B C M
;
_chemical_formula_sum "Si O2"
_cell_formula_units_Z 64
_cell_length_a 25.026162
_cell_length_b 15.603270
_cell_length_c 7.621972
_cell_angle_alpha 90.000000
_cell_angle_beta 90.000000
_cell_angle_gamma 90.000000
_cell_volume 2976.303562
_symmetry_space_group_name_H-M "P B C M"
_symmetry_group_IT_number 57
_symmetry_cell_setting 'orthorhombic'
loop_
_space_group_symop_operation_xyz
x,y,z
-x,-y,1/2+z
x,1/2-y,-z
-x,1/2+y,1/2-z
-x,-y,-z
x,y,1/2-z
-x,1/2+y,z
x,1/2-y,1/2+z
loop_
_atom_site_type_symbol
_atom_site_label
_atom_site_fract_x
_atom_site_fract_y
_atom_site_fract_z
Si Si1 0.364556 0.987112 0.455057
Si Si2 0.569441 0.651927 0.959280
Si Si3 0.941993 0.105376 0.042081
Si Si4 0.246222 0.496349 0.544467
Si Si5 0.552168 0.347955 0.039253
Si Si6 0.172226 0.344899 0.960418
Si Si7 0.942122 0.597132 0.462695
Si Si8 0.826898 0.344805 0.959042
O O1 0.358614 0.963556 0.250000
O O2 0.391606 0.080121 0.466573
O O3 0.305097 0.990037 0.532885
O O4 0.405671 0.916999 0.530598
O O5 0.569293 0.641817 0.750000
O O6 0.508568 0.638773 0.026581
O O7 0.584635 0.750000 0.000000
O O8 0.942583 0.122752 0.250000
O O9 0.887613 0.145590 0.969566
O O10 0.000461 0.131255 0.971668
O O11 0.938064 0.002895 0.014199
O O12 0.254214 0.475366 0.750000
O O13 0.211262 0.418390 0.468981
O O14 0.210864 0.581516 0.532282
O O15 0.549292 0.356965 0.250000
O O16 0.567660 0.250000 0.000000
O O17 0.169178 0.355307 0.750000
O O18 0.111464 0.357105 0.026967
O O19 0.191689 0.250000 0.000000
O O20 0.943342 0.600394 0.250000
O O21 0.828571 0.357010 0.750000
O O22 0.806997 0.250000 0.000000
#
# Coordination Sequence:
#
# PCOD9437261 Si02
#       8
#     8   8   8   8   8   8   8   8
#     4  10  21  37  58  83 113 147 188 234 279 328
#     4  10  20  35  57  85 117 150 185 224 274 330
#     4   9  18  32  53  81 108 137 175 221 274 332
#     4  10  22  41  59  79 110 148 189 234 280 324
#     4   9  19  35  56  84 116 149 182 226 277 329
#     4  10  21  36  56  79 106 142 181 224 275 328
#     4   9  17  32  54  79 108 139 174 220 276 333
#     4  11  23  38  58  82 110 145 186 231 280 335
#
# _framework density 21.503183
#
# number of rings (size 3 to 8) (size 9 to 14) (size 15 to 20)
#    0.000    2.250    1.250    1.125    0.000    4.500 
#    0.000    2.500    0.000    0.000    0.000    0.000 
#    0.000    0.000    0.000    0.000    0.000    0.000 
#
# Total GULP energy -357395.438141 kJ/mol
# GULP energy per Si atom -5584.303721 kJ/mol
# Density = 2.145424 g / cm^3
# Si number density = 21.503183 Si / 1000 Ang^3
#
#
#
# Elastic Constant Matrix: (Units=GPa)
#
#
# Indices 1 2 3 4 5 6 
#
# 1 134.5283 70.4257 -3.4365 0.0000 0.0000 0.0000
# 2 70.4257 105.1599 -28.5677 0.0000 0.0000 0.0000
# 3 -3.4365 -28.5677 41.7006 0.0000 0.0000 0.0000
# 4 0.0000 0.0000 0.0000 22.9450 0.0000 0.0000
# 5 0.0000 0.0000 0.0000 0.0000 -275.3517 0.0000
# 6 0.0000 0.0000 0.0000 0.0000 0.0000 22.5644
#
#
#
# Elastic Compliance Matrix: (Units=1/GPa)
#
#
# Indices 1 2 3 4 5 6 
#
# 1 0.012483 -0.009928 -0.005773 0.000000 0.000000 0.000000
# 2 -0.009928 0.019580 0.012595 0.000000 0.000000 0.000000
# 3 -0.005773 0.012595 0.032133 0.000000 0.000000 0.000000
# 4 0.000000 0.000000 0.000000 0.043582 0.000000 0.000000
# 5 0.000000 0.000000 0.000000 0.000000 -0.003632 0.000000
# 6 0.000000 0.000000 0.000000 0.000000 0.000000 0.044318
#
#
# Mechanical properties :
#
#
# Convention : Reuss Voigt Hill
#
# Bulk Modulus (GPa) = 17.24576 39.80354 28.52465
# Shear Modulus (GPa) = 28.73472 -29.77064 -0.51796
#
# Velocity S-wave (km/s) = 3.65951 -3.72489 -0.49132
# Velocity P-wave (km/s) = 5.08857 0.22575 3.60170
#
# Compressibility (1/GPa) = 0.05798527
#
# Stress axis : x y z
#
# Youngs Moduli (GPa) = 80.10600 51.07230 31.12021
#
# Poissons Ratio (x) = 0.50707 0.17965
# Poissons Ratio (y) = 0.79533 -0.39197
# Poissons Ratio (z) = 0.46244 -0.64328
#
# Static dielectric constant tensor:
#      x y z
#    x 1.807620 0.000000 0.000000 
#    y 0.000000 1.768040 0.000000 
#    z 0.000000 0.000000 1.396070 
# 
# From -- ./inp_files/9372.got.cif
#   From: 2010.05.17/outbox.cif.g08.bks.cpg/sg57_5_cif.got.tgz:9372.got - 2010.06.03 13:58:18.
