data_PCOD9437385
_publ_section_title
;
Structure prediction by ZEFSAII (Michael W. Deem and Ramdas Pophale) SiO2 
 PCOD9437385
Probable space group: P B C M
;
_chemical_formula_sum "Si O2"
_cell_formula_units_Z 48
_cell_length_a 11.920522
_cell_length_b 26.818801
_cell_length_c 7.755877
_cell_angle_alpha 90.000000
_cell_angle_beta 90.000000
_cell_angle_gamma 90.000000
_cell_volume 2479.508174
_symmetry_space_group_name_H-M "P B C M"
_symmetry_group_IT_number 57
_symmetry_cell_setting 'orthorhombic'
loop_
_space_group_symop_operation_xyz
x,y,z
-x,-y,1/2+z
x,1/2-y,-z
-x,1/2+y,1/2-z
-x,-y,-z
x,y,1/2-z
-x,1/2+y,z
x,1/2-y,1/2+z
loop_
_atom_site_type_symbol
_atom_site_label
_atom_site_fract_x
_atom_site_fract_y
_atom_site_fract_z
Si Si1 0.627927 0.192886 0.542133
Si Si2 0.629675 0.807198 0.458155
Si Si3 0.498964 0.557857 0.042971
Si Si4 0.738495 0.902343 0.445446
Si Si5 0.740262 0.401914 0.449065
Si Si6 0.129909 0.997801 0.047058
O O1 0.654198 0.250000 0.500000
O O2 0.624574 0.187762 0.750000
O O3 0.499176 0.183341 0.478694
O O4 0.720503 0.153491 0.474970
O O5 0.656145 0.750000 0.500000
O O6 0.626664 0.812274 0.250000
O O7 0.721412 0.847084 0.525642
O O8 0.499347 0.565592 0.250000
O O9 0.500000 0.500000 0.000000
O O10 0.610157 0.579735 0.958843
O O11 0.387298 0.578986 0.958411
O O12 0.776674 0.895345 0.250000
O O13 0.810480 0.949281 0.509735
O O14 0.776983 0.395553 0.250000
O O15 0.812192 0.447460 0.529255
O O16 0.141354 0.991787 0.250000
O O17 0.000000 0.000000 0.000000
#
# Coordination Sequence:
#
# PCOD9437385 Si02
#       6
#     8   8   8   8   8   8
#     4   9  17  31  49  76 112 146 178 214 260 319
#     4   9  18  31  50  77 113 149 178 215 262 318
#     4  12  22  31  49  79 112 145 179 217 269 329
#     4  11  21  36  56  80 112 146 182 226 273 325
#     4  10  20  36  55  77 109 145 181 221 270 325
#     4  11  24  40  59  80 105 142 185 233 284 331
#
# _framework density 19.358678000000001
#
# number of rings (size 3 to 8) (size 9 to 14) (size 15 to 20)
#    0.000    1.667    3.333    2.500    0.000    2.667 
#    0.000    0.000    0.000    1.000    0.000    2.333 
#    0.000    0.000    0.000    0.000    0.000    0.000 
#
# Total GULP energy -267363.161223 kJ/mol
# GULP energy per Si atom -5570.065859 kJ/mol
# Density = 1.931462 g / cm^3
# Si number density = 19.358678 Si / 1000 Ang^3
#
#
#
# Elastic Constant Matrix: (Units=GPa)
#
#
# Indices 1 2 3 4 5 6 
#
# 1 88.4653 65.4257 -6.4596 0.0000 0.0000 0.0000
# 2 65.4257 192.9454 6.0066 0.0000 0.0000 0.0000
# 3 -6.4596 6.0066 47.2615 0.0000 0.0000 0.0000
# 4 0.0000 0.0000 0.0000 26.7879 0.0000 0.0000
# 5 0.0000 0.0000 0.0000 0.0000 16.1163 0.0000
# 6 0.0000 0.0000 0.0000 0.0000 0.0000 9.7189
#
#
#
# Elastic Compliance Matrix: (Units=1/GPa)
#
#
# Indices 1 2 3 4 5 6 
#
# 1 0.015445 -0.005324 0.002788 0.000000 0.000000 0.000000
# 2 -0.005324 0.007039 -0.001622 0.000000 0.000000 0.000000
# 3 0.002788 -0.001622 0.021746 0.000000 0.000000 0.000000
# 4 0.000000 0.000000 0.000000 0.037330 0.000000 0.000000
# 5 0.000000 0.000000 0.000000 0.000000 0.062049 0.000000
# 6 0.000000 0.000000 0.000000 0.000000 0.000000 0.102892
#
#
# Mechanical properties :
#
#
# Convention : Reuss Voigt Hill
#
# Bulk Modulus (GPa) = 27.84559 50.95751 39.40155
# Shear Modulus (GPa) = 18.74143 28.10459 23.42301
#
# Velocity S-wave (km/s) = 3.11483 3.81436 3.48221
# Velocity P-wave (km/s) = 5.22986 6.76602 6.04692
#
# Compressibility (1/GPa) = 0.03591233
#
# Stress axis : x y z
#
# Youngs Moduli (GPa) = 64.74665 142.07359 45.98536
#
# Poissons Ratio (x) = 0.75639 -0.12819
# Poissons Ratio (y) = 0.34471 0.07460
# Poissons Ratio (z) = -0.18049 0.23048
#
# Static dielectric constant tensor:
#      x y z
#    x 1.766940 0.000000 0.000000 
#    y 0.000000 1.817490 0.000000 
#    z 0.000000 0.000000 1.727120 
# 
# From -- ./inp_files/3282.got.cif
#   From: 2010.05.17/outbox.cif.g08.bks.cpg/sg57_2_cif.got.tgz:3282.got - 2010.06.03 13:58:18.
