data_PCOD9437599
_publ_section_title
;
Structure prediction by ZEFSAII (Michael W. Deem and Ramdas Pophale) SiO2 
 PCOD9437599
Probable space group: P B C M
;
_chemical_formula_sum "Si O2"
_cell_formula_units_Z 40
_cell_length_a 24.461906
_cell_length_b 8.703968
_cell_length_c 9.779306
_cell_angle_alpha 90.000000
_cell_angle_beta 90.000000
_cell_angle_gamma 90.000000
_cell_volume 2082.167265
_symmetry_space_group_name_H-M "P B C M"
_symmetry_group_IT_number 57
_symmetry_cell_setting 'orthorhombic'
loop_
_space_group_symop_operation_xyz
x,y,z
-x,-y,1/2+z
x,1/2-y,-z
-x,1/2+y,1/2-z
-x,-y,-z
x,y,1/2-z
-x,1/2+y,z
x,1/2-y,1/2+z
loop_
_atom_site_type_symbol
_atom_site_label
_atom_site_fract_x
_atom_site_fract_y
_atom_site_fract_z
Si Si1 0.119506 0.432365 0.520546
Si Si2 0.074824 0.930439 0.750000
Si Si3 0.668197 0.904129 0.910896
Si Si4 0.455111 0.407411 0.914526
Si Si5 0.956369 0.071260 0.750000
Si Si6 0.227561 0.602956 0.591940
O O1 0.116218 0.250000 0.500000
O O2 0.109652 0.523706 0.381076
O O3 0.072151 0.491227 0.620888
O O4 0.178146 0.482260 0.578290
O O5 0.057139 0.752341 0.750000
O O6 0.020317 0.035024 0.750000
O O7 0.675345 0.865267 0.750000
O O8 0.606883 0.971435 0.924624
O O9 0.715770 0.021977 0.949256
O O10 0.672652 0.750000 0.000000
O O11 0.467264 0.391311 0.750000
O O12 0.452419 0.250000 0.000000
O O13 0.500000 0.500000 0.000000
O O14 0.216081 0.750000 0.500000
O O15 0.231609 0.650007 0.750000
#
# Coordination Sequence:
#
# PCOD9437599 Si02
#       6
#     8   4   8   8   4   8
#     4  12  25  43  66  93 125 164 208 254 310 370
#     4  12  26  42  70  92 130 164 205 254 309 368
#     4   9  20  39  61  88 121 160 207 257 308 372
#     4  10  20  36  59  87 123 164 209 260 316 376
#     4  12  24  46  64  98 126 164 205 254 307 372
#     4  11  24  42  63  90 124 159 204 255 310 369
#
# _framework density 19.210750999999998
#
# number of rings (size 3 to 8) (size 9 to 14) (size 15 to 20)
#    0.000    1.200    1.000    5.400    1.400    2.400 
#    0.000    2.000    0.000    0.000    0.000    0.000 
#    0.000    0.000    0.000    0.000    0.000    0.000 
#
# Total GULP energy -223441.838663 kJ/mol
# GULP energy per Si atom -5586.045967 kJ/mol
# Density = 1.916703 g / cm^3
# Si number density = 19.210751 Si / 1000 Ang^3
#
#
#
# Elastic Constant Matrix: (Units=GPa)
#
#
# Indices 1 2 3 4 5 6 
#
# 1 90.6473 17.1709 17.1732 0.0000 0.0000 0.0000
# 2 17.1709 98.7950 16.3373 0.0000 0.0000 0.0000
# 3 17.1732 16.3373 90.8384 0.0000 0.0000 0.0000
# 4 0.0000 0.0000 0.0000 27.2196 0.0000 0.0000
# 5 0.0000 0.0000 0.0000 0.0000 48.0994 0.0000
# 6 0.0000 0.0000 0.0000 0.0000 0.0000 33.3823
#
#
#
# Elastic Compliance Matrix: (Units=1/GPa)
#
#
# Indices 1 2 3 4 5 6 
#
# 1 0.011719 -0.001722 -0.001906 0.000000 0.000000 0.000000
# 2 -0.001722 0.010685 -0.001596 0.000000 0.000000 0.000000
# 3 -0.001906 -0.001596 0.011656 0.000000 0.000000 0.000000
# 4 0.000000 0.000000 0.000000 0.036738 0.000000 0.000000
# 5 0.000000 0.000000 0.000000 0.000000 0.020790 0.000000
# 6 0.000000 0.000000 0.000000 0.000000 0.000000 0.029956
#
#
# Mechanical properties :
#
#
# Convention : Reuss Voigt Hill
#
# Bulk Modulus (GPa) = 42.35028 42.40483 42.37756
# Shear Modulus (GPa) = 35.74930 37.04689 36.39810
#
# Velocity S-wave (km/s) = 4.31850 4.39617 4.35751
# Velocity P-wave (km/s) = 6.85265 6.92025 6.88653
#
# Compressibility (1/GPa) = 0.02361259
#
# Stress axis : x y z
#
# Youngs Moduli (GPa) = 85.33180 93.58778 85.79309
#
# Poissons Ratio (x) = 0.16112 0.16351
# Poissons Ratio (y) = 0.14691 0.13695
# Poissons Ratio (z) = 0.16263 0.14939
#
# Static dielectric constant tensor:
#      x y z
#    x 1.674280 0.000000 0.000000 
#    y 0.000000 1.649210 0.000000 
#    z 0.000000 0.000000 1.447230 
# 
# From -- ./inp_files/8979.got.cif
#   From: 2010.05.17/outbox.cif.g08.bks.cpg/sg57_5_cif.got.tgz:8979.got - 2010.06.03 13:58:18.
