data_PCOD9437789
_publ_section_title
;
Structure prediction by ZEFSAII (Michael W. Deem and Ramdas Pophale) SiO2 
 PCOD9437789
Probable space group: P B C M
;
_chemical_formula_sum "Si O2"
_cell_formula_units_Z 64
_cell_length_a 24.084838
_cell_length_b 15.129782
_cell_length_c 9.216487
_cell_angle_alpha 90.000000
_cell_angle_beta 90.000000
_cell_angle_gamma 90.000000
_cell_volume 3358.472641
_symmetry_space_group_name_H-M "P B C M"
_symmetry_group_IT_number 57
_symmetry_cell_setting 'orthorhombic'
loop_
_space_group_symop_operation_xyz
x,y,z
-x,-y,1/2+z
x,1/2-y,-z
-x,1/2+y,1/2-z
-x,-y,-z
x,y,1/2-z
-x,1/2+y,z
x,1/2-y,1/2+z
loop_
_atom_site_type_symbol
_atom_site_label
_atom_site_fract_x
_atom_site_fract_y
_atom_site_fract_z
Si Si1 0.040865 0.156763 0.923054
Si Si2 0.871304 0.532751 0.074891
Si Si3 0.650669 0.655047 0.575080
Si Si4 0.611524 0.333166 0.912985
Si Si5 0.254980 0.664325 0.086007
Si Si6 0.759674 0.961936 0.074362
Si Si7 0.090880 0.659235 0.920652
Si Si8 0.441069 0.015305 0.574409
O O1 0.051983 0.159599 0.750000
O O2 0.974955 0.141332 0.942586
O O3 0.053663 0.250000 0.000000
O O4 0.077349 0.083374 0.002537
O O5 0.872650 0.539789 0.250000
O O6 0.876991 0.429006 0.034088
O O7 0.814549 0.570619 0.007595
O O8 0.653872 0.750000 0.500000
O O9 0.650102 0.665058 0.750000
O O10 0.704591 0.594390 0.540095
O O11 0.594959 0.601141 0.532763
O O12 0.590191 0.326109 0.750000
O O13 0.678067 0.327747 0.908785
O O14 0.594760 0.429101 0.967641
O O15 0.589464 0.250000 0.000000
O O16 0.233219 0.668628 0.250000
O O17 0.246158 0.565055 0.029757
O O18 0.234353 0.750000 0.000000
O O19 0.766439 0.959504 0.250000
O O20 0.099940 0.671935 0.750000
O O21 0.104796 0.750000 0.000000
O O22 0.446688 0.017617 0.750000
O O23 0.500000 0.000000 0.500000
#
# Coordination Sequence:
#
# PCOD9437789 Si02
#       8
#     8   8   8   8   8   8   8   8
#     4  10  20  37  60  84 111 149 194 240 292 347
#     4  11  23  37  55  85 120 151 191 243 291 343
#     4  10  22  42  64  84 112 151 195 238 282 333
#     4   9  17  32  54  79 107 139 174 216 267 323
#     4   9  17  32  55  79 104 138 178 221 273 331
#     4  10  21  39  59  79 110 154 195 234 285 342
#     4   9  20  37  58  84 116 153 193 238 289 347
#     4  10  21  38  59  84 116 149 183 228 279 334
#
# _framework density 19.056281999999999
#
# number of rings (size 3 to 8) (size 9 to 14) (size 15 to 20)
#    0.000    2.250    1.250    1.125    0.000    5.000 
#    0.000    6.250    0.000    0.000    0.000    0.000 
#    0.000    0.000    0.000    0.000    0.000    0.000 
#
# Total GULP energy -357011.475811 kJ/mol
# GULP energy per Si atom -5578.304310 kJ/mol
# Density = 1.901291 g / cm^3
# Si number density = 19.056282 Si / 1000 Ang^3
#
#
#
# Elastic Constant Matrix: (Units=GPa)
#
#
# Indices 1 2 3 4 5 6 
#
# 1 95.9344 56.4083 44.6498 0.0000 0.0000 0.0000
# 2 56.4083 136.0452 48.5248 0.0000 0.0000 0.0000
# 3 44.6498 48.5248 38.1045 0.0000 0.0000 0.0000
# 4 0.0000 0.0000 0.0000 37.3175 0.0000 0.0000
# 5 0.0000 0.0000 0.0000 0.0000 38.3929 0.0000
# 6 0.0000 0.0000 0.0000 0.0000 0.0000 -4.5718
#
#
#
# Elastic Compliance Matrix: (Units=1/GPa)
#
#
# Indices 1 2 3 4 5 6 
#
# 1 0.022929 0.000140 -0.027046 0.000000 0.000000 0.000000
# 2 0.000140 0.013469 -0.017316 0.000000 0.000000 0.000000
# 3 -0.027046 -0.017316 0.079986 0.000000 0.000000 0.000000
# 4 0.000000 0.000000 0.000000 0.026797 0.000000 0.000000
# 5 0.000000 0.000000 0.000000 0.000000 0.026046 0.000000
# 6 0.000000 0.000000 0.000000 0.000000 0.000000 -0.218731
#
#
# Mechanical properties :
#
#
# Convention : Reuss Voigt Hill
#
# Bulk Modulus (GPa) = 35.79028 63.24999 49.52014
# Shear Modulus (GPa) = 103.61908 22.26113 62.94010
#
# Velocity S-wave (km/s) = 7.38196 3.42157 5.75328
# Velocity P-wave (km/s) = 9.56451 6.99090 8.37713
#
# Compressibility (1/GPa) = 0.02794054
#
# Stress axis : x y z
#
# Youngs Moduli (GPa) = 43.61220 74.24572 12.50221
#
# Poissons Ratio (x) = -0.01036 0.33813
# Poissons Ratio (y) = -0.00609 0.21648
# Poissons Ratio (z) = 1.17952 1.28561
#
# Static dielectric constant tensor:
#      x y z
#    x 1.664000 0.000000 0.000000 
#    y 0.000000 1.668730 0.000000 
#    z 0.000000 0.000000 1.652340 
# 
# From -- ./inp_files/9266.got.cif
#   From: 2010.05.17/outbox.cif.g08.bks.cpg/sg57_5_cif.got.tgz:9266.got - 2010.06.03 13:58:18.
