data_PCOD9437324
_publ_section_title
;
Structure prediction by ZEFSAII (Michael W. Deem and Ramdas Pophale) SiO2 
 PCOD9437324
Probable space group: P B C M
;
_chemical_formula_sum "Si O2"
_cell_formula_units_Z 64
_cell_length_a 24.921083
_cell_length_b 14.826452
_cell_length_c 8.754216
_cell_angle_alpha 90.000000
_cell_angle_beta 90.000000
_cell_angle_gamma 90.000000
_cell_volume 3234.606133
_symmetry_space_group_name_H-M "P B C M"
_symmetry_group_IT_number 57
_symmetry_cell_setting 'orthorhombic'
loop_
_space_group_symop_operation_xyz
x,y,z
-x,-y,1/2+z
x,1/2-y,-z
-x,1/2+y,1/2-z
-x,-y,-z
x,y,1/2-z
-x,1/2+y,z
x,1/2-y,1/2+z
loop_
_atom_site_type_symbol
_atom_site_label
_atom_site_fract_x
_atom_site_fract_y
_atom_site_fract_z
Si Si1 0.920043 0.151804 0.933266
Si Si2 0.304924 0.649273 0.433096
Si Si3 0.425486 0.648685 0.432151
Si Si4 0.466874 0.352028 0.067193
Si Si5 0.134810 0.027216 0.065703
Si Si6 0.744940 0.976289 0.933220
Si Si7 0.348020 0.148688 0.933450
Si Si8 0.958386 0.650405 0.567062
O O1 0.919142 0.158624 0.750000
O O2 0.980778 0.122675 0.977733
O O3 0.878347 0.075482 0.980700
O O4 0.909351 0.250000 0.000000
O O5 0.299163 0.750000 0.500000
O O6 0.299166 0.652575 0.250000
O O7 0.365801 0.614089 0.466831
O O8 0.265394 0.577336 0.507051
O O9 0.424393 0.750000 0.500000
O O10 0.431324 0.652128 0.250000
O O11 0.478993 0.604422 0.500543
O O12 0.471667 0.348164 0.250000
O O13 0.407808 0.389346 0.028793
O O14 0.465539 0.250000 0.000000
O O15 0.131442 0.032106 0.250000
O O16 0.195054 0.053290 0.020707
O O17 0.088103 0.087840 0.996984
O O18 0.741628 0.975304 0.750000
O O19 0.699344 0.912172 0.001632
O O20 0.344493 0.152706 0.750000
O O21 0.344183 0.250000 0.000000
O O22 0.950888 0.750000 0.500000
O O23 0.955854 0.652580 0.750000
#
# Coordination Sequence:
#
# PCOD9437324 Si02
#       8
#     8   8   8   8   8   8   8   8
#     4   9  19  36  58  86 118 148 181 223 271 325
#     4  10  21  38  59  82 111 147 186 231 281 333
#     4   9  16  27  48  77 106 137 174 218 272 332
#     4   9  16  27  48  77 106 136 172 218 274 334
#     4  10  22  39  57  81 114 148 186 233 277 321
#     4  11  24  40  58  81 110 148 193 237 280 327
#     4  10  21  38  59  82 110 145 185 231 283 337
#     4  10  20  35  59  88 116 149 184 221 271 327
#
# _framework density 19.786026
#
# number of rings (size 3 to 8) (size 9 to 14) (size 15 to 20)
#    0.000    2.250    0.000    3.375    0.000    6.000 
#    0.000    1.875    0.000    0.000    0.000    0.000 
#    0.000    0.000    0.000    0.000    0.000    0.000 
#
# Total GULP energy -357245.347296 kJ/mol
# GULP energy per Si atom -5581.958551 kJ/mol
# Density = 1.974099 g / cm^3
# Si number density = 19.786026 Si / 1000 Ang^3
#
#
#
# Elastic Constant Matrix: (Units=GPa)
#
#
# Indices 1 2 3 4 5 6 
#
# 1 63.1456 8.1061 24.1191 0.0000 0.0000 0.0000
# 2 8.1061 32.5605 4.1738 0.0000 0.0000 0.0000
# 3 24.1191 4.1738 40.9352 0.0000 0.0000 0.0000
# 4 0.0000 0.0000 0.0000 27.9937 0.0000 0.0000
# 5 0.0000 0.0000 0.0000 0.0000 32.0443 0.0000
# 6 0.0000 0.0000 0.0000 0.0000 0.0000 29.0741
#
#
#
# Elastic Compliance Matrix: (Units=1/GPa)
#
#
# Indices 1 2 3 4 5 6 
#
# 1 0.020858 -0.003665 -0.011916 0.000000 0.000000 0.000000
# 2 -0.003665 0.031763 -0.001079 0.000000 0.000000 0.000000
# 3 -0.011916 -0.001079 0.031560 0.000000 0.000000 0.000000
# 4 0.000000 0.000000 0.000000 0.035722 0.000000 0.000000
# 5 0.000000 0.000000 0.000000 0.000000 0.031207 0.000000
# 6 0.000000 0.000000 0.000000 0.000000 0.000000 0.034395
#
#
# Mechanical properties :
#
#
# Convention : Reuss Voigt Hill
#
# Bulk Modulus (GPa) = 19.66169 23.27104 21.46637
# Shear Modulus (GPa) = 21.20629 24.50527 22.85578
#
# Velocity S-wave (km/s) = 3.27736 3.52307 3.40243
# Velocity P-wave (km/s) = 4.92749 5.32318 5.12915
#
# Compressibility (1/GPa) = 0.05086033
#
# Stress axis : x y z
#
# Youngs Moduli (GPa) = 47.94229 31.48334 31.68583
#
# Poissons Ratio (x) = 0.11540 0.37757
# Poissons Ratio (y) = 0.17572 0.03419
# Poissons Ratio (z) = 0.57128 0.03397
#
# Static dielectric constant tensor:
#      x y z
#    x 1.724380 0.000000 0.000000 
#    y 0.000000 1.684420 0.000000 
#    z 0.000000 0.000000 1.662100 
# 
# From -- ./inp_files/9382.got.cif
#   From: 2010.05.17/outbox.cif.g08.bks.cpg/sg57_5_cif.got.tgz:9382.got - 2010.06.03 13:58:18.
