data_PCOD9437138
_publ_section_title
;
Structure prediction by ZEFSAII (Michael W. Deem and Ramdas Pophale) SiO2 
 PCOD9437138
Probable space group: P B C M
;
_chemical_formula_sum "Si O2"
_cell_formula_units_Z 48
_cell_length_a 15.760046
_cell_length_b 7.860382
_cell_length_c 16.334797
_cell_angle_alpha 90.000000
_cell_angle_beta 90.000000
_cell_angle_gamma 90.000000
_cell_volume 2023.554357
_symmetry_space_group_name_H-M "P B C M"
_symmetry_group_IT_number 57
_symmetry_cell_setting 'orthorhombic'
loop_
_space_group_symop_operation_xyz
x,y,z
-x,-y,1/2+z
x,1/2-y,-z
-x,1/2+y,1/2-z
-x,-y,-z
x,y,1/2-z
-x,1/2+y,z
x,1/2-y,1/2+z
loop_
_atom_site_type_symbol
_atom_site_label
_atom_site_fract_x
_atom_site_fract_y
_atom_site_fract_z
Si Si1 0.953933 0.690832 0.907509
Si Si2 0.706323 0.410375 0.845684
Si Si3 0.539346 0.533444 0.912225
Si Si4 0.611971 0.873544 0.656641
Si Si5 0.224002 0.222832 0.098219
Si Si6 0.114791 0.841001 0.653829
O O1 0.873570 0.803078 0.876609
O O2 0.918190 0.500658 0.899332
O O3 0.041209 0.704776 0.859059
O O4 0.969487 0.750000 0.000000
O O5 0.687612 0.382378 0.750000
O O6 0.618025 0.407091 0.893913
O O7 0.743163 0.602467 0.859429
O O8 0.788421 0.299366 0.870430
O O9 0.460796 0.512885 0.850524
O O10 0.577451 0.719726 0.899117
O O11 0.500000 0.500000 0.000000
O O12 0.618840 0.816800 0.750000
O O13 0.705710 0.914354 0.623908
O O14 0.225132 0.250000 0.000000
O O15 0.117961 0.888959 0.750000
#
# Coordination Sequence:
#
# PCOD9437138 Si02
#       6
#     8   8   8   8   8   8
#     4  10  20  35  55  80 110 141 178 221 264 312
#     4   9  18  34  53  74 104 144 178 209 263 332
#     4  11  21  36  56  78 105 139 180 222 265 320
#     4  11  21  35  55  80 108 140 177 221 268 317
#     4   9  17  31  52  76 103 138 178 218 261 314
#     4  10  20  35  57  80 106 142 183 221 263 315
#
# _framework density 23.720638999999998
#
# number of rings (size 3 to 8) (size 9 to 14) (size 15 to 20)
#    0.000    2.000    0.000    6.500    0.000    2.000 
#    0.000    3.333    0.000    4.000    0.000    0.000 
#    0.000    0.000    0.000    0.000    0.000    0.000 
#
# Total GULP energy -268082.327299 kJ/mol
# GULP energy per Si atom -5585.048485 kJ/mol
# Density = 2.366665 g / cm^3
# Si number density = 23.720639 Si / 1000 Ang^3
#
#
#
# Elastic Constant Matrix: (Units=GPa)
#
#
# Indices 1 2 3 4 5 6 
#
# 1 214.3285 29.4979 39.6993 0.0000 0.0000 0.0000
# 2 29.4979 37.6438 4.2134 0.0000 0.0000 0.0000
# 3 39.6993 4.2134 104.6021 0.0000 0.0000 0.0000
# 4 0.0000 0.0000 0.0000 13.2382 0.0000 0.0000
# 5 0.0000 0.0000 0.0000 0.0000 38.1551 0.0000
# 6 0.0000 0.0000 0.0000 0.0000 0.0000 21.0809
#
#
#
# Elastic Compliance Matrix: (Units=1/GPa)
#
#
# Indices 1 2 3 4 5 6 
#
# 1 0.005603 -0.004171 -0.001958 0.000000 0.000000 0.000000
# 2 -0.004171 0.029790 0.000383 0.000000 0.000000 0.000000
# 3 -0.001958 0.000383 0.010288 0.000000 0.000000 0.000000
# 4 0.000000 0.000000 0.000000 0.075539 0.000000 0.000000
# 5 0.000000 0.000000 0.000000 0.000000 0.026209 0.000000
# 6 0.000000 0.000000 0.000000 0.000000 0.000000 0.047436
#
#
# Mechanical properties :
#
#
# Convention : Reuss Voigt Hill
#
# Bulk Modulus (GPa) = 29.24986 55.93284 42.59135
# Shear Modulus (GPa) = 22.96178 33.37243 28.16711
#
# Velocity S-wave (km/s) = 3.11466 3.75493 3.44968
# Velocity P-wave (km/s) = 5.02917 6.51386 5.81906
#
# Compressibility (1/GPa) = 0.03418819
#
# Stress axis : x y z
#
# Youngs Moduli (GPa) = 178.49132 33.56796 97.20219
#
# Poissons Ratio (x) = 0.14001 0.19035
# Poissons Ratio (y) = 0.74448 -0.03723
# Poissons Ratio (z) = 0.34954 -0.01286
#
# Static dielectric constant tensor:
#      x y z
#    x 2.010230 0.000000 0.000000 
#    y 0.000000 2.017020 0.000000 
#    z 0.000000 0.000000 1.900780 
# 
# From -- ./inp_files/18401.got.cif
#   From: 2010.05.17/outbox.cif.g08.bks.cpg/sg57_10_cif.got.tgz:18401.got - 2010.06.03 13:58:18.
