data_PCOD9437705
_publ_section_title
;
Structure prediction by ZEFSAII (Michael W. Deem and Ramdas Pophale) SiO2 
 PCOD9437705
Probable space group: P B C M
;
_chemical_formula_sum "Si O2"
_cell_formula_units_Z 44
_cell_length_a 17.705339
_cell_length_b 13.516763
_cell_length_c 9.919385
_cell_angle_alpha 90.000000
_cell_angle_beta 90.000000
_cell_angle_gamma 90.000000
_cell_volume 2373.896020
_symmetry_space_group_name_H-M "P B C M"
_symmetry_group_IT_number 57
_symmetry_cell_setting 'orthorhombic'
loop_
_space_group_symop_operation_xyz
x,y,z
-x,-y,1/2+z
x,1/2-y,-z
-x,1/2+y,1/2-z
-x,-y,-z
x,y,1/2-z
-x,1/2+y,z
x,1/2-y,1/2+z
loop_
_atom_site_type_symbol
_atom_site_label
_atom_site_fract_x
_atom_site_fract_y
_atom_site_fract_z
Si Si1 0.008113 0.845426 0.750000
Si Si2 0.887748 0.642479 0.491560
Si Si3 0.033326 0.438305 0.250000
Si Si4 0.881975 0.341807 0.250000
Si Si5 0.388072 0.986847 0.090479
Si Si6 0.531839 0.849170 0.088962
Si Si7 0.216794 0.967325 0.096048
O O1 0.067700 0.755829 0.750000
O O2 0.951013 0.848313 0.624171
O O3 0.054366 0.947433 0.750000
O O4 0.849105 0.750000 0.500000
O O5 0.935313 0.618244 0.622956
O O6 0.830042 0.551810 0.477963
O O7 0.943053 0.430601 0.250000
O O8 0.829781 0.365293 0.380289
O O9 0.390462 0.018202 0.250000
O O10 0.303001 0.954572 0.053683
O O11 0.448521 0.898347 0.079900
O O12 0.414041 0.072354 0.987614
O O13 0.548789 0.836051 0.250000
O O14 0.534618 0.750000 0.000000
O O15 0.220897 0.006303 0.250000
#
# Coordination Sequence:
#
# PCOD9437705 Si02
#       7
#     4   8   4   4   8   8   8
#     4  12  22  38  60  82 108 154 208 257 308 379
#     4  12  22  37  58  85 112 156 202 262 315 360
#     4  12  24  36  58  84 119 146 210 268 303 369
#     4  10  20  38  62  86 107 160 208 251 317 372
#     4   9  19  39  64  88 123 165 207 255 306 370
#     4  10  20  36  64  98 125 165 208 245 304 380
#     4   9  20  39  60  84 120 157 201 255 318 363
#
# _framework density 18.534931
#
# number of rings (size 3 to 8) (size 9 to 14) (size 15 to 20)
#    0.545    1.091    4.545    1.091    0.000    1.455 
#    1.636    1.818    0.000    0.000    0.000    0.000 
#    0.000    0.000    0.000    0.000    0.000    0.000 
#
# Total GULP energy -244997.011532 kJ/mol
# GULP energy per Si atom -5568.113898 kJ/mol
# Density = 1.849274 g / cm^3
# Si number density = 18.534931 Si / 1000 Ang^3
#
#
#
# Elastic Constant Matrix: (Units=GPa)
#
#
# Indices 1 2 3 4 5 6 
#
# 1 104.2197 15.5700 22.6698 0.0000 0.0000 0.0000
# 2 15.5700 87.0651 24.9401 0.0000 0.0000 0.0000
# 3 22.6698 24.9401 99.9810 0.0000 0.0000 0.0000
# 4 0.0000 0.0000 0.0000 15.9780 0.0000 0.0000
# 5 0.0000 0.0000 0.0000 0.0000 22.4861 0.0000
# 6 0.0000 0.0000 0.0000 0.0000 0.0000 8.9840
#
#
#
# Elastic Compliance Matrix: (Units=1/GPa)
#
#
# Indices 1 2 3 4 5 6 
#
# 1 0.010218 -0.001253 -0.002004 0.000000 0.000000 0.000000
# 2 -0.001253 0.012523 -0.002840 0.000000 0.000000 0.000000
# 3 -0.002004 -0.002840 0.011165 0.000000 0.000000 0.000000
# 4 0.000000 0.000000 0.000000 0.062586 0.000000 0.000000
# 5 0.000000 0.000000 0.000000 0.000000 0.044472 0.000000
# 6 0.000000 0.000000 0.000000 0.000000 0.000000 0.111309
#
#
# Mechanical properties :
#
#
# Convention : Reuss Voigt Hill
#
# Bulk Modulus (GPa) = 46.05802 46.40284 46.23043
# Shear Modulus (GPa) = 18.40232 24.69536 21.54884
#
# Velocity S-wave (km/s) = 3.15436 3.65412 3.41340
# Velocity P-wave (km/s) = 6.17818 6.54929 6.36644
#
# Compressibility (1/GPa) = 0.02171175
#
# Stress axis : x y z
#
# Youngs Moduli (GPa) = 97.86350 79.85163 89.56784
#
# Poissons Ratio (x) = 0.10007 0.17952
# Poissons Ratio (y) = 0.12264 0.25435
# Poissons Ratio (z) = 0.19615 0.22676
#
# Static dielectric constant tensor:
#      x y z
#    x 1.651380 0.000000 0.000000 
#    y 0.000000 1.661440 0.000000 
#    z 0.000000 0.000000 1.652150 
# 
# From -- ./inp_files/6458.got.cif
#   From: 2010.05.17/outbox.cif.g08.bks.cpg/sg57_4_cif.got.tgz:6458.got - 2010.06.03 13:58:18.
