data_PCOD9437737
_publ_section_title
;
Structure prediction by ZEFSAII (Michael W. Deem and Ramdas Pophale) SiO2 
 PCOD9437737
Probable space group: P B C M
;
_chemical_formula_sum "Si O2"
_cell_formula_units_Z 40
_cell_length_a 14.202666
_cell_length_b 8.690840
_cell_length_c 16.281529
_cell_angle_alpha 90.000000
_cell_angle_beta 90.000000
_cell_angle_gamma 90.000000
_cell_volume 2009.679561
_symmetry_space_group_name_H-M "P B C M"
_symmetry_group_IT_number 57
_symmetry_cell_setting 'orthorhombic'
loop_
_space_group_symop_operation_xyz
x,y,z
-x,-y,1/2+z
x,1/2-y,-z
-x,1/2+y,1/2-z
-x,-y,-z
x,y,1/2-z
-x,1/2+y,z
x,1/2-y,1/2+z
loop_
_atom_site_type_symbol
_atom_site_label
_atom_site_fract_x
_atom_site_fract_y
_atom_site_fract_z
Si Si1 0.897711 0.659889 0.345510
Si Si2 0.554618 0.853187 0.581742
Si Si3 0.951392 0.125939 0.558919
Si Si4 0.647611 0.087724 0.031874
Si Si5 0.292790 0.151279 0.842289
O O1 0.924784 0.655236 0.250000
O O2 0.895538 0.486252 0.380419
O O3 0.795667 0.736500 0.353255
O O4 0.971176 0.771794 0.392640
O O5 0.556132 0.750000 0.500000
O O6 0.444642 0.889196 0.591162
O O7 0.613013 0.754684 0.646520
O O8 0.609533 0.003390 0.550450
O O9 0.901001 0.250000 0.500000
O O10 0.000000 0.000000 0.500000
O O11 0.711756 0.975784 0.085797
O O12 0.683784 0.250000 0.000000
O O13 0.289622 0.086098 0.750000
#
# Coordination Sequence:
#
# PCOD9437737 Si02
#       5
#     8   8   8   8   8
#     4  10  20  37  58  82 116 151 179 218 280 337
#     4   8  16  32  53  75 105 145 183 218 267 327
#     4   9  19  35  58  85 109 139 185 229 268 322
#     4   9  17  33  55  78 105 143 186 226 272 322
#     4  10  21  35  54  81 112 146 183 225 274 328
#
# _framework density 19.903672
#
# number of rings (size 3 to 8) (size 9 to 14) (size 15 to 20)
#    0.000    2.800    0.000    1.800    0.000    8.000 
#    0.000    9.000    0.000    9.600    0.000    0.000 
#    0.000    0.000    0.000    0.000    0.000    0.000 
#
# Total GULP energy -222820.277762 kJ/mol
# GULP energy per Si atom -5570.506944 kJ/mol
# Density = 1.985837 g / cm^3
# Si number density = 19.903672 Si / 1000 Ang^3
#
#
#
# Elastic Constant Matrix: (Units=GPa)
#
#
# Indices 1 2 3 4 5 6 
#
# 1 44.2792 19.0836 28.7893 0.0000 0.0000 0.0000
# 2 19.0836 137.0140 51.6463 0.0000 0.0000 0.0000
# 3 28.7893 51.6463 85.2545 0.0000 0.0000 0.0000
# 4 0.0000 0.0000 0.0000 31.3579 0.0000 0.0000
# 5 0.0000 0.0000 0.0000 0.0000 -13.3114 0.0000
# 6 0.0000 0.0000 0.0000 0.0000 0.0000 19.6941
#
#
#
# Elastic Compliance Matrix: (Units=1/GPa)
#
#
# Indices 1 2 3 4 5 6 
#
# 1 0.028959 -0.000450 -0.009506 0.000000 0.000000 0.000000
# 2 -0.000450 0.009465 -0.005582 0.000000 0.000000 0.000000
# 3 -0.009506 -0.005582 0.018321 0.000000 0.000000 0.000000
# 4 0.000000 0.000000 0.000000 0.031890 0.000000 0.000000
# 5 0.000000 0.000000 0.000000 0.000000 -0.075124 0.000000
# 6 0.000000 0.000000 0.000000 0.000000 0.000000 0.050777
#
#
# Mechanical properties :
#
#
# Convention : Reuss Voigt Hill
#
# Bulk Modulus (GPa) = 38.95826 51.73179 45.34502
# Shear Modulus (GPa) = 48.11346 18.68336 33.39841
#
# Velocity S-wave (km/s) = 4.92195 3.06713 4.10079
# Velocity P-wave (km/s) = 7.20533 6.21213 6.72708
#
# Compressibility (1/GPa) = 0.02566850
#
# Stress axis : x y z
#
# Youngs Moduli (GPa) = 34.53187 105.64901 54.58142
#
# Poissons Ratio (x) = 0.04755 0.51887
# Poissons Ratio (y) = 0.01554 0.30467
# Poissons Ratio (z) = 0.32827 0.58973
#
# Static dielectric constant tensor:
#      x y z
#    x 1.762390 0.000000 0.000000 
#    y 0.000000 1.758740 0.000000 
#    z 0.000000 0.000000 1.717660 
# 
# From -- ./inp_files/18228.got.cif
#   From: 2010.05.17/outbox.cif.g08.bks.cpg/sg57_10_cif.got.tgz:18228.got - 2010.06.03 13:58:18.
