data_PCOD9437978
_publ_section_title
;
Structure prediction by ZEFSAII (Michael W. Deem and Ramdas Pophale) SiO2 
 PCOD9437978
Probable space group: P B C M
;
_chemical_formula_sum "Si O2"
_cell_formula_units_Z 64
_cell_length_a 8.944005
_cell_length_b 19.379361
_cell_length_c 19.851562
_cell_angle_alpha 90.000000
_cell_angle_beta 90.000000
_cell_angle_gamma 90.000000
_cell_volume 3440.853408
_symmetry_space_group_name_H-M "P B C M"
_symmetry_group_IT_number 57
_symmetry_cell_setting 'orthorhombic'
loop_
_space_group_symop_operation_xyz
x,y,z
-x,-y,1/2+z
x,1/2-y,-z
-x,1/2+y,1/2-z
-x,-y,-z
x,y,1/2-z
-x,1/2+y,z
x,1/2-y,1/2+z
loop_
_atom_site_type_symbol
_atom_site_label
_atom_site_fract_x
_atom_site_fract_y
_atom_site_fract_z
Si Si1 0.618332 0.625193 0.825524
Si Si2 0.118375 0.872119 0.091515
Si Si3 0.267484 0.914752 0.962321
Si Si4 0.248440 0.768827 0.577832
Si Si5 0.311220 0.957316 0.326099
Si Si6 0.195352 0.429732 0.049805
Si Si7 0.386548 0.411147 0.916845
Si Si8 0.461419 0.218926 0.170642
O O1 0.671167 0.606851 0.750000
O O2 0.449021 0.596659 0.830766
O O3 0.711366 0.591436 0.884696
O O4 0.622221 0.707837 0.832374
O O5 0.131640 0.790035 0.098458
O O6 0.160303 0.915436 0.157104
O O7 0.965723 0.895473 0.057612
O O8 0.250414 0.895619 0.040510
O O9 0.197004 0.848329 0.925064
O O10 0.440952 0.919780 0.941219
O O11 0.188003 0.987254 0.951008
O O12 0.294600 0.750000 0.500000
O O13 0.385186 0.767648 0.629670
O O14 0.308516 0.983764 0.250000
O O15 0.339302 0.021388 0.375298
O O16 0.282574 0.406286 0.982647
O O17 0.383405 0.343872 0.869033
O O18 0.486021 0.202678 0.250000
#
# Coordination Sequence:
#
# PCOD9437978 Si02
#       8
#     8   8   8   8   8   8   8   8
#     4  10  22  39  58  85 122 155 199 255 306 360
#     4  11  22  38  57  88 123 162 205 245 300 373
#     4  10  20  38  60  86 119 155 200 253 303 352
#     4   9  20  36  60  85 117 155 204 250 292 360
#     4  11  21  37  62  87 117 160 206 251 305 363
#     4  12  23  37  62  92 124 160 202 252 313 364
#     4  11  22  37  63  91 121 154 204 264 305 359
#     4  10  21  38  61  90 119 154 200 254 308 358
#
# _framework density 18.600038000000001
#
# number of rings (size 3 to 8) (size 9 to 14) (size 15 to 20)
#    0.000    1.500    3.750    1.875    3.500    0.500 
#    6.750    0.000    0.000    0.000    0.000    0.000 
#    0.000    0.000    0.000    0.000    0.000    0.000 
#
# Total GULP energy -356995.939766 kJ/mol
# GULP energy per Si atom -5578.061559 kJ/mol
# Density = 1.855770 g / cm^3
# Si number density = 18.600038 Si / 1000 Ang^3
#
#
#
# Elastic Constant Matrix: (Units=GPa)
#
#
# Indices 1 2 3 4 5 6 
#
# 1 55.6745 37.4441 31.5548 0.0000 0.0000 0.0000
# 2 37.4441 136.9204 45.0924 0.0000 0.0000 0.0000
# 3 31.5548 45.0924 102.7169 0.0000 0.0000 0.0000
# 4 0.0000 0.0000 0.0000 27.1190 0.0000 0.0000
# 5 0.0000 0.0000 0.0000 0.0000 8.2109 0.0000
# 6 0.0000 0.0000 0.0000 0.0000 0.0000 17.5690
#
#
#
# Elastic Compliance Matrix: (Units=1/GPa)
#
#
# Indices 1 2 3 4 5 6 
#
# 1 0.024255 -0.004885 -0.005306 0.000000 0.000000 0.000000
# 2 -0.004885 0.009522 -0.002679 0.000000 0.000000 0.000000
# 3 -0.005306 -0.002679 0.012542 0.000000 0.000000 0.000000
# 4 0.000000 0.000000 0.000000 0.036875 0.000000 0.000000
# 5 0.000000 0.000000 0.000000 0.000000 0.121789 0.000000
# 6 0.000000 0.000000 0.000000 0.000000 0.000000 0.056918
#
#
# Mechanical properties :
#
#
# Convention : Reuss Voigt Hill
#
# Bulk Modulus (GPa) = 48.59968 58.16604 53.38286
# Shear Modulus (GPa) = 16.97784 22.66114 19.81949
#
# Velocity S-wave (km/s) = 3.02451 3.49426 3.26784
# Velocity P-wave (km/s) = 6.19535 6.90070 6.55752
#
# Compressibility (1/GPa) = 0.02057627
#
# Stress axis : x y z
#
# Youngs Moduli (GPa) = 41.22890 105.02068 79.73316
#
# Poissons Ratio (x) = 0.51308 0.42310
# Poissons Ratio (y) = 0.20142 0.21363
# Poissons Ratio (z) = 0.21878 0.28138
#
# Static dielectric constant tensor:
#      x y z
#    x 1.632520 0.000000 0.000000 
#    y 0.000000 1.669610 0.000000 
#    z 0.000000 0.000000 1.665590 
# 
# From -- ./inp_files/24636.got.cif
#   From: 2010.05.17/outbox.cif.g08.bks.cpg/sg57_13_cif.got.tgz:24636.got - 2010.06.03 13:58:18.
