data_PCOD9437672
_publ_section_title
;
Structure prediction by ZEFSAII (Michael W. Deem and Ramdas Pophale) SiO2 
 PCOD9437672
Probable space group: P B C M
;
_chemical_formula_sum "Si O2"
_cell_formula_units_Z 48
_cell_length_a 19.192512
_cell_length_b 15.152740
_cell_length_c 8.822675
_cell_angle_alpha 90.000000
_cell_angle_beta 90.000000
_cell_angle_gamma 90.000000
_cell_volume 2565.802794
_symmetry_space_group_name_H-M "P B C M"
_symmetry_group_IT_number 57
_symmetry_cell_setting 'orthorhombic'
loop_
_space_group_symop_operation_xyz
x,y,z
-x,-y,1/2+z
x,1/2-y,-z
-x,1/2+y,1/2-z
-x,-y,-z
x,y,1/2-z
-x,1/2+y,z
x,1/2-y,1/2+z
loop_
_atom_site_type_symbol
_atom_site_label
_atom_site_fract_x
_atom_site_fract_y
_atom_site_fract_z
Si Si1 0.500587 0.349232 0.932031
Si Si2 0.765321 0.511994 0.571630
Si Si3 0.143887 0.837603 0.928034
Si Si4 0.857021 0.838628 0.928764
Si Si5 0.000608 0.598021 0.931123
Si Si6 0.602219 0.508465 0.568075
O O1 0.498518 0.341490 0.750000
O O2 0.564743 0.415588 0.973911
O O3 0.503746 0.250000 0.000000
O O4 0.435186 0.408016 0.989732
O O5 0.771891 0.537247 0.750000
O O6 0.804212 0.419116 0.553660
O O7 0.806598 0.581466 0.470781
O O8 0.684028 0.506228 0.533811
O O9 0.129702 0.825944 0.750000
O O10 0.175190 0.750000 0.000000
O O11 0.071251 0.856987 0.012030
O O12 0.866494 0.830736 0.750000
O O13 0.826578 0.750000 0.000000
O O14 0.931719 0.855101 0.006664
O O15 0.998669 0.594495 0.750000
O O16 0.000000 0.500000 0.000000
O O17 0.593633 0.518099 0.750000
#
# Coordination Sequence:
#
# PCOD9437672 Si02
#       6
#     8   8   8   8   8   8
#     4  10  20  36  61  91 121 155 195 239 287 343
#     4  10  22  41  62  85 119 157 196 244 295 351
#     4  11  23  39  60  86 118 155 198 246 298 353
#     4  12  25  41  62  87 117 155 200 248 300 356
#     4  12  23  39  62  87 116 152 198 249 302 355
#     4   9  20  39  61  87 119 156 197 241 290 343
#
# _framework density 18.707595000000001
#
# number of rings (size 3 to 8) (size 9 to 14) (size 15 to 20)
#    0.000    1.333    1.667    4.500    0.000    3.333 
#    0.000    0.000    0.000    0.000    0.000    0.000 
#    0.000    0.000    0.000    0.000    0.000    0.000 
#
# Total GULP energy -268247.197874 kJ/mol
# GULP energy per Si atom -5588.483289 kJ/mol
# Density = 1.866502 g / cm^3
# Si number density = 18.707595 Si / 1000 Ang^3
#
#
#
# Elastic Constant Matrix: (Units=GPa)
#
#
# Indices 1 2 3 4 5 6 
#
# 1 102.3197 28.4061 56.2115 0.0000 0.0000 0.0000
# 2 28.4061 128.1877 71.1380 0.0000 0.0000 0.0000
# 3 56.2115 71.1380 132.8222 0.0000 0.0000 0.0000
# 4 0.0000 0.0000 0.0000 25.7919 0.0000 0.0000
# 5 0.0000 0.0000 0.0000 0.0000 109.5047 0.0000
# 6 0.0000 0.0000 0.0000 0.0000 0.0000 -2.3250
#
#
#
# Elastic Compliance Matrix: (Units=1/GPa)
#
#
# Indices 1 2 3 4 5 6 
#
# 1 0.012739 0.000240 -0.005520 0.000000 0.000000 0.000000
# 2 0.000240 0.011105 -0.006049 0.000000 0.000000 0.000000
# 3 -0.005520 -0.006049 0.013105 0.000000 0.000000 0.000000
# 4 0.000000 0.000000 0.000000 0.038772 0.000000 0.000000
# 5 0.000000 0.000000 0.000000 0.000000 0.009132 0.000000
# 6 0.000000 0.000000 0.000000 0.000000 0.000000 -0.430102
#
#
# Mechanical properties :
#
#
# Convention : Reuss Voigt Hill
#
# Bulk Modulus (GPa) = 69.97461 74.98231 72.47846
# Shear Modulus (GPa) = -15.73181 40.43258 12.35039
#
# Velocity S-wave (km/s) = -2.90303 4.65401 2.57218
# Velocity P-wave (km/s) = 5.12336 8.30951 6.90278
#
# Compressibility (1/GPa) = 0.01429090
#
# Stress axis : x y z
#
# Youngs Moduli (GPa) = 78.49845 90.05021 76.30681
#
# Poissons Ratio (x) = -0.02165 0.42122
# Poissons Ratio (y) = -0.01887 0.46161
# Poissons Ratio (z) = 0.43332 0.54475
#
# Static dielectric constant tensor:
#      x y z
#    x 1.632870 0.000000 0.000000 
#    y 0.000000 1.648080 0.000000 
#    z 0.000000 0.000000 1.628710 
# 
# From -- ./inp_files/6526.got.cif
#   From: 2010.05.17/outbox.cif.g08.bks.cpg/sg57_4_cif.got.tgz:6526.got - 2010.06.03 13:58:18.
