data_PCOD9437095
_publ_section_title
;
Structure prediction by ZEFSAII (Michael W. Deem and Ramdas Pophale) SiO2 
 PCOD9437095
Probable space group: P B C M
;
_chemical_formula_sum "Si O2"
_cell_formula_units_Z 56
_cell_length_a 20.298902
_cell_length_b 16.365266
_cell_length_c 7.919338
_cell_angle_alpha 90.000000
_cell_angle_beta 90.000000
_cell_angle_gamma 90.000000
_cell_volume 2630.779777
_symmetry_space_group_name_H-M "P B C M"
_symmetry_group_IT_number 57
_symmetry_cell_setting 'orthorhombic'
loop_
_space_group_symop_operation_xyz
x,y,z
-x,-y,1/2+z
x,1/2-y,-z
-x,1/2+y,1/2-z
-x,-y,-z
x,y,1/2-z
-x,1/2+y,z
x,1/2-y,1/2+z
loop_
_atom_site_type_symbol
_atom_site_label
_atom_site_fract_x
_atom_site_fract_y
_atom_site_fract_z
Si Si1 0.210539 0.092652 0.453268
Si Si2 0.654677 0.338683 0.549906
Si Si3 0.071116 0.154524 0.453701
Si Si4 0.071828 0.845467 0.953652
Si Si5 0.654135 0.660518 0.453495
Si Si6 0.576137 0.501101 0.450702
Si Si7 0.788752 0.408018 0.546395
O O1 0.207977 0.099650 0.250000
O O2 0.137668 0.113211 0.519890
O O3 0.270291 0.149311 0.514605
O O4 0.228031 0.000391 0.499463
O O5 0.628176 0.250000 0.500000
O O6 0.659417 0.339133 0.750000
O O7 0.611592 0.417054 0.501757
O O8 0.729152 0.351897 0.480874
O O9 0.074525 0.250000 0.500000
O O10 0.071041 0.147530 0.250000
O O11 0.999645 0.123072 0.515263
O O12 0.071679 0.852388 0.750000
O O13 0.138333 0.886954 0.019465
O O14 0.075300 0.750000 0.000000
O O15 0.628582 0.750000 0.500000
O O16 0.655072 0.656143 0.250000
O O17 0.612425 0.582869 0.517936
O O18 0.500000 0.500000 0.500000
O O19 0.580470 0.505681 0.250000
O O20 0.791160 0.400922 0.750000
#
# Coordination Sequence:
#
# PCOD9437095 Si02
#       7
#     8   8   8   8   8   8   8
#     4  10  20  35  54  80 113 150 193 243 297 351
#     4  11  23  40  64  93 123 162 206 251 303 358
#     4   9  18  32  51  74 106 146 190 241 294 350
#     4   9  18  33  50  74 107 145 191 242 295 350
#     4  10  22  39  62  90 121 157 198 243 294 350
#     4  11  24  44  67  94 128 162 198 246 297 359
#     4  10  21  35  54  81 114 151 196 247 297 351
#
# _framework density 21.286463000000001
#
# number of rings (size 3 to 8) (size 9 to 14) (size 15 to 20)
#    0.000    2.000    1.429    1.714    0.000    4.571 
#    0.000    1.429    0.000    0.000    0.000    0.000 
#    0.000    0.000    0.000    0.000    0.000    0.000 
#
# Total GULP energy -312629.920459 kJ/mol
# GULP energy per Si atom -5582.677151 kJ/mol
# Density = 2.123801 g / cm^3
# Si number density = 21.286463 Si / 1000 Ang^3
#
#
#
# Elastic Constant Matrix: (Units=GPa)
#
#
# Indices 1 2 3 4 5 6 
#
# 1 146.4109 71.4579 17.3379 0.0000 0.0000 0.0000
# 2 71.4579 137.7263 1.7835 0.0000 0.0000 0.0000
# 3 17.3379 1.7835 25.1075 0.0000 0.0000 0.0000
# 4 0.0000 0.0000 0.0000 30.7988 0.0000 0.0000
# 5 0.0000 0.0000 0.0000 0.0000 -77.9203 0.0000
# 6 0.0000 0.0000 0.0000 0.0000 0.0000 18.1575
#
#
#
# Elastic Compliance Matrix: (Units=1/GPa)
#
#
# Indices 1 2 3 4 5 6 
#
# 1 0.010142 -0.005176 -0.006636 0.000000 0.000000 0.000000
# 2 -0.005176 0.009909 0.002871 0.000000 0.000000 0.000000
# 3 -0.006636 0.002871 0.044207 0.000000 0.000000 0.000000
# 4 0.000000 0.000000 0.000000 0.032469 0.000000 0.000000
# 5 0.000000 0.000000 0.000000 0.000000 -0.012834 0.000000
# 6 0.000000 0.000000 0.000000 0.000000 0.000000 0.055074
#
#
# Mechanical properties :
#
#
# Convention : Reuss Voigt Hill
#
# Bulk Modulus (GPa) = 21.56314 54.48923 38.02619
# Shear Modulus (GPa) = 29.01753 8.78490 18.90122
#
# Velocity S-wave (km/s) = 3.69615 2.03370 2.98307
# Velocity P-wave (km/s) = 5.32610 5.58285 5.45599
#
# Compressibility (1/GPa) = 0.04637543
#
# Stress axis : x y z
#
# Youngs Moduli (GPa) = 98.59712 100.91564 22.62067
#
# Poissons Ratio (x) = 0.52237 0.15011
# Poissons Ratio (y) = 0.51037 -0.06493
# Poissons Ratio (z) = 0.65429 -0.28969
#
# Static dielectric constant tensor:
#      x y z
#    x 1.793050 0.000000 0.000000 
#    y 0.000000 1.750370 0.000000 
#    z 0.000000 0.000000 1.759680 
# 
# From -- ./inp_files/7992.got.cif
#   From: 2010.05.17/outbox.cif.g08.bks.cpg/sg57_4_cif.got.tgz:7992.got - 2010.06.03 13:58:18.
