data_PCOD9437039
_publ_section_title
;
Structure prediction by ZEFSAII (Michael W. Deem and Ramdas Pophale) SiO2 
 PCOD9437039
Probable space group: P B C M
;
_chemical_formula_sum "Si O2"
_cell_formula_units_Z 56
_cell_length_a 19.350502
_cell_length_b 9.323562
_cell_length_c 16.347543
_cell_angle_alpha 90.000000
_cell_angle_beta 90.000000
_cell_angle_gamma 90.000000
_cell_volume 2949.351863
_symmetry_space_group_name_H-M "P B C M"
_symmetry_group_IT_number 57
_symmetry_cell_setting 'orthorhombic'
loop_
_space_group_symop_operation_xyz
x,y,z
-x,-y,1/2+z
x,1/2-y,-z
-x,1/2+y,1/2-z
-x,-y,-z
x,y,1/2-z
-x,1/2+y,z
x,1/2-y,1/2+z
loop_
_atom_site_type_symbol
_atom_site_label
_atom_site_fract_x
_atom_site_fract_y
_atom_site_fract_z
Si Si1 0.389752 0.224596 0.597992
Si Si2 0.342062 0.522216 0.624105
Si Si3 0.771170 0.242003 0.657925
Si Si4 0.454437 0.742107 0.658268
Si Si5 0.074260 0.848322 0.151616
Si Si6 0.969500 0.626645 0.058923
Si Si7 0.658873 0.074887 0.430424
O O1 0.395198 0.250000 0.500000
O O2 0.347909 0.354850 0.636153
O O3 0.467354 0.221631 0.631566
O O4 0.349930 0.078158 0.611035
O O5 0.275634 0.599223 0.660017
O O6 0.412175 0.593720 0.657022
O O7 0.340264 0.555167 0.527196
O O8 0.773135 0.302285 0.750000
O O9 0.848189 0.204567 0.631760
O O10 0.727284 0.345859 0.600005
O O11 0.450827 0.802739 0.750000
O O12 0.409446 0.838863 0.597068
O O13 0.063975 0.842748 0.250000
O O14 0.023623 0.731186 0.107402
O O15 0.067234 0.015460 0.122144
O O16 0.933832 0.750000 0.000000
O O17 0.000000 0.500000 0.000000
#
# Coordination Sequence:
#
# PCOD9437039 Si02
#       7
#     8   8   8   8   8   8   8
#     4  10  21  35  50  72  99 130 174 224 273 322
#     4  10  20  35  53  73 100 135 174 220 269 320
#     4  10  21  37  56  78 106 142 179 214 261 323
#     4  11  21  32  50  74  99 132 173 219 274 330
#     4  10  20  37  61  87 119 156 188 226 281 337
#     4   9  19  35  58  90 120 148 188 234 271 317
#     4  10  20  35  54  74 100 137 179 222 268 324
#
# _framework density 18.987223
#
# number of rings (size 3 to 8) (size 9 to 14) (size 15 to 20)
#    0.000    2.000    0.000    5.571    0.000    9.143 
#    0.000    5.000    0.000    6.857    0.000    0.000 
#    0.000    0.000    0.000    0.000    0.000    0.000 
#
# Total GULP energy -312031.571889 kJ/mol
# GULP energy per Si atom -5571.992355 kJ/mol
# Density = 1.894401 g / cm^3
# Si number density = 18.987223 Si / 1000 Ang^3
#
#
#
# Elastic Constant Matrix: (Units=GPa)
#
#
# Indices 1 2 3 4 5 6 
#
# 1 98.3637 48.4108 32.7560 0.0000 0.0000 0.0000
# 2 48.4108 140.2070 31.2166 0.0000 0.0000 0.0000
# 3 32.7560 31.2166 65.6247 0.0000 0.0000 0.0000
# 4 0.0000 0.0000 0.0000 12.6179 0.0000 0.0000
# 5 0.0000 0.0000 0.0000 0.0000 -263.2048 0.0000
# 6 0.0000 0.0000 0.0000 0.0000 0.0000 -3.0728
#
#
#
# Elastic Compliance Matrix: (Units=1/GPa)
#
#
# Indices 1 2 3 4 5 6 
#
# 1 0.013621 -0.003567 -0.005102 0.000000 0.000000 0.000000
# 2 -0.003567 0.008911 -0.002458 0.000000 0.000000 0.000000
# 3 -0.005102 -0.002458 0.018954 0.000000 0.000000 0.000000
# 4 0.000000 0.000000 0.000000 0.079252 0.000000 0.000000
# 5 0.000000 0.000000 0.000000 0.000000 -0.003799 0.000000
# 6 0.000000 0.000000 0.000000 0.000000 0.000000 -0.325432
#
#
# Mechanical properties :
#
#
# Convention : Reuss Voigt Hill
#
# Bulk Modulus (GPa) = 51.99829 58.77355 55.38592
# Shear Modulus (GPa) = -27.80455 -37.94447 -32.87451
#
# Velocity S-wave (km/s) = -3.83088 -4.47522 -4.16553
# Velocity P-wave (km/s) = 2.80676 2.07798 2.46940
#
# Compressibility (1/GPa) = 0.01923140
#
# Stress axis : x y z
#
# Youngs Moduli (GPa) = 73.41632 112.21652 52.75874
#
# Poissons Ratio (x) = 0.40029 0.26917
# Poissons Ratio (y) = 0.26189 0.12971
# Poissons Ratio (z) = 0.37457 0.27588
#
# Static dielectric constant tensor:
#      x y z
#    x 1.611950 0.000000 0.000000 
#    y 0.000000 1.703040 0.000000 
#    z 0.000000 0.000000 1.730360 
# 
# From -- ./inp_files/19344.got.cif
#   From: 2010.05.17/outbox.cif.g08.bks.cpg/sg57_10_cif.got.tgz:19344.got - 2010.06.03 13:58:18.
