data_PCOD9437395
_publ_section_title
;
Structure prediction by ZEFSAII (Michael W. Deem and Ramdas Pophale) SiO2 
 PCOD9437395
Probable space group: P B C M
;
_chemical_formula_sum "Si O2"
_cell_formula_units_Z 48
_cell_length_a 29.820898
_cell_length_b 10.471978
_cell_length_c 8.667540
_cell_angle_alpha 90.000000
_cell_angle_beta 90.000000
_cell_angle_gamma 90.000000
_cell_volume 2706.732222
_symmetry_space_group_name_H-M "P B C M"
_symmetry_group_IT_number 57
_symmetry_cell_setting 'orthorhombic'
loop_
_space_group_symop_operation_xyz
x,y,z
-x,-y,1/2+z
x,1/2-y,-z
-x,1/2+y,1/2-z
-x,-y,-z
x,y,1/2-z
-x,1/2+y,z
x,1/2-y,1/2+z
loop_
_atom_site_type_symbol
_atom_site_label
_atom_site_fract_x
_atom_site_fract_y
_atom_site_fract_z
Si Si1 0.969192 0.888351 0.065369
Si Si2 0.301043 0.612433 0.935537
Si Si3 0.468271 0.110649 0.935190
Si Si4 0.631744 0.612416 0.063730
Si Si5 0.197363 0.888711 0.435158
Si Si6 0.864661 0.611459 0.934784
O O1 0.972098 0.885953 0.250000
O O2 0.916941 0.909271 0.022014
O O3 0.982596 0.750000 0.000000
O O4 0.000000 0.000000 0.000000
O O5 0.301793 0.618659 0.750000
O O6 0.333971 0.498777 0.982705
O O7 0.249349 0.589452 0.982782
O O8 0.315049 0.750000 0.000000
O O9 0.469086 0.112821 0.750000
O O10 0.481902 0.250000 0.000000
O O11 0.417596 0.088482 0.994876
O O12 0.500000 0.000000 0.000000
O O13 0.628781 0.617378 0.250000
O O14 0.646683 0.750000 0.000000
O O15 0.184047 0.750000 0.500000
O O16 0.195337 0.886423 0.250000
O O17 0.166012 0.999854 0.498759
O O18 0.861633 0.613312 0.750000
O O19 0.851326 0.750000 0.000000
#
# Coordination Sequence:
#
# PCOD9437395 Si02
#       6
#     8   8   8   8   8   8
#     4  10  21  37  57  80 108 140 178 220 267 318
#     4   9  20  36  55  79 108 140 178 220 265 315
#     4  11  22  38  58  82 110 143 181 223 269 319
#     4  10  20  36  55  79 109 141 178 221 266 317
#     4  10  20  36  56  80 109 143 181 223 267 317
#     4  10  21  37  56  80 108 141 178 221 268 318
#
# _framework density 17.733559
#
# number of rings (size 3 to 8) (size 9 to 14) (size 15 to 20)
#    0.000    2.000    0.000    4.500    0.000    6.000 
#    0.000    3.333    0.000    0.000    0.000    0.000 
#    0.000    0.000    0.000    0.000    0.000    0.000 
#
# Total GULP energy -268066.479987 kJ/mol
# GULP energy per Si atom -5584.718333 kJ/mol
# Density = 1.769320 g / cm^3
# Si number density = 17.733559 Si / 1000 Ang^3
#
#
#
# Elastic Constant Matrix: (Units=GPa)
#
#
# Indices 1 2 3 4 5 6 
#
# 1 87.4686 122.9496 44.1252 0.0000 0.0000 0.0000
# 2 122.9496 213.8492 66.5824 0.0000 0.0000 0.0000
# 3 44.1252 66.5824 80.2706 0.0000 0.0000 0.0000
# 4 0.0000 0.0000 0.0000 38.9051 0.0000 0.0000
# 5 0.0000 0.0000 0.0000 0.0000 25.9437 0.0000
# 6 0.0000 0.0000 0.0000 0.0000 0.0000 44.7385
#
#
#
# Elastic Compliance Matrix: (Units=1/GPa)
#
#
# Indices 1 2 3 4 5 6 
#
# 1 0.061703 -0.033589 -0.006057 0.000000 0.000000 0.000000
# 2 -0.033589 0.024590 -0.001932 0.000000 0.000000 0.000000
# 3 -0.006057 -0.001932 0.017390 0.000000 0.000000 0.000000
# 4 0.000000 0.000000 0.000000 0.025704 0.000000 0.000000
# 5 0.000000 0.000000 0.000000 0.000000 0.038545 0.000000
# 6 0.000000 0.000000 0.000000 0.000000 0.000000 0.022352
#
#
# Mechanical properties :
#
#
# Convention : Reuss Voigt Hill
#
# Bulk Modulus (GPa) = 48.71952 94.32255 71.52103
# Shear Modulus (GPa) = 17.83917 31.77953 24.80935
#
# Velocity S-wave (km/s) = 3.17512 4.23786 3.74439
# Velocity P-wave (km/s) = 6.40114 8.78921 7.68846
#
# Compressibility (1/GPa) = 0.02052566
#
# Stress axis : x y z
#
# Youngs Moduli (GPa) = 16.20665 40.66768 57.50434
#
# Poissons Ratio (x) = 1.36601 0.34830
# Poissons Ratio (y) = 0.54437 0.11110
# Poissons Ratio (z) = 0.09816 0.07857
#
# Static dielectric constant tensor:
#      x y z
#    x 1.594400 0.000000 0.000000 
#    y 0.000000 1.572540 0.000000 
#    z 0.000000 0.000000 1.595360 
# 
# From -- ./inp_files/9903.got.cif
#   From: 2010.05.17/outbox.cif.g08.bks.cpg/sg57_5_cif.got.tgz:9903.got - 2010.06.03 13:58:18.
