data_PCOD9437223
_publ_section_title
;
Structure prediction by ZEFSAII (Michael W. Deem and Ramdas Pophale) SiO2 
 PCOD9437223
Probable space group: P B C M
;
_chemical_formula_sum "Si O2"
_cell_formula_units_Z 64
_cell_length_a 21.341010
_cell_length_b 19.137633
_cell_length_c 8.731760
_cell_angle_alpha 90.000000
_cell_angle_beta 90.000000
_cell_angle_gamma 90.000000
_cell_volume 3566.194135
_symmetry_space_group_name_H-M "P B C M"
_symmetry_group_IT_number 57
_symmetry_cell_setting 'orthorhombic'
loop_
_space_group_symop_operation_xyz
x,y,z
-x,-y,1/2+z
x,1/2-y,-z
-x,1/2+y,1/2-z
-x,-y,-z
x,y,1/2-z
-x,1/2+y,z
x,1/2-y,1/2+z
loop_
_atom_site_type_symbol
_atom_site_label
_atom_site_fract_x
_atom_site_fract_y
_atom_site_fract_z
Si Si1 0.804909 0.033150 0.933890
Si Si2 0.502925 0.577462 0.065694
Si Si3 0.391122 0.676345 0.433541
Si Si4 0.246049 0.674971 0.065909
Si Si5 0.125938 0.325533 0.934111
Si Si6 0.062143 0.466136 0.566410
Si Si7 0.614906 0.828295 0.434120
Si Si8 0.749578 0.895514 0.433777
O O1 0.799569 0.032404 0.750000
O O2 0.875241 0.008989 0.976032
O O3 0.790550 0.109205 0.999143
O O4 0.758959 0.973946 0.002667
O O5 0.506790 0.575765 0.250000
O O6 0.438626 0.616289 0.020042
O O7 0.500000 0.500000 0.000000
O O8 0.560609 0.622408 0.000882
O O9 0.413151 0.750000 0.500000
O O10 0.391593 0.680829 0.250000
O O11 0.319155 0.665445 0.480910
O O12 0.242307 0.675869 0.250000
O O13 0.225561 0.750000 0.000000
O O14 0.128728 0.323299 0.750000
O O15 0.076921 0.386198 0.980372
O O16 0.110320 0.250000 0.000000
O O17 0.193701 0.350242 0.995937
O O18 0.057682 0.466982 0.750000
O O19 0.000000 0.500000 0.500000
O O20 0.610185 0.750000 0.500000
O O21 0.609651 0.825717 0.250000
O O22 0.682680 0.861729 0.473097
O O23 0.755477 0.896610 0.250000
#
# Coordination Sequence:
#
# PCOD9437223 Si02
#       8
#     8   8   8   8   8   8   8   8
#     4  10  21  37  57  85 117 148 185 231 279 331
#     4  11  24  40  57  80 110 146 186 234 284 335
#     4   9  20  37  57  79 105 137 180 229 277 333
#     4  10  20  36  58  84 112 145 185 233 285 336
#     4  10  20  35  56  85 117 148 187 233 278 332
#     4   9  20  37  57  82 114 149 188 230 272 326
#     4  11  24  40  58  82 113 147 187 232 281 338
#     4  10  21  36  57  84 114 150 187 231 282 334
#
# _framework density 17.946304000000001
#
# number of rings (size 3 to 8) (size 9 to 14) (size 15 to 20)
#    0.000    2.000    0.000    3.750    1.750    8.500 
#    0.000    0.625    0.000    1.500    0.000    0.000 
#    0.000    0.000    0.000    0.000    0.000    0.000 
#
# Total GULP energy -357411.338225 kJ/mol
# GULP energy per Si atom -5584.552160 kJ/mol
# Density = 1.790546 g / cm^3
# Si number density = 17.946304 Si / 1000 Ang^3
#
#
#
# Elastic Constant Matrix: (Units=GPa)
#
#
# Indices 1 2 3 4 5 6 
#
# 1 83.5715 90.4837 39.1480 0.0000 0.0000 0.0000
# 2 90.4837 205.2999 57.4833 0.0000 0.0000 0.0000
# 3 39.1480 57.4833 53.9542 0.0000 0.0000 0.0000
# 4 0.0000 0.0000 0.0000 38.8129 0.0000 0.0000
# 5 0.0000 0.0000 0.0000 0.0000 27.2199 0.0000
# 6 0.0000 0.0000 0.0000 0.0000 0.0000 25.6314
#
#
#
# Elastic Compliance Matrix: (Units=1/GPa)
#
#
# Indices 1 2 3 4 5 6 
#
# 1 0.025872 -0.008760 -0.009439 0.000000 0.000000 0.000000
# 2 -0.008760 0.009908 -0.004200 0.000000 0.000000 0.000000
# 3 -0.009439 -0.004200 0.029858 0.000000 0.000000 0.000000
# 4 0.000000 0.000000 0.000000 0.025765 0.000000 0.000000
# 5 0.000000 0.000000 0.000000 0.000000 0.036738 0.000000
# 6 0.000000 0.000000 0.000000 0.000000 0.000000 0.039015
#
#
# Mechanical properties :
#
#
# Convention : Reuss Voigt Hill
#
# Bulk Modulus (GPa) = 47.98594 79.67281 63.82938
# Shear Modulus (GPa) = 22.84166 28.71354 25.77760
#
# Velocity S-wave (km/s) = 3.57147 4.00430 3.79406
# Velocity P-wave (km/s) = 6.61845 8.11608 7.40522
#
# Compressibility (1/GPa) = 0.02083944
#
# Stress axis : x y z
#
# Youngs Moduli (GPa) = 38.65219 100.93265 33.49223
#
# Poissons Ratio (x) = 0.88414 0.31614
# Poissons Ratio (y) = 0.33858 0.14066
# Poissons Ratio (z) = 0.36485 0.42390
#
# Static dielectric constant tensor:
#      x y z
#    x 1.599570 0.000000 0.000000 
#    y 0.000000 1.585960 0.000000 
#    z 0.000000 0.000000 1.602580 
# 
# From -- ./inp_files/8598.got.cif
#   From: 2010.05.17/outbox.cif.g08.bks.cpg/sg57_5_cif.got.tgz:8598.got - 2010.06.03 13:58:18.
