data_PCOD9437144
_publ_section_title
;
Structure prediction by ZEFSAII (Michael W. Deem and Ramdas Pophale) SiO2 
 PCOD9437144
Probable space group: P B C M
;
_chemical_formula_sum "Si O2"
_cell_formula_units_Z 64
_cell_length_a 20.817417
_cell_length_b 18.919769
_cell_length_c 8.724284
_cell_angle_alpha 90.000000
_cell_angle_beta 90.000000
_cell_angle_gamma 90.000000
_cell_volume 3436.152785
_symmetry_space_group_name_H-M "P B C M"
_symmetry_group_IT_number 57
_symmetry_cell_setting 'orthorhombic'
loop_
_space_group_symop_operation_xyz
x,y,z
-x,-y,1/2+z
x,1/2-y,-z
-x,1/2+y,1/2-z
-x,-y,-z
x,y,1/2-z
-x,1/2+y,z
x,1/2-y,1/2+z
loop_
_atom_site_type_symbol
_atom_site_label
_atom_site_fract_x
_atom_site_fract_y
_atom_site_fract_z
Si Si1 0.928424 0.424216 0.434566
Si Si2 0.317706 0.914734 0.435219
Si Si3 0.580408 0.826986 0.565650
Si Si4 0.192031 0.671780 0.565035
Si Si5 0.699699 0.577380 0.435446
Si Si6 0.433486 0.672248 0.066139
Si Si7 0.932502 0.911014 0.567089
Si Si8 0.185877 0.328126 0.067596
O O1 0.935927 0.420012 0.250000
O O2 0.868325 0.376546 0.481307
O O3 0.916944 0.506865 0.471696
O O4 0.994506 0.400133 0.512445
O O5 0.322085 0.912845 0.250000
O O6 0.258296 0.865364 0.483301
O O7 0.383032 0.884000 0.503634
O O8 0.303435 0.995393 0.480235
O O9 0.596711 0.750000 0.500000
O O10 0.581215 0.822704 0.750000
O O11 0.633652 0.883609 0.519167
O O12 0.507166 0.844252 0.519331
O O13 0.186910 0.750000 0.500000
O O14 0.192109 0.674627 0.750000
O O15 0.705591 0.580415 0.250000
O O16 0.759123 0.619423 0.506057
O O17 0.430419 0.675027 0.250000
O O18 0.417967 0.750000 0.000000
O O19 0.927669 0.902819 0.750000
O O20 0.882245 0.859490 0.487051
O O21 0.188282 0.324670 0.250000
O O22 0.195760 0.250000 0.000000
#
# Coordination Sequence:
#
# PCOD9437144 Si02
#       8
#     8   8   8   8   8   8   8   8
#     4   9  19  37  59  83 113 148 185 226 274 330
#     4  10  21  37  57  81 111 148 185 227 281 334
#     4   9  19  35  56  81 110 145 183 226 276 332
#     4  10  21  36  54  77 107 143 182 224 271 323
#     4  10  21  39  60  82 111 146 185 230 283 339
#     4  10  20  35  55  81 112 146 186 229 275 329
#     4  10  20  37  61  86 113 147 185 227 277 332
#     4  12  25  40  59  84 114 148 188 233 282 336
#
# _framework density 18.625481000000001
#
# number of rings (size 3 to 8) (size 9 to 14) (size 15 to 20)
#    0.000    2.000    0.000    3.375    0.000    8.000 
#    0.000    2.500    0.000    0.000    0.000    0.000 
#    0.000    0.000    0.000    0.000    0.000    0.000 
#
# Total GULP energy -357557.611864 kJ/mol
# GULP energy per Si atom -5586.837685 kJ/mol
# Density = 1.858309 g / cm^3
# Si number density = 18.625481 Si / 1000 Ang^3
#
#
#
# Elastic Constant Matrix: (Units=GPa)
#
#
# Indices 1 2 3 4 5 6 
#
# 1 49.4780 13.2247 15.6500 0.0000 0.0000 0.0000
# 2 13.2247 40.5126 13.8187 0.0000 0.0000 0.0000
# 3 15.6500 13.8187 29.2113 0.0000 0.0000 0.0000
# 4 0.0000 0.0000 0.0000 29.5857 0.0000 0.0000
# 5 0.0000 0.0000 0.0000 0.0000 29.6237 0.0000
# 6 0.0000 0.0000 0.0000 0.0000 0.0000 44.1507
#
#
#
# Elastic Compliance Matrix: (Units=1/GPa)
#
#
# Indices 1 2 3 4 5 6 
#
# 1 0.024940 -0.004273 -0.011340 0.000000 0.000000 0.000000
# 2 -0.004273 0.030165 -0.011981 0.000000 0.000000 0.000000
# 3 -0.011340 -0.011981 0.045976 0.000000 0.000000 0.000000
# 4 0.000000 0.000000 0.000000 0.033800 0.000000 0.000000
# 5 0.000000 0.000000 0.000000 0.000000 0.033757 0.000000
# 6 0.000000 0.000000 0.000000 0.000000 0.000000 0.022650
#
#
# Mechanical properties :
#
#
# Convention : Reuss Voigt Hill
#
# Bulk Modulus (GPa) = 21.78947 22.73207 22.26077
# Shear Modulus (GPa) = 19.10044 25.77259 22.43652
#
# Velocity S-wave (km/s) = 3.20582 3.72388 3.47452
# Velocity P-wave (km/s) = 5.04254 5.54266 5.29850
#
# Compressibility (1/GPa) = 0.04589372
#
# Stress axis : x y z
#
# Youngs Moduli (GPa) = 40.09607 33.15087 21.75026
#
# Poissons Ratio (x) = 0.14166 0.24665
# Poissons Ratio (y) = 0.17134 0.26058
# Poissons Ratio (z) = 0.45470 0.39717
#
# Static dielectric constant tensor:
#      x y z
#    x 1.628330 0.000000 0.000000 
#    y 0.000000 1.611620 0.000000 
#    z 0.000000 0.000000 1.631470 
# 
# From -- ./inp_files/8485.got.cif
#   From: 2010.05.17/outbox.cif.g08.bks.cpg/sg57_5_cif.got.tgz:8485.got - 2010.06.03 13:58:18.
