data_PCOD9437142
_publ_section_title
;
Structure prediction by ZEFSAII (Michael W. Deem and Ramdas Pophale) SiO2 
 PCOD9437142
Probable space group: P B C M
;
_chemical_formula_sum "Si O2"
_cell_formula_units_Z 64
_cell_length_a 27.032593
_cell_length_b 15.082245
_cell_length_c 8.616370
_cell_angle_alpha 90.000000
_cell_angle_beta 90.000000
_cell_angle_gamma 90.000000
_cell_volume 3512.999088
_symmetry_space_group_name_H-M "P B C M"
_symmetry_group_IT_number 57
_symmetry_cell_setting 'orthorhombic'
loop_
_space_group_symop_operation_xyz
x,y,z
-x,-y,1/2+z
x,1/2-y,-z
-x,1/2+y,1/2-z
-x,-y,-z
x,y,1/2-z
-x,1/2+y,z
x,1/2-y,1/2+z
loop_
_atom_site_type_symbol
_atom_site_label
_atom_site_fract_x
_atom_site_fract_y
_atom_site_fract_z
Si Si1 0.238302 0.349006 0.064301
Si Si2 0.498029 0.649402 0.436187
Si Si3 0.240182 0.652231 0.562823
Si Si4 0.871979 0.152137 0.937159
Si Si5 0.424970 0.502937 0.562313
Si Si6 0.944744 0.996948 0.563842
Si Si7 0.126966 0.150745 0.563849
Si Si8 0.688925 0.504947 0.437590
O O1 0.240769 0.347415 0.250000
O O2 0.182682 0.380126 0.019427
O O3 0.243874 0.250000 0.000000
O O4 0.280449 0.411569 0.997636
O O5 0.499528 0.750000 0.500000
O O6 0.496772 0.654425 0.250000
O O7 0.451826 0.590129 0.494990
O O8 0.544658 0.586232 0.482014
O O9 0.250351 0.750000 0.500000
O O10 0.240866 0.654643 0.750000
O O11 0.184106 0.627293 0.514236
O O12 0.280596 0.581554 0.510121
O O13 0.872565 0.154536 0.750000
O O14 0.912497 0.081612 0.989515
O O15 0.882172 0.250000 0.000000
O O16 0.426876 0.509107 0.750000
O O17 0.368049 0.496786 0.512333
O O18 0.946214 0.997007 0.750000
O O19 0.914661 0.911867 0.505915
O O20 0.000000 0.000000 0.500000
O O21 0.121563 0.250000 0.500000
O O22 0.123721 0.151395 0.750000
O O23 0.689255 0.506616 0.250000
#
# Coordination Sequence:
#
# PCOD9437142 Si02
#       8
#     8   8   8   8   8   8   8   8
#     4  10  21  36  56  82 111 144 183 223 267 324
#     4  10  20  36  58  79 104 141 184 230 276 324
#     4   9  18  33  53  77 105 138 174 212 256 310
#     4   9  19  35  55  77 102 136 175 213 257 310
#     4   9  20  37  55  80 110 142 183 226 271 323
#     4  11  23  38  56  80 109 140 178 225 277 332
#     4  10  21  38  59  82 108 142 183 226 272 324
#     4  10  20  35  55  80 114 147 176 219 271 321
#
# _framework density 18.218050999999999
#
# number of rings (size 3 to 8) (size 9 to 14) (size 15 to 20)
#    0.000    2.250    0.000    2.250    0.000    6.500 
#    0.000    6.250    0.000    0.000    0.000    0.000 
#    0.000    0.000    0.000    0.000    0.000    0.000 
#
# Total GULP energy -357224.421556 kJ/mol
# GULP energy per Si atom -5581.631587 kJ/mol
# Density = 1.817659 g / cm^3
# Si number density = 18.218051 Si / 1000 Ang^3
#
#
#
# Elastic Constant Matrix: (Units=GPa)
#
#
# Indices 1 2 3 4 5 6 
#
# 1 194.2872 113.1746 43.2312 0.0000 0.0000 0.0000
# 2 113.1746 140.0386 30.5509 0.0000 0.0000 0.0000
# 3 43.2312 30.5509 26.0404 0.0000 0.0000 0.0000
# 4 0.0000 0.0000 0.0000 33.7145 0.0000 0.0000
# 5 0.0000 0.0000 0.0000 0.0000 54.9043 0.0000
# 6 0.0000 0.0000 0.0000 0.0000 0.0000 186.6926
#
#
#
# Elastic Compliance Matrix: (Units=1/GPa)
#
#
# Indices 1 2 3 4 5 6 
#
# 1 0.011754 -0.007045 -0.011247 0.000000 0.000000 0.000000
# 2 -0.007045 0.013820 -0.004518 0.000000 0.000000 0.000000
# 3 -0.011247 -0.004518 0.062375 0.000000 0.000000 0.000000
# 4 0.000000 0.000000 0.000000 0.029661 0.000000 0.000000
# 5 0.000000 0.000000 0.000000 0.000000 0.018214 0.000000
# 6 0.000000 0.000000 0.000000 0.000000 0.000000 0.005356
#
#
# Mechanical properties :
#
#
# Convention : Reuss Voigt Hill
#
# Bulk Modulus (GPa) = 23.62526 81.58661 52.60593
# Shear Modulus (GPa) = 24.88688 66.62291 45.75489
#
# Velocity S-wave (km/s) = 3.70003 6.05385 5.01694
# Velocity P-wave (km/s) = 5.59015 9.68226 7.90557
#
# Compressibility (1/GPa) = 0.04232758
#
# Stress axis : x y z
#
# Youngs Moduli (GPa) = 85.08086 72.35814 16.03215
#
# Poissons Ratio (x) = 0.50977 0.18032
# Poissons Ratio (y) = 0.59940 0.07243
# Poissons Ratio (z) = 0.95693 0.32691
#
# Static dielectric constant tensor:
#      x y z
#    x 1.620820 0.000000 0.000000 
#    y 0.000000 1.596030 0.000000 
#    z 0.000000 0.000000 1.610610 
# 
# From -- ./inp_files/9302.got.cif
#   From: 2010.05.17/outbox.cif.g08.bks.cpg/sg57_5_cif.got.tgz:9302.got - 2010.06.03 13:58:18.
