data_PCOD9437186
_publ_section_title
;
Structure prediction by ZEFSAII (Michael W. Deem and Ramdas Pophale) SiO2 
 PCOD9437186
Probable space group: P B C M
;
_chemical_formula_sum "Si O2"
_cell_formula_units_Z 40
_cell_length_a 12.978160
_cell_length_b 18.695890
_cell_length_c 8.775856
_cell_angle_alpha 90.000000
_cell_angle_beta 90.000000
_cell_angle_gamma 90.000000
_cell_volume 2129.358358
_symmetry_space_group_name_H-M "P B C M"
_symmetry_group_IT_number 57
_symmetry_cell_setting 'orthorhombic'
loop_
_space_group_symop_operation_xyz
x,y,z
-x,-y,1/2+z
x,1/2-y,-z
-x,1/2+y,1/2-z
-x,-y,-z
x,y,1/2-z
-x,1/2+y,z
x,1/2-y,1/2+z
loop_
_atom_site_type_symbol
_atom_site_label
_atom_site_fract_x
_atom_site_fract_y
_atom_site_fract_z
Si Si1 0.209802 0.409883 0.933589
Si Si2 0.634806 0.172082 0.933230
Si Si3 0.175067 0.926431 0.434142
Si Si4 0.996427 0.671690 0.432579
Si Si5 0.399509 0.328511 0.432602
O O1 0.219570 0.408559 0.750000
O O2 0.180805 0.490626 0.978877
O O3 0.116849 0.356867 0.976901
O O4 0.316002 0.383581 0.005415
O O5 0.636744 0.177317 0.750000
O O6 0.719675 0.114237 0.978928
O O7 0.517429 0.153571 0.978237
O O8 0.659991 0.250000 0.000000
O O9 0.165848 0.923160 0.250000
O O10 0.080291 0.884255 0.506728
O O11 0.015729 0.750000 0.500000
O O12 0.001766 0.674808 0.250000
O O13 0.376652 0.250000 0.500000
O O14 0.394464 0.325262 0.250000
#
# Coordination Sequence:
#
# PCOD9437186 Si02
#       5
#     8   8   8   8   8
#     4  10  22  38  56  81 113 146 179 222 274 324
#     4   9  19  35  55  80 109 142 181 225 270 318
#     4  10  21  38  58  81 112 145 179 223 274 325
#     4  11  23  38  57  81 108 141 183 226 271 323
#     4  10  20  35  56  81 109 143 184 226 268 319
#
# _framework density 18.785003
#
# number of rings (size 3 to 8) (size 9 to 14) (size 15 to 20)
#    0.000    2.000    0.000    3.000    0.000    8.000 
#    0.000    0.000    0.000    0.000    0.000    0.000 
#    0.000    0.000    0.000    0.000    0.000    0.000 
#
# Total GULP energy -223466.575957 kJ/mol
# GULP energy per Si atom -5586.664399 kJ/mol
# Density = 1.874225 g / cm^3
# Si number density = 18.785003 Si / 1000 Ang^3
#
#
#
# Elastic Constant Matrix: (Units=GPa)
#
#
# Indices 1 2 3 4 5 6 
#
# 1 51.0181 6.5688 16.8046 0.0000 0.0000 0.0000
# 2 6.5688 40.3685 12.8877 0.0000 0.0000 0.0000
# 3 16.8046 12.8877 16.1264 0.0000 0.0000 0.0000
# 4 0.0000 0.0000 0.0000 25.6343 0.0000 0.0000
# 5 0.0000 0.0000 0.0000 0.0000 26.2043 0.0000
# 6 0.0000 0.0000 0.0000 0.0000 0.0000 622.1371
#
#
#
# Elastic Compliance Matrix: (Units=1/GPa)
#
#
# Indices 1 2 3 4 5 6 
#
# 1 0.031307 0.007144 -0.038333 0.000000 0.000000 0.000000
# 2 0.007144 0.034887 -0.035324 0.000000 0.000000 0.000000
# 3 -0.038333 -0.035324 0.130185 0.000000 0.000000 0.000000
# 4 0.000000 0.000000 0.000000 0.039010 0.000000 0.000000
# 5 0.000000 0.000000 0.000000 0.000000 0.038162 0.000000
# 6 0.000000 0.000000 0.000000 0.000000 0.000000 0.001607
#
#
# Mechanical properties :
#
#
# Convention : Reuss Voigt Hill
#
# Bulk Modulus (GPa) = 15.78483 20.00389 17.89436
# Shear Modulus (GPa) = 11.64676 139.54526 75.59601
#
# Velocity S-wave (km/s) = 2.49269 8.62825 6.35060
# Velocity P-wave (km/s) = 4.08727 10.48496 7.95739
#
# Compressibility (1/GPa) = 0.06335198
#
# Stress axis : x y z
#
# Youngs Moduli (GPa) = 31.94133 28.66413 7.68135
#
# Poissons Ratio (x) = -0.20476 0.29445
# Poissons Ratio (y) = -0.22817 0.27134
# Poissons Ratio (z) = 1.22440 1.01254
#
# Static dielectric constant tensor:
#      x y z
#    x 1.643160 0.000000 0.000000 
#    y 0.000000 1.615540 0.000000 
#    z 0.000000 0.000000 1.630060 
# 
# From -- ./inp_files/2633.got.cif
#   From: 2010.05.17/outbox.cif.g08.bks.cpg/sg57_2_cif.got.tgz:2633.got - 2010.06.03 13:58:18.
