data_PCOD9437170
_publ_section_title
;
Structure prediction by ZEFSAII (Michael W. Deem and Ramdas Pophale) SiO2 
 PCOD9437170
Probable space group: P B C M
;
_chemical_formula_sum "Si O2"
_cell_formula_units_Z 64
_cell_length_a 28.625084
_cell_length_b 12.701174
_cell_length_c 8.402925
_cell_angle_alpha 90.000000
_cell_angle_beta 90.000000
_cell_angle_gamma 90.000000
_cell_volume 3055.069699
_symmetry_space_group_name_H-M "P B C M"
_symmetry_group_IT_number 57
_symmetry_cell_setting 'orthorhombic'
loop_
_space_group_symop_operation_xyz
x,y,z
-x,-y,1/2+z
x,1/2-y,-z
-x,1/2+y,1/2-z
-x,-y,-z
x,y,1/2-z
-x,1/2+y,z
x,1/2-y,1/2+z
loop_
_atom_site_type_symbol
_atom_site_label
_atom_site_fract_x
_atom_site_fract_y
_atom_site_fract_z
Si Si1 0.607371 0.583203 0.060872
Si Si2 0.491093 0.372564 0.435889
Si Si3 0.710863 0.641874 0.439444
Si Si4 0.992086 0.637288 0.060484
Si Si5 0.738303 0.412552 0.057009
Si Si6 0.919807 0.501937 0.938848
Si Si7 0.363807 0.862025 0.937708
Si Si8 0.159008 0.859473 0.061141
O O1 0.601524 0.601443 0.250000
O O2 0.657352 0.627811 0.003742
O O3 0.564449 0.629661 0.965192
O O4 0.611879 0.458030 0.029084
O O5 0.506252 0.250000 0.500000
O O6 0.500000 0.500000 0.500000
O O7 0.504016 0.375175 0.250000
O O8 0.731394 0.750000 0.500000
O O9 0.708265 0.645131 0.250000
O O10 0.738189 0.536613 0.481514
O O11 0.990074 0.628226 0.250000
O O12 0.036069 0.567743 0.002660
O O13 0.005456 0.750000 0.000000
O O14 0.940805 0.612831 0.990605
O O15 0.733367 0.399878 0.250000
O O16 0.787624 0.367667 0.001468
O O17 0.691638 0.368553 0.976441
O O18 0.916356 0.494951 0.750000
O O19 0.872595 0.457127 0.010193
O O20 0.371445 0.873110 0.750000
O O21 0.380742 0.750000 0.000000
O O22 0.161160 0.856615 0.250000
O O23 0.137947 0.750000 0.000000
#
# Coordination Sequence:
#
# PCOD9437170 Si02
#       8
#     8   8   8   8   8   8   8   8
#     4  10  21  39  61  88 121 157 199 251 304 359
#     4  12  26  46  70  99 133 173 218 266 321 382
#     4   9  18  33  55  81 110 142 181 228 278 329
#     4  10  20  35  56  80 107 138 173 218 271 323
#     4   9  20  37  53  75 109 148 188 233 282 336
#     4  10  21  36  55  80 108 138 177 221 267 323
#     4  11  21  34  55  84 117 155 198 247 302 361
#     4  11  22  36  55  77 106 142 181 224 273 328
#
# _framework density 20.948784
#
# number of rings (size 3 to 8) (size 9 to 14) (size 15 to 20)
#    0.000    1.750    0.000    5.625    0.000    8.500 
#    0.000    3.125    0.000    1.500    0.000    0.000 
#    0.000    0.000    0.000    0.000    0.000    0.000 
#
# Total GULP energy -356669.807202 kJ/mol
# GULP energy per Si atom -5572.965738 kJ/mol
# Density = 2.090110 g / cm^3
# Si number density = 20.948784 Si / 1000 Ang^3
#
#
#
# Elastic Constant Matrix: (Units=GPa)
#
#
# Indices 1 2 3 4 5 6 
#
# 1 67.5531 3.7378 9.6295 0.0000 0.0000 0.0000
# 2 3.7378 102.8988 7.3474 0.0000 0.0000 0.0000
# 3 9.6295 7.3474 42.7383 0.0000 0.0000 0.0000
# 4 0.0000 0.0000 0.0000 33.0454 0.0000 0.0000
# 5 0.0000 0.0000 0.0000 0.0000 17.6096 0.0000
# 6 0.0000 0.0000 0.0000 0.0000 0.0000 6.4146
#
#
#
# Elastic Compliance Matrix: (Units=1/GPa)
#
#
# Indices 1 2 3 4 5 6 
#
# 1 0.015304 -0.000314 -0.003394 0.000000 0.000000 0.000000
# 2 -0.000314 0.009845 -0.001622 0.000000 0.000000 0.000000
# 3 -0.003394 -0.001622 0.024442 0.000000 0.000000 0.000000
# 4 0.000000 0.000000 0.000000 0.030261 0.000000 0.000000
# 5 0.000000 0.000000 0.000000 0.000000 0.056787 0.000000
# 6 0.000000 0.000000 0.000000 0.000000 0.000000 0.155895
#
#
# Mechanical properties :
#
#
# Convention : Reuss Voigt Hill
#
# Bulk Modulus (GPa) = 25.68583 28.29107 26.98845
# Shear Modulus (GPa) = 15.81415 24.24562 20.02988
#
# Velocity S-wave (km/s) = 2.75052 3.40571 3.09550
# Velocity P-wave (km/s) = 4.73022 5.38511 5.06825
#
# Compressibility (1/GPa) = 0.03893197
#
# Stress axis : x y z
#
# Youngs Moduli (GPa) = 65.34082 101.56936 40.91339
#
# Poissons Ratio (x) = 0.03185 0.13887
# Poissons Ratio (y) = 0.02049 0.06636
# Poissons Ratio (z) = 0.22179 0.16474
#
# Static dielectric constant tensor:
#      x y z
#    x 1.749310 0.000000 0.000000 
#    y 0.000000 1.791090 0.000000 
#    z 0.000000 0.000000 1.727710 
# 
# From -- ./inp_files/10302.got.cif
#   From: 2010.05.17/outbox.cif.g08.bks.cpg/sg57_6_cif.got.tgz:10302.got - 2010.06.03 13:58:18.
