data_PCOD9437932
_publ_section_title
;
Structure prediction by ZEFSAII (Michael W. Deem and Ramdas Pophale) SiO2 
 PCOD9437932
Probable space group: P B C M
;
_chemical_formula_sum "Si O2"
_cell_formula_units_Z 48
_cell_length_a 24.492102
_cell_length_b 10.292379
_cell_length_c 9.656713
_cell_angle_alpha 90.000000
_cell_angle_beta 90.000000
_cell_angle_gamma 90.000000
_cell_volume 2434.283491
_symmetry_space_group_name_H-M "P B C M"
_symmetry_group_IT_number 57
_symmetry_cell_setting 'orthorhombic'
loop_
_space_group_symop_operation_xyz
x,y,z
-x,-y,1/2+z
x,1/2-y,-z
-x,1/2+y,1/2-z
-x,-y,-z
x,y,1/2-z
-x,1/2+y,z
x,1/2-y,1/2+z
loop_
_atom_site_type_symbol
_atom_site_label
_atom_site_fract_x
_atom_site_fract_y
_atom_site_fract_z
Si Si1 0.875764 0.393783 0.520017
Si Si2 0.361942 0.870613 0.090425
Si Si3 0.965668 0.334923 0.750000
Si Si4 0.198691 0.367783 0.094465
Si Si5 0.507726 0.370610 0.090605
Si Si6 0.670657 0.878888 0.084766
Si Si7 0.941202 0.455760 0.250000
O O1 0.850862 0.250000 0.500000
O O2 0.927024 0.370586 0.621176
O O3 0.832875 0.498185 0.572736
O O4 0.901972 0.448462 0.380997
O O5 0.340815 0.878891 0.250000
O O6 0.427090 0.851801 0.102655
O O7 0.339581 0.750000 0.000000
O O8 0.352482 0.998689 0.998845
O O9 0.975352 0.180078 0.750000
O O10 0.019343 0.421553 0.750000
O O11 0.189992 0.323469 0.250000
O O12 0.263416 0.387263 0.074190
O O13 0.179104 0.250000 0.000000
O O14 0.486431 0.378534 0.250000
O O15 0.485436 0.250000 0.000000
O O16 0.500000 0.500000 0.000000
O O17 0.656925 0.875934 0.250000
O O18 0.653912 0.750000 0.000000
#
# Coordination Sequence:
#
# PCOD9437932 Si02
#       7
#     8   8   4   8   8   8   4
#     4  10  21  38  57  81 113 146 182 228 275 329
#     4  10  21  38  59  86 117 153 195 241 290 345
#     4  10  20  38  56  78 112 144 180 230 271 326
#     4  10  22  39  59  84 113 145 185 231 279 333
#     4  10  21  37  58  84 117 154 197 243 291 344
#     4  10  21  38  59  84 114 150 190 238 290 345
#     4  10  22  34  56  84 108 144 184 220 277 328
#
# _framework density 19.718329000000001
#
# number of rings (size 3 to 8) (size 9 to 14) (size 15 to 20)
#    0.000    2.000    0.833    2.000    1.167    5.333 
#    0.000    0.000    0.000    0.000    0.000    0.000 
#    0.000    0.000    0.000    0.000    0.000    0.000 
#
# Total GULP energy -267858.729441 kJ/mol
# GULP energy per Si atom -5580.390197 kJ/mol
# Density = 1.967345 g / cm^3
# Si number density = 19.718329 Si / 1000 Ang^3
#
#
#
# Elastic Constant Matrix: (Units=GPa)
#
#
# Indices 1 2 3 4 5 6 
#
# 1 25.2472 14.4377 10.7257 0.0000 0.0000 0.0000
# 2 14.4377 99.2387 31.8469 0.0000 0.0000 0.0000
# 3 10.7257 31.8469 135.9597 0.0000 0.0000 0.0000
# 4 0.0000 0.0000 0.0000 31.9211 0.0000 0.0000
# 5 0.0000 0.0000 0.0000 0.0000 22.8842 0.0000
# 6 0.0000 0.0000 0.0000 0.0000 0.0000 33.4554
#
#
#
# Elastic Compliance Matrix: (Units=1/GPa)
#
#
# Indices 1 2 3 4 5 6 
#
# 1 0.043761 -0.005686 -0.002120 0.000000 0.000000 0.000000
# 2 -0.005686 0.011635 -0.002277 0.000000 0.000000 0.000000
# 3 -0.002120 -0.002277 0.008056 0.000000 0.000000 0.000000
# 4 0.000000 0.000000 0.000000 0.031327 0.000000 0.000000
# 5 0.000000 0.000000 0.000000 0.000000 0.043698 0.000000
# 6 0.000000 0.000000 0.000000 0.000000 0.000000 0.029891
#
#
# Mechanical properties :
#
#
# Convention : Reuss Voigt Hill
#
# Bulk Modulus (GPa) = 23.10281 41.60733 32.35507
# Shear Modulus (GPa) = 24.63523 31.21450 27.92486
#
# Velocity S-wave (km/s) = 3.53846 3.98303 3.76731
# Velocity P-wave (km/s) = 5.33255 6.50380 5.94708
#
# Compressibility (1/GPa) = 0.04328479
#
# Stress axis : x y z
#
# Youngs Moduli (GPa) = 22.85156 85.95079 124.13606
#
# Poissons Ratio (x) = 0.48872 0.26321
# Poissons Ratio (y) = 0.12994 0.28262
# Poissons Ratio (z) = 0.04845 0.19568
#
# Static dielectric constant tensor:
#      x y z
#    x 1.680150 0.000000 0.000000 
#    y 0.000000 1.682270 0.000000 
#    z 0.000000 0.000000 1.663440 
# 
# From -- ./inp_files/10112.got.cif
#   From: 2010.05.17/outbox.cif.g08.bks.cpg/sg57_6_cif.got.tgz:10112.got - 2010.06.03 13:58:18.
