data_PCOD9437664
_publ_section_title
;
Structure prediction by ZEFSAII (Michael W. Deem and Ramdas Pophale) SiO2 
 PCOD9437664
Probable space group: P B C M
;
_chemical_formula_sum "Si O2"
_cell_formula_units_Z 64
_cell_length_a 16.598420
_cell_length_b 13.764230
_cell_length_c 11.544357
_cell_angle_alpha 90.000000
_cell_angle_beta 90.000000
_cell_angle_gamma 90.000000
_cell_volume 2637.475409
_symmetry_space_group_name_H-M "P B C M"
_symmetry_group_IT_number 57
_symmetry_cell_setting 'orthorhombic'
loop_
_space_group_symop_operation_xyz
x,y,z
-x,-y,1/2+z
x,1/2-y,-z
-x,1/2+y,1/2-z
-x,-y,-z
x,y,1/2-z
-x,1/2+y,z
x,1/2-y,1/2+z
loop_
_atom_site_type_symbol
_atom_site_label
_atom_site_fract_x
_atom_site_fract_y
_atom_site_fract_z
Si Si1 0.417801 0.411331 0.937894
Si Si2 0.299740 0.741558 0.122975
Si Si3 0.959020 0.210526 0.374703
Si Si4 0.310135 0.984313 0.625826
Si Si5 0.728059 0.796080 0.626686
Si Si6 0.890186 0.595326 0.376385
Si Si7 0.117587 0.496884 0.376867
Si Si8 0.541339 0.125368 0.875007
O O1 0.362204 0.336965 0.870747
O O2 0.447946 0.507911 0.873614
O O3 0.356191 0.457385 0.030218
O O4 0.487947 0.360759 0.011095
O O5 0.259605 0.756490 0.250000
O O6 0.329010 0.630269 0.123266
O O7 0.373869 0.817295 0.117115
O O8 0.253574 0.750000 0.000000
O O9 0.936244 0.250000 0.500000
O O10 0.938781 0.259058 0.250000
O O11 0.055346 0.192111 0.375385
O O12 0.919787 0.103796 0.371078
O O13 0.336707 0.022147 0.750000
O O14 0.214234 0.994216 0.616352
O O15 0.738339 0.750000 0.500000
O O16 0.742189 0.741401 0.750000
O O17 0.796067 0.879566 0.626207
O O18 0.908451 0.546215 0.250000
O O19 0.909259 0.547548 0.500301
O O20 0.098762 0.449733 0.250000
O O21 0.506272 0.155343 0.750000
#
# Coordination Sequence:
#
# PCOD9437664 Si02
#       8
#     8   8   8   8   8   8   8   8
#     4  11  21  40  62  85 122 157 209 259 319 370
#     4  10  20  37  57  85 118 156 201 246 301 368
#     4  10  22  39  60  91 133 170 211 256 306 370
#     4  10  20  36  61  89 125 167 209 254 314 379
#     4  11  25  43  64  92 123 160 207 260 316 375
#     4  10  21  40  65  93 123 163 210 259 313 371
#     4  10  21  38  61  94 127 164 211 258 310 375
#     4  10  22  38  60  88 119 160 209 257 312 377
#
# _framework density 24.265630000000002
#
# number of rings (size 3 to 8) (size 9 to 14) (size 15 to 20)
#    0.000    1.750    2.500    1.500    0.000    3.500 
#    0.000    2.500    0.000    0.000    0.000    0.000 
#    0.000    0.000    0.000    0.000    0.000    0.000 
#
# Total GULP energy -357058.490037 kJ/mol
# GULP energy per Si atom -5579.038907 kJ/mol
# Density = 2.421040 g / cm^3
# Si number density = 24.265630 Si / 1000 Ang^3
#
#
#
# Elastic Constant Matrix: (Units=GPa)
#
#
# Indices 1 2 3 4 5 6 
#
# 1 75.3816 -7.7473 22.7255 0.0000 0.0000 0.0000
# 2 -7.7473 40.6903 41.1937 0.0000 0.0000 0.0000
# 3 22.7255 41.1937 292.0866 0.0000 0.0000 0.0000
# 4 0.0000 0.0000 0.0000 38.5695 0.0000 0.0000
# 5 0.0000 0.0000 0.0000 0.0000 34.4265 0.0000
# 6 0.0000 0.0000 0.0000 0.0000 0.0000 16.2451
#
#
#
# Elastic Compliance Matrix: (Units=1/GPa)
#
#
# Indices 1 2 3 4 5 6 
#
# 1 0.014250 0.004474 -0.001740 0.000000 0.000000 0.000000
# 2 0.004474 0.030074 -0.004590 0.000000 0.000000 0.000000
# 3 -0.001740 -0.004590 0.004206 0.000000 0.000000 0.000000
# 4 0.000000 0.000000 0.000000 0.025927 0.000000 0.000000
# 5 0.000000 0.000000 0.000000 0.000000 0.029047 0.000000
# 6 0.000000 0.000000 0.000000 0.000000 0.000000 0.061557
#
#
# Mechanical properties :
#
#
# Convention : Reuss Voigt Hill
#
# Bulk Modulus (GPa) = 22.31101 57.83359 40.07230
# Shear Modulus (GPa) = 27.21650 41.31400 34.26525
#
# Velocity S-wave (km/s) = 3.35267 4.13070 3.76185
# Velocity P-wave (km/s) = 4.91952 6.82902 5.95135
#
# Compressibility (1/GPa) = 0.04482093
#
# Stress axis : x y z
#
# Youngs Moduli (GPa) = 70.17452 33.25114 237.73971
#
# Poissons Ratio (x) = -0.14878 0.41361
# Poissons Ratio (y) = -0.31399 1.09112
# Poissons Ratio (z) = 0.12209 0.15261
#
# Static dielectric constant tensor:
#      x y z
#    x 1.922030 0.000000 0.000000 
#    y 0.000000 1.935530 0.000000 
#    z 0.000000 0.000000 2.042070 
# 
# From -- ./inp_files/14208.got.cif
#   From: 2010.05.17/outbox.cif.g08.bks.cpg/sg57_8_cif.got.tgz:14208.got - 2010.06.03 13:58:18.
