data_PCOD9437308
_publ_section_title
;
Structure prediction by ZEFSAII (Michael W. Deem and Ramdas Pophale) SiO2 
 PCOD9437308
Probable space group: P B C M
;
_chemical_formula_sum "Si O2"
_cell_formula_units_Z 56
_cell_length_a 23.243384
_cell_length_b 14.698024
_cell_length_c 8.527591
_cell_angle_alpha 90.000000
_cell_angle_beta 90.000000
_cell_angle_gamma 90.000000
_cell_volume 2913.296398
_symmetry_space_group_name_H-M "P B C M"
_symmetry_group_IT_number 57
_symmetry_cell_setting 'orthorhombic'
loop_
_space_group_symop_operation_xyz
x,y,z
-x,-y,1/2+z
x,1/2-y,-z
-x,1/2+y,1/2-z
-x,-y,-z
x,y,1/2-z
-x,1/2+y,z
x,1/2-y,1/2+z
loop_
_atom_site_type_symbol
_atom_site_label
_atom_site_fract_x
_atom_site_fract_y
_atom_site_fract_z
Si Si1 0.906349 0.160662 0.563157
Si Si2 0.305642 0.853286 0.438808
Si Si3 0.195589 0.532757 0.940124
Si Si4 0.851075 0.848045 0.560384
Si Si5 0.021667 0.095825 0.435627
Si Si6 0.531428 0.645884 0.438221
Si Si7 0.584883 0.036312 0.438347
O O1 0.874981 0.250000 0.500000
O O2 0.913553 0.162479 0.750000
O O3 0.866067 0.076429 0.520553
O O4 0.967732 0.157199 0.480557
O O5 0.309161 0.750000 0.500000
O O6 0.305133 0.849991 0.250000
O O7 0.247733 0.904786 0.495608
O O8 0.359014 0.914425 0.494678
O O9 0.198861 0.533103 0.750000
O O10 0.191529 0.428497 0.991747
O O11 0.834036 0.750000 0.500000
O O12 0.852211 0.847284 0.750000
O O13 0.916476 0.870482 0.504413
O O14 0.027288 0.088351 0.250000
O O15 0.000000 0.000000 0.500000
O O16 0.537871 0.750000 0.500000
O O17 0.535029 0.649316 0.250000
O O18 0.574712 0.566731 0.499463
O O19 0.469432 0.601333 0.482533
O O20 0.587286 0.032905 0.250000
#
# Coordination Sequence:
#
# PCOD9437308 Si02
#       7
#     8   8   8   8   8   8   8
#     4  11  21  36  55  79 110 142 179 224 277 338
#     4  11  22  38  61  85 114 152 193 238 290 343
#     4   9  20  39  58  77 109 147 184 232 283 332
#     4  10  21  39  58  79 106 141 181 226 280 338
#     4  11  21  35  56  80 109 142 177 223 281 343
#     4  10  20  35  58  88 123 162 200 242 292 343
#     4  10  21  37  58  87 123 159 200 244 288 344
#
# _framework density 19.222211999999999
#
# number of rings (size 3 to 8) (size 9 to 14) (size 15 to 20)
#    0.000    1.714    1.429    3.429    0.000    5.143 
#    0.000    4.286    0.000    1.714    0.000    0.000 
#    0.000    0.000    0.000    0.000    0.000    0.000 
#
# Total GULP energy -312453.329585 kJ/mol
# GULP energy per Si atom -5579.523743 kJ/mol
# Density = 1.917846 g / cm^3
# Si number density = 19.222212 Si / 1000 Ang^3
#
#
#
# Elastic Constant Matrix: (Units=GPa)
#
#
# Indices 1 2 3 4 5 6 
#
# 1 86.9141 53.4829 17.3281 0.0000 0.0000 0.0000
# 2 53.4829 190.2828 31.6337 0.0000 0.0000 0.0000
# 3 17.3281 31.6337 37.0790 0.0000 0.0000 0.0000
# 4 0.0000 0.0000 0.0000 37.0052 0.0000 0.0000
# 5 0.0000 0.0000 0.0000 0.0000 19.4250 0.0000
# 6 0.0000 0.0000 0.0000 0.0000 0.0000 40.3921
#
#
#
# Elastic Compliance Matrix: (Units=1/GPa)
#
#
# Indices 1 2 3 4 5 6 
#
# 1 0.014359 -0.003403 -0.003807 0.000000 0.000000 0.000000
# 2 -0.003403 0.006930 -0.004322 0.000000 0.000000 0.000000
# 3 -0.003807 -0.004322 0.032436 0.000000 0.000000 0.000000
# 4 0.000000 0.000000 0.000000 0.027023 0.000000 0.000000
# 5 0.000000 0.000000 0.000000 0.000000 0.051480 0.000000
# 6 0.000000 0.000000 0.000000 0.000000 0.000000 0.024757
#
#
# Mechanical properties :
#
#
# Convention : Reuss Voigt Hill
#
# Bulk Modulus (GPa) = 32.61518 57.68506 45.15012
# Shear Modulus (GPa) = 26.27839 33.48653 29.88246
#
# Velocity S-wave (km/s) = 3.70142 4.17835 3.94709
# Velocity P-wave (km/s) = 5.93899 7.30430 6.65674
#
# Compressibility (1/GPa) = 0.03066057
#
# Stress axis : x y z
#
# Youngs Moduli (GPa) = 69.64471 144.29289 30.82981
#
# Poissons Ratio (x) = 0.49101 0.11737
# Poissons Ratio (y) = 0.23699 0.13326
# Poissons Ratio (z) = 0.26514 0.62368
#
# Static dielectric constant tensor:
#      x y z
#    x 1.635990 0.000000 0.000000 
#    y 0.000000 1.750070 0.000000 
#    z 0.000000 0.000000 1.659390 
# 
# From -- ./inp_files/8036.got.cif
#   From: 2010.05.17/outbox.cif.g08.bks.cpg/sg57_5_cif.got.tgz:8036.got - 2010.06.03 13:58:18.
