data_PCOD9437336
_publ_section_title
;
Structure prediction by ZEFSAII (Michael W. Deem and Ramdas Pophale) SiO2 
 PCOD9437336
Probable space group: P B C M
;
_chemical_formula_sum "Si O2"
_cell_formula_units_Z 48
_cell_length_a 12.219889
_cell_length_b 22.189771
_cell_length_c 8.569685
_cell_angle_alpha 90.000000
_cell_angle_beta 90.000000
_cell_angle_gamma 90.000000
_cell_volume 2323.726121
_symmetry_space_group_name_H-M "P B C M"
_symmetry_group_IT_number 57
_symmetry_cell_setting 'orthorhombic'
loop_
_space_group_symop_operation_xyz
x,y,z
-x,-y,1/2+z
x,1/2-y,-z
-x,1/2+y,1/2-z
-x,-y,-z
x,y,1/2-z
-x,1/2+y,z
x,1/2-y,1/2+z
loop_
_atom_site_type_symbol
_atom_site_label
_atom_site_fract_x
_atom_site_fract_y
_atom_site_fract_z
Si Si1 0.375660 0.314151 0.566740
Si Si2 0.266305 0.585732 0.436392
Si Si3 0.116203 0.021266 0.936484
Si Si4 0.500622 0.430831 0.433515
Si Si5 0.893310 0.186597 0.936806
Si Si6 0.855511 0.840075 0.062864
O O1 0.420314 0.250000 0.500000
O O2 0.396111 0.314773 0.750000
O O3 0.421536 0.377577 0.497866
O O4 0.246074 0.313610 0.529589
O O5 0.286173 0.585927 0.250000
O O6 0.213716 0.522192 0.486125
O O7 0.378723 0.594044 0.526731
O O8 0.175163 0.634502 0.480695
O O9 0.109468 0.017456 0.750000
O O10 0.140257 0.089437 0.977425
O O11 0.000000 0.000000 0.000000
O O12 0.500000 0.500000 0.500000
O O13 0.479739 0.436024 0.250000
O O14 0.882475 0.181213 0.750000
O O15 0.022649 0.182667 0.974078
O O16 0.851459 0.250000 0.000000
O O17 0.837405 0.832805 0.250000
#
# Coordination Sequence:
#
# PCOD9437336 Si02
#       6
#     8   8   8   8   8   8
#     4  12  26  45  70 100 134 178 229 284 343 407
#     4  11  23  40  64  95 129 167 211 260 320 387
#     4  10  20  35  59  91 128 165 204 255 313 380
#     4  12  26  47  73 101 134 174 223 279 338 403
#     4  11  23  39  60  88 126 170 215 263 318 382
#     4  10  21  39  63  94 132 172 216 269 325 390
#
# _framework density 20.656479999999998
#
# number of rings (size 3 to 8) (size 9 to 14) (size 15 to 20)
#    0.000    1.000    1.667    5.500    0.000    6.000 
#    0.000    3.333    0.000    0.000    0.000    0.000 
#    0.000    0.000    0.000    0.000    0.000    0.000 
#
# Total GULP energy -268281.831903 kJ/mol
# GULP energy per Si atom -5589.204831 kJ/mol
# Density = 2.060946 g / cm^3
# Si number density = 20.656480 Si / 1000 Ang^3
#
#
#
# Elastic Constant Matrix: (Units=GPa)
#
#
# Indices 1 2 3 4 5 6 
#
# 1 66.9442 17.9386 23.7147 0.0000 0.0000 0.0000
# 2 17.9386 125.8404 49.1586 0.0000 0.0000 0.0000
# 3 23.7147 49.1586 89.4165 0.0000 0.0000 0.0000
# 4 0.0000 0.0000 0.0000 29.1738 0.0000 0.0000
# 5 0.0000 0.0000 0.0000 0.0000 36.1424 0.0000
# 6 0.0000 0.0000 0.0000 0.0000 0.0000 -12.4122
#
#
#
# Elastic Compliance Matrix: (Units=1/GPa)
#
#
# Indices 1 2 3 4 5 6 
#
# 1 0.016553 -0.000821 -0.003939 0.000000 0.000000 0.000000
# 2 -0.000821 0.010161 -0.005368 0.000000 0.000000 0.000000
# 3 -0.003939 -0.005368 0.015180 0.000000 0.000000 0.000000
# 4 0.000000 0.000000 0.000000 0.034277 0.000000 0.000000
# 5 0.000000 0.000000 0.000000 0.000000 0.027668 0.000000
# 6 0.000000 0.000000 0.000000 0.000000 0.000000 -0.080566
#
#
# Mechanical properties :
#
#
# Convention : Reuss Voigt Hill
#
# Bulk Modulus (GPa) = 46.21670 51.53610 48.87640
# Shear Modulus (GPa) = 98.53840 23.34009 60.93924
#
# Velocity S-wave (km/s) = 6.91426 3.36507 5.43740
# Velocity P-wave (km/s) = 9.28252 6.33258 7.94565
#
# Compressibility (1/GPa) = 0.02163720
#
# Stress axis : x y z
#
# Youngs Moduli (GPa) = 60.41164 98.41840 65.87794
#
# Poissons Ratio (x) = 0.08080 0.25948
# Poissons Ratio (y) = 0.04960 0.35365
# Poissons Ratio (z) = 0.23795 0.52834
#
# Static dielectric constant tensor:
#      x y z
#    x 1.728750 0.000000 0.000000 
#    y 0.000000 1.794820 0.000000 
#    z 0.000000 0.000000 1.706000 
# 
# From -- ./inp_files/3157.got.cif
#   From: 2010.05.17/outbox.cif.g08.bks.cpg/sg57_2_cif.got.tgz:3157.got - 2010.06.03 13:58:18.
