data_PCOD9437745
_publ_section_title
;
Structure prediction by ZEFSAII (Michael W. Deem and Ramdas Pophale) SiO2 
 PCOD9437745
Probable space group: P B C M
;
_chemical_formula_sum "Si O2"
_cell_formula_units_Z 48
_cell_length_a 31.554795
_cell_length_b 9.480858
_cell_length_c 8.576547
_cell_angle_alpha 90.000000
_cell_angle_beta 90.000000
_cell_angle_gamma 90.000000
_cell_volume 2565.815811
_symmetry_space_group_name_H-M "P B C M"
_symmetry_group_IT_number 57
_symmetry_cell_setting 'orthorhombic'
loop_
_space_group_symop_operation_xyz
x,y,z
-x,-y,1/2+z
x,1/2-y,-z
-x,1/2+y,1/2-z
-x,-y,-z
x,y,1/2-z
-x,1/2+y,z
x,1/2-y,1/2+z
loop_
_atom_site_type_symbol
_atom_site_label
_atom_site_fract_x
_atom_site_fract_y
_atom_site_fract_z
Si Si1 0.880709 0.908064 0.562328
Si Si2 0.291487 0.592553 0.435985
Si Si3 0.214877 0.091536 0.062428
Si Si4 0.039140 0.908596 0.062361
Si Si5 0.460574 0.090607 0.563315
Si Si6 0.617287 0.090135 0.563405
O O1 0.888105 0.750000 0.500000
O O2 0.881830 0.900744 0.750000
O O3 0.833040 0.953994 0.517782
O O4 0.917399 0.014270 0.511145
O O5 0.285192 0.750000 0.500000
O O6 0.295460 0.594966 0.250000
O O7 0.251685 0.501077 0.488595
O O8 0.335994 0.542366 0.509063
O O9 0.218252 0.088748 0.250000
O O10 0.219428 0.250000 0.000000
O O11 0.037896 0.906493 0.250000
O O12 0.036936 0.750000 0.000000
O O13 0.000000 0.000000 0.000000
O O14 0.462559 0.250000 0.500000
O O15 0.461661 0.092943 0.750000
O O16 0.500000 0.000000 0.500000
O O17 0.418284 0.012253 0.504861
O O18 0.611143 0.250000 0.500000
O O19 0.614994 0.093093 0.750000
#
# Coordination Sequence:
#
# PCOD9437745 Si02
#       6
#     8   8   8   8   8   8
#     4   9  20  37  58  82 112 147 188 233 284 338
#     4  11  22  38  59  86 117 154 194 239 289 343
#     4  10  20  37  58  84 115 151 191 236 285 340
#     4  11  23  39  58  84 114 149 188 233 283 339
#     4  12  25  43  64  91 122 157 197 242 291 345
#     4  11  22  40  63  89 119 156 196 241 291 345
#
# _framework density 18.707501000000001
#
# number of rings (size 3 to 8) (size 9 to 14) (size 15 to 20)
#    0.000    1.333    0.000    7.500    0.000    4.667 
#    0.000    5.000    0.000    0.000    0.000    0.000 
#    0.000    0.000    0.000    0.000    0.000    0.000 
#
# Total GULP energy -268372.329802 kJ/mol
# GULP energy per Si atom -5591.090204 kJ/mol
# Density = 1.866492 g / cm^3
# Si number density = 18.707501 Si / 1000 Ang^3
#
#
#
# Elastic Constant Matrix: (Units=GPa)
#
#
# Indices 1 2 3 4 5 6 
#
# 1 199.5556 122.8185 71.4174 0.0000 0.0000 0.0000
# 2 122.8185 128.7697 56.4303 0.0000 0.0000 0.0000
# 3 71.4174 56.4303 146.4813 0.0000 0.0000 0.0000
# 4 0.0000 0.0000 0.0000 37.4130 0.0000 0.0000
# 5 0.0000 0.0000 0.0000 0.0000 30.6580 0.0000
# 6 0.0000 0.0000 0.0000 0.0000 0.0000 46.4049
#
#
#
# Elastic Compliance Matrix: (Units=1/GPa)
#
#
# Indices 1 2 3 4 5 6 
#
# 1 0.012520 -0.011149 -0.001809 0.000000 0.000000 0.000000
# 2 -0.011149 0.019271 -0.001988 0.000000 0.000000 0.000000
# 3 -0.001809 -0.001988 0.008475 0.000000 0.000000 0.000000
# 4 0.000000 0.000000 0.000000 0.026729 0.000000 0.000000
# 5 0.000000 0.000000 0.000000 0.000000 0.032618 0.000000
# 6 0.000000 0.000000 0.000000 0.000000 0.000000 0.021549
#
#
# Mechanical properties :
#
#
# Convention : Reuss Voigt Hill
#
# Bulk Modulus (GPa) = 96.40244 108.45987 102.43115
# Shear Modulus (GPa) = 32.35995 37.83786 35.09890
#
# Velocity S-wave (km/s) = 4.16358 4.50222 4.33620
# Velocity P-wave (km/s) = 8.64622 9.22654 8.94109
#
# Compressibility (1/GPa) = 0.01037318
#
# Stress axis : x y z
#
# Youngs Moduli (GPa) = 79.87057 51.89270 117.99552
#
# Poissons Ratio (x) = 0.57854 0.21350
# Poissons Ratio (y) = 0.89045 0.23460
# Poissons Ratio (z) = 0.14452 0.10317
#
# Static dielectric constant tensor:
#      x y z
#    x 1.649310 0.000000 0.000000 
#    y 0.000000 1.592610 0.000000 
#    z 0.000000 0.000000 1.628920 
# 
# From -- ./inp_files/10065.got.cif
#   From: 2010.05.17/outbox.cif.g08.bks.cpg/sg57_6_cif.got.tgz:10065.got - 2010.06.03 13:58:18.
