data_PCOD9437156
_publ_section_title
;
Structure prediction by ZEFSAII (Michael W. Deem and Ramdas Pophale) SiO2 
 PCOD9437156
Probable space group: P B C M
;
_chemical_formula_sum "Si O2"
_cell_formula_units_Z 40
_cell_length_a 7.950652
_cell_length_b 30.659484
_cell_length_c 8.007927
_cell_angle_alpha 90.000000
_cell_angle_beta 90.000000
_cell_angle_gamma 90.000000
_cell_volume 1952.035411
_symmetry_space_group_name_H-M "P B C M"
_symmetry_group_IT_number 57
_symmetry_cell_setting 'orthorhombic'
loop_
_space_group_symop_operation_xyz
x,y,z
-x,-y,1/2+z
x,1/2-y,-z
-x,1/2+y,1/2-z
-x,-y,-z
x,y,1/2-z
-x,1/2+y,z
x,1/2-y,1/2+z
loop_
_atom_site_type_symbol
_atom_site_label
_atom_site_fract_x
_atom_site_fract_y
_atom_site_fract_z
Si Si1 0.956363 0.451969 0.063180
Si Si2 0.244990 0.199637 0.047670
Si Si3 0.937117 0.357888 0.553058
Si Si4 0.550930 0.140569 0.047675
Si Si5 0.584587 0.455094 0.949392
O O1 0.020727 0.447620 0.250000
O O2 0.002695 0.407660 0.967511
O O3 0.755552 0.451923 0.051437
O O4 0.000000 0.500000 0.000000
O O5 0.244674 0.196339 0.250000
O O6 0.413089 0.174785 0.986586
O O7 0.076895 0.175062 0.984490
O O8 0.245630 0.250000 0.000000
O O9 0.923378 0.349590 0.750000
O O10 0.744699 0.353913 0.486434
O O11 0.558247 0.144368 0.250000
O O12 0.492376 0.090663 0.014804
O O13 0.621650 0.455671 0.750000
O O14 0.500000 0.500000 0.000000
#
# Coordination Sequence:
#
# PCOD9437156 Si02
#       5
#     8   8   8   8   8
#     4  11  22  36  55  82 115 152 193 238 291 350
#     4  10  21  37  58  83 110 146 188 236 291 346
#     4   9  19  37  58  79 111 150 189 236 291 346
#     4   8  17  35  55  77 109 147 185 227 282 343
#     4  10  20  35  55  83 115 152 195 238 289 347
#
# _framework density 20.491432
#
# number of rings (size 3 to 8) (size 9 to 14) (size 15 to 20)
#    0.000    2.400    0.000    3.600    2.800    1.600 
#    0.000    5.000    0.000    0.000    0.000    0.000 
#    0.000    0.000    0.000    0.000    0.000    0.000 
#
# Total GULP energy -222932.740348 kJ/mol
# GULP energy per Si atom -5573.318509 kJ/mol
# Density = 2.044479 g / cm^3
# Si number density = 20.491432 Si / 1000 Ang^3
#
#
#
# Elastic Constant Matrix: (Units=GPa)
#
#
# Indices 1 2 3 4 5 6 
#
# 1 106.5831 99.7375 7.3526 0.0000 0.0000 0.0000
# 2 99.7375 191.5073 -1.7980 0.0000 0.0000 0.0000
# 3 7.3526 -1.7980 22.5631 0.0000 0.0000 0.0000
# 4 0.0000 0.0000 0.0000 32.5897 0.0000 0.0000
# 5 0.0000 0.0000 0.0000 0.0000 9.6679 0.0000
# 6 0.0000 0.0000 0.0000 0.0000 0.0000 42.4308
#
#
#
# Elastic Compliance Matrix: (Units=1/GPa)
#
#
# Indices 1 2 3 4 5 6 
#
# 1 0.019383 -0.010162 -0.007126 0.000000 0.000000 0.000000
# 2 -0.010162 0.010553 0.004152 0.000000 0.000000 0.000000
# 3 -0.007126 0.004152 0.046973 0.000000 0.000000 0.000000
# 4 0.000000 0.000000 0.000000 0.030685 0.000000 0.000000
# 5 0.000000 0.000000 0.000000 0.000000 0.103435 0.000000
# 6 0.000000 0.000000 0.000000 0.000000 0.000000 0.023568
#
#
# Mechanical properties :
#
#
# Convention : Reuss Voigt Hill
#
# Bulk Modulus (GPa) = 19.74788 59.02641 39.38714
# Shear Modulus (GPa) = 18.00203 31.29511 24.64857
#
# Velocity S-wave (km/s) = 2.96719 3.91222 3.47201
# Velocity P-wave (km/s) = 4.62569 7.01963 5.94442
#
# Compressibility (1/GPa) = 0.05063834
#
# Stress axis : x y z
#
# Youngs Moduli (GPa) = 51.59212 94.76097 21.28875
#
# Poissons Ratio (x) = 0.96292 0.15170
# Poissons Ratio (y) = 0.52425 -0.08840
# Poissons Ratio (z) = 0.36764 -0.39347
#
# Static dielectric constant tensor:
#      x y z
#    x 1.742380 0.000000 0.000000 
#    y 0.000000 1.749100 0.000000 
#    z 0.000000 0.000000 1.694200 
# 
# From -- ./inp_files/1495.got.cif
#   From: 2010.05.17/outbox.cif.g08.bks.cpg/sg57_1_cif.got.tgz:1495.got - 2010.06.03 13:58:18.
