data_PCOD9437924
_publ_section_title
;
Structure prediction by ZEFSAII (Michael W. Deem and Ramdas Pophale) SiO2 
 PCOD9437924
Probable space group: P B C M
;
_chemical_formula_sum "Si O2"
_cell_formula_units_Z 64
_cell_length_a 19.573546
_cell_length_b 9.130145
_cell_length_c 18.516485
_cell_angle_alpha 90.000000
_cell_angle_beta 90.000000
_cell_angle_gamma 90.000000
_cell_volume 3309.068316
_symmetry_space_group_name_H-M "P B C M"
_symmetry_group_IT_number 57
_symmetry_cell_setting 'orthorhombic'
loop_
_space_group_symop_operation_xyz
x,y,z
-x,-y,1/2+z
x,1/2-y,-z
-x,1/2+y,1/2-z
-x,-y,-z
x,y,1/2-z
-x,1/2+y,z
x,1/2-y,1/2+z
loop_
_atom_site_type_symbol
_atom_site_label
_atom_site_fract_x
_atom_site_fract_y
_atom_site_fract_z
Si Si1 0.711065 0.451211 0.043944
Si Si2 0.635893 0.556106 0.829559
Si Si3 0.890721 0.746004 0.331453
Si Si4 0.902946 0.411243 0.664790
Si Si5 0.980608 0.873795 0.944077
Si Si6 0.428935 0.423995 0.018876
Si Si7 0.263560 0.327261 0.670713
Si Si8 0.752060 0.365344 0.894377
O O1 0.732432 0.565794 0.104005
O O2 0.725162 0.292492 0.078763
O O3 0.633440 0.491193 0.021124
O O4 0.753115 0.459075 0.968978
O O5 0.605639 0.537505 0.750000
O O6 0.584529 0.554979 0.895952
O O7 0.676103 0.709948 0.832723
O O8 0.694764 0.436103 0.843565
O O9 0.911616 0.705441 0.250000
O O10 0.808977 0.753391 0.333184
O O11 0.918708 0.625337 0.386934
O O12 0.914452 0.912958 0.345153
O O13 0.913689 0.378552 0.750000
O O14 0.955312 0.338450 0.608446
O O15 0.825931 0.368261 0.642396
O O16 0.961037 0.750000 0.000000
O O17 0.000000 0.000000 0.000000
O O18 0.427363 0.250000 0.000000
O O19 0.500000 0.500000 0.000000
O O20 0.266539 0.401074 0.750000
#
# Coordination Sequence:
#
# PCOD9437924 Si02
#       8
#     8   8   8   8   8   8   8   8
#     4  10  23  40  60  97 130 165 205 264 317 371
#     4  10  20  40  66  96 128 163 211 262 318 381
#     4  10  22  42  64  89 122 164 210 262 324 389
#     4  11  23  42  64  89 124 166 208 263 329 387
#     4  12  26  42  61  90 123 166 215 264 316 386
#     4  11  24  42  68  94 132 177 215 256 309 374
#     4  10  20  37  65  94 122 161 213 263 320 380
#     4  10  22  37  65  93 128 160 211 262 320 383
#
# _framework density 19.340790999999999
#
# number of rings (size 3 to 8) (size 9 to 14) (size 15 to 20)
#    0.000    1.500    3.750    0.750    7.000    1.000 
#    0.000    2.500    0.000    0.000    0.000    0.000 
#    0.000    0.000    0.000    0.000    0.000    0.000 
#
# Total GULP energy -356981.727842 kJ/mol
# GULP energy per Si atom -5577.839498 kJ/mol
# Density = 1.929677 g / cm^3
# Si number density = 19.340791 Si / 1000 Ang^3
#
#
#
# Elastic Constant Matrix: (Units=GPa)
#
#
# Indices 1 2 3 4 5 6 
#
# 1 77.3583 -4.5591 43.6102 0.0000 0.0000 0.0000
# 2 -4.5591 27.8564 21.1347 0.0000 0.0000 0.0000
# 3 43.6102 21.1347 140.4620 0.0000 0.0000 0.0000
# 4 0.0000 0.0000 0.0000 25.0565 0.0000 0.0000
# 5 0.0000 0.0000 0.0000 0.0000 26.9271 0.0000
# 6 0.0000 0.0000 0.0000 0.0000 0.0000 24.9628
#
#
#
# Elastic Compliance Matrix: (Units=1/GPa)
#
#
# Indices 1 2 3 4 5 6 
#
# 1 0.017005 0.007664 -0.006433 0.000000 0.000000 0.000000
# 2 0.007664 0.043978 -0.008997 0.000000 0.000000 0.000000
# 3 -0.006433 -0.008997 0.010470 0.000000 0.000000 0.000000
# 4 0.000000 0.000000 0.000000 0.039910 0.000000 0.000000
# 5 0.000000 0.000000 0.000000 0.000000 0.037137 0.000000
# 6 0.000000 0.000000 0.000000 0.000000 0.000000 0.040060
#
#
# Mechanical properties :
#
#
# Convention : Reuss Voigt Hill
#
# Bulk Modulus (GPa) = 17.88199 40.67204 29.27701
# Shear Modulus (GPa) = 22.44844 27.75534 25.10189
#
# Velocity S-wave (km/s) = 3.41057 3.79234 3.60651
# Velocity P-wave (km/s) = 4.97746 6.34433 5.70200
#
# Compressibility (1/GPa) = 0.05592220
#
# Stress axis : x y z
#
# Youngs Moduli (GPa) = 58.80650 22.73839 95.50857
#
# Poissons Ratio (x) = -0.17426 0.61438
# Poissons Ratio (y) = -0.45067 0.85926
# Poissons Ratio (z) = 0.37829 0.20457
#
# Static dielectric constant tensor:
#      x y z
#    x 1.654510 0.000000 0.000000 
#    y 0.000000 1.659300 0.000000 
#    z 0.000000 0.000000 1.547280 
# 
# From -- ./inp_files/23068.got.cif
#   From: 2010.05.17/outbox.cif.g08.bks.cpg/sg57_12_cif.got.tgz:23068.got - 2010.06.03 13:58:18.
