data_PCOD9437416
_publ_section_title
;
Structure prediction by ZEFSAII (Michael W. Deem and Ramdas Pophale) SiO2 
 PCOD9437416
Probable space group: P B C M
;
_chemical_formula_sum "Si O2"
_cell_formula_units_Z 40
_cell_length_a 9.416540
_cell_length_b 26.559356
_cell_length_c 7.720363
_cell_angle_alpha 90.000000
_cell_angle_beta 90.000000
_cell_angle_gamma 90.000000
_cell_volume 1930.841464
_symmetry_space_group_name_H-M "P B C M"
_symmetry_group_IT_number 57
_symmetry_cell_setting 'orthorhombic'
loop_
_space_group_symop_operation_xyz
x,y,z
-x,-y,1/2+z
x,1/2-y,-z
-x,1/2+y,1/2-z
-x,-y,-z
x,y,1/2-z
-x,1/2+y,z
x,1/2-y,1/2+z
loop_
_atom_site_type_symbol
_atom_site_label
_atom_site_fract_x
_atom_site_fract_y
_atom_site_fract_z
Si Si1 0.340490 0.404023 0.462708
Si Si2 0.337889 0.899105 0.044984
Si Si3 0.165952 0.998470 0.956438
Si Si4 0.169912 0.306307 0.042098
Si Si5 0.154805 0.806347 0.458528
O O1 0.339275 0.404685 0.250000
O O2 0.503129 0.407229 0.523219
O O3 0.247967 0.451807 0.520718
O O4 0.267966 0.351853 0.519405
O O5 0.354794 0.890197 0.250000
O O6 0.255985 0.850340 0.973378
O O7 0.241631 0.948253 0.022967
O O8 0.179001 0.997849 0.750000
O O9 0.000000 0.000000 0.000000
O O10 0.164284 0.310089 0.250000
O O11 0.007618 0.311455 0.976244
O O12 0.220722 0.250000 0.000000
O O13 0.204663 0.750000 0.500000
O O14 0.148438 0.810942 0.250000
#
# Coordination Sequence:
#
# PCOD9437416 Si02
#       5
#     8   8   8   8   8
#     4   9  19  35  55  77 106 140 174 213 264 318
#     4  10  20  36  56  79 107 140 174 216 268 317
#     4  11  22  37  57  80 105 138 178 220 263 317
#     4   9  17  32  51  73 101 136 175 214 254 303
#     4   9  18  32  52  75 104 140 178 217 259 307
#
# _framework density 20.716356000000001
#
# number of rings (size 3 to 8) (size 9 to 14) (size 15 to 20)
#    0.000    2.400    0.000    2.400    0.000    4.800 
#    0.000    8.000    0.000    0.000    0.000    0.000 
#    0.000    0.000    0.000    0.000    0.000    0.000 
#
# Total GULP energy -223378.521229 kJ/mol
# GULP energy per Si atom -5584.463031 kJ/mol
# Density = 2.066920 g / cm^3
# Si number density = 20.716356 Si / 1000 Ang^3
#
#
#
# Elastic Constant Matrix: (Units=GPa)
#
#
# Indices 1 2 3 4 5 6 
#
# 1 165.3805 121.9601 -7.8838 0.0000 0.0000 0.0000
# 2 121.9601 195.2398 -15.4064 0.0000 0.0000 0.0000
# 3 -7.8838 -15.4064 24.6624 0.0000 0.0000 0.0000
# 4 0.0000 0.0000 0.0000 25.6363 0.0000 0.0000
# 5 0.0000 0.0000 0.0000 0.0000 80.2211 0.0000
# 6 0.0000 0.0000 0.0000 0.0000 0.0000 -51.5982
#
#
#
# Elastic Compliance Matrix: (Units=1/GPa)
#
#
# Indices 1 2 3 4 5 6 
#
# 1 0.011228 -0.007079 -0.000833 0.000000 0.000000 0.000000
# 2 -0.007079 0.009851 0.003891 0.000000 0.000000 0.000000
# 3 -0.000833 0.003891 0.042712 0.000000 0.000000 0.000000
# 4 0.000000 0.000000 0.000000 0.039007 0.000000 0.000000
# 5 0.000000 0.000000 0.000000 0.000000 0.012466 0.000000
# 6 0.000000 0.000000 0.000000 0.000000 0.000000 -0.019381
#
#
# Mechanical properties :
#
#
# Convention : Reuss Voigt Hill
#
# Bulk Modulus (GPa) = 17.93807 64.73583 41.33695
# Shear Modulus (GPa) = 40.81354 29.95936 35.38645
#
# Velocity S-wave (km/s) = 4.44341 3.80698 4.13745
# Velocity P-wave (km/s) = 5.91632 7.11622 6.54383
#
# Compressibility (1/GPa) = 0.05574736
#
# Stress axis : x y z
#
# Youngs Moduli (GPa) = 89.06674 101.51136 23.41269
#
# Poissons Ratio (x) = 0.71862 0.01951
# Poissons Ratio (y) = 0.63052 -0.09110
# Poissons Ratio (z) = 0.07421 -0.39497
#
# Static dielectric constant tensor:
#      x y z
#    x 1.714460 0.000000 0.000000 
#    y 0.000000 1.705580 0.000000 
#    z 0.000000 0.000000 1.777860 
# 
# From -- ./inp_files/1490.got.cif
#   From: 2010.05.17/outbox.cif.g08.bks.cpg/sg57_1_cif.got.tgz:1490.got - 2010.06.03 13:58:18.
