data_PCOD9437215
_publ_section_title
;
Structure prediction by ZEFSAII (Michael W. Deem and Ramdas Pophale) SiO2 
 PCOD9437215
Probable space group: P B C M
;
_chemical_formula_sum "Si O2"
_cell_formula_units_Z 64
_cell_length_a 20.193797
_cell_length_b 19.146784
_cell_length_c 9.119399
_cell_angle_alpha 90.000000
_cell_angle_beta 90.000000
_cell_angle_gamma 90.000000
_cell_volume 3525.981602
_symmetry_space_group_name_H-M "P B C M"
_symmetry_group_IT_number 57
_symmetry_cell_setting 'orthorhombic'
loop_
_space_group_symop_operation_xyz
x,y,z
-x,-y,1/2+z
x,1/2-y,-z
-x,1/2+y,1/2-z
-x,-y,-z
x,y,1/2-z
-x,1/2+y,z
x,1/2-y,1/2+z
loop_
_atom_site_type_symbol
_atom_site_label
_atom_site_fract_x
_atom_site_fract_y
_atom_site_fract_z
Si Si1 0.613702 0.676043 0.923636
Si Si2 0.882712 0.824604 0.575846
Si Si3 0.234685 0.820769 0.920860
Si Si4 0.739105 0.604849 0.076408
Si Si5 0.201210 0.973864 0.576848
Si Si6 0.942715 0.956255 0.422429
Si Si7 0.605960 0.178353 0.078736
Si Si8 0.511488 0.073826 0.576521
O O1 0.623674 0.686465 0.750000
O O2 0.552472 0.623389 0.944256
O O3 0.600185 0.750000 0.000000
O O4 0.679007 0.642193 0.994497
O O5 0.890816 0.750000 0.500000
O O6 0.894488 0.820583 0.750000
O O7 0.807081 0.851527 0.554070
O O8 0.929440 0.882644 0.501925
O O9 0.217011 0.815002 0.750000
O O10 0.207069 0.894433 0.977268
O O11 0.314516 0.825501 0.931563
O O12 0.213141 0.750000 0.000000
O O13 0.726283 0.600946 0.250000
O O14 0.753076 0.528245 0.010142
O O15 0.219923 0.974994 0.750000
O O16 0.126339 0.001392 0.564969
O O17 0.956604 0.946284 0.250000
O O18 0.000000 0.000000 0.500000
O O19 0.587549 0.179855 0.250000
O O20 0.584647 0.250000 0.000000
O O21 0.572416 0.113793 0.998108
O O22 0.522329 0.065040 0.750000
O O23 0.500000 0.000000 0.500000
#
# Coordination Sequence:
#
# PCOD9437215 Si02
#       8
#     8   8   8   8   8   8   8   8
#     4  11  24  40  58  80 110 146 183 226 277 332
#     4  10  20  35  56  84 116 147 187 231 277 331
#     4   9  19  35  56  82 110 141 180 227 278 331
#     4  10  21  35  56  86 115 146 183 228 278 333
#     4   9  19  36  57  81 113 150 185 228 280 330
#     4  10  20  36  58  82 113 153 192 231 277 327
#     4  10  20  36  58  81 107 140 181 227 278 334
#     4  11  25  41  57  79 108 144 185 232 281 333
#
# _framework density 18.150974999999999
#
# number of rings (size 3 to 8) (size 9 to 14) (size 15 to 20)
#    0.000    2.000    0.000    3.000    1.750    7.000 
#    0.000    0.625    0.000    1.500    0.000    0.000 
#    0.000    0.000    0.000    0.000    0.000    0.000 
#
# Total GULP energy -357509.045020 kJ/mol
# GULP energy per Si atom -5586.078828 kJ/mol
# Density = 1.810966 g / cm^3
# Si number density = 18.150975 Si / 1000 Ang^3
#
#
#
# Elastic Constant Matrix: (Units=GPa)
#
#
# Indices 1 2 3 4 5 6 
#
# 1 21.9072 26.8359 42.8043 0.0000 0.0000 0.0000
# 2 26.8359 181.2667 86.1588 0.0000 0.0000 0.0000
# 3 42.8043 86.1588 119.3858 0.0000 0.0000 0.0000
# 4 0.0000 0.0000 0.0000 39.1845 0.0000 0.0000
# 5 0.0000 0.0000 0.0000 0.0000 24.1533 0.0000
# 6 0.0000 0.0000 0.0000 0.0000 0.0000 26.7182
#
#
#
# Elastic Compliance Matrix: (Units=1/GPa)
#
#
# Indices 1 2 3 4 5 6 
#
# 1 0.155710 0.005302 -0.059654 0.000000 0.000000 0.000000
# 2 0.005302 0.008578 -0.008091 0.000000 0.000000 0.000000
# 3 -0.059654 -0.008091 0.035604 0.000000 0.000000 0.000000
# 4 0.000000 0.000000 0.000000 0.025520 0.000000 0.000000
# 5 0.000000 0.000000 0.000000 0.000000 0.041402 0.000000
# 6 0.000000 0.000000 0.000000 0.000000 0.000000 0.037428
#
#
# Mechanical properties :
#
#
# Convention : Reuss Voigt Hill
#
# Bulk Modulus (GPa) = 13.33254 70.46195 41.89725
# Shear Modulus (GPa) = 11.01006 29.12857 20.06932
#
# Velocity S-wave (km/s) = 2.46556 4.01033 3.32880
# Velocity P-wave (km/s) = 3.93276 7.76839 6.15689
#
# Compressibility (1/GPa) = 0.07500446
#
# Stress axis : x y z
#
# Youngs Moduli (GPa) = 6.42221 116.58067 28.08675
#
# Poissons Ratio (x) = -0.61815 1.67550
# Poissons Ratio (y) = -0.03405 0.22726
# Poissons Ratio (z) = 0.38311 0.94331
#
# Static dielectric constant tensor:
#      x y z
#    x 1.602390 0.000000 0.000000 
#    y 0.000000 1.599670 0.000000 
#    z 0.000000 0.000000 1.607100 
# 
# From -- ./inp_files/8378.got.cif
#   From: 2010.05.17/outbox.cif.g08.bks.cpg/sg57_5_cif.got.tgz:8378.got - 2010.06.03 13:58:18.
