data_PCOD9437418
_publ_section_title
;
Structure prediction by ZEFSAII (Michael W. Deem and Ramdas Pophale) SiO2 
 PCOD9437418
Probable space group: P B C M
;
_chemical_formula_sum "Si O2"
_cell_formula_units_Z 56
_cell_length_a 24.336927
_cell_length_b 14.664737
_cell_length_c 8.737949
_cell_angle_alpha 90.000000
_cell_angle_beta 90.000000
_cell_angle_gamma 90.000000
_cell_volume 3118.527109
_symmetry_space_group_name_H-M "P B C M"
_symmetry_group_IT_number 57
_symmetry_cell_setting 'orthorhombic'
loop_
_space_group_symop_operation_xyz
x,y,z
-x,-y,1/2+z
x,1/2-y,-z
-x,1/2+y,1/2-z
-x,-y,-z
x,y,1/2-z
-x,1/2+y,z
x,1/2-y,1/2+z
loop_
_atom_site_type_symbol
_atom_site_label
_atom_site_fract_x
_atom_site_fract_y
_atom_site_fract_z
Si Si1 0.147956 0.648670 0.433268
Si Si2 0.060785 0.492984 0.066567
Si Si3 0.558514 0.149409 0.433912
Si Si4 0.853909 0.851593 0.933572
Si Si5 0.232972 0.992661 0.433344
Si Si6 0.645281 0.501305 0.933854
Si Si7 0.564518 0.851376 0.566067
O O1 0.143501 0.750000 0.500000
O O2 0.152045 0.653563 0.250000
O O3 0.095956 0.583886 0.472471
O O4 0.200106 0.593546 0.498845
O O5 0.059192 0.485060 0.250000
O O6 0.093768 0.406837 0.998470
O O7 0.000000 0.500000 0.000000
O O8 0.565268 0.250000 0.500000
O O9 0.559601 0.154353 0.250000
O O10 0.497223 0.115536 0.476612
O O11 0.607426 0.083858 0.484045
O O12 0.857578 0.846979 0.750000
O O13 0.801829 0.916173 0.974150
O O14 0.849772 0.750000 0.000000
O O15 0.233776 0.985717 0.250000
O O16 0.294113 0.997195 0.497819
O O17 0.648332 0.502150 0.750000
O O18 0.611722 0.588073 0.992996
O O19 0.568676 0.750000 0.500000
O O20 0.569066 0.851140 0.750000
#
# Coordination Sequence:
#
# PCOD9437418 Si02
#       7
#     8   8   8   8   8   8   8
#     4  10  21  38  60  84 111 148 188 229 277 327
#     4  10  21  37  58  86 120 152 187 229 272 321
#     4   9  20  36  55  79 107 140 178 222 273 329
#     4  10  21  38  60  83 110 146 187 229 278 329
#     4  10  22  39  57  80 110 145 186 232 277 326
#     4  11  22  36  55  81 111 143 181 226 275 329
#     4  10  20  36  56  79 107 140 179 223 274 331
#
# _framework density 17.957194999999999
#
# number of rings (size 3 to 8) (size 9 to 14) (size 15 to 20)
#    0.000    2.000    0.000    3.000    0.000    6.857 
#    0.000    4.286    0.000    0.000    0.000    0.000 
#    0.000    0.000    0.000    0.000    0.000    0.000 
#
# Total GULP energy -312719.031777 kJ/mol
# GULP energy per Si atom -5584.268425 kJ/mol
# Density = 1.791632 g / cm^3
# Si number density = 17.957195 Si / 1000 Ang^3
#
#
#
# Elastic Constant Matrix: (Units=GPa)
#
#
# Indices 1 2 3 4 5 6 
#
# 1 185.4397 89.3709 57.6597 0.0000 0.0000 0.0000
# 2 89.3709 150.1465 50.8962 0.0000 0.0000 0.0000
# 3 57.6597 50.8962 56.1157 0.0000 0.0000 0.0000
# 4 0.0000 0.0000 0.0000 34.1279 0.0000 0.0000
# 5 0.0000 0.0000 0.0000 0.0000 38.2321 0.0000
# 6 0.0000 0.0000 0.0000 0.0000 0.0000 16.1441
#
#
#
# Elastic Compliance Matrix: (Units=1/GPa)
#
#
# Indices 1 2 3 4 5 6 
#
# 1 0.008852 -0.003156 -0.006233 0.000000 0.000000 0.000000
# 2 -0.003156 0.010742 -0.006500 0.000000 0.000000 0.000000
# 3 -0.006233 -0.006500 0.030120 0.000000 0.000000 0.000000
# 4 0.000000 0.000000 0.000000 0.029302 0.000000 0.000000
# 5 0.000000 0.000000 0.000000 0.000000 0.026156 0.000000
# 6 0.000000 0.000000 0.000000 0.000000 0.000000 0.061942
#
#
# Mechanical properties :
#
#
# Convention : Reuss Voigt Hill
#
# Bulk Modulus (GPa) = 55.75343 87.50615 71.62979
# Shear Modulus (GPa) = 24.40579 30.61917 27.51248
#
# Velocity S-wave (km/s) = 3.69061 4.13379 3.91847
# Velocity P-wave (km/s) = 7.01970 8.46289 7.77485
#
# Compressibility (1/GPa) = 0.01793612
#
# Stress axis : x y z
#
# Youngs Moduli (GPa) = 112.97510 93.09227 33.20049
#
# Poissons Ratio (x) = 0.29379 0.20693
# Poissons Ratio (y) = 0.35654 0.21581
# Poissons Ratio (z) = 0.70414 0.60511
#
# Static dielectric constant tensor:
#      x y z
#    x 1.594140 0.000000 0.000000 
#    y 0.000000 1.564880 0.000000 
#    z 0.000000 0.000000 1.494670 
# 
# From -- ./inp_files/8010.got.cif
#   From: 2010.05.17/outbox.cif.g08.bks.cpg/sg57_5_cif.got.tgz:8010.got - 2010.06.03 13:58:18.
