data_PCOD9437200
_publ_section_title
;
Structure prediction by ZEFSAII (Michael W. Deem and Ramdas Pophale) SiO2 
 PCOD9437200
Probable space group: P B C M
;
_chemical_formula_sum "Si O2"
_cell_formula_units_Z 56
_cell_length_a 16.938267
_cell_length_b 21.700738
_cell_length_c 8.704480
_cell_angle_alpha 90.000000
_cell_angle_beta 90.000000
_cell_angle_gamma 90.000000
_cell_volume 3199.530907
_symmetry_space_group_name_H-M "P B C M"
_symmetry_group_IT_number 57
_symmetry_cell_setting 'orthorhombic'
loop_
_space_group_symop_operation_xyz
x,y,z
-x,-y,1/2+z
x,1/2-y,-z
-x,1/2+y,1/2-z
-x,-y,-z
x,y,1/2-z
-x,1/2+y,z
x,1/2-y,1/2+z
loop_
_atom_site_type_symbol
_atom_site_label
_atom_site_fract_x
_atom_site_fract_y
_atom_site_fract_z
Si Si1 0.546524 0.440424 0.434338
Si Si2 0.703716 0.486547 0.566537
Si Si3 0.146071 0.182102 0.568111
Si Si4 0.301167 0.121917 0.066686
Si Si5 0.976386 0.595999 0.431206
Si Si6 0.548002 0.684372 0.934472
Si Si7 0.122617 0.969970 0.432406
O O1 0.500000 0.500000 0.500000
O O2 0.547085 0.445612 0.250000
O O3 0.635026 0.443689 0.499269
O O4 0.504857 0.375572 0.474850
O O5 0.702855 0.485508 0.750000
O O6 0.683872 0.555409 0.508031
O O7 0.790716 0.470665 0.504731
O O8 0.148699 0.250000 0.500000
O O9 0.159122 0.182168 0.750000
O O10 0.215249 0.143725 0.486314
O O11 0.063526 0.150400 0.525808
O O12 0.304876 0.117102 0.250000
O O13 0.366246 0.169388 0.005094
O O14 0.976823 0.609604 0.250000
O O15 0.920107 0.536179 0.455533
O O16 0.063023 0.578095 0.489529
O O17 0.553275 0.687855 0.750000
O O18 0.519729 0.750000 0.000000
O O19 0.127762 0.959622 0.250000
#
# Coordination Sequence:
#
# PCOD9437200 Si02
#       7
#     8   8   8   8   8   8   8
#     4  11  23  39  61  87 118 155 198 244 296 354
#     4  12  23  36  58  87 120 154 193 241 295 349
#     4  12  24  38  56  80 116 156 196 236 284 343
#     4  12  23  37  57  83 118 156 195 238 290 350
#     4  10  20  35  56  82 113 148 189 231 280 336
#     4  11  24  41  61  86 117 156 199 243 294 354
#     4  10  20  35  57  83 114 148 185 231 285 337
#
# _framework density 17.502566000000002
#
# number of rings (size 3 to 8) (size 9 to 14) (size 15 to 20)
#    0.000    0.857    2.857    6.000    0.000    2.857 
#    0.000    0.000    0.000    0.857    0.000    4.000 
#    0.000    0.000    0.000    0.000    0.000    0.000 
#
# Total GULP energy -313116.072543 kJ/mol
# GULP energy per Si atom -5591.358438 kJ/mol
# Density = 1.746273 g / cm^3
# Si number density = 17.502566 Si / 1000 Ang^3
#
#
#
# Elastic Constant Matrix: (Units=GPa)
#
#
# Indices 1 2 3 4 5 6 
#
# 1 102.9434 35.6557 38.7324 0.0000 0.0000 0.0000
# 2 35.6557 77.1733 30.0226 0.0000 0.0000 0.0000
# 3 38.7324 30.0226 87.9722 0.0000 0.0000 0.0000
# 4 0.0000 0.0000 0.0000 28.5100 0.0000 0.0000
# 5 0.0000 0.0000 0.0000 0.0000 33.3495 0.0000
# 6 0.0000 0.0000 0.0000 0.0000 0.0000 21.0656
#
#
#
# Elastic Compliance Matrix: (Units=1/GPa)
#
#
# Indices 1 2 3 4 5 6 
#
# 1 0.012760 -0.004278 -0.004158 0.000000 0.000000 0.000000
# 2 -0.004278 0.016376 -0.003705 0.000000 0.000000 0.000000
# 3 -0.004158 -0.003705 0.014462 0.000000 0.000000 0.000000
# 4 0.000000 0.000000 0.000000 0.035075 0.000000 0.000000
# 5 0.000000 0.000000 0.000000 0.000000 0.029985 0.000000
# 6 0.000000 0.000000 0.000000 0.000000 0.000000 0.047471
#
#
# Mechanical properties :
#
#
# Convention : Reuss Voigt Hill
#
# Bulk Modulus (GPa) = 51.77032 52.99003 52.38017
# Shear Modulus (GPa) = 26.75930 27.49693 27.12811
#
# Velocity S-wave (km/s) = 3.91433 3.96791 3.94121
# Velocity P-wave (km/s) = 7.07617 7.16476 7.12060
#
# Compressibility (1/GPa) = 0.01931609
#
# Stress axis : x y z
#
# Youngs Moduli (GPa) = 78.36820 61.06605 69.14460
#
# Poissons Ratio (x) = 0.26123 0.28752
# Poissons Ratio (y) = 0.33525 0.25619
# Poissons Ratio (z) = 0.32587 0.22626
#
# Static dielectric constant tensor:
#      x y z
#    x 1.589790 0.000000 0.000000 
#    y 0.000000 1.585900 0.000000 
#    z 0.000000 0.000000 1.575030 
# 
# From -- ./inp_files/5161.got.cif
#   From: 2010.05.17/outbox.cif.g08.bks.cpg/sg57_3_cif.got.tgz:5161.got - 2010.06.03 13:58:18.
