data_PCOD9437074
_publ_section_title
;
Structure prediction by ZEFSAII (Michael W. Deem and Ramdas Pophale) SiO2 
 PCOD9437074
Probable space group: P B C M
;
_chemical_formula_sum "Si O2"
_cell_formula_units_Z 52
_cell_length_a 27.033422
_cell_length_b 5.190718
_cell_length_c 19.377494
_cell_angle_alpha 90.000000
_cell_angle_beta 90.000000
_cell_angle_gamma 90.000000
_cell_volume 2719.105575
_symmetry_space_group_name_H-M "P B C M"
_symmetry_group_IT_number 57
_symmetry_cell_setting 'orthorhombic'
loop_
_space_group_symop_operation_xyz
x,y,z
-x,-y,1/2+z
x,1/2-y,-z
-x,1/2+y,1/2-z
-x,-y,-z
x,y,1/2-z
-x,1/2+y,z
x,1/2-y,1/2+z
loop_
_atom_site_type_symbol
_atom_site_label
_atom_site_fract_x
_atom_site_fract_y
_atom_site_fract_z
Si Si1 0.465918 0.557034 0.671012
Si Si2 0.387226 0.002617 0.048752
Si Si3 0.274863 0.403623 0.571936
Si Si4 0.966839 0.312390 0.668766
Si Si5 0.796659 0.250000 0.500000
Si Si6 0.859861 0.145686 0.383097
Si Si7 0.191570 0.336239 0.671711
O O1 0.445938 0.541627 0.750000
O O2 0.494137 0.828168 0.663889
O O3 0.425767 0.526194 0.610976
O O4 0.332409 0.041578 0.080612
O O5 0.397994 0.250000 0.000000
O O6 0.387056 0.750000 0.000000
O O7 0.270317 0.250000 0.500000
O O8 0.242285 0.654358 0.556695
O O9 0.243750 0.280284 0.633443
O O10 0.951263 0.320682 0.750000
O O11 0.005132 0.544194 0.657624
O O12 0.918626 0.342959 0.621827
O O13 0.834757 0.074501 0.456902
O O14 0.839258 0.428729 0.362552
O O15 0.840426 0.922407 0.333230
O O16 0.201292 0.410118 0.750000
#
# Coordination Sequence:
#
# PCOD9437074 Si02
#       7
#     8   8   8   8   4   8   8
#     4  10  22  41  62  87 123 163 203 250 307 358
#     4  11  23  37  62  90 121 159 204 252 295 352
#     4  10  20  38  57  83 118 155 193 229 296 352
#     4  10  20  35  54  77 109 145 182 233 292 341
#     4  10  20  38  60  80 112 160 188 230 288 356
#     4  11  22  37  59  83 113 147 195 232 290 350
#     4  11  22  35  58  86 114 146 192 247 285 343
#
# _framework density 19.123934999999999
#
# number of rings (size 3 to 8) (size 9 to 14) (size 15 to 20)
#    0.000    1.538    2.308    3.231    0.000    3.692 
#    0.000    0.769    0.000    4.615    0.000    0.000 
#    0.000    0.000    0.000    0.000    0.000    0.000 
#
# Total GULP energy -289881.838003 kJ/mol
# GULP energy per Si atom -5574.650731 kJ/mol
# Density = 1.908041 g / cm^3
# Si number density = 19.123935 Si / 1000 Ang^3
#
#
#
# Elastic Constant Matrix: (Units=GPa)
#
#
# Indices 1 2 3 4 5 6 
#
# 1 82.4096 -9.3897 32.3187 0.0000 0.0000 0.0000
# 2 -9.3897 64.3061 -10.5553 0.0000 0.0000 0.0000
# 3 32.3187 -10.5553 41.7094 0.0000 0.0000 0.0000
# 4 0.0000 0.0000 0.0000 12.9213 0.0000 0.0000
# 5 0.0000 0.0000 0.0000 0.0000 19.6463 0.0000
# 6 0.0000 0.0000 0.0000 0.0000 0.0000 20.6378
#
#
#
# Elastic Compliance Matrix: (Units=1/GPa)
#
#
# Indices 1 2 3 4 5 6 
#
# 1 0.017439 0.000343 -0.013426 0.000000 0.000000 0.000000
# 2 0.000343 0.016231 0.003842 0.000000 0.000000 0.000000
# 3 -0.013426 0.003842 0.035351 0.000000 0.000000 0.000000
# 4 0.000000 0.000000 0.000000 0.077392 0.000000 0.000000
# 5 0.000000 0.000000 0.000000 0.000000 0.050900 0.000000
# 6 0.000000 0.000000 0.000000 0.000000 0.000000 0.048455
#
#
# Mechanical properties :
#
#
# Convention : Reuss Voigt Hill
#
# Bulk Modulus (GPa) = 19.78681 23.68585 21.73633
# Shear Modulus (GPa) = 17.78751 22.37782 20.08267
#
# Velocity S-wave (km/s) = 3.05309 3.42445 3.24409
# Velocity P-wave (km/s) = 4.77468 5.29605 5.04211
#
# Compressibility (1/GPa) = 0.05053872
#
# Stress axis : x y z
#
# Youngs Moduli (GPa) = 57.34349 61.60939 28.28791
#
# Poissons Ratio (x) = -0.02111 0.37979
# Poissons Ratio (y) = -0.01965 -0.10869
# Poissons Ratio (z) = 0.76988 -0.23671
#
# Static dielectric constant tensor:
#      x y z
#    x 1.632120 0.000000 0.000000 
#    y 0.000000 1.725090 0.000000 
#    z 0.000000 0.000000 1.720530 
# 
# From -- ./inp_files/25735.got.cif
#   From: 2010.05.17/outbox.cif.g08.bks.cpg/sg57_13_cif.got.tgz:25735.got - 2010.06.03 13:58:18.
