data_PCOD9437950
_publ_section_title
;
Structure prediction by ZEFSAII (Michael W. Deem and Ramdas Pophale) SiO2 
 PCOD9437950
Probable space group: P B C M
;
_chemical_formula_sum "Si O2"
_cell_formula_units_Z 48
_cell_length_a 13.899491
_cell_length_b 8.857423
_cell_length_c 16.266109
_cell_angle_alpha 90.000000
_cell_angle_beta 90.000000
_cell_angle_gamma 90.000000
_cell_volume 2002.580396
_symmetry_space_group_name_H-M "P B C M"
_symmetry_group_IT_number 57
_symmetry_cell_setting 'orthorhombic'
loop_
_space_group_symop_operation_xyz
x,y,z
-x,-y,1/2+z
x,1/2-y,-z
-x,1/2+y,1/2-z
-x,-y,-z
x,y,1/2-z
-x,1/2+y,z
x,1/2-y,1/2+z
loop_
_atom_site_type_symbol
_atom_site_label
_atom_site_fract_x
_atom_site_fract_y
_atom_site_fract_z
Si Si1 0.405818 0.185149 0.909759
Si Si2 0.492525 0.682609 0.250000
Si Si3 0.951996 0.017511 0.849235
Si Si4 0.133734 0.841885 0.848823
Si Si5 0.755523 0.588084 0.394940
Si Si6 0.644501 0.421824 0.250000
Si Si7 0.320177 0.601099 0.453072
O O1 0.468788 0.244393 0.835057
O O2 0.299648 0.253325 0.890093
O O3 0.401381 0.004234 0.913077
O O4 0.431219 0.250000 0.000000
O O5 0.544904 0.519668 0.250000
O O6 0.383104 0.745397 0.250000
O O7 0.950987 0.008789 0.750000
O O8 0.916559 0.183769 0.872477
O O9 0.868761 0.905910 0.880948
O O10 0.058329 0.970838 0.875612
O O11 0.143381 0.845083 0.750000
O O12 0.235767 0.855902 0.891413
O O13 0.707038 0.478907 0.326760
O O14 0.727912 0.509219 0.479748
O O15 0.354829 0.750000 0.500000
#
# Coordination Sequence:
#
# PCOD9437950 Si02
#       7
#     8   4   8   8   8   4   8
#     4   9  22  41  65  95 134 170 212 260 326 398
#     4  10  22  44  70 103 129 164 218 261 327 398
#     4  10  20  38  58  85 123 165 212 266 317 368
#     4  10  23  38  57  87 126 162 222 269 316 379
#     4  10  20  40  63  86 126 169 206 256 322 385
#     4  10  22  42  68  97 127 166 210 261 315 396
#     4  11  22  39  58  92 128 163 216 264 318 372
#
# _framework density 23.969073999999999
#
# number of rings (size 3 to 8) (size 9 to 14) (size 15 to 20)
#    0.000    2.000    2.500    0.000    3.500    2.000 
#    0.000    8.333    0.000    0.000    0.000    0.000 
#    0.000    0.000    0.000    0.000    0.000    0.000 
#
# Total GULP energy -268638.866582 kJ/mol
# GULP energy per Si atom -5596.643054 kJ/mol
# Density = 2.391452 g / cm^3
# Si number density = 23.969074 Si / 1000 Ang^3
#
#
#
# Elastic Constant Matrix: (Units=GPa)
#
#
# Indices 1 2 3 4 5 6 
#
# 1 84.4826 37.5611 33.0880 0.0000 0.0000 0.0000
# 2 37.5611 102.6437 23.2738 0.0000 0.0000 0.0000
# 3 33.0880 23.2738 75.0485 0.0000 0.0000 0.0000
# 4 0.0000 0.0000 0.0000 19.3538 0.0000 0.0000
# 5 0.0000 0.0000 0.0000 0.0000 8.2984 0.0000
# 6 0.0000 0.0000 0.0000 0.0000 0.0000 34.9729
#
#
#
# Elastic Compliance Matrix: (Units=1/GPa)
#
#
# Indices 1 2 3 4 5 6 
#
# 1 0.016107 -0.004608 -0.005672 0.000000 0.000000 0.000000
# 2 -0.004608 0.011798 -0.001627 0.000000 0.000000 0.000000
# 3 -0.005672 -0.001627 0.016330 0.000000 0.000000 0.000000
# 4 0.000000 0.000000 0.000000 0.051669 0.000000 0.000000
# 5 0.000000 0.000000 0.000000 0.000000 0.120505 0.000000
# 6 0.000000 0.000000 0.000000 0.000000 0.000000 0.028594
#
#
# Mechanical properties :
#
#
# Convention : Reuss Voigt Hill
#
# Bulk Modulus (GPa) = 48.97158 50.00231 49.48694
# Shear Modulus (GPa) = 18.14063 23.74181 20.94122
#
# Velocity S-wave (km/s) = 2.75405 3.15066 2.95901
# Velocity P-wave (km/s) = 5.53069 5.84312 5.68905
#
# Compressibility (1/GPa) = 0.02042001
#
# Stress axis : x y z
#
# Youngs Moduli (GPa) = 62.08435 84.76304 61.23633
#
# Poissons Ratio (x) = 0.39059 0.34736
# Poissons Ratio (y) = 0.28609 0.09963
# Poissons Ratio (z) = 0.35217 0.13791
#
# Static dielectric constant tensor:
#      x y z
#    x 1.875390 0.000000 0.000000 
#    y 0.000000 1.953380 0.000000 
#    z 0.000000 0.000000 1.939600 
# 
# From -- ./inp_files/22540.got.cif
#   From: 2010.05.17/outbox.cif.g08.bks.cpg/sg57_12_cif.got.tgz:22540.got - 2010.06.03 13:58:18.
