data_PCOD9437641
_publ_section_title
;
Structure prediction by ZEFSAII (Michael W. Deem and Ramdas Pophale) SiO2 
 PCOD9437641
Probable space group: P B C M
;
_chemical_formula_sum "Si O2"
_cell_formula_units_Z 64
_cell_length_a 15.860033
_cell_length_b 11.642844
_cell_length_c 15.759367
_cell_angle_alpha 90.000000
_cell_angle_beta 90.000000
_cell_angle_gamma 90.000000
_cell_volume 2910.059940
_symmetry_space_group_name_H-M "P B C M"
_symmetry_group_IT_number 57
_symmetry_cell_setting 'orthorhombic'
loop_
_space_group_symop_operation_xyz
x,y,z
-x,-y,1/2+z
x,1/2-y,-z
-x,1/2+y,1/2-z
-x,-y,-z
x,y,1/2-z
-x,1/2+y,z
x,1/2-y,1/2+z
loop_
_atom_site_type_symbol
_atom_site_label
_atom_site_fract_x
_atom_site_fract_y
_atom_site_fract_z
Si Si1 0.839652 0.931513 0.347413
Si Si2 0.431426 0.662438 0.146248
Si Si3 0.248726 0.626646 0.425068
Si Si4 0.301426 0.477899 0.843758
Si Si5 0.474304 0.920777 0.352957
Si Si6 0.840708 0.824313 0.853089
Si Si7 0.828503 0.159037 0.613474
Si Si8 0.019243 0.506651 0.598975
O O1 0.813778 0.924516 0.250000
O O2 0.852327 0.804424 0.382615
O O3 0.930406 0.991593 0.354686
O O4 0.767954 0.998067 0.397150
O O5 0.418687 0.665065 0.250000
O O6 0.342837 0.666276 0.095902
O O7 0.469962 0.535127 0.125365
O O8 0.481429 0.783174 0.123957
O O9 0.189235 0.709349 0.368213
O O10 0.210820 0.637773 0.519255
O O11 0.329904 0.437881 0.750000
O O12 0.381868 0.537687 0.884412
O O13 0.248193 0.376094 0.885374
O O14 0.230419 0.575070 0.834184
O O15 0.476192 0.916849 0.250000
O O16 0.836869 0.826908 0.750000
O O17 0.918525 0.903206 0.878653
O O18 0.924408 0.119540 0.617939
O O19 0.000000 0.500000 0.500000
#
# Coordination Sequence:
#
# PCOD9437641 Si02
#       8
#     8   8   8   8   8   8   8   8
#     4  11  24  39  58  88 121 155 201 255 310 363
#     4  10  20  36  60  90 123 160 207 257 311 372
#     4  11  22  38  58  87 122 159 202 249 302 361
#     4   9  17  36  61  82 108 150 198 241 296 360
#     4   9  18  33  58  89 117 154 202 253 305 366
#     4   9  21  38  57  85 118 151 196 252 303 360
#     4  10  22  38  60  84 115 156 203 246 294 365
#     4  11  22  40  60  84 115 159 202 248 303 363
#
# _framework density 21.992674999999998
#
# number of rings (size 3 to 8) (size 9 to 14) (size 15 to 20)
#    0.000    2.000    2.500    0.750    1.750    2.500 
#    0.000    4.375    0.000    0.000    0.000    0.000 
#    0.000    0.000    0.000    0.000    0.000    0.000 
#
# Total GULP energy -356594.584255 kJ/mol
# GULP energy per Si atom -5571.790379 kJ/mol
# Density = 2.194262 g / cm^3
# Si number density = 21.992675 Si / 1000 Ang^3
#
#
#
# Elastic Constant Matrix: (Units=GPa)
#
#
# Indices 1 2 3 4 5 6 
#
# 1 57.7633 34.9676 -3.8041 0.0000 0.0000 0.0000
# 2 34.9676 144.8574 9.7306 0.0000 0.0000 0.0000
# 3 -3.8041 9.7306 26.5737 0.0000 0.0000 0.0000
# 4 0.0000 0.0000 0.0000 0.4424 0.0000 0.0000
# 5 0.0000 0.0000 0.0000 0.0000 11.9159 0.0000
# 6 0.0000 0.0000 0.0000 0.0000 0.0000 27.9339
#
#
#
# Elastic Compliance Matrix: (Units=1/GPa)
#
#
# Indices 1 2 3 4 5 6 
#
# 1 0.020893 -0.005377 0.004960 0.000000 0.000000 0.000000
# 2 -0.005377 0.008461 -0.003868 0.000000 0.000000 0.000000
# 3 0.004960 -0.003868 0.039757 0.000000 0.000000 0.000000
# 4 0.000000 0.000000 0.000000 2.260525 0.000000 0.000000
# 5 0.000000 0.000000 0.000000 0.000000 0.083921 0.000000
# 6 0.000000 0.000000 0.000000 0.000000 0.000000 0.035799
#
#
# Mechanical properties :
#
#
# Convention : Reuss Voigt Hill
#
# Bulk Modulus (GPa) = 16.51739 34.55365 25.53552
# Shear Modulus (GPa) = 2.01767 20.61180 11.31473
#
# Velocity S-wave (km/s) = 0.95886 3.06471 2.27067
# Velocity P-wave (km/s) = 2.95848 5.31684 4.30241
#
# Compressibility (1/GPa) = 0.06054224
#
# Stress axis : x y z
#
# Youngs Moduli (GPa) = 47.86178 118.18848 25.15253
#
# Poissons Ratio (x) = 0.63547 -0.12475
# Poissons Ratio (y) = 0.25734 0.09729
# Poissons Ratio (z) = -0.23738 0.45714
#
# Static dielectric constant tensor:
#      x y z
#    x 1.774240 0.000000 0.000000 
#    y 0.000000 1.892720 0.000000 
#    z 0.000000 0.000000 1.810590 
# 
# From -- ./inp_files/22688.got.cif
#   From: 2010.05.17/outbox.cif.g08.bks.cpg/sg57_12_cif.got.tgz:22688.got - 2010.06.03 13:58:18.
