data_PCOD9437948
_publ_section_title
;
Structure prediction by ZEFSAII (Michael W. Deem and Ramdas Pophale) SiO2 
 PCOD9437948
Probable space group: P B C M
;
_chemical_formula_sum "Si O2"
_cell_formula_units_Z 32
_cell_length_a 19.002602
_cell_length_b 8.787819
_cell_length_c 9.877717
_cell_angle_alpha 90.000000
_cell_angle_beta 90.000000
_cell_angle_gamma 90.000000
_cell_volume 1649.494056
_symmetry_space_group_name_H-M "P B C M"
_symmetry_group_IT_number 57
_symmetry_cell_setting 'orthorhombic'
loop_
_space_group_symop_operation_xyz
x,y,z
-x,-y,1/2+z
x,1/2-y,-z
-x,1/2+y,1/2-z
-x,-y,-z
x,y,1/2-z
-x,1/2+y,z
x,1/2-y,1/2+z
loop_
_atom_site_type_symbol
_atom_site_label
_atom_site_fract_x
_atom_site_fract_y
_atom_site_fract_z
Si Si1 0.303601 0.391935 0.598552
Si Si2 0.442867 0.904653 0.086332
Si Si3 0.905699 0.491186 0.750000
Si Si4 0.835507 0.070810 0.522122
Si Si5 0.055602 0.864674 0.250000
O O1 0.306817 0.250000 0.500000
O O2 0.306497 0.330515 0.750000
O O3 0.369732 0.503520 0.580147
O O4 0.231975 0.486556 0.580030
O O5 0.459481 0.884192 0.250000
O O6 0.435653 0.750000 0.000000
O O7 0.500000 0.000000 0.000000
O O8 0.858583 0.506535 0.617361
O O9 0.933295 0.316597 0.750000
O O10 0.974037 0.595834 0.750000
O O11 0.818968 0.250000 0.500000
O O12 0.902766 0.069424 0.621091
#
# Coordination Sequence:
#
# PCOD9437948 Si02
#       5
#     8   8   4   8   4
#     4  11  25  42  63  92 127 164 209 260 311 371
#     4  11  24  44  69 100 134 173 214 260 313 373
#     4  10  22  34  60  88 115 160 199 254 312 378
#     4  10  21  40  60  86 120 161 207 254 313 371
#     4  10  20  38  58  84 121 154 203 254 312 374
#
# _framework density 19.399888000000001
#
# number of rings (size 3 to 8) (size 9 to 14) (size 15 to 20)
#    0.000    1.500    1.250    3.000    1.750    6.000 
#    0.000    0.000    0.000    0.000    0.000    0.000 
#    0.000    0.000    0.000    0.000    0.000    0.000 
#
# Total GULP energy -178762.738947 kJ/mol
# GULP energy per Si atom -5586.335592 kJ/mol
# Density = 1.935573 g / cm^3
# Si number density = 19.399888 Si / 1000 Ang^3
#
#
#
# Elastic Constant Matrix: (Units=GPa)
#
#
# Indices 1 2 3 4 5 6 
#
# 1 81.6740 24.7978 32.2876 0.0000 0.0000 0.0000
# 2 24.7978 68.4295 50.5492 0.0000 0.0000 0.0000
# 3 32.2876 50.5492 134.2393 0.0000 0.0000 0.0000
# 4 0.0000 0.0000 0.0000 192.0012 0.0000 0.0000
# 5 0.0000 0.0000 0.0000 0.0000 96.7984 0.0000
# 6 0.0000 0.0000 0.0000 0.0000 0.0000 21.9565
#
#
#
# Elastic Compliance Matrix: (Units=1/GPa)
#
#
# Indices 1 2 3 4 5 6 
#
# 1 0.014150 -0.003621 -0.002040 0.000000 0.000000 0.000000
# 2 -0.003621 0.021172 -0.007102 0.000000 0.000000 0.000000
# 3 -0.002040 -0.007102 0.010614 0.000000 0.000000 0.000000
# 4 0.000000 0.000000 0.000000 0.005208 0.000000 0.000000
# 5 0.000000 0.000000 0.000000 0.000000 0.010331 0.000000
# 6 0.000000 0.000000 0.000000 0.000000 0.000000 0.045545
#
#
# Mechanical properties :
#
#
# Convention : Reuss Voigt Hill
#
# Bulk Modulus (GPa) = 48.99297 55.51244 52.25271
# Shear Modulus (GPa) = 35.88170 73.93177 54.90674
#
# Velocity S-wave (km/s) = 4.30534 6.17998 5.32579
# Velocity P-wave (km/s) = 7.07274 8.92187 8.05057
#
# Compressibility (1/GPa) = 0.02041109
#
# Stress axis : x y z
#
# Youngs Moduli (GPa) = 70.67374 47.23306 94.21367
#
# Poissons Ratio (x) = 0.17102 0.19218
# Poissons Ratio (y) = 0.25589 0.66906
# Poissons Ratio (z) = 0.14416 0.33543
#
# Static dielectric constant tensor:
#      x y z
#    x 1.630170 0.000000 0.000000 
#    y 0.000000 1.657800 0.000000 
#    z 0.000000 0.000000 1.687380 
# 
# From -- ./inp_files/7569.got.cif
#   From: 2010.05.17/outbox.cif.g08.bks.cpg/sg57_4_cif.got.tgz:7569.got - 2010.06.03 13:58:18.
