data_PCOD9437163
_publ_section_title
;
Structure prediction by ZEFSAII (Michael W. Deem and Ramdas Pophale) SiO2 
 PCOD9437163
Probable space group: P B C M
;
_chemical_formula_sum "Si O2"
_cell_formula_units_Z 64
_cell_length_a 28.858881
_cell_length_b 12.711661
_cell_length_c 8.184956
_cell_angle_alpha 90.000000
_cell_angle_beta 90.000000
_cell_angle_gamma 90.000000
_cell_volume 3002.604553
_symmetry_space_group_name_H-M "P B C M"
_symmetry_group_IT_number 57
_symmetry_cell_setting 'orthorhombic'
loop_
_space_group_symop_operation_xyz
x,y,z
-x,-y,1/2+z
x,1/2-y,-z
-x,1/2+y,1/2-z
-x,-y,-z
x,y,1/2-z
-x,1/2+y,z
x,1/2-y,1/2+z
loop_
_atom_site_type_symbol
_atom_site_label
_atom_site_fract_x
_atom_site_fract_y
_atom_site_fract_z
Si Si1 0.243004 0.914952 0.442959
Si Si2 0.010874 0.372093 0.946399
Si Si3 0.419112 0.485805 0.061902
Si Si4 0.113976 0.086298 0.447573
Si Si5 0.215748 0.362613 0.440787
Si Si6 0.857797 0.359203 0.054426
Si Si7 0.499935 0.864337 0.052995
Si Si8 0.343081 0.861113 0.057586
O O1 0.242832 0.891023 0.250000
O O2 0.194898 0.869521 0.513115
O O3 0.291386 0.875381 0.515414
O O4 0.238355 0.040030 0.464938
O O5 0.005359 0.374201 0.750000
O O6 0.065114 0.366877 0.995514
O O7 0.992889 0.250000 0.000000
O O8 0.000000 0.500000 0.000000
O O9 0.406679 0.472534 0.250000
O O10 0.446330 0.382987 0.001509
O O11 0.462882 0.563765 0.039724
O O12 0.375777 0.540219 0.978486
O O13 0.118942 0.094096 0.250000
O O14 0.160503 0.132255 0.525254
O O15 0.114664 0.962743 0.494308
O O16 0.233017 0.250000 0.500000
O O17 0.224104 0.376645 0.250000
O O18 0.855344 0.360534 0.250000
O O19 0.878621 0.250000 0.000000
O O20 0.496184 0.879354 0.250000
O O21 0.486401 0.750000 0.000000
O O22 0.338426 0.854068 0.250000
O O23 0.363444 0.750000 0.000000
#
# Coordination Sequence:
#
# PCOD9437163 Si02
#       8
#     8   8   8   8   8   8   8   8
#     4   9  20  37  53  74 107 145 184 226 272 324
#     4  11  24  43  66  92 125 166 210 258 312 371
#     4  10  21  36  54  78 107 138 176 218 260 314
#     4   9  20  38  58  83 116 152 193 241 291 345
#     4  11  21  34  57  84 110 142 181 228 278 329
#     4   9  17  31  51  77 110 145 184 231 282 336
#     4  10  20  35  56  79 104 135 171 216 268 318
#     4  11  22  36  56  79 107 142 177 217 263 314
#
# _framework density 21.314829
#
# number of rings (size 3 to 8) (size 9 to 14) (size 15 to 20)
#    0.000    2.000    0.000    4.500    0.000    7.000 
#    0.000    1.875    0.000    1.500    0.000    0.000 
#    0.000    0.000    0.000    0.000    0.000    0.000 
#
# Total GULP energy -356362.841365 kJ/mol
# GULP energy per Si atom -5568.169396 kJ/mol
# Density = 2.126632 g / cm^3
# Si number density = 21.314829 Si / 1000 Ang^3
#
#
#
# Elastic Constant Matrix: (Units=GPa)
#
#
# Indices 1 2 3 4 5 6 
#
# 1 67.2947 6.7597 3.8302 0.0000 0.0000 0.0000
# 2 6.7597 106.2231 -7.9396 0.0000 0.0000 0.0000
# 3 3.8302 -7.9396 19.5274 0.0000 0.0000 0.0000
# 4 0.0000 0.0000 0.0000 27.3724 0.0000 0.0000
# 5 0.0000 0.0000 0.0000 0.0000 32.1568 0.0000
# 6 0.0000 0.0000 0.0000 0.0000 0.0000 5.1178
#
#
#
# Elastic Compliance Matrix: (Units=1/GPa)
#
#
# Indices 1 2 3 4 5 6 
#
# 1 0.015181 -0.001226 -0.003476 0.000000 0.000000 0.000000
# 2 -0.001226 0.009808 0.004228 0.000000 0.000000 0.000000
# 3 -0.003476 0.004228 0.053611 0.000000 0.000000 0.000000
# 4 0.000000 0.000000 0.000000 0.036533 0.000000 0.000000
# 5 0.000000 0.000000 0.000000 0.000000 0.031098 0.000000
# 6 0.000000 0.000000 0.000000 0.000000 0.000000 0.195395
#
#
# Mechanical properties :
#
#
# Convention : Reuss Voigt Hill
#
# Bulk Modulus (GPa) = 12.87780 22.03841 17.45811
# Shear Modulus (GPa) = 13.57006 25.62238 19.59622
#
# Velocity S-wave (km/s) = 2.52593 3.47088 3.03540
# Velocity P-wave (km/s) = 3.81601 5.14049 4.52695
#
# Compressibility (1/GPa) = 0.07765302
#
# Stress axis : x y z
#
# Youngs Moduli (GPa) = 65.87177 101.95547 18.65285
#
# Poissons Ratio (x) = 0.12499 0.06484
# Poissons Ratio (y) = 0.08075 -0.07887
# Poissons Ratio (z) = 0.22898 -0.43110
#
# Static dielectric constant tensor:
#      x y z
#    x 1.795190 0.000000 0.000000 
#    y 0.000000 2.068760 0.000000 
#    z 0.000000 0.000000 1.736080 
# 
# From -- ./inp_files/10306.got.cif
#   From: 2010.05.17/outbox.cif.g08.bks.cpg/sg57_6_cif.got.tgz:10306.got - 2010.06.03 13:58:18.
