data_PCOD9437011
_publ_section_title
;
Structure prediction by ZEFSAII (Michael W. Deem and Ramdas Pophale) SiO2 
 PCOD9437011
Probable space group: P B C M
;
_chemical_formula_sum "Si O2"
_cell_formula_units_Z 48
_cell_length_a 18.411643
_cell_length_b 8.539074
_cell_length_c 15.142198
_cell_angle_alpha 90.000000
_cell_angle_beta 90.000000
_cell_angle_gamma 90.000000
_cell_volume 2380.631870
_symmetry_space_group_name_H-M "P B C M"
_symmetry_group_IT_number 57
_symmetry_cell_setting 'orthorhombic'
loop_
_space_group_symop_operation_xyz
x,y,z
-x,-y,1/2+z
x,1/2-y,-z
-x,1/2+y,1/2-z
-x,-y,-z
x,y,1/2-z
-x,1/2+y,z
x,1/2-y,1/2+z
loop_
_atom_site_type_symbol
_atom_site_label
_atom_site_fract_x
_atom_site_fract_y
_atom_site_fract_z
Si Si1 0.968903 0.660488 0.907119
Si Si2 0.152879 0.931167 0.974710
Si Si3 0.384301 0.759138 0.250000
Si Si4 0.694981 0.367924 0.918792
Si Si5 0.487819 0.455914 0.250000
Si Si6 0.438498 0.093802 0.554512
Si Si7 0.892966 0.535082 0.153274
O O1 0.914496 0.516994 0.928320
O O2 0.041392 0.587858 0.865683
O O3 0.928799 0.792919 0.850522
O O4 0.982141 0.750000 0.000000
O O5 0.224280 0.938512 0.914232
O O6 0.140990 0.750000 0.000000
O O7 0.160582 0.016652 0.069984
O O8 0.334734 0.724491 0.334321
O O9 0.449430 0.627193 0.250000
O O10 0.425466 0.925556 0.250000
O O11 0.635377 0.497398 0.940392
O O12 0.697809 0.250000 0.000000
O O13 0.462770 0.382610 0.343697
O O14 0.427686 0.250000 0.500000
O O15 0.500000 0.000000 0.500000
O O16 0.861489 0.505309 0.250000
#
# Coordination Sequence:
#
# PCOD9437011 Si02
#       7
#     8   8   4   8   4   8   8
#     4  10  20  36  61  85 119 159 200 255 314 363
#     4  10  21  40  59  80 120 165 200 246 310 366
#     4  10  20  38  60  90 118 154 192 248 300 356
#     4  10  22  40  59  84 120 158 200 243 297 367
#     4  10  20  34  58  86 118 138 194 244 286 352
#     4  11  21  35  60  87 115 156 193 244 303 352
#     4  11  21  36  59  91 118 153 206 262 304 365
#
# _framework density 20.162714000000001
#
# number of rings (size 3 to 8) (size 9 to 14) (size 15 to 20)
#    0.000    1.667    0.000    7.500    0.000    2.000 
#    9.000    0.000    3.667    0.000    0.000    0.000 
#    0.000    0.000    0.000    0.000    0.000    0.000 
#
# Total GULP energy -267957.961915 kJ/mol
# GULP energy per Si atom -5582.457540 kJ/mol
# Density = 2.011682 g / cm^3
# Si number density = 20.162714 Si / 1000 Ang^3
#
#
#
# Elastic Constant Matrix: (Units=GPa)
#
#
# Indices 1 2 3 4 5 6 
#
# 1 93.0419 9.7400 12.5845 0.0000 0.0000 0.0000
# 2 9.7400 57.6152 4.9728 0.0000 0.0000 0.0000
# 3 12.5845 4.9728 105.6973 0.0000 0.0000 0.0000
# 4 0.0000 0.0000 0.0000 15.8066 0.0000 0.0000
# 5 0.0000 0.0000 0.0000 0.0000 21.8126 0.0000
# 6 0.0000 0.0000 0.0000 0.0000 0.0000 21.8673
#
#
#
# Elastic Compliance Matrix: (Units=1/GPa)
#
#
# Indices 1 2 3 4 5 6 
#
# 1 0.011101 -0.001770 -0.001238 0.000000 0.000000 0.000000
# 2 -0.001770 0.017709 -0.000622 0.000000 0.000000 0.000000
# 3 -0.001238 -0.000622 0.009638 0.000000 0.000000 0.000000
# 4 0.000000 0.000000 0.000000 0.063265 0.000000 0.000000
# 5 0.000000 0.000000 0.000000 0.000000 0.045845 0.000000
# 6 0.000000 0.000000 0.000000 0.000000 0.000000 0.045730
#
#
# Mechanical properties :
#
#
# Convention : Reuss Voigt Hill
#
# Bulk Modulus (GPa) = 32.06507 34.54989 33.30748
# Shear Modulus (GPa) = 23.70291 27.16777 25.43534
#
# Velocity S-wave (km/s) = 3.43240 3.67471 3.55562
# Velocity P-wave (km/s) = 5.62549 5.93106 5.78029
#
# Compressibility (1/GPa) = 0.03118658
#
# Stress axis : x y z
#
# Youngs Moduli (GPa) = 90.08514 56.46708 103.75907
#
# Poissons Ratio (x) = 0.09993 0.12849
# Poissons Ratio (y) = 0.15942 0.06459
# Poissons Ratio (z) = 0.11156 0.03515
#
# Static dielectric constant tensor:
#      x y z
#    x 1.766930 0.000000 0.000000 
#    y 0.000000 1.730580 0.000000 
#    z 0.000000 0.000000 1.751250 
# 
# From -- ./inp_files/19018.got.cif
#   From: 2010.05.17/outbox.cif.g08.bks.cpg/sg57_10_cif.got.tgz:19018.got - 2010.06.03 13:58:18.
