data_PCOD9437617
_publ_section_title
;
Structure prediction by ZEFSAII (Michael W. Deem and Ramdas Pophale) SiO2 
 PCOD9437617
Probable space group: P B C M
;
_chemical_formula_sum "Si O2"
_cell_formula_units_Z 56
_cell_length_a 12.640593
_cell_length_b 15.375455
_cell_length_c 14.695558
_cell_angle_alpha 90.000000
_cell_angle_beta 90.000000
_cell_angle_gamma 90.000000
_cell_volume 2856.153248
_symmetry_space_group_name_H-M "P B C M"
_symmetry_group_IT_number 57
_symmetry_cell_setting 'orthorhombic'
loop_
_space_group_symop_operation_xyz
x,y,z
-x,-y,1/2+z
x,1/2-y,-z
-x,1/2+y,1/2-z
-x,-y,-z
x,y,1/2-z
-x,1/2+y,z
x,1/2-y,1/2+z
loop_
_atom_site_type_symbol
_atom_site_label
_atom_site_fract_x
_atom_site_fract_y
_atom_site_fract_z
Si Si1 0.887984 0.176322 0.359186
Si Si2 0.069509 0.450183 0.927007
Si Si3 0.509263 0.153187 0.013185
Si Si4 0.853343 0.134783 0.646994
Si Si5 0.706802 0.920827 0.512490
Si Si6 0.373382 0.568415 0.854704
Si Si7 0.679274 0.435457 0.860706
O O1 0.878676 0.181048 0.250000
O O2 0.892789 0.275256 0.397599
O O3 0.780425 0.125367 0.387446
O O4 0.990472 0.117746 0.380172
O O5 0.112661 0.536559 0.876302
O O6 0.170992 0.401220 0.968816
O O7 0.000000 0.500000 0.000000
O O8 0.573557 0.107512 0.095500
O O9 0.549592 0.250000 0.000000
O O10 0.382781 0.151656 0.019584
O O11 0.535988 0.102070 0.920544
O O12 0.889017 0.142824 0.750000
O O13 0.725742 0.134822 0.642233
O O14 0.670035 0.983695 0.594968
O O15 0.697666 0.975885 0.418387
O O16 0.403363 0.554910 0.750000
O O17 0.674205 0.444415 0.750000
#
# Coordination Sequence:
#
# PCOD9437617 Si02
#       7
#     8   8   8   8   8   8   8
#     4  10  20  36  60  87 113 147 198 251 297 348
#     4  11  21  38  56  82 117 154 194 236 297 344
#     4  11  23  37  55  83 124 153 187 236 291 358
#     4   9  19  35  57  86 113 144 192 247 295 345
#     4  10  22  39  56  85 117 155 198 238 290 354
#     4   9  18  36  63  86 112 148 195 248 296 344
#     4  10  20  38  63  88 112 148 197 251 296 339
#
# _framework density 19.606791000000001
#
# number of rings (size 3 to 8) (size 9 to 14) (size 15 to 20)
#    0.000    2.000    1.429    3.000    0.000    5.143 
#    2.571    0.000    0.000    0.000    0.000    0.000 
#    0.000    0.000    0.000    0.000    0.000    0.000 
#
# Total GULP energy -311751.217579 kJ/mol
# GULP energy per Si atom -5566.986028 kJ/mol
# Density = 1.956216 g / cm^3
# Si number density = 19.606791 Si / 1000 Ang^3
#
#
#
# Elastic Constant Matrix: (Units=GPa)
#
#
# Indices 1 2 3 4 5 6 
#
# 1 94.7231 24.4704 19.9564 0.0000 0.0000 0.0000
# 2 24.4704 71.5487 12.6303 0.0000 0.0000 0.0000
# 3 19.9564 12.6303 93.3018 0.0000 0.0000 0.0000
# 4 0.0000 0.0000 0.0000 9.4837 0.0000 0.0000
# 5 0.0000 0.0000 0.0000 0.0000 20.3699 0.0000
# 6 0.0000 0.0000 0.0000 0.0000 0.0000 16.0944
#
#
#
# Elastic Compliance Matrix: (Units=1/GPa)
#
#
# Indices 1 2 3 4 5 6 
#
# 1 0.011952 -0.003725 -0.002052 0.000000 0.000000 0.000000
# 2 -0.003725 0.015480 -0.001299 0.000000 0.000000 0.000000
# 3 -0.002052 -0.001299 0.011333 0.000000 0.000000 0.000000
# 4 0.000000 0.000000 0.000000 0.105444 0.000000 0.000000
# 5 0.000000 0.000000 0.000000 0.000000 0.049092 0.000000
# 6 0.000000 0.000000 0.000000 0.000000 0.000000 0.062133
#
#
# Mechanical properties :
#
#
# Convention : Reuss Voigt Hill
#
# Bulk Modulus (GPa) = 40.63058 41.52086 41.07572
# Shear Modulus (GPa) = 17.99918 22.69071 20.34494
#
# Velocity S-wave (km/s) = 3.03315 3.40558 3.22475
# Velocity P-wave (km/s) = 5.74755 6.05696 5.90428
#
# Compressibility (1/GPa) = 0.02461200
#
# Stress axis : x y z
#
# Youngs Moduli (GPa) = 83.66918 64.59999 88.24082
#
# Poissons Ratio (x) = 0.24066 0.18108
# Poissons Ratio (y) = 0.31170 0.11460
# Poissons Ratio (z) = 0.17170 0.08390
#
# Static dielectric constant tensor:
#      x y z
#    x 2.900920 0.000000 0.000000 
#    y 0.000000 -0.032160 0.000000 
#    z 0.000000 0.000000 1.693680 
# 
# From -- ./inp_files/17722.got.cif
#   From: 2010.05.17/outbox.cif.g08.bks.cpg/sg57_9_cif.got.tgz:17722.got - 2010.06.03 13:58:18.
