data_PCOD9437271
_publ_section_title
;
Structure prediction by ZEFSAII (Michael W. Deem and Ramdas Pophale) SiO2 
 PCOD9437271
Probable space group: P B C M
;
_chemical_formula_sum "Si O2"
_cell_formula_units_Z 64
_cell_length_a 24.127757
_cell_length_b 15.891399
_cell_length_c 8.794886
_cell_angle_alpha 90.000000
_cell_angle_beta 90.000000
_cell_angle_gamma 90.000000
_cell_volume 3372.168729
_symmetry_space_group_name_H-M "P B C M"
_symmetry_group_IT_number 57
_symmetry_cell_setting 'orthorhombic'
loop_
_space_group_symop_operation_xyz
x,y,z
-x,-y,1/2+z
x,1/2-y,-z
-x,1/2+y,1/2-z
-x,-y,-z
x,y,1/2-z
-x,1/2+y,z
x,1/2-y,1/2+z
loop_
_atom_site_type_symbol
_atom_site_label
_atom_site_fract_x
_atom_site_fract_y
_atom_site_fract_z
Si Si1 0.064374 0.160202 0.932855
Si Si2 0.672238 0.836408 0.431928
Si Si3 0.064826 0.840307 0.432109
Si Si4 0.131994 0.995756 0.933536
Si Si5 0.738501 0.005528 0.067118
Si Si6 0.562944 0.404392 0.931627
Si Si7 0.562650 0.592277 0.432064
Si Si8 0.326803 0.662917 0.930550
O O1 0.067011 0.165350 0.750000
O O2 0.101544 0.081673 0.982765
O O3 0.999878 0.145857 0.975356
O O4 0.081826 0.250000 0.000000
O O5 0.695175 0.750000 0.500000
O O6 0.669500 0.830955 0.250000
O O7 0.611074 0.851563 0.499377
O O8 0.708532 0.918032 0.473452
O O9 0.081593 0.750000 0.500000
O O10 0.068239 0.837398 0.250000
O O11 0.101604 0.915641 0.495663
O O12 0.127549 0.990739 0.750000
O O13 0.196802 0.997153 0.972760
O O14 0.733479 0.015455 0.250000
O O15 0.708049 0.083384 0.988829
O O16 0.571454 0.404292 0.750000
O O17 0.567876 0.499875 0.993164
O O18 0.499853 0.376616 0.963897
O O19 0.610505 0.351058 0.010906
O O20 0.431214 0.415038 0.750000
O O21 0.325993 0.666832 0.750000
O O22 0.305136 0.750000 0.000000
#
# Coordination Sequence:
#
# PCOD9437271 Si02
#       8
#     8   8   8   8   8   8   8   8
#     4   9  19  35  57  87 122 157 193 236 287 342
#     4  11  23  39  61  85 116 154 195 244 294 349
#     4  10  20  35  57  87 121 156 194 237 288 343
#     4  10  21  38  60  85 116 154 196 242 292 344
#     4  10  23  43  62  83 115 154 196 245 296 344
#     4  10  20  36  59  88 121 152 187 235 292 351
#     4  10  20  35  59  89 119 153 191 234 289 352
#     4  12  25  41  64  88 115 152 196 243 295 354
#
# _framework density 18.978884999999998
#
# number of rings (size 3 to 8) (size 9 to 14) (size 15 to 20)
#    0.000    1.750    1.250    3.000    0.000    5.000 
#    0.000    0.000    0.000    0.000    0.000    0.000 
#    0.000    0.000    0.000    0.000    0.000    0.000 
#
# Total GULP energy -357681.423568 kJ/mol
# GULP energy per Si atom -5588.772243 kJ/mol
# Density = 1.893569 g / cm^3
# Si number density = 18.978885 Si / 1000 Ang^3
#
#
#
# Elastic Constant Matrix: (Units=GPa)
#
#
# Indices 1 2 3 4 5 6 
#
# 1 115.9141 98.1018 57.2249 0.0000 0.0000 0.0000
# 2 98.1018 177.5727 66.3482 0.0000 0.0000 0.0000
# 3 57.2249 66.3482 61.4360 0.0000 0.0000 0.0000
# 4 0.0000 0.0000 0.0000 35.2517 0.0000 0.0000
# 5 0.0000 0.0000 0.0000 0.0000 19.8811 0.0000
# 6 0.0000 0.0000 0.0000 0.0000 0.0000 -5.5447
#
#
#
# Elastic Compliance Matrix: (Units=1/GPa)
#
#
# Indices 1 2 3 4 5 6 
#
# 1 0.019932 -0.006831 -0.011188 0.000000 0.000000 0.000000
# 2 -0.006831 0.011782 -0.006361 0.000000 0.000000 0.000000
# 3 -0.011188 -0.006361 0.033569 0.000000 0.000000 0.000000
# 4 0.000000 0.000000 0.000000 0.028367 0.000000 0.000000
# 5 0.000000 0.000000 0.000000 0.000000 0.050299 0.000000
# 6 0.000000 0.000000 0.000000 0.000000 0.000000 -0.180351
#
#
# Mechanical properties :
#
#
# Convention : Reuss Voigt Hill
#
# Bulk Modulus (GPa) = 60.52915 88.69696 74.61306
# Shear Modulus (GPa) = 279.83561 18.80081 149.31821
#
# Velocity S-wave (km/s) = 12.15590 3.15082 8.87957
# Velocity P-wave (km/s) = 15.13219 7.75067 12.02198
#
# Compressibility (1/GPa) = 0.01652096
#
# Stress axis : x y z
#
# Youngs Moduli (GPa) = 50.17022 84.87247 29.78958
#
# Poissons Ratio (x) = 0.57979 0.33330
# Poissons Ratio (y) = 0.34273 0.18951
# Poissons Ratio (z) = 0.56133 0.53991
#
# Static dielectric constant tensor:
#      x y z
#    x 1.648580 0.000000 0.000000 
#    y 0.000000 1.648200 0.000000 
#    z 0.000000 0.000000 1.631860 
# 
# From -- ./inp_files/9405.got.cif
#   From: 2010.05.17/outbox.cif.g08.bks.cpg/sg57_5_cif.got.tgz:9405.got - 2010.06.03 13:58:18.
