data_PCOD9437753
_publ_section_title
;
Structure prediction by ZEFSAII (Michael W. Deem and Ramdas Pophale) SiO2 
 PCOD9437753
Probable space group: P B C M
;
_chemical_formula_sum "Si O2"
_cell_formula_units_Z 64
_cell_length_a 25.130976
_cell_length_b 15.260388
_cell_length_c 8.631462
_cell_angle_alpha 90.000000
_cell_angle_beta 90.000000
_cell_angle_gamma 90.000000
_cell_volume 3310.238566
_symmetry_space_group_name_H-M "P B C M"
_symmetry_group_IT_number 57
_symmetry_cell_setting 'orthorhombic'
loop_
_space_group_symop_operation_xyz
x,y,z
-x,-y,1/2+z
x,1/2-y,-z
-x,1/2+y,1/2-z
-x,-y,-z
x,y,1/2-z
-x,1/2+y,z
x,1/2-y,1/2+z
loop_
_atom_site_type_symbol
_atom_site_label
_atom_site_fract_x
_atom_site_fract_y
_atom_site_fract_z
Si Si1 0.895824 0.844940 0.434179
Si Si2 0.578566 0.990353 0.435233
Si Si3 0.879548 0.347328 0.435469
Si Si4 0.695528 0.513741 0.437128
Si Si5 0.488268 0.649690 0.563855
Si Si6 0.237520 0.651597 0.563463
Si Si7 0.788144 0.651130 0.064136
Si Si8 0.992640 0.404622 0.934056
O O1 0.883456 0.750000 0.500000
O O2 0.896422 0.851028 0.250000
O O3 0.843253 0.892636 0.499803
O O4 0.955171 0.859467 0.496307
O O5 0.575066 0.998140 0.250000
O O6 0.540670 0.908009 0.481565
O O7 0.638360 0.972219 0.488313
O O8 0.557966 0.082673 0.506932
O O9 0.874475 0.250000 0.500000
O O10 0.885961 0.350269 0.250000
O O11 0.821631 0.385463 0.476166
O O12 0.934033 0.379191 0.510543
O O13 0.690394 0.512694 0.250000
O O14 0.719317 0.419443 0.486586
O O15 0.738569 0.588769 0.475434
O O16 0.486833 0.750000 0.500000
O O17 0.486351 0.655511 0.750000
O O18 0.244870 0.750000 0.500000
O O19 0.238641 0.657940 0.750000
O O20 0.793517 0.656560 0.250000
O O21 0.778508 0.750000 0.000000
O O22 0.995142 0.398208 0.750000
O O23 0.000000 0.500000 0.000000
#
# Coordination Sequence:
#
# PCOD9437753 Si02
#       8
#     8   8   8   8   8   8   8   8
#     4  11  22  39  60  83 109 145 187 236 294 355
#     4  10  22  39  60  91 126 162 205 251 297 351
#     4  10  20  37  59  81 108 143 184 234 290 352
#     4  10  22  39  60  86 121 164 201 245 300 351
#     4  10  21  39  64  92 125 164 205 249 299 351
#     4   9  20  38  59  84 113 151 195 240 293 352
#     4  10  21  38  60  85 116 156 200 249 301 357
#     4  12  25  39  55  81 111 141 182 233 291 358
#
# _framework density 19.333953000000001
#
# number of rings (size 3 to 8) (size 9 to 14) (size 15 to 20)
#    0.000    1.750    0.000    4.875    1.750    4.500 
#    0.000    3.750    0.000    0.000    0.000    0.000 
#    0.000    0.000    0.000    0.000    0.000    0.000 
#
# Total GULP energy -356738.955317 kJ/mol
# GULP energy per Si atom -5574.046177 kJ/mol
# Density = 1.928995 g / cm^3
# Si number density = 19.333953 Si / 1000 Ang^3
#
#
#
# Elastic Constant Matrix: (Units=GPa)
#
#
# Indices 1 2 3 4 5 6 
#
# 1 49.8687 -17.8479 13.1291 0.0000 0.0000 0.0000
# 2 -17.8479 57.7896 5.5493 0.0000 0.0000 0.0000
# 3 13.1291 5.5493 74.5153 0.0000 0.0000 0.0000
# 4 0.0000 0.0000 0.0000 26.3044 0.0000 0.0000
# 5 0.0000 0.0000 0.0000 0.0000 34.2723 0.0000
# 6 0.0000 0.0000 0.0000 0.0000 0.0000 25.8519
#
#
#
# Elastic Compliance Matrix: (Units=1/GPa)
#
#
# Indices 1 2 3 4 5 6 
#
# 1 0.024167 0.007929 -0.004849 0.000000 0.000000 0.000000
# 2 0.007929 0.020030 -0.002889 0.000000 0.000000 0.000000
# 3 -0.004849 -0.002889 0.014489 0.000000 0.000000 0.000000
# 4 0.000000 0.000000 0.000000 0.038016 0.000000 0.000000
# 5 0.000000 0.000000 0.000000 0.000000 0.029178 0.000000
# 6 0.000000 0.000000 0.000000 0.000000 0.000000 0.038682
#
#
# Mechanical properties :
#
#
# Convention : Reuss Voigt Hill
#
# Bulk Modulus (GPa) = 16.92879 20.42610 18.67745
# Shear Modulus (GPa) = 27.19315 29.37526 28.28421
#
# Velocity S-wave (km/s) = 3.75440 3.90213 3.82898
# Velocity P-wave (km/s) = 5.25062 5.55787 5.40643
#
# Compressibility (1/GPa) = 0.05907095
#
# Stress axis : x y z
#
# Youngs Moduli (GPa) = 41.37864 49.92392 69.01551
#
# Poissons Ratio (x) = -0.39587 0.33463
# Poissons Ratio (y) = -0.32811 0.19937
# Poissons Ratio (z) = 0.20063 0.14422
#
# Static dielectric constant tensor:
#      x y z
#    x 1.006080 0.000000 0.000000 
#    y 0.000000 1.672200 0.000000 
#    z 0.000000 0.000000 1.654030 
# 
# From -- ./inp_files/9271.got.cif
#   From: 2010.05.17/outbox.cif.g08.bks.cpg/sg57_5_cif.got.tgz:9271.got - 2010.06.03 13:58:18.
