data_PCOD9437031
_publ_section_title
;
Structure prediction by ZEFSAII (Michael W. Deem and Ramdas Pophale) SiO2 
 PCOD9437031
Probable space group: P B C M
;
_chemical_formula_sum "Si O2"
_cell_formula_units_Z 52
_cell_length_a 7.680469
_cell_length_b 15.078413
_cell_length_c 19.766770
_cell_angle_alpha 90.000000
_cell_angle_beta 90.000000
_cell_angle_gamma 90.000000
_cell_volume 2289.175473
_symmetry_space_group_name_H-M "P B C M"
_symmetry_group_IT_number 57
_symmetry_cell_setting 'orthorhombic'
loop_
_space_group_symop_operation_xyz
x,y,z
-x,-y,1/2+z
x,1/2-y,-z
-x,1/2+y,1/2-z
-x,-y,-z
x,y,1/2-z
-x,1/2+y,z
x,1/2-y,1/2+z
loop_
_atom_site_type_symbol
_atom_site_label
_atom_site_fract_x
_atom_site_fract_y
_atom_site_fract_z
Si Si1 0.334458 0.479495 0.893450
Si Si2 0.637946 0.008122 0.750000
Si Si3 0.333915 0.150808 0.750000
Si Si4 0.783467 0.371595 0.007237
Si Si5 0.347966 0.397911 0.389777
Si Si6 0.836027 0.648248 0.021057
Si Si7 0.552554 0.319487 0.750000
Si Si8 0.636963 0.259354 0.897590
O O1 0.258817 0.502674 0.819905
O O2 0.261759 0.539855 0.953511
O O3 0.532836 0.514096 0.886869
O O4 0.281672 0.381268 0.915641
O O5 0.514080 0.920450 0.750000
O O6 0.520397 0.097071 0.750000
O O7 0.250163 0.119773 0.680396
O O8 0.384648 0.253702 0.750000
O O9 0.792162 0.299808 0.069053
O O10 0.963614 0.376049 0.967772
O O11 0.637146 0.336599 0.954672
O O12 0.226676 0.400928 0.453562
O O13 0.480799 0.313498 0.397800
O O14 0.820445 0.750000 0.000000
O O15 0.648356 0.296118 0.821211
#
# Coordination Sequence:
#
# PCOD9437031 Si02
#       8
#     8   4   4   8   8   8   4   8
#     4  10  23  40  64  85 124 166 201 254 319 374
#     4  10  22  40  62  98 120 156 212 256 312 377
#     4   8  18  38  54  88 121 155 196 253 311 366
#     4  10  21  41  60  85 128 165 212 246 306 381
#     4   9  20  36  63  88 120 156 206 255 314 363
#     4  12  24  36  59  95 124 157 207 264 302 366
#     4  10  20  34  64  86 125 159 206 265 309 365
#     4   9  19  38  60  88 116 166 204 253 312 375
#
# _framework density 22.715600999999999
#
# number of rings (size 3 to 8) (size 9 to 14) (size 15 to 20)
#    0.000    2.154    1.538    1.846    8.615    2.462 
#    0.000    2.308    0.000    0.000    0.000    0.000 
#    0.000    0.000    0.000    0.000    0.000    0.000 
#
# Total GULP energy -290033.013603 kJ/mol
# GULP energy per Si atom -5577.557954 kJ/mol
# Density = 2.266390 g / cm^3
# Si number density = 22.715601 Si / 1000 Ang^3
#
#
#
# Elastic Constant Matrix: (Units=GPa)
#
#
# Indices 1 2 3 4 5 6 
#
# 1 24.0460 1.1381 -0.3132 0.0000 0.0000 0.0000
# 2 1.1381 97.8652 30.5910 0.0000 0.0000 0.0000
# 3 -0.3132 30.5910 156.8851 0.0000 0.0000 0.0000
# 4 0.0000 0.0000 0.0000 17.7137 0.0000 0.0000
# 5 0.0000 0.0000 0.0000 0.0000 3.5634 0.0000
# 6 0.0000 0.0000 0.0000 0.0000 0.0000 21.8070
#
#
#
# Elastic Compliance Matrix: (Units=1/GPa)
#
#
# Indices 1 2 3 4 5 6 
#
# 1 0.041615 -0.000543 0.000189 0.000000 0.000000 0.000000
# 2 -0.000543 0.010888 -0.002124 0.000000 0.000000 0.000000
# 3 0.000189 -0.002124 0.006789 0.000000 0.000000 0.000000
# 4 0.000000 0.000000 0.000000 0.056453 0.000000 0.000000
# 5 0.000000 0.000000 0.000000 0.000000 0.280633 0.000000
# 6 0.000000 0.000000 0.000000 0.000000 0.000000 0.045857
#
#
# Mechanical properties :
#
#
# Convention : Reuss Voigt Hill
#
# Bulk Modulus (GPa) = 18.40411 37.95868 28.18140
# Shear Modulus (GPa) = 10.74567 25.10885 17.92726
#
# Velocity S-wave (km/s) = 2.17734 3.32830 2.81233
# Velocity P-wave (km/s) = 3.80008 5.61398 4.79361
#
# Compressibility (1/GPa) = 0.05433567
#
# Stress axis : x y z
#
# Youngs Moduli (GPa) = 24.02974 91.84048 147.30432
#
# Poissons Ratio (x) = 0.04987 -0.02783
# Poissons Ratio (y) = 0.01305 0.31291
# Poissons Ratio (z) = -0.00454 0.19509
#
# Static dielectric constant tensor:
#      x y z
#    x 1.813520 0.000000 0.000000 
#    y 0.000000 1.992320 0.000000 
#    z 0.000000 0.000000 1.885380 
# 
# From -- ./inp_files/24375.got.cif
#   From: 2010.05.17/outbox.cif.g08.bks.cpg/sg57_13_cif.got.tgz:24375.got - 2010.06.03 13:58:18.
