data_PCOD9437668
_publ_section_title
;
Structure prediction by ZEFSAII (Michael W. Deem and Ramdas Pophale) SiO2 
 PCOD9437668
Probable space group: P B C M
;
_chemical_formula_sum "Si O2"
_cell_formula_units_Z 60
_cell_length_a 27.503361
_cell_length_b 5.514794
_cell_length_c 16.928134
_cell_angle_alpha 90.000000
_cell_angle_beta 90.000000
_cell_angle_gamma 90.000000
_cell_volume 2567.580992
_symmetry_space_group_name_H-M "P B C M"
_symmetry_group_IT_number 57
_symmetry_cell_setting 'orthorhombic'
loop_
_space_group_symop_operation_xyz
x,y,z
-x,-y,1/2+z
x,1/2-y,-z
-x,1/2+y,1/2-z
-x,-y,-z
x,y,1/2-z
-x,1/2+y,z
x,1/2-y,1/2+z
loop_
_atom_site_type_symbol
_atom_site_label
_atom_site_fract_x
_atom_site_fract_y
_atom_site_fract_z
Si Si1 0.638247 0.404483 0.346554
Si Si2 0.874828 0.913178 0.166681
Si Si3 0.172067 0.447212 0.931994
Si Si4 0.474195 0.539323 0.846381
Si Si5 0.312934 0.098692 0.845037
Si Si6 0.777972 0.204105 0.338156
Si Si7 0.029328 0.904342 0.250000
Si Si8 0.927773 0.228424 0.580183
O O1 0.640197 0.399540 0.250000
O O2 0.582263 0.444446 0.369066
O O3 0.657440 0.140373 0.373079
O O4 0.669489 0.638548 0.373999
O O5 0.899371 0.890397 0.250000
O O6 0.841717 0.687054 0.148558
O O7 0.833795 0.121328 0.168448
O O8 0.913705 0.996171 0.103962
O O9 0.218044 0.611640 0.910848
O O10 0.121114 0.583922 0.946073
O O11 0.180106 0.250000 0.000000
O O12 0.476028 0.538102 0.750000
O O13 0.501850 0.784844 0.872275
O O14 0.319878 0.109474 0.750000
O O15 0.257125 0.019901 0.857441
O O16 0.762737 0.295526 0.250000
O O17 0.056138 0.887727 0.163820
O O18 0.998709 0.656520 0.250000
O O19 0.959015 0.250000 0.500000
#
# Coordination Sequence:
#
# PCOD9437668 Si02
#       8
#     8   8   8   8   8   8   4   8
#     4   9  16  25  38  56  81 126 174 228 289 350
#     4  10  20  36  61  90 121 160 204 257 306 359
#     4  11  22  35  62  92 122 161 207 254 307 363
#     4   9  15  22  33  50  75 108 162 229 288 345
#     4   9  17  28  42  60  94 132 180 228 281 346
#     4   9  20  33  48  80 113 152 198 251 300 349
#     4  12  32  52  78 108 140 178 220 264 320 386
#     4  11  24  44  69  99 134 170 215 263 318 372
#
# _framework density 23.368299
#
# number of rings (size 3 to 8) (size 9 to 14) (size 15 to 20)
#    0.000    2.133    2.000    1.200    5.600    3.733 
#    0.000    0.000    0.000    0.000    0.000    0.000 
#    0.000    0.000    0.000    0.000    0.000   13.333 
#
# Total GULP energy -334486.926780 kJ/mol
# GULP energy per Si atom -5574.782113 kJ/mol
# Density = 2.331511 g / cm^3
# Si number density = 23.368299 Si / 1000 Ang^3
#
#
#
# Elastic Constant Matrix: (Units=GPa)
#
#
# Indices 1 2 3 4 5 6 
#
# 1 74.2732 29.3951 25.7505 0.0000 0.0000 0.0000
# 2 29.3951 105.2657 15.9918 0.0000 0.0000 0.0000
# 3 25.7505 15.9918 89.2882 0.0000 0.0000 0.0000
# 4 0.0000 0.0000 0.0000 21.1142 0.0000 0.0000
# 5 0.0000 0.0000 0.0000 0.0000 -3.9990 0.0000
# 6 0.0000 0.0000 0.0000 0.0000 0.0000 40.6361
#
#
#
# Elastic Compliance Matrix: (Units=1/GPa)
#
#
# Indices 1 2 3 4 5 6 
#
# 1 0.016434 -0.003977 -0.004027 0.000000 0.000000 0.000000
# 2 -0.003977 0.010728 -0.000774 0.000000 0.000000 0.000000
# 3 -0.004027 -0.000774 0.012500 0.000000 0.000000 0.000000
# 4 0.000000 0.000000 0.000000 0.047361 0.000000 0.000000
# 5 0.000000 0.000000 0.000000 0.000000 -0.250062 0.000000
# 6 0.000000 0.000000 0.000000 0.000000 0.000000 0.024609
#
#
# Mechanical properties :
#
#
# Convention : Reuss Voigt Hill
#
# Bulk Modulus (GPa) = 45.24035 45.67796 45.45916
# Shear Modulus (GPa) = -44.05140 24.72957 -9.66091
#
# Velocity S-wave (km/s) = -4.34648 3.25661 -2.03548
# Velocity P-wave (km/s) = 2.40570 5.80776 3.73783
#
# Compressibility (1/GPa) = 0.02210416
#
# Stress axis : x y z
#
# Youngs Moduli (GPa) = 60.84882 93.21328 80.00116
#
# Poissons Ratio (x) = 0.37074 0.32218
# Poissons Ratio (y) = 0.24202 0.06195
# Poissons Ratio (z) = 0.24505 0.07218
#
# Static dielectric constant tensor:
#      x y z
#    x 1.881690 0.000000 0.000000 
#    y 0.000000 1.996290 0.000000 
#    z 0.000000 0.000000 1.957840 
# 
# From -- ./inp_files/23160.got.cif
#   From: 2010.05.17/outbox.cif.g08.bks.cpg/sg57_12_cif.got.tgz:23160.got - 2010.06.03 13:58:18.
