data_PCOD9437355
_publ_section_title
;
Structure prediction by ZEFSAII (Michael W. Deem and Ramdas Pophale) SiO2 
 PCOD9437355
Probable space group: P B C M
;
_chemical_formula_sum "Si O2"
_cell_formula_units_Z 48
_cell_length_a 15.398167
_cell_length_b 7.467467
_cell_length_c 18.841677
_cell_angle_alpha 90.000000
_cell_angle_beta 90.000000
_cell_angle_gamma 90.000000
_cell_volume 2166.515956
_symmetry_space_group_name_H-M "P B C M"
_symmetry_group_IT_number 57
_symmetry_cell_setting 'orthorhombic'
loop_
_space_group_symop_operation_xyz
x,y,z
-x,-y,1/2+z
x,1/2-y,-z
-x,1/2+y,1/2-z
-x,-y,-z
x,y,1/2-z
-x,1/2+y,z
x,1/2-y,1/2+z
loop_
_atom_site_type_symbol
_atom_site_label
_atom_site_fract_x
_atom_site_fract_y
_atom_site_fract_z
Si Si1 0.582342 0.049327 0.911228
Si Si2 0.092300 0.942144 0.029751
Si Si3 0.128909 0.768378 0.330745
Si Si4 0.257332 0.414694 0.830472
Si Si5 0.197058 0.416825 0.093608
Si Si6 0.392774 0.970429 0.575196
O O1 0.608163 0.256972 0.914447
O O2 0.648149 0.935528 0.864304
O O3 0.481730 0.037416 0.889166
O O4 0.594124 0.982590 0.992094
O O5 0.077363 0.890663 0.112322
O O6 0.120653 0.750000 0.000000
O O7 0.162170 0.062630 0.986986
O O8 0.000000 0.000000 0.000000
O O9 0.095393 0.764515 0.250000
O O10 0.147257 0.569305 0.360378
O O11 0.217700 0.884989 0.330635
O O12 0.262007 0.349807 0.750000
O O13 0.193430 0.280780 0.872812
O O14 0.299578 0.458458 0.097434
#
# Coordination Sequence:
#
# PCOD9437355 Si02
#       6
#     8   8   8   8   8   8
#     4  10  20  36  57  91 128 162 225 268 320 383
#     4  10  24  42  68  99 127 168 218 274 336 407
#     4  10  22  42  64  93 131 168 211 274 333 401
#     4  11  23  39  63  93 129 176 217 263 334 393
#     4  11  22  40  67  92 129 171 224 275 327 399
#     4  10  20  35  61  88 123 169 214 280 324 366
#
# _framework density 22.155386
#
# number of rings (size 3 to 8) (size 9 to 14) (size 15 to 20)
#    0.000    1.667    1.667    2.500    7.000    3.333 
#    0.000    8.333    0.000    0.000    0.000    0.000 
#    0.000    0.000    0.000    0.000    0.000    0.000 
#
# Total GULP energy -267736.825380 kJ/mol
# GULP energy per Si atom -5577.850529 kJ/mol
# Density = 2.210496 g / cm^3
# Si number density = 22.155386 Si / 1000 Ang^3
#
#
#
# Elastic Constant Matrix: (Units=GPa)
#
#
# Indices 1 2 3 4 5 6 
#
# 1 48.6324 5.1998 21.2246 0.0000 0.0000 0.0000
# 2 5.1998 99.1637 35.3879 0.0000 0.0000 0.0000
# 3 21.2246 35.3879 153.0469 0.0000 0.0000 0.0000
# 4 0.0000 0.0000 0.0000 25.5184 0.0000 0.0000
# 5 0.0000 0.0000 0.0000 0.0000 22.6707 0.0000
# 6 0.0000 0.0000 0.0000 0.0000 0.0000 26.7335
#
#
#
# Elastic Compliance Matrix: (Units=1/GPa)
#
#
# Indices 1 2 3 4 5 6 
#
# 1 0.021888 -0.000070 -0.003019 0.000000 0.000000 0.000000
# 2 -0.000070 0.010992 -0.002532 0.000000 0.000000 0.000000
# 3 -0.003019 -0.002532 0.007538 0.000000 0.000000 0.000000
# 4 0.000000 0.000000 0.000000 0.039187 0.000000 0.000000
# 5 0.000000 0.000000 0.000000 0.000000 0.044110 0.000000
# 6 0.000000 0.000000 0.000000 0.000000 0.000000 0.037406
#
#
# Mechanical properties :
#
#
# Convention : Reuss Voigt Hill
#
# Bulk Modulus (GPa) = 34.27613 47.16304 40.71959
# Shear Modulus (GPa) = 27.45929 30.91991 29.18960
#
# Velocity S-wave (km/s) = 3.52432 3.73982 3.63367
# Velocity P-wave (km/s) = 5.66264 6.32313 6.00198
#
# Compressibility (1/GPa) = 0.02917482
#
# Stress axis : x y z
#
# Youngs Moduli (GPa) = 45.68803 90.97931 132.66061
#
# Poissons Ratio (x) = 0.00639 0.40052
# Poissons Ratio (y) = 0.00321 0.33586
# Poissons Ratio (z) = 0.13794 0.23034
#
# Static dielectric constant tensor:
#      x y z
#    x 1.803160 0.000000 0.000000 
#    y 0.000000 1.843410 0.000000 
#    z 0.000000 0.000000 1.720570 
# 
# From -- ./inp_files/22479.got.cif
#   From: 2010.05.17/outbox.cif.g08.bks.cpg/sg57_12_cif.got.tgz:22479.got - 2010.06.03 13:58:18.
