data_PCOD9437113
_publ_section_title
;
Structure prediction by ZEFSAII (Michael W. Deem and Ramdas Pophale) SiO2 
 PCOD9437113
Probable space group: P B C M
;
_chemical_formula_sum "Si O2"
_cell_formula_units_Z 64
_cell_length_a 19.753715
_cell_length_b 20.912919
_cell_length_c 8.723744
_cell_angle_alpha 90.000000
_cell_angle_beta 90.000000
_cell_angle_gamma 90.000000
_cell_volume 3603.847056
_symmetry_space_group_name_H-M "P B C M"
_symmetry_group_IT_number 57
_symmetry_cell_setting 'orthorhombic'
loop_
_space_group_symop_operation_xyz
x,y,z
-x,-y,1/2+z
x,1/2-y,-z
-x,1/2+y,1/2-z
-x,-y,-z
x,y,1/2-z
-x,1/2+y,z
x,1/2-y,1/2+z
loop_
_atom_site_type_symbol
_atom_site_label
_atom_site_fract_x
_atom_site_fract_y
_atom_site_fract_z
Si Si1 0.919917 0.571211 0.567044
Si Si2 0.079290 0.932871 0.066881
Si Si3 0.579376 0.065097 0.065403
Si Si4 0.324552 0.318995 0.066970
Si Si5 0.673963 0.318257 0.934293
Si Si6 0.420957 0.426778 0.567337
Si Si7 0.825150 0.819208 0.566769
Si Si8 0.831625 0.318878 0.933938
O O1 0.910877 0.574621 0.750000
O O2 0.900938 0.500630 0.507587
O O3 0.875884 0.625758 0.487415
O O4 0.999854 0.579007 0.532170
O O5 0.086450 0.937129 0.250000
O O6 0.123735 0.875557 0.001429
O O7 0.584870 0.057599 0.250000
O O8 0.627418 0.122962 0.015521
O O9 0.500860 0.080415 0.030642
O O10 0.597803 0.998088 0.987372
O O11 0.320240 0.315220 0.250000
O O12 0.345706 0.250000 0.000000
O O13 0.376061 0.373763 0.015363
O O14 0.249938 0.332387 0.998900
O O15 0.670775 0.315050 0.750000
O O16 0.752584 0.328216 0.977350
O O17 0.651733 0.250000 0.000000
O O18 0.412536 0.421060 0.750000
O O19 0.845910 0.750000 0.500000
O O20 0.822264 0.815792 0.750000
O O21 0.836416 0.318116 0.750000
O O22 0.852779 0.250000 0.000000
#
# Coordination Sequence:
#
# PCOD9437113 Si02
#       8
#     8   8   8   8   8   8   8   8
#     4  10  21  38  58  81 110 144 181 222 270 321
#     4  10  21  37  57  81 110 144 183 225 268 318
#     4   9  19  36  55  77 108 144 182 225 272 322
#     4  11  22  38  58  80 110 144 180 223 271 324
#     4   9  19  35  54  77 105 138 176 219 267 317
#     4  10  20  35  55  80 109 142 182 225 270 323
#     4  11  22  38  59  83 111 142 180 224 271 324
#     4  10  20  35  55  78 107 141 179 224 273 325
#
# _framework density 17.758800999999998
#
# number of rings (size 3 to 8) (size 9 to 14) (size 15 to 20)
#    0.000    2.000    0.000    4.500    0.000    5.000 
#    0.000    5.000    0.000    0.000    0.000    0.000 
#    0.000    0.000    0.000    0.000    0.000    0.000 
#
# Total GULP energy -357457.412110 kJ/mol
# GULP energy per Si atom -5585.272064 kJ/mol
# Density = 1.771838 g / cm^3
# Si number density = 17.758801 Si / 1000 Ang^3
#
#
#
# Elastic Constant Matrix: (Units=GPa)
#
#
# Indices 1 2 3 4 5 6 
#
# 1 74.5128 104.7178 54.2238 0.0000 0.0000 0.0000
# 2 104.7178 186.1306 78.3238 0.0000 0.0000 0.0000
# 3 54.2238 78.3238 97.0284 0.0000 0.0000 0.0000
# 4 0.0000 0.0000 0.0000 39.0093 0.0000 0.0000
# 5 0.0000 0.0000 0.0000 0.0000 27.9454 0.0000
# 6 0.0000 0.0000 0.0000 0.0000 0.0000 42.2117
#
#
#
# Elastic Compliance Matrix: (Units=1/GPa)
#
#
# Indices 1 2 3 4 5 6 
#
# 1 0.071493 -0.035452 -0.011335 0.000000 0.000000 0.000000
# 2 -0.035452 0.025716 -0.000947 0.000000 0.000000 0.000000
# 3 -0.011335 -0.000947 0.017405 0.000000 0.000000 0.000000
# 4 0.000000 0.000000 0.000000 0.025635 0.000000 0.000000
# 5 0.000000 0.000000 0.000000 0.000000 0.035784 0.000000
# 6 0.000000 0.000000 0.000000 0.000000 0.000000 0.023690
#
#
# Mechanical properties :
#
#
# Convention : Reuss Voigt Hill
#
# Bulk Modulus (GPa) = 52.23095 92.46697 72.34896
# Shear Modulus (GPa) = 16.57970 29.86037 23.22004
#
# Velocity S-wave (km/s) = 3.05881 4.10499 3.61989
# Velocity P-wave (km/s) = 6.47690 8.63997 7.63542
#
# Compressibility (1/GPa) = 0.01914574
#
# Stress axis : x y z
#
# Youngs Moduli (GPa) = 13.98748 38.88567 57.45384
#
# Poissons Ratio (x) = 1.37857 0.65126
# Poissons Ratio (y) = 0.49588 0.05440
# Poissons Ratio (z) = 0.15855 0.03682
#
# Static dielectric constant tensor:
#      x y z
#    x 1.592330 0.000000 0.000000 
#    y 0.000000 1.572140 0.000000 
#    z 0.000000 0.000000 1.594650 
# 
# From -- ./inp_files/7202.got.cif
#   From: 2010.05.17/outbox.cif.g08.bks.cpg/sg57_4_cif.got.tgz:7202.got - 2010.06.03 13:58:18.
