data_PCOD9437694
_publ_section_title
;
Structure prediction by ZEFSAII (Michael W. Deem and Ramdas Pophale) SiO2 
 PCOD9437694
Probable space group: P B C M
;
_chemical_formula_sum "Si O2"
_cell_formula_units_Z 60
_cell_length_a 14.075210
_cell_length_b 13.831770
_cell_length_c 15.146050
_cell_angle_alpha 90.000000
_cell_angle_beta 90.000000
_cell_angle_gamma 90.000000
_cell_volume 2948.709765
_symmetry_space_group_name_H-M "P B C M"
_symmetry_group_IT_number 57
_symmetry_cell_setting 'orthorhombic'
loop_
_space_group_symop_operation_xyz
x,y,z
-x,-y,1/2+z
x,1/2-y,-z
-x,1/2+y,1/2-z
-x,-y,-z
x,y,1/2-z
-x,1/2+y,z
x,1/2-y,1/2+z
loop_
_atom_site_type_symbol
_atom_site_label
_atom_site_fract_x
_atom_site_fract_y
_atom_site_fract_z
Si Si1 0.865562 0.358474 0.964721
Si Si2 0.584378 0.741156 0.150001
Si Si3 0.252929 0.403832 0.853963
Si Si4 0.665665 0.063410 0.972124
Si Si5 0.912904 0.865458 0.990596
Si Si6 0.620251 0.966882 0.347134
Si Si7 0.844701 0.987862 0.343441
Si Si8 0.553886 0.250000 0.500000
O O1 0.853375 0.397558 0.864824
O O2 0.974889 0.384934 0.981742
O O3 0.855454 0.250000 0.000000
O O4 0.776578 0.413820 0.007803
O O5 0.556356 0.714978 0.250000
O O6 0.688678 0.696315 0.135477
O O7 0.585676 0.857166 0.143022
O O8 0.513164 0.705768 0.075343
O O9 0.235954 0.420530 0.750000
O O10 0.324377 0.484573 0.895036
O O11 0.155723 0.397905 0.910191
O O12 0.617119 0.166486 0.955458
O O13 0.611835 0.021649 0.059188
O O14 0.900820 0.750000 0.000000
O O15 0.883308 0.922607 0.078062
O O16 0.584937 0.003959 0.250000
O O17 0.733969 0.964003 0.338977
O O18 0.891198 0.965137 0.250000
#
# Coordination Sequence:
#
# PCOD9437694 Si02
#       8
#     8   8   8   8   8   8   8   4
#     4  10  21  41  62  86 130 167 212 258 304 363
#     4  10  23  41  63  94 126 153 201 267 321 376
#     4  11  24  41  64  95 130 161 202 261 320 378
#     4  11  23  41  61  88 124 167 211 256 306 373
#     4  11  22  37  66  96 126 170 205 258 316 380
#     4   9  18  36  63  90 121 158 197 251 312 368
#     4  10  20  36  62  93 126 164 208 255 309 373
#     4  12  26  40  66  86 120 170 214 254 312 380
#
# _framework density 20.347882999999999
#
# number of rings (size 3 to 8) (size 9 to 14) (size 15 to 20)
#    0.000    1.600    3.333    2.000    0.933    5.333 
#    0.000    5.333    0.000    0.000    0.000    0.000 
#    0.000    0.000    0.000    0.000    0.000    0.000 
#
# Total GULP energy -334164.461550 kJ/mol
# GULP energy per Si atom -5569.407693 kJ/mol
# Density = 2.030157 g / cm^3
# Si number density = 20.347883 Si / 1000 Ang^3
#
#
#
# Elastic Constant Matrix: (Units=GPa)
#
#
# Indices 1 2 3 4 5 6 
#
# 1 62.5508 16.7698 43.9891 0.0000 0.0000 0.0000
# 2 16.7698 81.7498 37.7418 0.0000 0.0000 0.0000
# 3 43.9891 37.7418 128.9128 0.0000 0.0000 0.0000
# 4 0.0000 0.0000 0.0000 149.8226 0.0000 0.0000
# 5 0.0000 0.0000 0.0000 0.0000 65.8964 0.0000
# 6 0.0000 0.0000 0.0000 0.0000 0.0000 31.5826
#
#
#
# Elastic Compliance Matrix: (Units=1/GPa)
#
#
# Indices 1 2 3 4 5 6 
#
# 1 0.021130 -0.001163 -0.006870 0.000000 0.000000 0.000000
# 2 -0.001163 0.014208 -0.003763 0.000000 0.000000 0.000000
# 3 -0.006870 -0.003763 0.011203 0.000000 0.000000 0.000000
# 4 0.000000 0.000000 0.000000 0.006675 0.000000 0.000000
# 5 0.000000 0.000000 0.000000 0.000000 0.015175 0.000000
# 6 0.000000 0.000000 0.000000 0.000000 0.000000 0.031663
#
#
# Mechanical properties :
#
#
# Convention : Reuss Voigt Hill
#
# Bulk Modulus (GPa) = 43.57287 52.24609 47.90948
# Shear Modulus (GPa) = 38.08208 61.10783 49.59496
#
# Velocity S-wave (km/s) = 4.33083 5.48605 4.94231
# Velocity P-wave (km/s) = 6.81679 8.11549 7.49432
#
# Compressibility (1/GPa) = 0.02295006
#
# Stress axis : x y z
#
# Youngs Moduli (GPa) = 47.32612 70.38167 89.26161
#
# Poissons Ratio (x) = 0.08185 0.61320
# Poissons Ratio (y) = 0.05504 0.33588
# Poissons Ratio (z) = 0.32512 0.26484
#
# Static dielectric constant tensor:
#      x y z
#    x 1.715530 0.000000 0.000000 
#    y 0.000000 1.761280 0.000000 
#    z 0.000000 0.000000 1.781280 
# 
# From -- ./inp_files/18652.got.cif
#   From: 2010.05.17/outbox.cif.g08.bks.cpg/sg57_10_cif.got.tgz:18652.got - 2010.06.03 13:58:18.
