data_PCOD9437424
_publ_section_title
;
Structure prediction by ZEFSAII (Michael W. Deem and Ramdas Pophale) SiO2 
 PCOD9437424
Probable space group: P B C M
;
_chemical_formula_sum "Si O2"
_cell_formula_units_Z 40
_cell_length_a 13.004038
_cell_length_b 18.353581
_cell_length_c 7.560028
_cell_angle_alpha 90.000000
_cell_angle_beta 90.000000
_cell_angle_gamma 90.000000
_cell_volume 1804.356908
_symmetry_space_group_name_H-M "P B C M"
_symmetry_group_IT_number 57
_symmetry_cell_setting 'orthorhombic'
loop_
_space_group_symop_operation_xyz
x,y,z
-x,-y,1/2+z
x,1/2-y,-z
-x,1/2+y,1/2-z
-x,-y,-z
x,y,1/2-z
-x,1/2+y,z
x,1/2-y,1/2+z
loop_
_atom_site_type_symbol
_atom_site_label
_atom_site_fract_x
_atom_site_fract_y
_atom_site_fract_z
Si Si1 0.160732 0.432958 0.965047
Si Si2 0.649192 0.834096 0.961623
Si Si3 0.974999 0.167406 0.037758
Si Si4 0.224347 0.904835 0.956889
Si Si5 0.545043 0.080081 0.037309
O O1 0.160291 0.434814 0.750000
O O2 0.258958 0.385722 0.025495
O O3 0.058381 0.391312 0.026053
O O4 0.174815 0.514934 0.029213
O O5 0.647574 0.842428 0.750000
O O6 0.539178 0.862291 0.029297
O O7 0.668009 0.750000 0.000000
O O8 0.971882 0.159502 0.250000
O O9 0.860972 0.149798 0.967021
O O10 0.006795 0.250000 0.000000
O O11 0.236265 0.886420 0.750000
O O12 0.339512 0.908626 0.033432
O O13 0.550650 0.086020 0.250000
O O14 0.500000 0.000000 0.000000
#
# Coordination Sequence:
#
# PCOD9437424 Si02
#       5
#     8   8   8   8   8
#     4  10  20  36  57  81 110 143 183 228 272 325
#     4  10  21  35  53  80 110 141 180 224 271 322
#     4  10  22  38  55  80 113 147 183 225 273 325
#     4  10  21  36  57  83 110 142 184 229 273 326
#     4  10  20  36  56  79 109 143 181 225 270 323
#
# _framework density 22.168564
#
# number of rings (size 3 to 8) (size 9 to 14) (size 15 to 20)
#    0.000    2.000    2.000    1.200    0.000    4.000 
#    0.000    0.000    0.000    0.000    0.000    0.000 
#    0.000    0.000    0.000    0.000    0.000    0.000 
#
# Total GULP energy -223519.555043 kJ/mol
# GULP energy per Si atom -5587.988876 kJ/mol
# Density = 2.211811 g / cm^3
# Si number density = 22.168564 Si / 1000 Ang^3
#
#
#
# Elastic Constant Matrix: (Units=GPa)
#
#
# Indices 1 2 3 4 5 6 
#
# 1 115.9537 -19.7028 11.2874 0.0000 0.0000 0.0000
# 2 -19.7028 24.0080 -15.9031 0.0000 0.0000 0.0000
# 3 11.2874 -15.9031 53.9645 0.0000 0.0000 0.0000
# 4 0.0000 0.0000 0.0000 19.7384 0.0000 0.0000
# 5 0.0000 0.0000 0.0000 0.0000 -314.5395 0.0000
# 6 0.0000 0.0000 0.0000 0.0000 0.0000 21.7451
#
#
#
# Elastic Compliance Matrix: (Units=1/GPa)
#
#
# Indices 1 2 3 4 5 6 
#
# 1 0.010029 0.008500 0.000407 0.000000 0.000000 0.000000
# 2 0.008500 0.058961 0.015598 0.000000 0.000000 0.000000
# 3 0.000407 0.015598 0.023042 0.000000 0.000000 0.000000
# 4 0.000000 0.000000 0.000000 0.050663 0.000000 0.000000
# 5 0.000000 0.000000 0.000000 0.000000 -0.003179 0.000000
# 6 0.000000 0.000000 0.000000 0.000000 0.000000 0.045987
#
#
# Mechanical properties :
#
#
# Convention : Reuss Voigt Hill
#
# Bulk Modulus (GPa) = 7.09009 16.14322 11.61666
# Shear Modulus (GPa) = 27.24707 -40.06154 -6.40723
#
# Velocity S-wave (km/s) = 3.50964 -4.25565 -1.70191
# Velocity P-wave (km/s) = 4.43042 4.10482 1.17878
#
# Compressibility (1/GPa) = 0.14104195
#
# Stress axis : x y z
#
# Youngs Moduli (GPa) = 99.71238 16.96044 43.39891
#
# Poissons Ratio (x) = -0.14417 -0.01768
# Poissons Ratio (y) = -0.84758 -0.67692
# Poissons Ratio (z) = -0.04062 -0.26454
#
# Static dielectric constant tensor:
#      x y z
#    x 1.854250 0.000000 0.000000 
#    y 0.000000 1.752820 0.000000 
#    z 0.000000 0.000000 1.843200 
# 
# From -- ./inp_files/2620.got.cif
#   From: 2010.05.17/outbox.cif.g08.bks.cpg/sg57_2_cif.got.tgz:2620.got - 2010.06.03 13:58:18.
