data_PCOD9437606
_publ_section_title
;
Structure prediction by ZEFSAII (Michael W. Deem and Ramdas Pophale) SiO2 
 PCOD9437606
Probable space group: P B C M
;
_chemical_formula_sum "Si O2"
_cell_formula_units_Z 40
_cell_length_a 10.222754
_cell_length_b 5.268464
_cell_length_c 29.184577
_cell_angle_alpha 90.000000
_cell_angle_beta 90.000000
_cell_angle_gamma 90.000000
_cell_volume 1571.829119
_symmetry_space_group_name_H-M "P B C M"
_symmetry_group_IT_number 57
_symmetry_cell_setting 'orthorhombic'
loop_
_space_group_symop_operation_xyz
x,y,z
-x,-y,1/2+z
x,1/2-y,-z
-x,1/2+y,1/2-z
-x,-y,-z
x,y,1/2-z
-x,1/2+y,z
x,1/2-y,1/2+z
loop_
_atom_site_type_symbol
_atom_site_label
_atom_site_fract_x
_atom_site_fract_y
_atom_site_fract_z
Si Si1 0.586482 0.697247 0.800865
Si Si2 0.297306 0.895040 0.879881
Si Si3 0.459238 0.111949 0.056755
Si Si4 0.929493 0.039181 0.637083
Si Si5 0.170504 0.293977 0.553019
O O1 0.646227 0.670520 0.750000
O O2 0.526868 0.979343 0.803445
O O3 0.679548 0.611548 0.841762
O O4 0.442828 0.826223 0.899362
O O5 0.213434 0.667661 0.857882
O O6 0.211426 0.037632 0.919073
O O7 0.458420 0.389343 0.035784
O O8 0.307230 0.047498 0.057110
O O9 0.928723 0.965044 0.582451
O O10 0.975188 0.763545 0.654733
O O11 0.138102 0.250000 0.500000
#
# Coordination Sequence:
#
# PCOD9437606 Si02
#       5
#     8   8   8   8   8
#     4  10  22  39  68 108 143 172 208 264 345 424
#     4  11  23  42  69  95 135 175 217 281 341 398
#     4  10  20  36  59  89 122 157 200 260 332 393
#     4  12  26  47  65  91 126 180 236 276 322 388
#     4  11  25  43  65  98 132 179 227 283 344 400
#
# _framework density 25.448060999999999
#
# number of rings (size 3 to 8) (size 9 to 14) (size 15 to 20)
#    0.000    1.200    4.000    2.400    2.800    4.800 
#    0.000    0.000    0.000    1.200    0.000    0.000 
#    0.000    0.000    0.000    0.000    0.000    0.000 
#
# Total GULP energy -222939.681742 kJ/mol
# GULP energy per Si atom -5573.492044 kJ/mol
# Density = 2.539014 g / cm^3
# Si number density = 25.448061 Si / 1000 Ang^3
#
#
#
# Elastic Constant Matrix: (Units=GPa)
#
#
# Indices 1 2 3 4 5 6 
#
# 1 97.0618 28.6880 8.7645 0.0000 0.0000 0.0000
# 2 28.6880 128.1579 -11.4807 0.0000 0.0000 0.0000
# 3 8.7645 -11.4807 58.9721 0.0000 0.0000 0.0000
# 4 0.0000 0.0000 0.0000 30.6029 0.0000 0.0000
# 5 0.0000 0.0000 0.0000 0.0000 7.2703 0.0000
# 6 0.0000 0.0000 0.0000 0.0000 0.0000 47.6199
#
#
#
# Elastic Compliance Matrix: (Units=1/GPa)
#
#
# Indices 1 2 3 4 5 6 
#
# 1 0.011309 -0.002730 -0.002212 0.000000 0.000000 0.000000
# 2 -0.002730 0.008600 0.002080 0.000000 0.000000 0.000000
# 3 -0.002212 0.002080 0.017691 0.000000 0.000000 0.000000
# 4 0.000000 0.000000 0.000000 0.032677 0.000000 0.000000
# 5 0.000000 0.000000 0.000000 0.000000 0.137546 0.000000
# 6 0.000000 0.000000 0.000000 0.000000 0.000000 0.021000
#
#
# Mechanical properties :
#
#
# Convention : Reuss Voigt Hill
#
# Bulk Modulus (GPa) = 31.37112 37.34840 34.35976
# Shear Modulus (GPa) = 20.39381 34.31328 27.35354
#
# Velocity S-wave (km/s) = 2.83395 3.67599 3.28209
# Velocity P-wave (km/s) = 4.80236 5.72061 5.28148
#
# Compressibility (1/GPa) = 0.03187645
#
# Stress axis : x y z
#
# Youngs Moduli (GPa) = 88.42281 116.27559 56.52631
#
# Poissons Ratio (x) = 0.31740 0.12505
# Poissons Ratio (y) = 0.24137 -0.11757
# Poissons Ratio (z) = 0.19561 -0.24185
#
# Static dielectric constant tensor:
#      x y z
#    x 2.066760 0.000000 0.000000 
#    y 0.000000 2.105530 0.000000 
#    z 0.000000 0.000000 2.174000 
# 
# From -- ./inp_files/29683.got.cif
#   From: 2010.05.17/outbox.cif.g08.bks.cpg/sg57_15_cif.got.tgz:29683.got - 2010.06.03 13:58:18.
