data_PCOD9437915
_publ_section_title
;
Structure prediction by ZEFSAII (Michael W. Deem and Ramdas Pophale) SiO2 
 PCOD9437915
Probable space group: P B C M
;
_chemical_formula_sum "Si O2"
_cell_formula_units_Z 56
_cell_length_a 14.999691
_cell_length_b 23.007297
_cell_length_c 8.621477
_cell_angle_alpha 90.000000
_cell_angle_beta 90.000000
_cell_angle_gamma 90.000000
_cell_volume 2975.291936
_symmetry_space_group_name_H-M "P B C M"
_symmetry_group_IT_number 57
_symmetry_cell_setting 'orthorhombic'
loop_
_space_group_symop_operation_xyz
x,y,z
-x,-y,1/2+z
x,1/2-y,-z
-x,1/2+y,1/2-z
-x,-y,-z
x,y,1/2-z
-x,1/2+y,z
x,1/2-y,1/2+z
loop_
_atom_site_type_symbol
_atom_site_label
_atom_site_fract_x
_atom_site_fract_y
_atom_site_fract_z
Si Si1 0.616150 0.444751 0.435062
Si Si2 0.578383 0.923007 0.562640
Si Si3 0.880657 0.649463 0.935189
Si Si4 0.905418 0.978257 0.934540
Si Si5 0.305600 0.188637 0.064739
Si Si6 0.798197 0.084186 0.066400
Si Si7 0.919905 0.312844 0.436530
O O1 0.626228 0.439536 0.250000
O O2 0.619892 0.513769 0.476145
O O3 0.519167 0.422688 0.486946
O O4 0.694979 0.411131 0.520752
O O5 0.569415 0.921464 0.750000
O O6 0.638165 0.868135 0.513748
O O7 0.873159 0.653469 0.750000
O O8 0.976993 0.674963 0.981323
O O9 0.880877 0.582598 0.988060
O O10 0.796179 0.680363 0.010705
O O11 0.910621 0.971273 0.750000
O O12 0.834849 0.027379 0.978922
O O13 0.000000 0.000000 0.000000
O O14 0.308021 0.190327 0.250000
O O15 0.339941 0.250000 0.000000
O O16 0.809087 0.077089 0.250000
O O17 0.857140 0.137916 0.008167
O O18 0.894117 0.250000 0.500000
O O19 0.914208 0.315167 0.250000
#
# Coordination Sequence:
#
# PCOD9437915 Si02
#       7
#     8   8   8   8   8   8   8
#     4  10  20  37  64  93 120 151 192 247 306 364
#     4   9  20  39  61  88 120 155 193 242 304 364
#     4  11  23  39  61  88 120 159 203 247 298 360
#     4  12  23  37  58  87 122 157 198 246 299 352
#     4  11  23  39  60  87 123 163 205 252 300 360
#     4  12  24  39  61  88 121 159 200 246 296 353
#     4  11  24  41  60  82 115 156 203 250 294 349
#
# _framework density 18.821683
#
# number of rings (size 3 to 8) (size 9 to 14) (size 15 to 20)
#    0.000    1.143    1.429    5.571    0.000    5.714 
#    0.000    0.714    0.000    1.714    0.000    0.000 
#    0.000    0.000    0.000    0.000    0.000    0.000 
#
# Total GULP energy -313198.513422 kJ/mol
# GULP energy per Si atom -5592.830597 kJ/mol
# Density = 1.877884 g / cm^3
# Si number density = 18.821683 Si / 1000 Ang^3
#
#
#
# Elastic Constant Matrix: (Units=GPa)
#
#
# Indices 1 2 3 4 5 6 
#
# 1 97.6851 36.6740 20.9675 0.0000 0.0000 0.0000
# 2 36.6740 92.7576 6.2022 0.0000 0.0000 0.0000
# 3 20.9675 6.2022 34.5103 0.0000 0.0000 0.0000
# 4 0.0000 0.0000 0.0000 30.3348 0.0000 0.0000
# 5 0.0000 0.0000 0.0000 0.0000 33.4500 0.0000
# 6 0.0000 0.0000 0.0000 0.0000 0.0000 7.9642
#
#
#
# Elastic Compliance Matrix: (Units=1/GPa)
#
#
# Indices 1 2 3 4 5 6 
#
# 1 0.013674 -0.004910 -0.007426 0.000000 0.000000 0.000000
# 2 -0.004910 0.012675 0.000705 0.000000 0.000000 0.000000
# 3 -0.007426 0.000705 0.033362 0.000000 0.000000 0.000000
# 4 0.000000 0.000000 0.000000 0.032965 0.000000 0.000000
# 5 0.000000 0.000000 0.000000 0.000000 0.029895 0.000000
# 6 0.000000 0.000000 0.000000 0.000000 0.000000 0.125561
#
#
# Mechanical properties :
#
#
# Convention : Reuss Voigt Hill
#
# Bulk Modulus (GPa) = 27.43478 39.18228 33.30853
# Shear Modulus (GPa) = 17.63398 25.09043 21.36221
#
# Velocity S-wave (km/s) = 3.06420 3.65507 3.37260
# Velocity P-wave (km/s) = 5.20835 6.21897 5.73596
#
# Compressibility (1/GPa) = 0.03645008
#
# Stress axis : x y z
#
# Youngs Moduli (GPa) = 73.13053 78.89614 29.97445
#
# Poissons Ratio (x) = 0.38737 0.22258
# Poissons Ratio (y) = 0.35906 -0.02114
# Poissons Ratio (z) = 0.54304 -0.05564
#
# Static dielectric constant tensor:
#      x y z
#    x 1.651340 0.000000 0.000000 
#    y 0.000000 1.635910 0.000000 
#    z 0.000000 0.000000 1.626960 
# 
# From -- ./inp_files/5257.got.cif
#   From: 2010.05.17/outbox.cif.g08.bks.cpg/sg57_3_cif.got.tgz:5257.got - 2010.06.03 13:58:18.
