data_PCOD9437226
_publ_section_title
;
Structure prediction by ZEFSAII (Michael W. Deem and Ramdas Pophale) SiO2 
 PCOD9437226
Probable space group: P B C M
;
_chemical_formula_sum "Si O2"
_cell_formula_units_Z 56
_cell_length_a 11.669299
_cell_length_b 14.696347
_cell_length_c 15.646377
_cell_angle_alpha 90.000000
_cell_angle_beta 90.000000
_cell_angle_gamma 90.000000
_cell_volume 2683.292124
_symmetry_space_group_name_H-M "P B C M"
_symmetry_group_IT_number 57
_symmetry_cell_setting 'orthorhombic'
loop_
_space_group_symop_operation_xyz
x,y,z
-x,-y,1/2+z
x,1/2-y,-z
-x,1/2+y,1/2-z
-x,-y,-z
x,y,1/2-z
-x,1/2+y,z
x,1/2-y,1/2+z
loop_
_atom_site_type_symbol
_atom_site_label
_atom_site_fract_x
_atom_site_fract_y
_atom_site_fract_z
Si Si1 0.100827 0.113296 0.648468
Si Si2 0.097007 0.026265 0.352040
Si Si3 0.317560 0.973355 0.043598
Si Si4 0.275631 0.816352 0.581106
Si Si5 0.978837 0.295657 0.647406
Si Si6 0.452184 0.824766 0.349576
Si Si7 0.678218 0.656614 0.542579
O O1 0.123276 0.123656 0.750000
O O2 0.218369 0.115652 0.597887
O O3 0.023582 0.024699 0.636811
O O4 0.020352 0.196873 0.618931
O O5 0.126484 0.020970 0.250000
O O6 0.194230 0.982837 0.410500
O O7 0.071695 0.129330 0.379371
O O8 0.392692 0.913183 0.108161
O O9 0.311130 0.913821 0.956779
O O10 0.357748 0.075561 0.022055
O O11 0.265306 0.750000 0.500000
O O12 0.149977 0.818915 0.621293
O O13 0.370385 0.763539 0.637130
O O14 0.980106 0.296234 0.750000
O O15 0.471107 0.839009 0.250000
O O16 0.570636 0.814637 0.399767
O O17 0.718692 0.750000 0.500000
#
# Coordination Sequence:
#
# PCOD9437226 Si02
#       7
#     8   8   8   8   8   8   8
#     4  10  21  37  57  84 122 164 202 243 297 358
#     4  10  21  37  59  89 124 161 202 245 296 364
#     4  11  23  40  64  92 123 157 200 252 308 362
#     4  10  21  37  62  91 118 150 197 255 309 359
#     4  10  20  35  56  85 120 157 199 244 294 356
#     4  11  24  45  67  87 116 156 205 254 307 366
#     4  12  25  41  61  88 125 163 205 254 301 355
#
# _framework density 20.869886999999999
#
# number of rings (size 3 to 8) (size 9 to 14) (size 15 to 20)
#    0.000    1.429    0.000    6.429    0.000    6.286 
#    0.000    5.714    0.000    0.000    0.000    0.000 
#    0.000    0.000    0.000    0.000    0.000    0.000 
#
# Total GULP energy -313063.743570 kJ/mol
# GULP energy per Si atom -5590.423992 kJ/mol
# Density = 2.082239 g / cm^3
# Si number density = 20.869887 Si / 1000 Ang^3
#
#
#
# Elastic Constant Matrix: (Units=GPa)
#
#
# Indices 1 2 3 4 5 6 
#
# 1 64.4083 -9.9396 27.5869 0.0000 0.0000 0.0000
# 2 -9.9396 99.2872 21.4516 0.0000 0.0000 0.0000
# 3 27.5869 21.4516 51.8385 0.0000 0.0000 0.0000
# 4 0.0000 0.0000 0.0000 89.2459 0.0000 0.0000
# 5 0.0000 0.0000 0.0000 0.0000 34.3933 0.0000
# 6 0.0000 0.0000 0.0000 0.0000 0.0000 38.3271
#
#
#
# Elastic Compliance Matrix: (Units=1/GPa)
#
#
# Indices 1 2 3 4 5 6 
#
# 1 0.022380 0.005286 -0.014097 0.000000 0.000000 0.000000
# 2 0.005286 0.012309 -0.007907 0.000000 0.000000 0.000000
# 3 -0.014097 -0.007907 0.030065 0.000000 0.000000 0.000000
# 4 0.000000 0.000000 0.000000 0.011205 0.000000 0.000000
# 5 0.000000 0.000000 0.000000 0.000000 0.029075 0.000000
# 6 0.000000 0.000000 0.000000 0.000000 0.000000 0.026091
#
#
# Mechanical properties :
#
#
# Convention : Reuss Voigt Hill
#
# Bulk Modulus (GPa) = 31.93069 32.63687 32.28378
# Shear Modulus (GPa) = 28.57116 44.15559 36.36338
#
# Velocity S-wave (km/s) = 3.70403 4.60473 4.17872
# Velocity P-wave (km/s) = 5.79881 6.62899 6.22775
#
# Compressibility (1/GPa) = 0.03131784
#
# Stress axis : x y z
#
# Youngs Moduli (GPa) = 44.68294 81.23895 33.26126
#
# Poissons Ratio (x) = -0.42945 0.46890
# Poissons Ratio (y) = -0.23621 0.26300
# Poissons Ratio (z) = 0.62992 0.64236
#
# Static dielectric constant tensor:
#      x y z
#    x 1.731510 0.000000 0.000000 
#    y 0.000000 1.759490 0.000000 
#    z 0.000000 0.000000 1.742110 
# 
# From -- ./inp_files/17740.got.cif
#   From: 2010.05.17/outbox.cif.g08.bks.cpg/sg57_9_cif.got.tgz:17740.got - 2010.06.03 13:58:18.
