data_PCOD9437579
_publ_section_title
;
Structure prediction by ZEFSAII (Michael W. Deem and Ramdas Pophale) SiO2 
 PCOD9437579
Probable space group: P B C M
;
_chemical_formula_sum "Si O2"
_cell_formula_units_Z 40
_cell_length_a 13.002794
_cell_length_b 18.491916
_cell_length_c 8.719303
_cell_angle_alpha 90.000000
_cell_angle_beta 90.000000
_cell_angle_gamma 90.000000
_cell_volume 2096.526538
_symmetry_space_group_name_H-M "P B C M"
_symmetry_group_IT_number 57
_symmetry_cell_setting 'orthorhombic'
loop_
_space_group_symop_operation_xyz
x,y,z
-x,-y,1/2+z
x,1/2-y,-z
-x,1/2+y,1/2-z
-x,-y,-z
x,y,1/2-z
-x,1/2+y,z
x,1/2-y,1/2+z
loop_
_atom_site_type_symbol
_atom_site_label
_atom_site_fract_x
_atom_site_fract_y
_atom_site_fract_z
Si Si1 0.506986 0.329023 0.565330
Si Si2 0.285994 0.909264 0.933484
Si Si3 0.091679 0.830164 0.067092
Si Si4 0.321034 0.433101 0.934584
Si Si5 0.870517 0.829427 0.566512
O O1 0.485618 0.250000 0.500000
O O2 0.503827 0.325189 0.750000
O O3 0.619638 0.357226 0.519485
O O4 0.420820 0.387020 0.517801
O O5 0.275234 0.905480 0.750000
O O6 0.181285 0.882773 0.011137
O O7 0.313819 0.990133 0.983928
O O8 0.089025 0.826394 0.250000
O O9 0.111923 0.750000 0.000000
O O10 0.979730 0.852376 0.004164
O O11 0.325535 0.443874 0.750000
O O12 0.220281 0.385146 0.968534
O O13 0.846254 0.750000 0.500000
O O14 0.880896 0.823622 0.750000
#
# Coordination Sequence:
#
# PCOD9437579 Si02
#       5
#     8   8   8   8   8
#     4  10  22  39  60  86 114 147 188 232 280 336
#     4  11  23  38  58  85 116 151 191 233 281 336
#     4  11  22  38  60  84 114 150 190 236 282 332
#     4  10  22  39  58  84 117 150 186 231 283 337
#     4  10  20  36  59  85 114 148 189 234 280 335
#
# _framework density 19.079176
#
# number of rings (size 3 to 8) (size 9 to 14) (size 15 to 20)
#    0.000    1.600    0.000    6.000    0.000    6.400 
#    0.000    0.000    0.000    0.000    0.000    0.000 
#    0.000    0.000    0.000    0.000    0.000    0.000 
#
# Total GULP energy -223654.622330 kJ/mol
# GULP energy per Si atom -5591.365558 kJ/mol
# Density = 1.903575 g / cm^3
# Si number density = 19.079176 Si / 1000 Ang^3
#
#
#
# Elastic Constant Matrix: (Units=GPa)
#
#
# Indices 1 2 3 4 5 6 
#
# 1 49.2340 3.1711 23.3743 0.0000 0.0000 0.0000
# 2 3.1711 31.5252 14.5700 0.0000 0.0000 0.0000
# 3 23.3743 14.5700 57.4285 0.0000 0.0000 0.0000
# 4 0.0000 0.0000 0.0000 37.6411 0.0000 0.0000
# 5 0.0000 0.0000 0.0000 0.0000 3.7855 0.0000
# 6 0.0000 0.0000 0.0000 0.0000 0.0000 -5.9733
#
#
#
# Elastic Compliance Matrix: (Units=1/GPa)
#
#
# Indices 1 2 3 4 5 6 
#
# 1 0.025351 0.002513 -0.010956 0.000000 0.000000 0.000000
# 2 0.002513 0.036183 -0.010203 0.000000 0.000000 0.000000
# 3 -0.010956 -0.010203 0.024461 0.000000 0.000000 0.000000
# 4 0.000000 0.000000 0.000000 0.026567 0.000000 0.000000
# 5 0.000000 0.000000 0.000000 0.000000 0.264165 0.000000
# 6 0.000000 0.000000 0.000000 0.000000 0.000000 -0.167410
#
#
# Mechanical properties :
#
#
# Convention : Reuss Voigt Hill
#
# Bulk Modulus (GPa) = 20.53218 24.49093 22.51156
# Shear Modulus (GPa) = 19.02289 13.56213 16.29251
#
# Velocity S-wave (km/s) = 3.16104 2.66904 2.92540
# Velocity P-wave (km/s) = 4.90997 4.72892 4.82030
#
# Compressibility (1/GPa) = 0.04870402
#
# Stress axis : x y z
#
# Youngs Moduli (GPa) = 39.44679 27.63705 40.88197
#
# Poissons Ratio (x) = -0.06946 0.44789
# Poissons Ratio (y) = -0.09915 0.41712
# Poissons Ratio (z) = 0.43217 0.28198
#
# Static dielectric constant tensor:
#      x y z
#    x 1.655050 0.000000 0.000000 
#    y 0.000000 1.624390 0.000000 
#    z 0.000000 0.000000 1.639620 
# 
# From -- ./inp_files/2660.got.cif
#   From: 2010.05.17/outbox.cif.g08.bks.cpg/sg57_2_cif.got.tgz:2660.got - 2010.06.03 13:58:18.
