data_PCOD9437611
_publ_section_title
;
Structure prediction by ZEFSAII (Michael W. Deem and Ramdas Pophale) SiO2 
 PCOD9437611
Probable space group: P B C M
;
_chemical_formula_sum "Si O2"
_cell_formula_units_Z 60
_cell_length_a 8.942742
_cell_length_b 11.335565
_cell_length_c 27.902399
_cell_angle_alpha 90.000000
_cell_angle_beta 90.000000
_cell_angle_gamma 90.000000
_cell_volume 2828.495016
_symmetry_space_group_name_H-M "P B C M"
_symmetry_group_IT_number 57
_symmetry_cell_setting 'orthorhombic'
loop_
_space_group_symop_operation_xyz
x,y,z
-x,-y,1/2+z
x,1/2-y,-z
-x,1/2+y,1/2-z
-x,-y,-z
x,y,1/2-z
-x,1/2+y,z
x,1/2-y,1/2+z
loop_
_atom_site_type_symbol
_atom_site_label
_atom_site_fract_x
_atom_site_fract_y
_atom_site_fract_z
Si Si1 0.888034 0.698891 0.133253
Si Si2 0.756341 0.662477 0.544534
Si Si3 0.797902 0.250000 0.500000
Si Si4 0.364245 0.859160 0.856087
Si Si5 0.337623 0.023183 0.158670
Si Si6 0.109671 0.563681 0.073359
Si Si7 0.852757 0.304836 0.304400
Si Si8 0.578152 0.363472 0.426024
O O1 0.804747 0.769514 0.092146
O O2 0.762117 0.639201 0.165349
O O3 0.973237 0.587306 0.108889
O O4 0.008715 0.781545 0.159645
O O5 0.762395 0.750000 0.500000
O O6 0.871234 0.553542 0.542638
O O7 0.585427 0.620063 0.551671
O O8 0.889428 0.325161 0.537947
O O9 0.691444 0.333589 0.468564
O O10 0.256888 0.929165 0.892759
O O11 0.258426 0.802729 0.816108
O O12 0.425076 0.749183 0.889028
O O13 0.492128 0.937834 0.832103
O O14 0.248593 0.919745 0.185408
O O15 0.358757 0.973381 0.104206
O O16 0.905388 0.305314 0.250000
#
# Coordination Sequence:
#
# PCOD9437611 Si02
#       8
#     8   8   4   8   8   8   8   8
#     4  11  25  44  63  92 132 179 215 271 330 402
#     4  12  24  37  62  94 131 175 228 272 321 382
#     4  10  22  36  60  86 130 174 222 274 320 368
#     4   9  19  39  65  93 124 167 203 270 323 387
#     4  11  21  40  73  91 126 171 216 265 335 389
#     4  10  23  40  58  88 132 174 222 265 330 378
#     4  10  24  45  67  98 131 162 213 274 338 405
#     4  10  20  36  59  94 123 166 218 270 315 377
#
# _framework density 21.212693000000002
#
# number of rings (size 3 to 8) (size 9 to 14) (size 15 to 20)
#    0.000    1.600    3.333    1.600    2.800    2.133 
#    0.000    0.000    0.000    0.000    0.000    0.000 
#    0.000    0.000    0.000    0.000    0.000    0.000 
#
# Total GULP energy -335066.371212 kJ/mol
# GULP energy per Si atom -5584.439520 kJ/mol
# Density = 2.116441 g / cm^3
# Si number density = 21.212693 Si / 1000 Ang^3
#
#
#
# Elastic Constant Matrix: (Units=GPa)
#
#
# Indices 1 2 3 4 5 6 
#
# 1 74.4645 6.6143 11.7492 0.0000 0.0000 0.0000
# 2 6.6143 44.1329 -1.9566 0.0000 0.0000 0.0000
# 3 11.7492 -1.9566 58.9257 0.0000 0.0000 0.0000
# 4 0.0000 0.0000 0.0000 12.8890 0.0000 0.0000
# 5 0.0000 0.0000 0.0000 0.0000 17.9463 0.0000
# 6 0.0000 0.0000 0.0000 0.0000 0.0000 19.2118
#
#
#
# Elastic Compliance Matrix: (Units=1/GPa)
#
#
# Indices 1 2 3 4 5 6 
#
# 1 0.014083 -0.002238 -0.002882 0.000000 0.000000 0.000000
# 2 -0.002238 0.023048 0.001212 0.000000 0.000000 0.000000
# 3 -0.002882 0.001212 0.017585 0.000000 0.000000 0.000000
# 4 0.000000 0.000000 0.000000 0.077585 0.000000 0.000000
# 5 0.000000 0.000000 0.000000 0.000000 0.055722 0.000000
# 6 0.000000 0.000000 0.000000 0.000000 0.000000 0.052051
#
#
# Mechanical properties :
#
#
# Convention : Reuss Voigt Hill
#
# Bulk Modulus (GPa) = 21.32283 23.37078 22.34680
# Shear Modulus (GPa) = 18.97347 20.75050 19.86199
#
# Velocity S-wave (km/s) = 2.99396 3.13103 3.06326
# Velocity P-wave (km/s) = 4.69313 4.91044 4.80301
#
# Compressibility (1/GPa) = 0.04689810
#
# Stress axis : x y z
#
# Youngs Moduli (GPa) = 71.00853 43.38762 56.86518
#
# Poissons Ratio (x) = 0.09712 0.16390
# Poissons Ratio (y) = 0.15895 -0.06890
# Poissons Ratio (z) = 0.20467 -0.05257
#
# Static dielectric constant tensor:
#      x y z
#    x 1.756060 0.000000 0.000000 
#    y 0.000000 1.810320 0.000000 
#    z 0.000000 0.000000 1.742420 
# 
# From -- ./inp_files/28392.got.cif
#   From: 2010.05.17/outbox.cif.g08.bks.cpg/sg57_15_cif.got.tgz:28392.got - 2010.06.03 13:58:18.
