data_PCOD9437297
_publ_section_title
;
Structure prediction by ZEFSAII (Michael W. Deem and Ramdas Pophale) SiO2 
 PCOD9437297
Probable space group: P B C M
;
_chemical_formula_sum "Si O2"
_cell_formula_units_Z 56
_cell_length_a 19.294263
_cell_length_b 9.379859
_cell_length_c 14.279731
_cell_angle_alpha 90.000000
_cell_angle_beta 90.000000
_cell_angle_gamma 90.000000
_cell_volume 2584.309538
_symmetry_space_group_name_H-M "P B C M"
_symmetry_group_IT_number 57
_symmetry_cell_setting 'orthorhombic'
loop_
_space_group_symop_operation_xyz
x,y,z
-x,-y,1/2+z
x,1/2-y,-z
-x,1/2+y,1/2-z
-x,-y,-z
x,y,1/2-z
-x,1/2+y,z
x,1/2-y,1/2+z
loop_
_atom_site_type_symbol
_atom_site_label
_atom_site_fract_x
_atom_site_fract_y
_atom_site_fract_z
Si Si1 0.326116 0.587566 0.021910
Si Si2 0.150611 0.317920 0.602125
Si Si3 0.617510 0.889565 0.643876
Si Si4 0.961113 0.903318 0.141661
Si Si5 0.718351 0.857698 0.145542
Si Si6 0.528306 0.117943 0.430768
Si Si7 0.898456 0.404496 0.022543
O O1 0.271228 0.483895 0.071353
O O2 0.392117 0.589208 0.094275
O O3 0.306167 0.750000 0.000000
O O4 0.354578 0.507520 0.928852
O O5 0.152853 0.250000 0.500000
O O6 0.081926 0.245023 0.644135
O O7 0.218773 0.254385 0.648143
O O8 0.145405 0.486108 0.586318
O O9 0.638574 0.924200 0.750000
O O10 0.652308 0.738456 0.617726
O O11 0.534367 0.869480 0.641196
O O12 0.970329 0.950128 0.250000
O O13 0.031803 0.879893 0.084109
O O14 0.919335 0.014997 0.074787
O O15 0.709576 0.915421 0.250000
O O16 0.532887 0.250000 0.500000
O O17 0.500000 0.000000 0.500000
O O18 0.867889 0.250000 0.000000
#
# Coordination Sequence:
#
# PCOD9437297 Si02
#       7
#     8   8   8   8   8   8   8
#     4  10  21  38  60  85 119 158 198 254 312 358
#     4  10  21  39  62  85 119 162 201 246 300 366
#     4  10  20  35  58  86 120 162 206 246 292 361
#     4  10  20  36  59  89 129 172 209 249 299 359
#     4  11  23  40  63  89 119 161 207 247 298 370
#     4   9  17  32  53  79 113 153 194 241 295 352
#     4  10  21  37  59  92 126 160 207 258 306 359
#
# _framework density 21.669229999999999
#
# number of rings (size 3 to 8) (size 9 to 14) (size 15 to 20)
#    0.000    2.000    0.000    5.571    0.000    4.000 
#    0.000   15.000    0.000    1.714    0.000    0.000 
#    0.000    0.000    0.000    0.000    0.000    0.000 
#
# Total GULP energy -312368.760219 kJ/mol
# GULP energy per Si atom -5578.013575 kJ/mol
# Density = 2.161991 g / cm^3
# Si number density = 21.669230 Si / 1000 Ang^3
#
#
#
# Elastic Constant Matrix: (Units=GPa)
#
#
# Indices 1 2 3 4 5 6 
#
# 1 70.1382 34.5376 17.6210 0.0000 0.0000 0.0000
# 2 34.5376 157.3954 33.3406 0.0000 0.0000 0.0000
# 3 17.6210 33.3406 123.4890 0.0000 0.0000 0.0000
# 4 0.0000 0.0000 0.0000 87.2874 0.0000 0.0000
# 5 0.0000 0.0000 0.0000 0.0000 35.0691 0.0000
# 6 0.0000 0.0000 0.0000 0.0000 0.0000 20.7542
#
#
#
# Elastic Compliance Matrix: (Units=1/GPa)
#
#
# Indices 1 2 3 4 5 6 
#
# 1 0.016221 -0.003255 -0.001436 0.000000 0.000000 0.000000
# 2 -0.003255 0.007392 -0.001531 0.000000 0.000000 0.000000
# 3 -0.001436 -0.001531 0.008716 0.000000 0.000000 0.000000
# 4 0.000000 0.000000 0.000000 0.011456 0.000000 0.000000
# 5 0.000000 0.000000 0.000000 0.000000 0.028515 0.000000
# 6 0.000000 0.000000 0.000000 0.000000 0.000000 0.048183
#
#
# Mechanical properties :
#
#
# Convention : Reuss Voigt Hill
#
# Bulk Modulus (GPa) = 50.28957 58.00235 54.14596
# Shear Modulus (GPa) = 35.82761 46.32370 41.07565
#
# Velocity S-wave (km/s) = 4.07060 4.62861 4.35854
# Velocity P-wave (km/s) = 6.73433 7.44249 7.09725
#
# Compressibility (1/GPa) = 0.01988484
#
# Stress axis : x y z
#
# Youngs Moduli (GPa) = 61.64739 135.27920 114.72913
#
# Poissons Ratio (x) = 0.44038 0.16472
# Poissons Ratio (y) = 0.20068 0.17568
# Poissons Ratio (z) = 0.08851 0.20715
#
# Static dielectric constant tensor:
#      x y z
#    x 1.954150 0.000000 0.000000 
#    y 0.000000 1.803450 0.000000 
#    z 0.000000 0.000000 1.769460 
# 
# From -- ./inp_files/19318.got.cif
#   From: 2010.05.17/outbox.cif.g08.bks.cpg/sg57_10_cif.got.tgz:19318.got - 2010.06.03 13:58:18.
