data_PCOD9437521
_publ_section_title
;
Structure prediction by ZEFSAII (Michael W. Deem and Ramdas Pophale) SiO2 
 PCOD9437521
Probable space group: P B C M
;
_chemical_formula_sum "Si O2"
_cell_formula_units_Z 60
_cell_length_a 11.771248
_cell_length_b 9.526438
_cell_length_c 23.889771
_cell_angle_alpha 90.000000
_cell_angle_beta 90.000000
_cell_angle_gamma 90.000000
_cell_volume 2678.952675
_symmetry_space_group_name_H-M "P B C M"
_symmetry_group_IT_number 57
_symmetry_cell_setting 'orthorhombic'
loop_
_space_group_symop_operation_xyz
x,y,z
-x,-y,1/2+z
x,1/2-y,-z
-x,1/2+y,1/2-z
-x,-y,-z
x,y,1/2-z
-x,1/2+y,z
x,1/2-y,1/2+z
loop_
_atom_site_type_symbol
_atom_site_label
_atom_site_fract_x
_atom_site_fract_y
_atom_site_fract_z
Si Si1 0.277499 0.493109 0.066770
Si Si2 0.527412 0.948649 0.610347
Si Si3 0.774310 0.215526 0.350679
Si Si4 0.528647 0.291714 0.313323
Si Si5 0.882317 0.759940 0.937688
Si Si6 0.240654 0.542357 0.557695
Si Si7 0.961388 0.584113 0.250000
Si Si8 0.008391 0.319457 0.173198
O O1 0.410672 0.522317 0.077073
O O2 0.220281 0.563951 0.121017
O O3 0.232924 0.334385 0.062034
O O4 0.238172 0.564545 0.008814
O O5 0.532975 0.795464 0.637802
O O6 0.634245 0.982427 0.572102
O O7 0.528342 0.049924 0.664661
O O8 0.658043 0.235512 0.317043
O O9 0.770840 0.323827 0.402761
O O10 0.882301 0.257318 0.314994
O O11 0.485785 0.278259 0.250000
O O12 0.849057 0.920829 0.927042
O O13 0.963265 0.691527 0.891830
O O14 0.932255 0.750000 0.000000
O O15 0.917084 0.698919 0.297697
O O16 0.004918 0.470708 0.201516
#
# Coordination Sequence:
#
# PCOD9437521 Si02
#       8
#     8   8   8   8   8   8   4   8
#     4  10  20  36  58  88 118 153 190 233 291 351
#     4  10  20  36  58  82 116 150 192 238 286 338
#     4  10  22  36  58  83 116 147 196 243 287 347
#     4  10  21  36  56  80 108 151 193 243 291 336
#     4  10  22  38  60  87 124 158 191 243 299 355
#     4  10  20  36  58  88 118 153 190 233 291 351
#     4  10  24  38  66  82 112 156 200 248 288 342
#     4  11  22  43  61  89 120 151 205 243 299 349
#
# _framework density 22.396813000000002
#
# number of rings (size 3 to 8) (size 9 to 14) (size 15 to 20)
#    0.000    1.867    0.000    3.600    1.867    1.067 
#    0.000    7.333   17.600    0.000    0.000    0.000 
#    0.000    0.000    0.000    0.000    0.000    0.000 
#
# Total GULP energy -334032.394661 kJ/mol
# GULP energy per Si atom -5567.206578 kJ/mol
# Density = 2.234584 g / cm^3
# Si number density = 22.396813 Si / 1000 Ang^3
#
#
#
# Elastic Constant Matrix: (Units=GPa)
#
#
# Indices 1 2 3 4 5 6 
#
# 1 24.6058 -26.4425 -9.1718 0.0000 0.0000 0.0000
# 2 -26.4425 73.6834 1.0472 0.0000 0.0000 0.0000
# 3 -9.1718 1.0472 81.8922 0.0000 0.0000 0.0000
# 4 0.0000 0.0000 0.0000 16.0893 0.0000 0.0000
# 5 0.0000 0.0000 0.0000 0.0000 -42.4494 0.0000
# 6 0.0000 0.0000 0.0000 0.0000 0.0000 13.3731
#
#
#
# Elastic Compliance Matrix: (Units=1/GPa)
#
#
# Indices 1 2 3 4 5 6 
#
# 1 0.070564 0.025215 0.007581 0.000000 0.000000 0.000000
# 2 0.025215 0.022584 0.002535 0.000000 0.000000 0.000000
# 3 0.007581 0.002535 0.013028 0.000000 0.000000 0.000000
# 4 0.000000 0.000000 0.000000 0.062153 0.000000 0.000000
# 5 0.000000 0.000000 0.000000 0.000000 -0.023557 0.000000
# 6 0.000000 0.000000 0.000000 0.000000 0.000000 0.074777
#
#
# Mechanical properties :
#
#
# Convention : Reuss Voigt Hill
#
# Bulk Modulus (GPa) = 5.65487 12.33857 8.99672
# Shear Modulus (GPa) = 24.05782 11.71917 17.88850
#
# Velocity S-wave (km/s) = 3.28100 2.28995 2.82921
# Velocity P-wave (km/s) = 4.10897 3.53735 3.83383
#
# Compressibility (1/GPa) = 0.17683884
#
# Stress axis : x y z
#
# Youngs Moduli (GPa) = 14.17153 44.27819 76.75907
#
# Poissons Ratio (x) = -1.11649 -0.58188
# Poissons Ratio (y) = -0.35734 -0.19461
# Poissons Ratio (z) = -0.10743 -0.11226
#
# Static dielectric constant tensor:
#      x y z
#    x 1.865160 0.000000 0.000000 
#    y 0.000000 1.827280 0.000000 
#    z 0.000000 0.000000 1.775100 
# 
# From -- ./inp_files/27412.got.cif
#   From: 2010.05.17/outbox.cif.g08.bks.cpg/sg57_14_cif.got.tgz:27412.got - 2010.06.03 13:58:18.
