data_PCOD9437503
_publ_section_title
;
Structure prediction by ZEFSAII (Michael W. Deem and Ramdas Pophale) SiO2 
 PCOD9437503
Probable space group: P B C M
;
_chemical_formula_sum "Si O2"
_cell_formula_units_Z 56
_cell_length_a 32.199456
_cell_length_b 5.373742
_cell_length_c 14.193846
_cell_angle_alpha 90.000000
_cell_angle_beta 90.000000
_cell_angle_gamma 90.000000
_cell_volume 2455.983445
_symmetry_space_group_name_H-M "P B C M"
_symmetry_group_IT_number 57
_symmetry_cell_setting 'orthorhombic'
loop_
_space_group_symop_operation_xyz
x,y,z
-x,-y,1/2+z
x,1/2-y,-z
-x,1/2+y,1/2-z
-x,-y,-z
x,y,1/2-z
-x,1/2+y,z
x,1/2-y,1/2+z
loop_
_atom_site_type_symbol
_atom_site_label
_atom_site_fract_x
_atom_site_fract_y
_atom_site_fract_z
Si Si1 0.253178 0.499248 0.561324
Si Si2 0.837326 0.583816 0.137776
Si Si3 0.386100 0.585434 0.135193
Si Si4 0.343120 0.084926 0.361973
Si Si5 0.023385 0.573786 0.134847
Si Si6 0.881409 0.416147 0.634312
Si Si7 0.517803 0.004540 0.105810
O O1 0.254030 0.250000 0.500000
O O2 0.210402 0.479692 0.618178
O O3 0.295588 0.487139 0.619840
O O4 0.252808 0.750000 0.500000
O O5 0.843165 0.593002 0.250000
O O6 0.852260 0.854686 0.102973
O O7 0.864846 0.352593 0.102857
O O8 0.385388 0.591230 0.250000
O O9 0.371326 0.857134 0.101995
O O10 0.432872 0.526782 0.105690
O O11 0.356190 0.359296 0.103071
O O12 0.349492 0.095444 0.250000
O O13 0.023369 0.574358 0.250000
O O14 0.071072 0.543901 0.105091
O O15 0.004100 0.837716 0.105522
O O16 0.880809 0.413207 0.750000
O O17 0.502470 0.748602 0.149677
O O18 0.500000 0.000000 0.000000
#
# Coordination Sequence:
#
# PCOD9437503 Si02
#       7
#     8   8   8   8   8   8   8
#     4  12  25  42  59  91 120 147 189 238 295 347
#     4  10  20  36  58  79 111 155 191 235 283 344
#     4  10  21  39  64  88 115 154 198 238 277 334
#     4  10  22  43  65  89 119 155 195 236 288 349
#     4   9  15  23  38  65 107 148 179 229 292 342
#     4   9  17  29  48  77 107 148 200 232 280 352
#     4  10  21  38  54  85 119 155 191 232 283 331
#
# _framework density 22.801456999999999
#
# number of rings (size 3 to 8) (size 9 to 14) (size 15 to 20)
#    0.000    2.000    0.000    3.857    0.000    4.000 
#   15.429    5.714    0.000    0.000    0.000    0.000 
#    0.000   40.000    0.000    0.000    0.000    0.000 
#
# Total GULP energy -313352.627274 kJ/mol
# GULP energy per Si atom -5595.582630 kJ/mol
# Density = 2.274956 g / cm^3
# Si number density = 22.801457 Si / 1000 Ang^3
#
#
#
# Elastic Constant Matrix: (Units=GPa)
#
#
# Indices 1 2 3 4 5 6 
#
# 1 130.8486 50.1849 -24.8177 0.0000 0.0000 0.0000
# 2 50.1849 199.8540 8.6634 0.0000 0.0000 0.0000
# 3 -24.8177 8.6634 50.7591 0.0000 0.0000 0.0000
# 4 0.0000 0.0000 0.0000 14.1843 0.0000 0.0000
# 5 0.0000 0.0000 0.0000 0.0000 20.4166 0.0000
# 6 0.0000 0.0000 0.0000 0.0000 0.0000 48.9217
#
#
#
# Elastic Compliance Matrix: (Units=1/GPa)
#
#
# Indices 1 2 3 4 5 6 
#
# 1 0.009635 -0.002643 0.005162 0.000000 0.000000 0.000000
# 2 -0.002643 0.005766 -0.002277 0.000000 0.000000 0.000000
# 3 0.005162 -0.002277 0.022613 0.000000 0.000000 0.000000
# 4 0.000000 0.000000 0.000000 0.070500 0.000000 0.000000
# 5 0.000000 0.000000 0.000000 0.000000 0.048980 0.000000
# 6 0.000000 0.000000 0.000000 0.000000 0.000000 0.020441
#
#
# Mechanical properties :
#
#
# Convention : Reuss Voigt Hill
#
# Bulk Modulus (GPa) = 25.97440 49.94701 37.96071
# Shear Modulus (GPa) = 26.27650 39.86660 33.07155
#
# Velocity S-wave (km/s) = 3.39839 4.18595 3.81256
# Velocity P-wave (km/s) = 5.17832 6.73169 6.00544
#
# Compressibility (1/GPa) = 0.03849944
#
# Stress axis : x y z
#
# Youngs Moduli (GPa) = 103.78519 173.42803 44.22161
#
# Poissons Ratio (x) = 0.45842 -0.22828
# Poissons Ratio (y) = 0.27433 0.10067
# Poissons Ratio (z) = -0.53575 0.39481
#
# Static dielectric constant tensor:
#      x y z
#    x 1.815200 0.000000 0.000000 
#    y 0.000000 1.807340 0.000000 
#    z 0.000000 0.000000 1.883330 
# 
# From -- ./inp_files/19632.got.cif
#   From: 2010.05.17/outbox.cif.g08.bks.cpg/sg57_10_cif.got.tgz:19632.got - 2010.06.03 13:58:18.
