data_PCOD9437110
_publ_section_title
;
Structure prediction by ZEFSAII (Michael W. Deem and Ramdas Pophale) SiO2 
 PCOD9437110
Probable space group: P B C M
;
_chemical_formula_sum "Si O2"
_cell_formula_units_Z 64
_cell_length_a 24.751427
_cell_length_b 15.595462
_cell_length_c 7.691509
_cell_angle_alpha 90.000000
_cell_angle_beta 90.000000
_cell_angle_gamma 90.000000
_cell_volume 2968.998922
_symmetry_space_group_name_H-M "P B C M"
_symmetry_group_IT_number 57
_symmetry_cell_setting 'orthorhombic'
loop_
_space_group_symop_operation_xyz
x,y,z
-x,-y,1/2+z
x,1/2-y,-z
-x,1/2+y,1/2-z
-x,-y,-z
x,y,1/2-z
-x,1/2+y,z
x,1/2-y,1/2+z
loop_
_atom_site_type_symbol
_atom_site_label
_atom_site_fract_x
_atom_site_fract_y
_atom_site_fract_z
Si Si1 0.118349 0.372102 0.450559
Si Si2 0.488650 0.351866 0.046800
Si Si3 0.235553 0.158779 0.540721
Si Si4 0.893531 0.064793 0.961869
Si Si5 0.419808 0.514502 0.038647
Si Si6 0.701936 0.493732 0.954874
Si Si7 0.214584 0.653036 0.956111
Si Si8 0.000780 0.655394 0.958244
O O1 0.116470 0.342340 0.250000
O O2 0.174225 0.340643 0.531797
O O3 0.122124 0.474228 0.459269
O O4 0.059970 0.351177 0.531363
O O5 0.477991 0.350748 0.250000
O O6 0.446109 0.423877 0.974534
O O7 0.487869 0.250000 0.000000
O O8 0.544974 0.402439 0.014450
O O9 0.261515 0.250000 0.500000
O O10 0.230951 0.149500 0.750000
O O11 0.268606 0.077999 0.471720
O O12 0.894282 0.058888 0.750000
O O13 0.846460 0.130515 0.014646
O O14 0.953530 0.090455 0.021792
O O15 0.421290 0.513893 0.250000
O O16 0.358171 0.521426 0.976123
O O17 0.694713 0.510140 0.750000
O O18 0.742126 0.414050 0.973020
O O19 0.214949 0.642344 0.750000
O O20 0.228354 0.750000 0.000000
O O21 0.997215 0.643942 0.750000
O O22 0.021383 0.750000 0.000000
#
# Coordination Sequence:
#
# PCOD9437110 Si02
#       8
#     8   8   8   8   8   8   8   8
#     4  10  20  35  55  78 105 140 182 227 283 342
#     4  10  20  36  60  90 123 157 193 233 280 333
#     4  10  21  36  56  82 111 147 188 232 283 339
#     4  10  21  36  54  78 106 138 182 231 283 343
#     4   9  20  38  60  86 117 156 197 238 281 328
#     4  10  21  40  61  83 116 153 194 240 284 332
#     4  11  23  38  58  83 111 148 192 238 290 346
#     4  10  21  35  51  76 106 137 177 226 280 342
#
# _framework density 21.556089
#
# number of rings (size 3 to 8) (size 9 to 14) (size 15 to 20)
#    0.000    2.000    1.250    1.875    0.000    4.500 
#    0.000    0.000    0.000    0.000    0.000    0.000 
#    0.000    0.000    0.000    0.000    0.000    0.000 
#
# Total GULP energy -357136.078537 kJ/mol
# GULP energy per Si atom -5580.251227 kJ/mol
# Density = 2.150703 g / cm^3
# Si number density = 21.556089 Si / 1000 Ang^3
#
#
#
# Elastic Constant Matrix: (Units=GPa)
#
#
# Indices 1 2 3 4 5 6 
#
# 1 104.7144 29.5499 -0.3910 0.0000 0.0000 0.0000
# 2 29.5499 135.2885 -9.9234 0.0000 0.0000 0.0000
# 3 -0.3910 -9.9234 32.4425 0.0000 0.0000 0.0000
# 4 0.0000 0.0000 0.0000 17.1713 0.0000 0.0000
# 5 0.0000 0.0000 0.0000 0.0000 22.1552 0.0000
# 6 0.0000 0.0000 0.0000 0.0000 0.0000 -2.8415
#
#
#
# Elastic Compliance Matrix: (Units=1/GPa)
#
#
# Indices 1 2 3 4 5 6 
#
# 1 0.010187 -0.002267 -0.000571 0.000000 0.000000 0.000000
# 2 -0.002267 0.008066 0.002440 0.000000 0.000000 0.000000
# 3 -0.000571 0.002440 0.031563 0.000000 0.000000 0.000000
# 4 0.000000 0.000000 0.000000 0.058237 0.000000 0.000000
# 5 0.000000 0.000000 0.000000 0.000000 0.045136 0.000000
# 6 0.000000 0.000000 0.000000 0.000000 0.000000 -0.351930
#
#
# Mechanical properties :
#
#
# Convention : Reuss Voigt Hill
#
# Bulk Modulus (GPa) = 20.39959 34.54625 27.47292
# Shear Modulus (GPa) = -27.53230 24.17766 -1.67732
#
# Velocity S-wave (km/s) = -3.57773 3.35269 -0.88307
# Velocity P-wave (km/s) = 2.75369 5.57211 3.42531
#
# Compressibility (1/GPa) = 0.04902059
#
# Stress axis : x y z
#
# Youngs Moduli (GPa) = 98.16056 123.98128 31.68251
#
# Poissons Ratio (x) = 0.28107 0.01808
# Poissons Ratio (y) = 0.22253 -0.07730
# Poissons Ratio (z) = 0.05601 -0.30249
#
# Static dielectric constant tensor:
#      x y z
#    x 1.801930 0.000000 0.000000 
#    y 0.000000 1.766250 0.000000 
#    z 0.000000 0.000000 1.816300 
# 
# From -- ./inp_files/9402.got.cif
#   From: 2010.05.17/outbox.cif.g08.bks.cpg/sg57_5_cif.got.tgz:9402.got - 2010.06.03 13:58:18.
