data_PCOD9437463
_publ_section_title
;
Structure prediction by ZEFSAII (Michael W. Deem and Ramdas Pophale) SiO2 
 PCOD9437463
Probable space group: P B C M
;
_chemical_formula_sum "Si O2"
_cell_formula_units_Z 64
_cell_length_a 9.237975
_cell_length_b 16.421319
_cell_length_c 23.645682
_cell_angle_alpha 90.000000
_cell_angle_beta 90.000000
_cell_angle_gamma 90.000000
_cell_volume 3587.043679
_symmetry_space_group_name_H-M "P B C M"
_symmetry_group_IT_number 57
_symmetry_cell_setting 'orthorhombic'
loop_
_space_group_symop_operation_xyz
x,y,z
-x,-y,1/2+z
x,1/2-y,-z
-x,1/2+y,1/2-z
-x,-y,-z
x,y,1/2-z
-x,1/2+y,z
x,1/2-y,1/2+z
loop_
_atom_site_type_symbol
_atom_site_label
_atom_site_fract_x
_atom_site_fract_y
_atom_site_fract_z
Si Si1 0.347524 0.322882 0.544211
Si Si2 0.376225 0.473001 0.813817
Si Si3 0.167724 0.878741 0.314435
Si Si4 0.962455 0.463597 0.417715
Si Si5 0.395664 0.601424 0.102752
Si Si6 0.170492 0.810926 0.815257
Si Si7 0.756449 0.987724 0.011920
Si Si8 0.876437 0.867596 0.635472
O O1 0.343402 0.250000 0.500000
O O2 0.499672 0.329115 0.577041
O O3 0.328090 0.411228 0.514207
O O4 0.215137 0.317878 0.589017
O O5 0.429432 0.464139 0.750000
O O6 0.305105 0.561641 0.821211
O O7 0.499617 0.453221 0.858318
O O8 0.244012 0.410126 0.824955
O O9 0.112211 0.892506 0.250000
O O10 0.058861 0.906229 0.363776
O O11 0.206573 0.784587 0.319651
O O12 0.827687 0.459789 0.461121
O O13 0.954636 0.556693 0.395893
O O14 0.108620 0.451578 0.452390
O O15 0.270243 0.638902 0.141745
O O16 0.332520 0.545836 0.052966
O O17 0.191736 0.836839 0.750000
O O18 0.001810 0.821083 0.831782
#
# Coordination Sequence:
#
# PCOD9437463 Si02
#       8
#     8   8   8   8   8   8   8   8
#     4  10  23  37  55  81 115 151 185 228 285 346
#     4   9  18  36  58  77 107 153 193 226 278 345
#     4   9  20  36  57  83 113 148 186 233 292 339
#     4   9  18  36  57  82 108 145 186 232 279 333
#     4  11  22  37  56  83 113 151 194 231 280 342
#     4  11  22  36  57  88 118 142 188 250 292 333
#     4  10  20  36  57  80 112 146 192 233 277 336
#     4   9  18  36  57  80 108 144 189 228 282 338
#
# _framework density 17.841991
#
# number of rings (size 3 to 8) (size 9 to 14) (size 15 to 20)
#    0.000    2.250    1.250    1.875    1.750    2.500 
#    0.000    0.625    0.000    0.000    0.000    0.000 
#    0.000    0.000    0.000    0.000    0.000    0.000 
#
# Total GULP energy -356950.205108 kJ/mol
# GULP energy per Si atom -5577.346955 kJ/mol
# Density = 1.780138 g / cm^3
# Si number density = 17.841991 Si / 1000 Ang^3
#
#
#
# Elastic Constant Matrix: (Units=GPa)
#
#
# Indices 1 2 3 4 5 6 
#
# 1 78.2254 29.0399 38.9139 0.0000 0.0000 0.0000
# 2 29.0399 47.5693 27.6789 0.0000 0.0000 0.0000
# 3 38.9139 27.6789 97.8387 0.0000 0.0000 0.0000
# 4 0.0000 0.0000 0.0000 27.4864 0.0000 0.0000
# 5 0.0000 0.0000 0.0000 0.0000 30.0578 0.0000
# 6 0.0000 0.0000 0.0000 0.0000 0.0000 7.0408
#
#
#
# Elastic Compliance Matrix: (Units=1/GPa)
#
#
# Indices 1 2 3 4 5 6 
#
# 1 0.018326 -0.008315 -0.004937 0.000000 0.000000 0.000000
# 2 -0.008315 0.028937 -0.004879 0.000000 0.000000 0.000000
# 3 -0.004937 -0.004879 0.013565 0.000000 0.000000 0.000000
# 4 0.000000 0.000000 0.000000 0.036382 0.000000 0.000000
# 5 0.000000 0.000000 0.000000 0.000000 0.033269 0.000000
# 6 0.000000 0.000000 0.000000 0.000000 0.000000 0.142030
#
#
# Mechanical properties :
#
#
# Convention : Reuss Voigt Hill
#
# Bulk Modulus (GPa) = 40.70649 46.09989 43.40319
# Shear Modulus (GPa) = 15.77489 21.45038 18.61264
#
# Velocity S-wave (km/s) = 2.97668 3.47110 3.23335
# Velocity P-wave (km/s) = 5.88886 6.47755 6.19021
#
# Compressibility (1/GPa) = 0.02456611
#
# Stress axis : x y z
#
# Youngs Moduli (GPa) = 54.56660 34.55753 73.72088
#
# Poissons Ratio (x) = 0.28736 0.36393
# Poissons Ratio (y) = 0.45374 0.35970
# Poissons Ratio (z) = 0.26937 0.16861
#
# Static dielectric constant tensor:
#      x y z
#    x 1.602710 0.000000 0.000000 
#    y 0.000000 1.580860 0.000000 
#    z 0.000000 0.000000 1.628270 
# 
# From -- ./inp_files/26902.got.cif
#   From: 2010.05.17/outbox.cif.g08.bks.cpg/sg57_14_cif.got.tgz:26902.got - 2010.06.03 13:58:18.
