data_PCOD9437490
_publ_section_title
;
Structure prediction by ZEFSAII (Michael W. Deem and Ramdas Pophale) SiO2 
 PCOD9437490
Probable space group: P B C M
;
_chemical_formula_sum "Si O2"
_cell_formula_units_Z 52
_cell_length_a 18.209065
_cell_length_b 5.125083
_cell_length_c 28.854884
_cell_angle_alpha 90.000000
_cell_angle_beta 90.000000
_cell_angle_gamma 90.000000
_cell_volume 2692.823459
_symmetry_space_group_name_H-M "P B C M"
_symmetry_group_IT_number 57
_symmetry_cell_setting 'orthorhombic'
loop_
_space_group_symop_operation_xyz
x,y,z
-x,-y,1/2+z
x,1/2-y,-z
-x,1/2+y,1/2-z
-x,-y,-z
x,y,1/2-z
-x,1/2+y,z
x,1/2-y,1/2+z
loop_
_atom_site_type_symbol
_atom_site_label
_atom_site_fract_x
_atom_site_fract_y
_atom_site_fract_z
Si Si1 0.289236 0.688831 0.250000
Si Si2 0.830716 0.392089 0.827205
Si Si3 0.548485 0.639774 0.750000
Si Si4 0.451321 0.890682 0.087105
Si Si5 0.219638 0.373526 0.622005
Si Si6 0.699081 0.003548 0.968604
Si Si7 0.632212 0.562293 0.325132
Si Si8 0.952243 0.041416 0.250000
O O1 0.235297 0.565697 0.290439
O O2 0.334574 0.853702 0.210065
O O3 0.818006 0.112795 0.850945
O O4 0.903016 0.406450 0.795568
O O5 0.825045 0.614164 0.866116
O O6 0.484778 0.855202 0.750000
O O7 0.597952 0.705805 0.705581
O O8 0.488250 0.613105 0.077884
O O9 0.377692 0.929694 0.057278
O O10 0.426881 0.932824 0.140625
O O11 0.238122 0.443512 0.569293
O O12 0.301036 0.336457 0.643808
O O13 0.718895 0.250000 0.000000
O O14 0.687813 0.750000 0.000000
O O15 0.981056 0.746119 0.250000
#
# Coordination Sequence:
#
# PCOD9437490 Si02
#       8
#     4   8   4   8   8   8   8   4
#     4   8  18  32  52  76 102 140 182 224 266 314
#     4  10  20  36  57  84 119 156 188 218 262 313
#     4  11  22  32  44  62  89 124 168 216 262 319
#     4  11  23  37  52  71 101 138 178 228 293 365
#     4  10  21  37  57  80 108 142 183 233 285 336
#     4  11  23  39  59  82 106 135 181 246 308 361
#     4   9  20  34  50  70  97 133 178 226 276 325
#     4  11  22  36  58  92 135 172 198 218 236 287
#
# _framework density 19.310585
#
# number of rings (size 3 to 8) (size 9 to 14) (size 15 to 20)
#    0.000    1.846    0.000    3.692    0.000   18.462 
#    0.000    0.000    0.000    0.000    0.000    0.000 
#    0.000   43.077    0.000    0.000    0.000    0.000 
#
# Total GULP energy -289752.527606 kJ/mol
# GULP energy per Si atom -5572.163992 kJ/mol
# Density = 1.926663 g / cm^3
# Si number density = 19.310585 Si / 1000 Ang^3
#
#
#
# Elastic Constant Matrix: (Units=GPa)
#
#
# Indices 1 2 3 4 5 6 
#
# 1 41.0845 -4.3210 11.4233 0.0000 0.0000 0.0000
# 2 -4.3210 28.5337 1.2355 0.0000 0.0000 0.0000
# 3 11.4233 1.2355 83.4143 0.0000 0.0000 0.0000
# 4 0.0000 0.0000 0.0000 -39.6933 0.0000 0.0000
# 5 0.0000 0.0000 0.0000 0.0000 -199.1952 0.0000
# 6 0.0000 0.0000 0.0000 0.0000 0.0000 28.2487
#
#
#
# Elastic Compliance Matrix: (Units=1/GPa)
#
#
# Indices 1 2 3 4 5 6 
#
# 1 0.025765 0.004057 -0.003588 0.000000 0.000000 0.000000
# 2 0.004057 0.035708 -0.001084 0.000000 0.000000 0.000000
# 3 -0.003588 -0.001084 0.012496 0.000000 0.000000 0.000000
# 4 0.000000 0.000000 0.000000 -0.025193 0.000000 0.000000
# 5 0.000000 0.000000 0.000000 0.000000 -0.005020 0.000000
# 6 0.000000 0.000000 0.000000 0.000000 0.000000 0.035400
#
#
# Mechanical properties :
#
#
# Convention : Reuss Voigt Hill
#
# Bulk Modulus (GPa) = 13.74832 18.85645 16.30238
# Shear Modulus (GPa) = 47.78669 -32.48164 7.65252
#
# Velocity S-wave (km/s) = 4.97997 -4.10575 1.99285
# Velocity P-wave (km/s) = 6.34049 3.56233 3.70888
#
# Compressibility (1/GPa) = 0.07273615
#
# Stress axis : x y z
#
# Youngs Moduli (GPa) = 38.81305 28.00525 80.02663
#
# Poissons Ratio (x) = -0.11362 0.28717
# Poissons Ratio (y) = -0.15747 0.08679
# Poissons Ratio (z) = 0.13928 0.03037
#
# Static dielectric constant tensor:
#      x y z
#    x 1.686150 0.000000 0.000000 
#    y 0.000000 0.903240 0.000000 
#    z 0.000000 0.000000 1.638100 
# 
# From -- ./inp_files/28853.got.cif
#   From: 2010.05.17/outbox.cif.g08.bks.cpg/sg57_15_cif.got.tgz:28853.got - 2010.06.03 13:58:18.
