data_PCOD9437470
_publ_section_title
;
Structure prediction by ZEFSAII (Michael W. Deem and Ramdas Pophale) SiO2 
 PCOD9437470
Probable space group: P B C M
;
_chemical_formula_sum "Si O2"
_cell_formula_units_Z 64
_cell_length_a 24.777258
_cell_length_b 12.973050
_cell_length_c 9.881239
_cell_angle_alpha 90.000000
_cell_angle_beta 90.000000
_cell_angle_gamma 90.000000
_cell_volume 3176.191936
_symmetry_space_group_name_H-M "P B C M"
_symmetry_group_IT_number 57
_symmetry_cell_setting 'orthorhombic'
loop_
_space_group_symop_operation_xyz
x,y,z
-x,-y,1/2+z
x,1/2-y,-z
-x,1/2+y,1/2-z
-x,-y,-z
x,y,1/2-z
-x,1/2+y,z
x,1/2-y,1/2+z
loop_
_atom_site_type_symbol
_atom_site_label
_atom_site_fract_x
_atom_site_fract_y
_atom_site_fract_z
Si Si1 0.308949 0.851483 0.413595
Si Si2 0.517554 0.848866 0.400115
Si Si3 0.346630 0.331301 0.606868
Si Si4 0.236304 0.051031 0.093334
Si Si5 0.078852 0.842363 0.899473
Si Si6 0.864830 0.950881 0.091926
Si Si7 0.412278 0.978996 0.472071
Si Si8 0.958688 0.646276 0.411518
O O1 0.295506 0.750000 0.500000
O O2 0.319552 0.834989 0.250000
O O3 0.361540 0.902059 0.487204
O O4 0.261412 0.936441 0.420196
O O5 0.519253 0.750000 0.500000
O O6 0.523246 0.806086 0.250000
O O7 0.460223 0.907716 0.417115
O O8 0.559667 0.944467 0.418712
O O9 0.365858 0.250000 0.500000
O O10 0.344333 0.277003 0.750000
O O11 0.287271 0.373655 0.574121
O O12 0.384740 0.430345 0.614710
O O13 0.217128 0.062698 0.250000
O O14 0.191065 0.072909 0.982380
O O15 0.076011 0.796184 0.750000
O O16 0.020117 0.895994 0.919301
O O17 0.125124 0.926749 0.905118
O O18 0.087252 0.750000 0.000000
O O19 0.868552 0.914963 0.250000
O O20 0.911794 0.911733 0.991666
O O21 0.963006 0.750000 0.500000
O O22 0.946624 0.658952 0.250000
#
# Coordination Sequence:
#
# PCOD9437470 Si02
#       8
#     8   8   8   8   8   8   8   8
#     4  10  21  39  63  86 112 149 192 240 290 339
#     4  11  24  39  59  88 122 158 193 233 281 333
#     4  10  21  39  62  83 108 143 186 233 280 332
#     4   9  21  40  57  78 110 148 186 228 283 342
#     4   9  20  36  55  81 112 147 188 231 277 332
#     4  11  22  36  56  84 115 147 186 233 283 337
#     4  10  22  39  60  85 118 153 191 231 278 336
#     4  10  20  36  57  81 111 148 188 231 279 334
#
# _framework density 20.149913999999999
#
# number of rings (size 3 to 8) (size 9 to 14) (size 15 to 20)
#    0.000    2.000    0.000    3.750    0.000    8.500 
#    0.000    6.250    0.000    0.000    0.000    0.000 
#    0.000    0.000    0.000    0.000    0.000    0.000 
#
# Total GULP energy -356332.065869 kJ/mol
# GULP energy per Si atom -5567.688529 kJ/mol
# Density = 2.010405 g / cm^3
# Si number density = 20.149914 Si / 1000 Ang^3
#
#
#
# Elastic Constant Matrix: (Units=GPa)
#
#
# Indices 1 2 3 4 5 6 
#
# 1 64.4345 3.6309 45.0432 0.0000 0.0000 0.0000
# 2 3.6309 57.8100 38.0186 0.0000 0.0000 0.0000
# 3 45.0432 38.0186 122.0781 0.0000 0.0000 0.0000
# 4 0.0000 0.0000 0.0000 22.4349 0.0000 0.0000
# 5 0.0000 0.0000 0.0000 0.0000 -389.1710 0.0000
# 6 0.0000 0.0000 0.0000 0.0000 0.0000 3.3551
#
#
#
# Elastic Compliance Matrix: (Units=1/GPa)
#
#
# Indices 1 2 3 4 5 6 
#
# 1 0.021996 0.004975 -0.009665 0.000000 0.000000 0.000000
# 2 0.004975 0.022878 -0.008960 0.000000 0.000000 0.000000
# 3 -0.009665 -0.008960 0.014548 0.000000 0.000000 0.000000
# 4 0.000000 0.000000 0.000000 0.044573 0.000000 0.000000
# 5 0.000000 0.000000 0.000000 0.000000 -0.002570 0.000000
# 6 0.000000 0.000000 0.000000 0.000000 0.000000 0.298058
#
#
# Mechanical properties :
#
#
# Convention : Reuss Voigt Hill
#
# Bulk Modulus (GPa) = 31.13270 46.41199 38.77234
# Shear Modulus (GPa) = 11.42877 -62.16755 -25.36939
#
# Velocity S-wave (km/s) = 2.38415 -5.56053 -3.55213
# Velocity P-wave (km/s) = 4.80239 4.25942 1.56849
#
# Compressibility (1/GPa) = 0.03212056
#
# Stress axis : x y z
#
# Youngs Moduli (GPa) = 45.46353 43.70925 68.73737
#
# Poissons Ratio (x) = -0.21744 0.66435
# Poissons Ratio (y) = -0.22617 0.61592
# Poissons Ratio (z) = 0.43940 0.39166
#
# Static dielectric constant tensor:
#      x y z
#    x 1.749960 0.000000 0.000000 
#    y 0.000000 1.719980 0.000000 
#    z 0.000000 0.000000 1.723270 
# 
# From -- ./inp_files/9417.got.cif
#   From: 2010.05.17/outbox.cif.g08.bks.cpg/sg57_5_cif.got.tgz:9417.got - 2010.06.03 13:58:18.
