data_PCOD9437755
_publ_section_title
;
Structure prediction by ZEFSAII (Michael W. Deem and Ramdas Pophale) SiO2 
 PCOD9437755
Probable space group: P B C M
;
_chemical_formula_sum "Si O2"
_cell_formula_units_Z 56
_cell_length_a 22.049766
_cell_length_b 14.623185
_cell_length_c 9.042477
_cell_angle_alpha 90.000000
_cell_angle_beta 90.000000
_cell_angle_gamma 90.000000
_cell_volume 2915.636458
_symmetry_space_group_name_H-M "P B C M"
_symmetry_group_IT_number 57
_symmetry_cell_setting 'orthorhombic'
loop_
_space_group_symop_operation_xyz
x,y,z
-x,-y,1/2+z
x,1/2-y,-z
-x,1/2+y,1/2-z
-x,-y,-z
x,y,1/2-z
-x,1/2+y,z
x,1/2-y,1/2+z
loop_
_atom_site_type_symbol
_atom_site_label
_atom_site_fract_x
_atom_site_fract_y
_atom_site_fract_z
Si Si1 0.869044 0.162162 0.418109
Si Si2 0.584389 0.550001 0.072671
Si Si3 0.722866 0.339231 0.918535
Si Si4 0.708200 0.955752 0.429730
Si Si5 0.935063 0.981802 0.429149
Si Si6 0.168702 0.348027 0.071803
Si Si7 0.469230 0.649549 0.928504
O O1 0.893319 0.250000 0.500000
O O2 0.889006 0.168312 0.250000
O O3 0.796254 0.164569 0.419594
O O4 0.893274 0.067136 0.476290
O O5 0.581055 0.560100 0.250000
O O6 0.573300 0.440560 0.039945
O O7 0.648761 0.582680 0.008179
O O8 0.532568 0.611120 0.995119
O O9 0.701770 0.335499 0.750000
O O10 0.709232 0.438585 0.979958
O O11 0.699235 0.250000 0.000000
O O12 0.702497 0.953368 0.250000
O O13 0.772195 0.908833 0.467012
O O14 0.940407 0.979815 0.250000
O O15 0.895081 0.894290 0.473551
O O16 0.000000 0.000000 0.500000
O O17 0.168274 0.342167 0.250000
O O18 0.175267 0.250000 0.000000
O O19 0.471889 0.659825 0.750000
O O20 0.455154 0.750000 0.000000
#
# Coordination Sequence:
#
# PCOD9437755 Si02
#       7
#     8   8   8   8   8   8   8
#     4   9  17  32  53  76 103 135 172 217 269 328
#     4  10  22  38  58  88 121 153 196 244 289 342
#     4   9  17  31  52  77 105 140 178 220 274 335
#     4  10  20  37  59  81 114 156 192 232 288 346
#     4  10  21  38  58  80 110 145 185 231 283 339
#     4  10  22  41  61  82 112 151 193 237 284 338
#     4  10  21  39  62  86 117 157 198 242 290 341
#
# _framework density 19.206785
#
# number of rings (size 3 to 8) (size 9 to 14) (size 15 to 20)
#    0.000    2.286    1.429    0.857    0.000    5.714 
#    0.000    7.143    0.000    0.000    0.000    0.000 
#    0.000    0.000    0.000    0.000    0.000    0.000 
#
# Total GULP energy -312088.763626 kJ/mol
# GULP energy per Si atom -5573.013636 kJ/mol
# Density = 1.916307 g / cm^3
# Si number density = 19.206785 Si / 1000 Ang^3
#
#
#
# Elastic Constant Matrix: (Units=GPa)
#
#
# Indices 1 2 3 4 5 6 
#
# 1 98.7709 37.4860 35.9028 0.0000 0.0000 0.0000
# 2 37.4860 98.1066 29.8187 0.0000 0.0000 0.0000
# 3 35.9028 29.8187 27.0144 0.0000 0.0000 0.0000
# 4 0.0000 0.0000 0.0000 35.2034 0.0000 0.0000
# 5 0.0000 0.0000 0.0000 0.0000 24.1566 0.0000
# 6 0.0000 0.0000 0.0000 0.0000 0.0000 4.7039
#
#
#
# Elastic Compliance Matrix: (Units=1/GPa)
#
#
# Indices 1 2 3 4 5 6 
#
# 1 0.019614 0.000645 -0.026779 0.000000 0.000000 0.000000
# 2 0.000645 0.015360 -0.017812 0.000000 0.000000 0.000000
# 3 -0.026779 -0.017812 0.092268 0.000000 0.000000 0.000000
# 4 0.000000 0.000000 0.000000 0.028406 0.000000 0.000000
# 5 0.000000 0.000000 0.000000 0.000000 0.041397 0.000000
# 6 0.000000 0.000000 0.000000 0.000000 0.000000 0.212591
#
#
# Mechanical properties :
#
#
# Convention : Reuss Voigt Hill
#
# Bulk Modulus (GPa) = 25.41283 47.81190 36.61237
# Shear Modulus (GPa) = 9.79152 20.85840 15.32496
#
# Velocity S-wave (km/s) = 2.26031 3.29901 2.82776
# Velocity P-wave (km/s) = 4.48017 6.28161 5.45575
#
# Compressibility (1/GPa) = 0.03935020
#
# Stress axis : x y z
#
# Youngs Moduli (GPa) = 50.98471 65.10243 10.83794
#
# Poissons Ratio (x) = -0.04199 0.29023
# Poissons Ratio (y) = -0.03288 0.19305
# Poissons Ratio (z) = 1.36532 1.15961
#
# Static dielectric constant tensor:
#      x y z
#    x 1.670130 0.000000 0.000000 
#    y 0.000000 1.692540 0.000000 
#    z 0.000000 0.000000 1.652640 
# 
# From -- ./inp_files/8005.got.cif
#   From: 2010.05.17/outbox.cif.g08.bks.cpg/sg57_5_cif.got.tgz:8005.got - 2010.06.03 13:58:18.
