data_PCOD9437121
_publ_section_title
;
Structure prediction by ZEFSAII (Michael W. Deem and Ramdas Pophale) SiO2 
 PCOD9437121
Probable space group: P B C M
;
_chemical_formula_sum "Si O2"
_cell_formula_units_Z 48
_cell_length_a 31.287854
_cell_length_b 9.655310
_cell_length_c 8.722856
_cell_angle_alpha 90.000000
_cell_angle_beta 90.000000
_cell_angle_gamma 90.000000
_cell_volume 2635.121846
_symmetry_space_group_name_H-M "P B C M"
_symmetry_group_IT_number 57
_symmetry_cell_setting 'orthorhombic'
loop_
_space_group_symop_operation_xyz
x,y,z
-x,-y,1/2+z
x,1/2-y,-z
-x,1/2+y,1/2-z
-x,-y,-z
x,y,1/2-z
-x,1/2+y,z
x,1/2-y,1/2+z
loop_
_atom_site_type_symbol
_atom_site_label
_atom_site_fract_x
_atom_site_fract_y
_atom_site_fract_z
Si Si1 0.962259 0.595158 0.566137
Si Si2 0.883004 0.400884 0.566241
Si Si3 0.463321 0.903499 0.433722
Si Si4 0.288737 0.096462 0.064997
Si Si5 0.789532 0.099047 0.565786
Si Si6 0.366654 0.903513 0.065248
O O1 0.963820 0.750000 0.500000
O O2 0.966003 0.601431 0.750000
O O3 0.917989 0.516551 0.527562
O O4 0.000000 0.500000 0.500000
O O5 0.895593 0.250000 0.500000
O O6 0.880026 0.389439 0.750000
O O7 0.836464 0.434856 0.498510
O O8 0.468841 0.750000 0.500000
O O9 0.465977 0.900441 0.250000
O O10 0.414916 0.948215 0.476811
O O11 0.500000 0.000000 0.500000
O O12 0.289655 0.102753 0.250000
O O13 0.246181 0.012046 0.020744
O O14 0.330233 0.009433 0.013575
O O15 0.288773 0.250000 0.000000
O O16 0.777856 0.250000 0.500000
O O17 0.791429 0.107191 0.750000
O O18 0.364790 0.894693 0.250000
O O19 0.359266 0.750000 0.000000
#
# Coordination Sequence:
#
# PCOD9437121 Si02
#       6
#     8   8   8   8   8   8
#     4  11  24  40  60  85 114 149 187 229 276 326
#     4  10  21  37  58  84 112 144 182 223 269 321
#     4  10  20  35  55  79 108 141 178 221 269 322
#     4  10  22  37  53  78 109 140 177 220 267 317
#     4  10  20  35  57  82 108 141 180 221 265 318
#     4   9  19  36  56  78 104 137 178 220 264 318
#
# _framework density 18.215477
#
# number of rings (size 3 to 8) (size 9 to 14) (size 15 to 20)
#    0.000    2.000    0.000    4.000    0.000    8.000 
#    0.000    5.000    0.000    0.000    0.000    0.000 
#    0.000    0.000    0.000    0.000    0.000    0.000 
#
# Total GULP energy -268090.326995 kJ/mol
# GULP energy per Si atom -5585.215146 kJ/mol
# Density = 1.817402 g / cm^3
# Si number density = 18.215477 Si / 1000 Ang^3
#
#
#
# Elastic Constant Matrix: (Units=GPa)
#
#
# Indices 1 2 3 4 5 6 
#
# 1 154.8108 137.4213 56.0909 0.0000 0.0000 0.0000
# 2 137.4213 165.8674 52.3534 0.0000 0.0000 0.0000
# 3 56.0909 52.3534 47.6394 0.0000 0.0000 0.0000
# 4 0.0000 0.0000 0.0000 37.7097 0.0000 0.0000
# 5 0.0000 0.0000 0.0000 0.0000 24.6229 0.0000
# 6 0.0000 0.0000 0.0000 0.0000 0.0000 37.1335
#
#
#
# Elastic Compliance Matrix: (Units=1/GPa)
#
#
# Indices 1 2 3 4 5 6 
#
# 1 0.027964 -0.019561 -0.011428 0.000000 0.000000 0.000000
# 2 -0.019561 0.022914 -0.002150 0.000000 0.000000 0.000000
# 3 -0.011428 -0.002150 0.036810 0.000000 0.000000 0.000000
# 4 0.000000 0.000000 0.000000 0.026518 0.000000 0.000000
# 5 0.000000 0.000000 0.000000 0.000000 0.040613 0.000000
# 6 0.000000 0.000000 0.000000 0.000000 0.000000 0.026930
#
#
# Mechanical properties :
#
#
# Convention : Reuss Voigt Hill
#
# Bulk Modulus (GPa) = 46.70991 95.56099 71.13545
# Shear Modulus (GPa) = 19.59531 28.05667 23.82599
#
# Velocity S-wave (km/s) = 3.28342 3.92888 3.62056
# Velocity P-wave (km/s) = 6.33033 8.55317 7.52429
#
# Compressibility (1/GPa) = 0.02140873
#
# Stress axis : x y z
#
# Youngs Moduli (GPa) = 35.76033 43.64179 27.16686
#
# Poissons Ratio (x) = 0.85368 0.31047
# Poissons Ratio (y) = 0.69951 0.05841
# Poissons Ratio (z) = 0.40868 0.09383
#
# Static dielectric constant tensor:
#      x y z
#    x 1.630590 0.000000 0.000000 
#    y 0.000000 1.579000 0.000000 
#    z 0.000000 0.000000 1.615580 
# 
# From -- ./inp_files/10078.got.cif
#   From: 2010.05.17/outbox.cif.g08.bks.cpg/sg57_6_cif.got.tgz:10078.got - 2010.06.03 13:58:18.
