data_PCOD9437088
_publ_section_title
;
Structure prediction by ZEFSAII (Michael W. Deem and Ramdas Pophale) SiO2 
 PCOD9437088
Probable space group: P B C M
;
_chemical_formula_sum "Si O2"
_cell_formula_units_Z 52
_cell_length_a 13.622654
_cell_length_b 18.483115
_cell_length_c 9.395353
_cell_angle_alpha 90.000000
_cell_angle_beta 90.000000
_cell_angle_gamma 90.000000
_cell_volume 2365.647293
_symmetry_space_group_name_H-M "P B C M"
_symmetry_group_IT_number 57
_symmetry_cell_setting 'orthorhombic'
loop_
_space_group_symop_operation_xyz
x,y,z
-x,-y,1/2+z
x,1/2-y,-z
-x,1/2+y,1/2-z
-x,-y,-z
x,y,1/2-z
-x,1/2+y,z
x,1/2-y,1/2+z
loop_
_atom_site_type_symbol
_atom_site_label
_atom_site_fract_x
_atom_site_fract_y
_atom_site_fract_z
Si Si1 0.909693 0.577118 0.478179
Si Si2 0.520134 0.176970 0.414636
Si Si3 0.757873 0.322501 0.584895
Si Si4 0.040016 0.979565 0.750000
Si Si5 0.770110 0.814277 0.409397
Si Si6 0.258167 0.963974 0.412176
Si Si7 0.396833 0.436326 0.087220
O O1 0.001020 0.575550 0.374761
O O2 0.863560 0.654539 0.508481
O O3 0.826574 0.524878 0.408253
O O4 0.931966 0.539044 0.626855
O O5 0.493517 0.250000 0.500000
O O6 0.485275 0.178451 0.250000
O O7 0.638441 0.176180 0.411945
O O8 0.477503 0.107917 0.498413
O O9 0.787628 0.250000 0.500000
O O10 0.790707 0.324838 0.750000
O O11 0.782291 0.394961 0.497682
O O12 0.726199 0.750000 0.500000
O O13 0.793303 0.790996 0.250000
O O14 0.693044 0.879657 0.401547
O O15 0.284949 0.944551 0.250000
O O16 0.349465 0.997871 0.499044
O O17 0.425925 0.455873 0.250000
#
# Coordination Sequence:
#
# PCOD9437088 Si02
#       7
#     8   8   8   4   8   8   8
#     4  10  21  38  61  91 112 148 190 225 277 336
#     4  10  20  35  54  79 112 152 195 236 282 335
#     4  10  22  39  60  82 110 150 192 238 289 332
#     4  10  20  38  64  86 114 142 184 232 274 336
#     4  10  21  34  53  82 119 152 184 224 273 331
#     4  11  22  37  59  86 114 145 187 234 279 340
#     4  10  21  35  54  82 114 151 194 234 280 329
#
# _framework density 21.981299
#
# number of rings (size 3 to 8) (size 9 to 14) (size 15 to 20)
#    0.000    1.846    1.538    2.308    3.231    4.923 
#    0.000    0.000    0.000    5.538    0.000    0.000 
#    0.000    0.000    0.000    0.000    0.000    0.000 
#
# Total GULP energy -289553.788300 kJ/mol
# GULP energy per Si atom -5568.342083 kJ/mol
# Density = 2.193127 g / cm^3
# Si number density = 21.981299 Si / 1000 Ang^3
#
#
#
# Elastic Constant Matrix: (Units=GPa)
#
#
# Indices 1 2 3 4 5 6 
#
# 1 29.3003 7.4807 26.0744 0.0000 0.0000 0.0000
# 2 7.4807 89.5039 54.0880 0.0000 0.0000 0.0000
# 3 26.0744 54.0880 198.5335 0.0000 0.0000 0.0000
# 4 0.0000 0.0000 0.0000 11.7365 0.0000 0.0000
# 5 0.0000 0.0000 0.0000 0.0000 23.6135 0.0000
# 6 0.0000 0.0000 0.0000 0.0000 0.0000 0.8896
#
#
#
# Elastic Compliance Matrix: (Units=1/GPa)
#
#
# Indices 1 2 3 4 5 6 
#
# 1 0.038649 -0.000195 -0.005023 0.000000 0.000000 0.000000
# 2 -0.000195 0.013376 -0.003618 0.000000 0.000000 0.000000
# 3 -0.005023 -0.003618 0.006682 0.000000 0.000000 0.000000
# 4 0.000000 0.000000 0.000000 0.085205 0.000000 0.000000
# 5 0.000000 0.000000 0.000000 0.000000 0.042349 0.000000
# 6 0.000000 0.000000 0.000000 0.000000 0.000000 1.124055
#
#
# Mechanical properties :
#
#
# Convention : Reuss Voigt Hill
#
# Bulk Modulus (GPa) = 24.36965 54.73600 39.55282
# Shear Modulus (GPa) = 3.72671 22.56089 13.14380
#
# Velocity S-wave (km/s) = 1.30349 3.20717 2.44796
# Velocity P-wave (km/s) = 3.65733 6.21851 5.10127
#
# Compressibility (1/GPa) = 0.04103464
#
# Stress axis : x y z
#
# Youngs Moduli (GPa) = 25.87390 74.76281 149.64656
#
# Poissons Ratio (x) = 0.01457 0.75166
# Poissons Ratio (y) = 0.00504 0.54149
# Poissons Ratio (z) = 0.12996 0.27052
#
# Static dielectric constant tensor:
#      x y z
#    x 1.887690 0.000000 0.000000 
#    y 0.000000 1.813260 0.000000 
#    z 0.000000 0.000000 1.780620 
# 
# From -- ./inp_files/6788.got.cif
#   From: 2010.05.17/outbox.cif.g08.bks.cpg/sg57_4_cif.got.tgz:6788.got - 2010.06.03 13:58:18.
