data_PCOD9437543
_publ_section_title
;
Structure prediction by ZEFSAII (Michael W. Deem and Ramdas Pophale) SiO2 
 PCOD9437543
Probable space group: P B C M
;
_chemical_formula_sum "Si O2"
_cell_formula_units_Z 40
_cell_length_a 24.843377
_cell_length_b 8.875700
_cell_length_c 9.932914
_cell_angle_alpha 90.000000
_cell_angle_beta 90.000000
_cell_angle_gamma 90.000000
_cell_volume 2190.230991
_symmetry_space_group_name_H-M "P B C M"
_symmetry_group_IT_number 57
_symmetry_cell_setting 'orthorhombic'
loop_
_space_group_symop_operation_xyz
x,y,z
-x,-y,1/2+z
x,1/2-y,-z
-x,1/2+y,1/2-z
-x,-y,-z
x,y,1/2-z
-x,1/2+y,z
x,1/2-y,1/2+z
loop_
_atom_site_type_symbol
_atom_site_label
_atom_site_fract_x
_atom_site_fract_y
_atom_site_fract_z
Si Si1 0.837494 0.606277 0.594334
Si Si2 0.570884 0.568101 0.250000
Si Si3 0.382974 0.932074 0.983617
Si Si4 0.957830 0.595955 0.586769
Si Si5 0.736359 0.105946 0.406451
Si Si6 0.546279 0.925518 0.250000
O O1 0.834661 0.750000 0.500000
O O2 0.834278 0.655016 0.750000
O O3 0.896679 0.532448 0.578751
O O4 0.786994 0.500356 0.566808
O O5 0.604705 0.517646 0.378934
O O6 0.556084 0.745453 0.250000
O O7 0.516178 0.469790 0.250000
O O8 0.322230 0.964204 0.935202
O O9 0.425346 0.996725 0.877391
O O10 0.388407 0.750000 0.000000
O O11 0.955957 0.750000 0.500000
O O12 0.970043 0.612050 0.750000
O O13 0.000000 0.500000 0.500000
O O14 0.740678 0.250000 0.500000
O O15 0.737605 0.150014 0.250000
#
# Coordination Sequence:
#
# PCOD9437543 Si02
#       6
#     8   4   8   8   8   4
#     4   9  20  38  58  86 119 156 197 247 296 353
#     4  12  26  40  66  90 122 158 199 244 301 358
#     4  11  23  42  64  88 122 159 198 246 301 356
#     4  10  20  36  58  84 120 159 203 250 305 359
#     4  10  22  40  62  87 118 153 196 241 292 350
#     4  12  24  44  62  94 122 156 199 246 295 362
#
# _framework density 18.262913999999999
#
# number of rings (size 3 to 8) (size 9 to 14) (size 15 to 20)
#    0.000    1.600    1.000    3.600    4.200    4.000 
#    0.000    2.000    0.000    0.000    0.000    0.000 
#    0.000    0.000    0.000    0.000    0.000    0.000 
#
# Total GULP energy -223132.198945 kJ/mol
# GULP energy per Si atom -5578.304974 kJ/mol
# Density = 1.822135 g / cm^3
# Si number density = 18.262914 Si / 1000 Ang^3
#
#
#
# Elastic Constant Matrix: (Units=GPa)
#
#
# Indices 1 2 3 4 5 6 
#
# 1 112.8905 37.4347 45.7039 0.0000 0.0000 0.0000
# 2 37.4347 69.8462 25.8510 0.0000 0.0000 0.0000
# 3 45.7039 25.8510 96.6542 0.0000 0.0000 0.0000
# 4 0.0000 0.0000 0.0000 34.6535 0.0000 0.0000
# 5 0.0000 0.0000 0.0000 0.0000 34.5245 0.0000
# 6 0.0000 0.0000 0.0000 0.0000 0.0000 24.7725
#
#
#
# Elastic Compliance Matrix: (Units=1/GPa)
#
#
# Indices 1 2 3 4 5 6 
#
# 1 0.012318 -0.004935 -0.004505 0.000000 0.000000 0.000000
# 2 -0.004935 0.017867 -0.002445 0.000000 0.000000 0.000000
# 3 -0.004505 -0.002445 0.013130 0.000000 0.000000 0.000000
# 4 0.000000 0.000000 0.000000 0.028857 0.000000 0.000000
# 5 0.000000 0.000000 0.000000 0.000000 0.028965 0.000000
# 6 0.000000 0.000000 0.000000 0.000000 0.000000 0.040367
#
#
# Mechanical properties :
#
#
# Convention : Reuss Voigt Hill
#
# Bulk Modulus (GPa) = 51.16203 55.26335 53.21269
# Shear Modulus (GPa) = 29.10521 30.15019 29.62770
#
# Velocity S-wave (km/s) = 3.99642 4.06753 4.03213
# Velocity P-wave (km/s) = 7.02639 7.23777 7.13286
#
# Compressibility (1/GPa) = 0.01954574
#
# Stress axis : x y z
#
# Youngs Moduli (GPa) = 81.17949 55.96905 76.15917
#
# Poissons Ratio (x) = 0.27620 0.34310
# Poissons Ratio (y) = 0.40060 0.18623
# Poissons Ratio (z) = 0.36571 0.13686
#
# Static dielectric constant tensor:
#      x y z
#    x 1.644880 0.000000 0.000000 
#    y 0.000000 1.603680 0.000000 
#    z 0.000000 0.000000 1.681770 
# 
# From -- ./inp_files/8986.got.cif
#   From: 2010.05.17/outbox.cif.g08.bks.cpg/sg57_5_cif.got.tgz:8986.got - 2010.06.03 13:58:18.
