data_PCOD9437986
_publ_section_title
;
Structure prediction by ZEFSAII (Michael W. Deem and Ramdas Pophale) SiO2 
 PCOD9437986
Probable space group: P B C M
;
_chemical_formula_sum "Si O2"
_cell_formula_units_Z 64
_cell_length_a 19.267920
_cell_length_b 8.544406
_cell_length_c 18.124051
_cell_angle_alpha 90.000000
_cell_angle_beta 90.000000
_cell_angle_gamma 90.000000
_cell_volume 2983.815642
_symmetry_space_group_name_H-M "P B C M"
_symmetry_group_IT_number 57
_symmetry_cell_setting 'orthorhombic'
loop_
_space_group_symop_operation_xyz
x,y,z
-x,-y,1/2+z
x,1/2-y,-z
-x,1/2+y,1/2-z
-x,-y,-z
x,y,1/2-z
-x,1/2+y,z
x,1/2-y,1/2+z
loop_
_atom_site_type_symbol
_atom_site_label
_atom_site_fract_x
_atom_site_fract_y
_atom_site_fract_z
Si Si1 0.452521 0.465812 0.839498
Si Si2 0.725495 0.068758 0.163522
Si Si3 0.969939 0.781532 0.836515
Si Si4 0.102533 0.881424 0.164212
Si Si5 0.341054 0.656902 0.927774
Si Si6 0.406466 0.121124 0.839149
Si Si7 0.209121 0.039684 0.063423
Si Si8 0.839037 0.626161 0.902726
O O1 0.446278 0.478880 0.750000
O O2 0.403133 0.590218 0.878930
O O3 0.428061 0.293914 0.863434
O O4 0.532286 0.500995 0.859285
O O5 0.716637 0.096697 0.250000
O O6 0.704157 0.221827 0.119678
O O7 0.668548 0.939732 0.138037
O O8 0.801346 0.000562 0.148039
O O9 0.965674 0.735783 0.750000
O O10 0.916813 0.672860 0.881405
O O11 0.049591 0.755011 0.858549
O O12 0.943260 0.958835 0.841469
O O13 0.123607 0.862187 0.250000
O O14 0.166992 0.914345 0.111873
O O15 0.287143 0.518609 0.948407
O O16 0.365045 0.750000 0.000000
O O17 0.405427 0.127520 0.750000
O O18 0.202541 0.208067 0.103113
O O19 0.170746 0.065071 0.985666
#
# Coordination Sequence:
#
# PCOD9437986 Si02
#       8
#     8   8   8   8   8   8   8   8
#     4  10  20  38  63  88 117 155 196 242 293 346
#     4  11  22  38  61  88 116 154 198 242 293 349
#     4   9  18  34  55  84 116 146 189 242 289 346
#     4   9  19  35  56  82 113 148 189 238 290 347
#     4  12  24  40  56  84 122 156 193 249 293 349
#     4   9  19  37  63  93 120 149 195 245 288 345
#     4  10  22  39  58  80 116 157 195 240 297 347
#     4  10  20  38  61  83 113 155 198 242 293 352
#
# _framework density 21.449047
#
# number of rings (size 3 to 8) (size 9 to 14) (size 15 to 20)
#    0.000    2.000    1.250    2.250    0.000    5.000 
#    0.000    3.750    0.000    0.000    0.000    0.000 
#    0.000    0.000    0.000    0.000    0.000    0.000 
#
# Total GULP energy -357662.927444 kJ/mol
# GULP energy per Si atom -5588.483241 kJ/mol
# Density = 2.140023 g / cm^3
# Si number density = 21.449047 Si / 1000 Ang^3
#
#
#
# Elastic Constant Matrix: (Units=GPa)
#
#
# Indices 1 2 3 4 5 6 
#
# 1 68.6945 9.0561 5.4226 0.0000 0.0000 0.0000
# 2 9.0561 52.2862 8.6223 0.0000 0.0000 0.0000
# 3 5.4226 8.6223 39.0810 0.0000 0.0000 0.0000
# 4 0.0000 0.0000 0.0000 17.3454 0.0000 0.0000
# 5 0.0000 0.0000 0.0000 0.0000 12.6603 0.0000
# 6 0.0000 0.0000 0.0000 0.0000 0.0000 41.5630
#
#
#
# Elastic Compliance Matrix: (Units=1/GPa)
#
#
# Indices 1 2 3 4 5 6 
#
# 1 0.014989 -0.002338 -0.001564 0.000000 0.000000 0.000000
# 2 -0.002338 0.020212 -0.004135 0.000000 0.000000 0.000000
# 3 -0.001564 -0.004135 0.026717 0.000000 0.000000 0.000000
# 4 0.000000 0.000000 0.000000 0.057652 0.000000 0.000000
# 5 0.000000 0.000000 0.000000 0.000000 0.078987 0.000000
# 6 0.000000 0.000000 0.000000 0.000000 0.000000 0.024060
#
#
# Mechanical properties :
#
#
# Convention : Reuss Voigt Hill
#
# Bulk Modulus (GPa) = 21.81294 22.91818 22.36556
# Shear Modulus (GPa) = 19.68715 23.44447 21.56581
#
# Velocity S-wave (km/s) = 3.03290 3.30969 3.17431
# Velocity P-wave (km/s) = 4.73882 5.03125 4.88722
#
# Compressibility (1/GPa) = 0.04584435
#
# Stress axis : x y z
#
# Youngs Moduli (GPa) = 66.71599 49.47471 37.42909
#
# Poissons Ratio (x) = 0.11568 0.05853
# Poissons Ratio (y) = 0.15600 0.15477
# Poissons Ratio (z) = 0.10434 0.20458
#
# Static dielectric constant tensor:
#      x y z
#    x 1.749460 0.000000 0.000000 
#    y 0.000000 1.799360 0.000000 
#    z 0.000000 0.000000 1.751160 
# 
# From -- ./inp_files/25606.got.cif
#   From: 2010.05.17/outbox.cif.g08.bks.cpg/sg57_13_cif.got.tgz:25606.got - 2010.06.03 13:58:18.
