data_PCOD9437878
_publ_section_title
;
Structure prediction by ZEFSAII (Michael W. Deem and Ramdas Pophale) SiO2 
 PCOD9437878
Probable space group: P B C M
;
_chemical_formula_sum "Si O2"
_cell_formula_units_Z 40
_cell_length_a 12.873809
_cell_length_b 18.331289
_cell_length_c 8.713163
_cell_angle_alpha 90.000000
_cell_angle_beta 90.000000
_cell_angle_gamma 90.000000
_cell_volume 2056.249948
_symmetry_space_group_name_H-M "P B C M"
_symmetry_group_IT_number 57
_symmetry_cell_setting 'orthorhombic'
loop_
_space_group_symop_operation_xyz
x,y,z
-x,-y,1/2+z
x,1/2-y,-z
-x,1/2+y,1/2-z
-x,-y,-z
x,y,1/2-z
-x,1/2+y,z
x,1/2-y,1/2+z
loop_
_atom_site_type_symbol
_atom_site_label
_atom_site_fract_x
_atom_site_fract_y
_atom_site_fract_z
Si Si1 0.517673 0.080335 0.066625
Si Si2 0.879973 0.575585 0.933545
Si Si3 0.675961 0.669024 0.934565
Si Si4 0.704485 0.329421 0.067902
Si Si5 0.898490 0.404926 0.932069
O O1 0.517951 0.077982 0.250000
O O2 0.425579 0.131992 0.006291
O O3 0.625718 0.112996 0.006695
O O4 0.500000 0.000000 0.000000
O O5 0.896846 0.581293 0.750000
O O6 0.776585 0.619889 0.972786
O O7 0.870185 0.489419 0.968937
O O8 0.982096 0.604474 0.018954
O O9 0.665577 0.671145 0.750000
O O10 0.688783 0.750000 0.000000
O O11 0.691700 0.328793 0.250000
O O12 0.681030 0.250000 0.000000
O O13 0.820538 0.352830 0.021733
O O14 0.886279 0.394078 0.750000
#
# Coordination Sequence:
#
# PCOD9437878 Si02
#       5
#     8   8   8   8   8
#     4  12  25  43  66  92 121 156 200 246 298 358
#     4   9  20  38  60  86 120 161 204 249 297 354
#     4  11  23  40  61  88 123 161 202 249 302 358
#     4  12  25  42  63  89 123 161 202 249 303 359
#     4  10  20  37  62  90 120 157 204 253 300 355
#
# _framework density 19.452888000000002
#
# number of rings (size 3 to 8) (size 9 to 14) (size 15 to 20)
#    0.000    1.200    0.000    6.600    0.000    4.800 
#    0.000    2.000    0.000    0.000    0.000    0.000 
#    0.000    0.000    0.000    0.000    0.000    0.000 
#
# Total GULP energy -223841.840730 kJ/mol
# GULP energy per Si atom -5596.046018 kJ/mol
# Density = 1.940861 g / cm^3
# Si number density = 19.452888 Si / 1000 Ang^3
#
#
#
# Elastic Constant Matrix: (Units=GPa)
#
#
# Indices 1 2 3 4 5 6 
#
# 1 54.2497 -3.3013 26.9507 0.0000 0.0000 0.0000
# 2 -3.3013 36.3710 17.5400 0.0000 0.0000 0.0000
# 3 26.9507 17.5400 107.6934 0.0000 0.0000 0.0000
# 4 0.0000 0.0000 0.0000 34.6161 0.0000 0.0000
# 5 0.0000 0.0000 0.0000 0.0000 38.4974 0.0000
# 6 0.0000 0.0000 0.0000 0.0000 0.0000 38.2294
#
#
#
# Elastic Compliance Matrix: (Units=1/GPa)
#
#
# Indices 1 2 3 4 5 6 
#
# 1 0.021863 0.005017 -0.006288 0.000000 0.000000 0.000000
# 2 0.005017 0.030989 -0.006303 0.000000 0.000000 0.000000
# 3 -0.006288 -0.006303 0.011886 0.000000 0.000000 0.000000
# 4 0.000000 0.000000 0.000000 0.028888 0.000000 0.000000
# 5 0.000000 0.000000 0.000000 0.000000 0.025976 0.000000
# 6 0.000000 0.000000 0.000000 0.000000 0.000000 0.026158
#
#
# Mechanical properties :
#
#
# Convention : Reuss Voigt Hill
#
# Bulk Modulus (GPa) = 20.16556 31.18809 25.67683
# Shear Modulus (GPa) = 28.17892 32.74357 30.46125
#
# Velocity S-wave (km/s) = 3.81014 4.10716 3.96144
# Velocity P-wave (km/s) = 5.45391 6.20960 5.84398
#
# Compressibility (1/GPa) = 0.04958950
#
# Stress axis : x y z
#
# Youngs Moduli (GPa) = 45.74033 32.26917 84.13387
#
# Poissons Ratio (x) = -0.16189 0.52906
# Poissons Ratio (y) = -0.22948 0.53027
# Poissons Ratio (z) = 0.28763 0.20338
#
# Static dielectric constant tensor:
#      x y z
#    x 1.647460 0.000000 0.000000 
#    y 0.000000 1.642890 0.000000 
#    z 0.000000 0.000000 1.636260 
# 
# From -- ./inp_files/2624.got.cif
#   From: 2010.05.17/outbox.cif.g08.bks.cpg/sg57_2_cif.got.tgz:2624.got - 2010.06.03 13:58:18.
