data_PCOD9437047
_publ_section_title
;
Structure prediction by ZEFSAII (Michael W. Deem and Ramdas Pophale) SiO2 
 PCOD9437047
Probable space group: P B C M
;
_chemical_formula_sum "Si O2"
_cell_formula_units_Z 64
_cell_length_a 15.978750
_cell_length_b 23.832651
_cell_length_c 7.983429
_cell_angle_alpha 90.000000
_cell_angle_beta 90.000000
_cell_angle_gamma 90.000000
_cell_volume 3040.217276
_symmetry_space_group_name_H-M "P B C M"
_symmetry_group_IT_number 57
_symmetry_cell_setting 'orthorhombic'
loop_
_space_group_symop_operation_xyz
x,y,z
-x,-y,1/2+z
x,1/2-y,-z
-x,1/2+y,1/2-z
-x,-y,-z
x,y,1/2-z
-x,1/2+y,z
x,1/2-y,1/2+z
loop_
_atom_site_type_symbol
_atom_site_label
_atom_site_fract_x
_atom_site_fract_y
_atom_site_fract_z
Si Si1 0.790415 0.184891 0.451684
Si Si2 0.027387 0.814888 0.549206
Si Si3 0.276986 0.994228 0.451880
Si Si4 0.527693 0.815204 0.547650
Si Si5 0.904339 0.000210 0.935434
Si Si6 0.870336 0.882269 0.438980
Si Si7 0.632936 0.385313 0.952294
Si Si8 0.695569 0.876917 0.952481
O O1 0.782722 0.250000 0.500000
O O2 0.789919 0.182359 0.250000
O O3 0.712393 0.150099 0.516562
O O4 0.881536 0.162864 0.505708
O O5 0.027031 0.750000 0.500000
O O6 0.019538 0.821125 0.750000
O O7 0.950464 0.844116 0.461367
O O8 0.270029 0.995341 0.250000
O O9 0.182936 0.977261 0.517460
O O10 0.346753 0.949046 0.499794
O O11 0.302536 0.057288 0.505859
O O12 0.517979 0.750000 0.500000
O O13 0.527757 0.817281 0.750000
O O14 0.451273 0.854677 0.488333
O O15 0.615111 0.842381 0.489075
O O16 0.909529 0.024574 0.750000
O O17 0.881346 0.934290 0.936691
O O18 0.000000 0.000000 0.000000
O O19 0.867446 0.904663 0.250000
O O20 0.783082 0.852644 0.480809
O O21 0.631844 0.382740 0.750000
O O22 0.696264 0.875912 0.750000
#
# Coordination Sequence:
#
# PCOD9437047 Si02
#       8
#     8   8   8   8   8   8   8   8
#     4   9  19  34  52  76 108 147 186 231 285 343
#     4  10  20  35  53  77 109 149 192 237 288 347
#     4   9  20  37  56  82 114 153 197 237 288 347
#     4  10  22  40  63  89 117 150 192 242 298 355
#     4  10  21  37  56  82 116 154 196 242 287 338
#     4  11  22  36  56  83 112 148 191 239 290 348
#     4  10  21  36  56  86 119 150 188 237 292 351
#     4   9  20  41  61  80 115 155 192 243 299 349
#
# _framework density 21.051127000000001
#
# number of rings (size 3 to 8) (size 9 to 14) (size 15 to 20)
#    0.000    2.250    0.000    3.000    1.750    5.500 
#    0.000    1.250    0.000    0.000    0.000    0.000 
#    0.000    0.000    0.000    0.000    0.000    0.000 
#
# Total GULP energy -356984.296792 kJ/mol
# GULP energy per Si atom -5577.879637 kJ/mol
# Density = 2.100321 g / cm^3
# Si number density = 21.051127 Si / 1000 Ang^3
#
#
#
# Elastic Constant Matrix: (Units=GPa)
#
#
# Indices 1 2 3 4 5 6 
#
# 1 136.9243 25.0338 19.4906 0.0000 0.0000 0.0000
# 2 25.0338 37.4711 1.1676 0.0000 0.0000 0.0000
# 3 19.4906 1.1676 36.8180 0.0000 0.0000 0.0000
# 4 0.0000 0.0000 0.0000 24.1748 0.0000 0.0000
# 5 0.0000 0.0000 0.0000 0.0000 5.8798 0.0000
# 6 0.0000 0.0000 0.0000 0.0000 0.0000 40.3641
#
#
#
# Elastic Compliance Matrix: (Units=1/GPa)
#
#
# Indices 1 2 3 4 5 6 
#
# 1 0.009035 -0.005893 -0.004596 0.000000 0.000000 0.000000
# 2 -0.005893 0.030557 0.002150 0.000000 0.000000 0.000000
# 3 -0.004596 0.002150 0.029525 0.000000 0.000000 0.000000
# 4 0.000000 0.000000 0.000000 0.041365 0.000000 0.000000
# 5 0.000000 0.000000 0.000000 0.000000 0.170073 0.000000
# 6 0.000000 0.000000 0.000000 0.000000 0.000000 0.024774
#
#
# Mechanical properties :
#
#
# Convention : Reuss Voigt Hill
#
# Bulk Modulus (GPa) = 19.06912 33.62194 26.34553
# Shear Modulus (GPa) = 14.72809 25.11851 19.92330
#
# Velocity S-wave (km/s) = 2.64793 3.45804 3.07974
# Velocity P-wave (km/s) = 4.29265 5.65246 5.01882
#
# Compressibility (1/GPa) = 0.05244079
#
# Stress axis : x y z
#
# Youngs Moduli (GPa) = 110.68169 32.72552 33.86909
#
# Poissons Ratio (x) = 0.19285 0.15566
# Poissons Ratio (y) = 0.65223 -0.07284
# Poissons Ratio (z) = 0.50869 -0.07038
#
# Static dielectric constant tensor:
#      x y z
#    x 1.807150 0.000000 0.000000 
#    y 0.000000 1.698210 0.000000 
#    z 0.000000 0.000000 1.779000 
# 
# From -- ./inp_files/5550.got.cif
#   From: 2010.05.17/outbox.cif.g08.bks.cpg/sg57_3_cif.got.tgz:5550.got - 2010.06.03 13:58:18.
