data_PCOD9437400
_publ_section_title
;
Structure prediction by ZEFSAII (Michael W. Deem and Ramdas Pophale) SiO2 
 PCOD9437400
Probable space group: P B C M
;
_chemical_formula_sum "Si O2"
_cell_formula_units_Z 40
_cell_length_a 26.269212
_cell_length_b 9.631931
_cell_length_c 8.582523
_cell_angle_alpha 90.000000
_cell_angle_beta 90.000000
_cell_angle_gamma 90.000000
_cell_volume 2171.577755
_symmetry_space_group_name_H-M "P B C M"
_symmetry_group_IT_number 57
_symmetry_cell_setting 'orthorhombic'
loop_
_space_group_symop_operation_xyz
x,y,z
-x,-y,1/2+z
x,1/2-y,-z
-x,1/2+y,1/2-z
-x,-y,-z
x,y,1/2-z
-x,1/2+y,z
x,1/2-y,1/2+z
loop_
_atom_site_type_symbol
_atom_site_label
_atom_site_fract_x
_atom_site_fract_y
_atom_site_fract_z
Si Si1 0.636401 0.094211 0.562224
Si Si2 0.247330 0.903196 0.062566
Si Si3 0.954338 0.906943 0.063708
Si Si4 0.546292 0.906797 0.063748
Si Si5 0.154071 0.405822 0.937642
O O1 0.625410 0.250000 0.500000
O O2 0.632374 0.095071 0.750000
O O3 0.694795 0.059606 0.516624
O O4 0.597450 0.983766 0.492524
O O5 0.246646 0.899994 0.250000
O O6 0.202936 0.006166 0.011015
O O7 0.236990 0.750000 0.000000
O O8 0.954631 0.904349 0.250000
O O9 0.959642 0.750000 0.000000
O O10 0.899543 0.960489 0.003599
O O11 0.000000 0.000000 0.000000
O O12 0.544228 0.903301 0.250000
O O13 0.543347 0.750000 0.000000
O O14 0.500000 0.000000 0.000000
O O15 0.151447 0.404444 0.750000
O O16 0.159465 0.250000 0.000000
#
# Coordination Sequence:
#
# PCOD9437400 Si02
#       5
#     8   8   8   8   8
#     4  10  20  38  60  86 117 152 190 233 280 332
#     4   9  20  36  57  83 114 148 187 229 275 328
#     4  11  22  38  58  82 110 145 185 231 281 335
#     4  12  25  42  62  87 116 151 190 234 282 335
#     4  10  20  36  55  80 111 146 185 229 277 332
#
# _framework density 18.419786999999999
#
# number of rings (size 3 to 8) (size 9 to 14) (size 15 to 20)
#    0.000    1.600    0.000    6.600    0.000    4.000 
#    0.000    4.000    0.000    0.000    0.000    0.000 
#    0.000    0.000    0.000    0.000    0.000    0.000 
#
# Total GULP energy -223507.830720 kJ/mol
# GULP energy per Si atom -5587.695768 kJ/mol
# Density = 1.837786 g / cm^3
# Si number density = 18.419787 Si / 1000 Ang^3
#
#
#
# Elastic Constant Matrix: (Units=GPa)
#
#
# Indices 1 2 3 4 5 6 
#
# 1 176.9092 118.1776 64.0611 0.0000 0.0000 0.0000
# 2 118.1776 121.5551 54.0164 0.0000 0.0000 0.0000
# 3 64.0611 54.0164 123.3775 0.0000 0.0000 0.0000
# 4 0.0000 0.0000 0.0000 35.6289 0.0000 0.0000
# 5 0.0000 0.0000 0.0000 0.0000 31.0156 0.0000
# 6 0.0000 0.0000 0.0000 0.0000 0.0000 43.5773
#
#
#
# Elastic Compliance Matrix: (Units=1/GPa)
#
#
# Indices 1 2 3 4 5 6 
#
# 1 0.016482 -0.015173 -0.001915 0.000000 0.000000 0.000000
# 2 -0.015173 0.024182 -0.002709 0.000000 0.000000 0.000000
# 3 -0.001915 -0.002709 0.010285 0.000000 0.000000 0.000000
# 4 0.000000 0.000000 0.000000 0.028067 0.000000 0.000000
# 5 0.000000 0.000000 0.000000 0.000000 0.032242 0.000000
# 6 0.000000 0.000000 0.000000 0.000000 0.000000 0.022948
#
#
# Mechanical properties :
#
#
# Convention : Reuss Voigt Hill
#
# Bulk Modulus (GPa) = 88.06216 99.37245 93.71730
# Shear Modulus (GPa) = 28.15575 34.41681 31.28628
#
# Velocity S-wave (km/s) = 3.91392 4.32727 4.12578
# Velocity P-wave (km/s) = 8.26664 8.89004 8.58400
#
# Compressibility (1/GPa) = 0.01135562
#
# Stress axis : x y z
#
# Youngs Moduli (GPa) = 60.67383 41.35371 97.22433
#
# Poissons Ratio (x) = 0.62745 0.18617
# Poissons Ratio (y) = 0.92058 0.26338
# Poissons Ratio (z) = 0.11618 0.11203
#
# Static dielectric constant tensor:
#      x y z
#    x 1.645290 0.000000 0.000000 
#    y 0.000000 1.595070 0.000000 
#    z 0.000000 0.000000 1.618700 
# 
# From -- ./inp_files/8904.got.cif
#   From: 2010.05.17/outbox.cif.g08.bks.cpg/sg57_5_cif.got.tgz:8904.got - 2010.06.03 13:58:18.
