data_PCOD9437569
_publ_section_title
;
Structure prediction by ZEFSAII (Michael W. Deem and Ramdas Pophale) SiO2 
 PCOD9437569
Probable space group: P B C M
;
_chemical_formula_sum "Si O2"
_cell_formula_units_Z 40
_cell_length_a 13.160313
_cell_length_b 18.655463
_cell_length_c 8.775922
_cell_angle_alpha 90.000000
_cell_angle_beta 90.000000
_cell_angle_gamma 90.000000
_cell_volume 2154.591812
_symmetry_space_group_name_H-M "P B C M"
_symmetry_group_IT_number 57
_symmetry_cell_setting 'orthorhombic'
loop_
_space_group_symop_operation_xyz
x,y,z
-x,-y,1/2+z
x,1/2-y,-z
-x,1/2+y,1/2-z
-x,-y,-z
x,y,1/2-z
-x,1/2+y,z
x,1/2-y,1/2+z
loop_
_atom_site_type_symbol
_atom_site_label
_atom_site_fract_x
_atom_site_fract_y
_atom_site_fract_z
Si Si1 0.891603 0.918596 0.933319
Si Si2 0.693170 0.829420 0.934023
Si Si3 0.496057 0.579467 0.433873
Si Si4 0.701302 0.170817 0.067281
Si Si5 0.110036 0.913604 0.068111
O O1 0.903153 0.914219 0.750000
O O2 0.796024 0.870631 0.979935
O O3 0.872530 0.002327 0.970928
O O4 0.996867 0.895899 0.010643
O O5 0.692305 0.825703 0.750000
O O6 0.594804 0.875129 0.981842
O O7 0.689665 0.750000 0.000000
O O8 0.500000 0.500000 0.500000
O O9 0.497081 0.575024 0.250000
O O10 0.393955 0.621299 0.480086
O O11 0.702392 0.174852 0.250000
O O12 0.689850 0.250000 0.000000
O O13 0.804697 0.134763 0.008883
O O14 0.115733 0.906090 0.250000
#
# Coordination Sequence:
#
# PCOD9437569 Si02
#       5
#     8   8   8   8   8
#     4   9  19  36  57  81 112 148 187 231 276 329
#     4  10  21  37  56  81 113 146 181 224 274 326
#     4  10  22  39  60  85 112 144 183 227 274 327
#     4  11  23  38  57  83 115 149 186 229 278 333
#     4  10  20  36  59  83 110 147 189 234 281 328
#
# _framework density 18.565000999999999
#
# number of rings (size 3 to 8) (size 9 to 14) (size 15 to 20)
#    0.000    2.000    0.000    3.000    0.000    6.400 
#    0.000    2.000    0.000    0.000    0.000    0.000 
#    0.000    0.000    0.000    0.000    0.000    0.000 
#
# Total GULP energy -223505.667956 kJ/mol
# GULP energy per Si atom -5587.641699 kJ/mol
# Density = 1.852275 g / cm^3
# Si number density = 18.565001 Si / 1000 Ang^3
#
#
#
# Elastic Constant Matrix: (Units=GPa)
#
#
# Indices 1 2 3 4 5 6 
#
# 1 158.3376 104.4054 43.6606 0.0000 0.0000 0.0000
# 2 104.4054 146.2044 40.7759 0.0000 0.0000 0.0000
# 3 43.6606 40.7759 28.2767 0.0000 0.0000 0.0000
# 4 0.0000 0.0000 0.0000 35.3695 0.0000 0.0000
# 5 0.0000 0.0000 0.0000 0.0000 3.1035 0.0000
# 6 0.0000 0.0000 0.0000 0.0000 0.0000 -12.3141
#
#
#
# Elastic Compliance Matrix: (Units=1/GPa)
#
#
# Indices 1 2 3 4 5 6 
#
# 1 0.014031 -0.006653 -0.012070 0.000000 0.000000 0.000000
# 2 -0.006653 0.014596 -0.010775 0.000000 0.000000 0.000000
# 3 -0.012070 -0.010775 0.069540 0.000000 0.000000 0.000000
# 4 0.000000 0.000000 0.000000 0.028273 0.000000 0.000000
# 5 0.000000 0.000000 0.000000 0.000000 0.322218 0.000000
# 6 0.000000 0.000000 0.000000 0.000000 0.000000 -0.081208
#
#
# Mechanical properties :
#
#
# Convention : Reuss Voigt Hill
#
# Bulk Modulus (GPa) = 25.52996 78.94471 52.23733
# Shear Modulus (GPa) = 11.37648 14.83023 13.10336
#
# Velocity S-wave (km/s) = 2.47815 2.82942 2.65959
# Velocity P-wave (km/s) = 4.68720 7.29999 6.13432
#
# Compressibility (1/GPa) = 0.03916967
#
# Stress axis : x y z
#
# Youngs Moduli (GPa) = 71.27095 68.51225 14.38030
#
# Poissons Ratio (x) = 0.45583 0.17357
# Poissons Ratio (y) = 0.47418 0.15495
# Poissons Ratio (z) = 0.86026 0.73821
#
# Static dielectric constant tensor:
#      x y z
#    x 1.619910 0.000000 0.000000 
#    y 0.000000 1.603050 0.000000 
#    z 0.000000 0.000000 1.626390 
# 
# From -- ./inp_files/2631.got.cif
#   From: 2010.05.17/outbox.cif.g08.bks.cpg/sg57_2_cif.got.tgz:2631.got - 2010.06.03 13:58:18.
