data_PCOD9437646
_publ_section_title
;
Structure prediction by ZEFSAII (Michael W. Deem and Ramdas Pophale) SiO2 
 PCOD9437646
Probable space group: P B C M
;
_chemical_formula_sum "Si O2"
_cell_formula_units_Z 64
_cell_length_a 22.337527
_cell_length_b 9.365350
_cell_length_c 14.169140
_cell_angle_alpha 90.000000
_cell_angle_beta 90.000000
_cell_angle_gamma 90.000000
_cell_volume 2964.166497
_symmetry_space_group_name_H-M "P B C M"
_symmetry_group_IT_number 57
_symmetry_cell_setting 'orthorhombic'
loop_
_space_group_symop_operation_xyz
x,y,z
-x,-y,1/2+z
x,1/2-y,-z
-x,1/2+y,1/2-z
-x,-y,-z
x,y,1/2-z
-x,1/2+y,z
x,1/2-y,1/2+z
loop_
_atom_site_type_symbol
_atom_site_label
_atom_site_fract_x
_atom_site_fract_y
_atom_site_fract_z
Si Si1 0.298546 0.898161 0.517728
Si Si2 0.527772 0.031325 0.636091
Si Si3 0.580558 0.158312 0.134939
Si Si4 0.349465 0.405695 0.637744
Si Si5 0.265701 0.144918 0.854102
Si Si6 0.914832 0.400944 0.526228
Si Si7 0.135938 0.317262 0.397445
Si Si8 0.964052 0.595511 0.141814
O O1 0.266179 0.750000 0.500000
O O2 0.357135 0.862871 0.581409
O O3 0.318598 0.968489 0.419956
O O4 0.262727 0.016828 0.573404
O O5 0.523140 0.036336 0.750000
O O6 0.550073 0.189334 0.609288
O O7 0.464487 0.968588 0.604175
O O8 0.580411 0.917813 0.614283
O O9 0.587921 0.156133 0.250000
O O10 0.343354 0.427379 0.750000
O O11 0.315769 0.258821 0.615369
O O12 0.283186 0.093514 0.750000
O O13 0.199528 0.209935 0.849591
O O14 0.886011 0.250000 0.500000
O O15 0.878614 0.516175 0.587912
O O16 0.933302 0.480286 0.428385
O O17 0.974501 0.368456 0.587646
O O18 0.143102 0.250000 0.500000
O O19 0.079220 0.233651 0.355908
O O20 0.973292 0.546938 0.250000
#
# Coordination Sequence:
#
# PCOD9437646 Si02
#       8
#     8   8   8   8   8   8   8   8
#     4  12  24  40  62  92 124 162 202 256 315 372
#     4   9  19  36  59  88 124 162 201 249 304 364
#     4  10  21  38  60  91 127 164 205 252 310 372
#     4  10  22  42  63  87 121 162 209 256 306 364
#     4  11  25  44  68  92 118 160 211 260 308 370
#     4  10  21  36  58  93 131 165 204 256 310 362
#     4  10  21  40  64  91 126 166 210 254 303 370
#     4  10  20  36  60  90 128 172 213 254 303 360
#
# _framework density 21.591228999999998
#
# number of rings (size 3 to 8) (size 9 to 14) (size 15 to 20)
#    0.000    1.750    1.250    3.750    1.750    4.000 
#    0.000    0.000    0.000    0.000    0.000    0.000 
#    0.000    0.000    0.000    0.000    0.000    0.000 
#
# Total GULP energy -357567.228402 kJ/mol
# GULP energy per Si atom -5586.987944 kJ/mol
# Density = 2.154209 g / cm^3
# Si number density = 21.591229 Si / 1000 Ang^3
#
#
#
# Elastic Constant Matrix: (Units=GPa)
#
#
# Indices 1 2 3 4 5 6 
#
# 1 72.0472 24.9292 13.1366 0.0000 0.0000 0.0000
# 2 24.9292 86.7633 17.9459 0.0000 0.0000 0.0000
# 3 13.1366 17.9459 102.6360 0.0000 0.0000 0.0000
# 4 0.0000 0.0000 0.0000 21.1976 0.0000 0.0000
# 5 0.0000 0.0000 0.0000 0.0000 25.7556 0.0000
# 6 0.0000 0.0000 0.0000 0.0000 0.0000 12.3470
#
#
#
# Elastic Compliance Matrix: (Units=1/GPa)
#
#
# Indices 1 2 3 4 5 6 
#
# 1 0.015566 -0.004213 -0.001256 0.000000 0.000000 0.000000
# 2 -0.004213 0.013098 -0.001751 0.000000 0.000000 0.000000
# 3 -0.001256 -0.001751 0.010210 0.000000 0.000000 0.000000
# 4 0.000000 0.000000 0.000000 0.047175 0.000000 0.000000
# 5 0.000000 0.000000 0.000000 0.000000 0.038827 0.000000
# 6 0.000000 0.000000 0.000000 0.000000 0.000000 0.080991
#
#
# Mechanical properties :
#
#
# Convention : Reuss Voigt Hill
#
# Bulk Modulus (GPa) = 40.92417 41.49669 41.21043
# Shear Modulus (GPa) = 21.88645 25.55570 23.72107
#
# Velocity S-wave (km/s) = 3.18728 3.44410 3.31818
# Velocity P-wave (km/s) = 5.70440 5.92256 5.81451
#
# Compressibility (1/GPa) = 0.02443544
#
# Stress axis : x y z
#
# Youngs Moduli (GPa) = 64.24066 76.34607 97.94260
#
# Poissons Ratio (x) = 0.32164 0.12299
# Poissons Ratio (y) = 0.27064 0.17150
# Poissons Ratio (z) = 0.08067 0.13368
#
# Static dielectric constant tensor:
#      x y z
#    x 1.775110 0.000000 0.000000 
#    y 0.000000 1.801370 0.000000 
#    z 0.000000 0.000000 1.771110 
# 
# From -- ./inp_files/19497.got.cif
#   From: 2010.05.17/outbox.cif.g08.bks.cpg/sg57_10_cif.got.tgz:19497.got - 2010.06.03 13:58:18.
