data_PCOD9437285
_publ_section_title
;
Structure prediction by ZEFSAII (Michael W. Deem and Ramdas Pophale) SiO2 
 PCOD9437285
Probable space group: P B C M
;
_chemical_formula_sum "Si O2"
_cell_formula_units_Z 56
_cell_length_a 21.804170
_cell_length_b 15.161712
_cell_length_c 8.948438
_cell_angle_alpha 90.000000
_cell_angle_beta 90.000000
_cell_angle_gamma 90.000000
_cell_volume 2958.251107
_symmetry_space_group_name_H-M "P B C M"
_symmetry_group_IT_number 57
_symmetry_cell_setting 'orthorhombic'
loop_
_space_group_symop_operation_xyz
x,y,z
-x,-y,1/2+z
x,1/2-y,-z
-x,1/2+y,1/2-z
-x,-y,-z
x,y,1/2-z
-x,1/2+y,z
x,1/2-y,1/2+z
loop_
_atom_site_type_symbol
_atom_site_label
_atom_site_fract_x
_atom_site_fract_y
_atom_site_fract_z
Si Si1 0.088979 0.508609 0.071179
Si Si2 0.568292 0.100388 0.072073
Si Si3 0.689546 0.834696 0.424784
Si Si4 0.232876 0.988267 0.924661
Si Si5 0.308879 0.836686 0.425804
Si Si6 0.431333 0.093947 0.428528
Si Si7 0.000518 0.651357 0.929709
O O1 0.080328 0.520384 0.250000
O O2 0.161177 0.505380 0.039903
O O3 0.056321 0.415121 0.032226
O O4 0.057214 0.591492 0.989067
O O5 0.578397 0.100587 0.250000
O O6 0.499065 0.133028 0.042016
O O7 0.623072 0.150315 0.992023
O O8 0.570844 0.000408 0.010926
O O9 0.719433 0.750000 0.500000
O O10 0.677623 0.820187 0.250000
O O11 0.625505 0.852119 0.508623
O O12 0.732998 0.918804 0.440501
O O13 0.239206 0.961200 0.750000
O O14 0.268381 0.919502 0.026836
O O15 0.281088 0.750000 0.500000
O O16 0.312571 0.827362 0.250000
O O17 0.425773 0.081284 0.250000
O O18 0.003413 0.660203 0.750000
O O19 0.997659 0.750000 0.000000
#
# Coordination Sequence:
#
# PCOD9437285 Si02
#       7
#     8   8   8   8   8   8   8
#     4   9  20  39  62  88 120 159 200 240 288 342
#     4  10  20  36  58  84 114 148 189 242 301 359
#     4  11  23  38  59  84 116 154 196 245 297 354
#     4  10  22  42  63  85 118 157 197 245 294 344
#     4  12  25  40  61  86 115 153 198 246 299 358
#     4  10  20  35  58  85 113 148 192 241 299 361
#     4  10  20  36  61  93 126 159 196 239 287 336
#
# _framework density 18.930104
#
# number of rings (size 3 to 8) (size 9 to 14) (size 15 to 20)
#    0.000    1.714    1.429    3.000    0.000    5.143 
#    0.000    0.000    0.000    0.000    0.000    0.000 
#    0.000    0.000    0.000    0.000    0.000    0.000 
#
# Total GULP energy -312750.746846 kJ/mol
# GULP energy per Si atom -5584.834765 kJ/mol
# Density = 1.888702 g / cm^3
# Si number density = 18.930104 Si / 1000 Ang^3
#
#
#
# Elastic Constant Matrix: (Units=GPa)
#
#
# Indices 1 2 3 4 5 6 
#
# 1 102.8568 37.0751 63.1237 0.0000 0.0000 0.0000
# 2 37.0751 110.9850 64.7028 0.0000 0.0000 0.0000
# 3 63.1237 64.7028 110.7978 0.0000 0.0000 0.0000
# 4 0.0000 0.0000 0.0000 29.9630 0.0000 0.0000
# 5 0.0000 0.0000 0.0000 0.0000 48.8013 0.0000
# 6 0.0000 0.0000 0.0000 0.0000 0.0000 -86.6517
#
#
#
# Elastic Compliance Matrix: (Units=1/GPa)
#
#
# Indices 1 2 3 4 5 6 
#
# 1 0.014949 -0.000043 -0.008491 0.000000 0.000000 0.000000
# 2 -0.000043 0.013661 -0.007953 0.000000 0.000000 0.000000
# 3 -0.008491 -0.007953 0.018508 0.000000 0.000000 0.000000
# 4 0.000000 0.000000 0.000000 0.033374 0.000000 0.000000
# 5 0.000000 0.000000 0.000000 0.000000 0.020491 0.000000
# 6 0.000000 0.000000 0.000000 0.000000 0.000000 -0.011540
#
#
# Mechanical properties :
#
#
# Convention : Reuss Voigt Hill
#
# Bulk Modulus (GPa) = 70.71093 72.71589 71.71341
# Shear Modulus (GPa) = 39.32884 9.07173 24.20029
#
# Velocity S-wave (km/s) = 4.56299 2.19149 3.57935
# Velocity P-wave (km/s) = 8.07440 6.70073 7.41943
#
# Compressibility (1/GPa) = 0.01414209
#
# Stress axis : x y z
#
# Youngs Moduli (GPa) = 66.89338 73.19978 54.03197
#
# Poissons Ratio (x) = 0.00318 0.45881
# Poissons Ratio (y) = 0.00290 0.42972
# Poissons Ratio (z) = 0.56802 0.58216
#
# Static dielectric constant tensor:
#      x y z
#    x 1.647950 0.000000 0.000000 
#    y 0.000000 1.927630 0.000000 
#    z 0.000000 0.000000 1.636430 
# 
# From -- ./inp_files/8168.got.cif
#   From: 2010.05.17/outbox.cif.g08.bks.cpg/sg57_5_cif.got.tgz:8168.got - 2010.06.03 13:58:18.
