data_PCOD9437979
_publ_section_title
;
Structure prediction by ZEFSAII (Michael W. Deem and Ramdas Pophale) SiO2 
 PCOD9437979
Probable space group: P B C M
;
_chemical_formula_sum "Si O2"
_cell_formula_units_Z 40
_cell_length_a 6.030322
_cell_length_b 13.216463
_cell_length_c 24.377443
_cell_angle_alpha 90.000000
_cell_angle_beta 90.000000
_cell_angle_gamma 90.000000
_cell_volume 1942.870691
_symmetry_space_group_name_H-M "P B C M"
_symmetry_group_IT_number 57
_symmetry_cell_setting 'orthorhombic'
loop_
_space_group_symop_operation_xyz
x,y,z
-x,-y,1/2+z
x,1/2-y,-z
-x,1/2+y,1/2-z
-x,-y,-z
x,y,1/2-z
-x,1/2+y,z
x,1/2-y,1/2+z
loop_
_atom_site_type_symbol
_atom_site_label
_atom_site_fract_x
_atom_site_fract_y
_atom_site_fract_z
Si Si1 0.066663 0.738971 0.311836
Si Si2 0.688716 0.729808 0.901996
Si Si3 0.927254 0.951117 0.443482
Si Si4 0.687993 0.418738 0.144374
Si Si5 0.596999 0.095062 0.123781
O O1 0.004167 0.711830 0.250000
O O2 0.175323 0.851291 0.313017
O O3 0.246970 0.661977 0.337113
O O4 0.862881 0.742994 0.354055
O O5 0.819431 0.661458 0.946089
O O6 0.504206 0.654815 0.877512
O O7 0.554092 0.831815 0.914217
O O8 0.752289 0.025156 0.413781
O O9 0.000000 0.000000 0.500000
O O10 0.140223 0.941930 0.404308
O O11 0.565636 0.522692 0.158752
#
# Coordination Sequence:
#
# PCOD9437979 Si02
#       5
#     8   8   8   8   8
#     4  10  21  38  60  86 117 155 199 243 290 349
#     4   9  20  38  57  85 121 152 192 242 287 346
#     4  10  21  40  62  86 119 157 197 241 293 351
#     4   9  20  39  58  82 117 151 191 244 292 344
#     4  10  20  38  60  86 121 154 193 246 296 348
#
# _framework density 20.588093000000001
#
# number of rings (size 3 to 8) (size 9 to 14) (size 15 to 20)
#    0.000    2.400    0.000    1.200    0.000    7.200 
#    0.000   38.000    0.000    0.000    0.000    0.000 
#    0.000    0.000    0.000    0.000    0.000    0.000 
#
# Total GULP energy -223103.369994 kJ/mol
# GULP energy per Si atom -5577.584250 kJ/mol
# Density = 2.054123 g / cm^3
# Si number density = 20.588093 Si / 1000 Ang^3
#
#
#
# Elastic Constant Matrix: (Units=GPa)
#
#
# Indices 1 2 3 4 5 6 
#
# 1 109.0065 45.6814 10.1245 0.0000 0.0000 0.0000
# 2 45.6814 111.0914 13.7391 0.0000 0.0000 0.0000
# 3 10.1245 13.7391 51.5164 0.0000 0.0000 0.0000
# 4 0.0000 0.0000 0.0000 14.4012 0.0000 0.0000
# 5 0.0000 0.0000 0.0000 0.0000 5.0623 0.0000
# 6 0.0000 0.0000 0.0000 0.0000 0.0000 53.9061
#
#
#
# Elastic Compliance Matrix: (Units=1/GPa)
#
#
# Indices 1 2 3 4 5 6 
#
# 1 0.011133 -0.004454 -0.001000 0.000000 0.000000 0.000000
# 2 -0.004454 0.011091 -0.002082 0.000000 0.000000 0.000000
# 3 -0.001000 -0.002082 0.020163 0.000000 0.000000 0.000000
# 4 0.000000 0.000000 0.000000 0.069438 0.000000 0.000000
# 5 0.000000 0.000000 0.000000 0.000000 0.197538 0.000000
# 6 0.000000 0.000000 0.000000 0.000000 0.000000 0.018551
#
#
# Mechanical properties :
#
#
# Convention : Reuss Voigt Hill
#
# Bulk Modulus (GPa) = 36.61184 45.63381 41.12283
# Shear Modulus (GPa) = 14.20079 28.14521 21.17300
#
# Velocity S-wave (km/s) = 2.62917 3.70139 3.21036
# Velocity P-wave (km/s) = 5.19984 6.36242 5.81028
#
# Compressibility (1/GPa) = 0.02731357
#
# Stress axis : x y z
#
# Youngs Moduli (GPa) = 89.82008 90.16466 49.59527
#
# Poissons Ratio (x) = 0.40163 0.04960
# Poissons Ratio (y) = 0.40010 0.10328
# Poissons Ratio (z) = 0.08983 0.18776
#
# Static dielectric constant tensor:
#      x y z
#    x 1.732130 0.000000 0.000000 
#    y 0.000000 1.793470 0.000000 
#    z 0.000000 0.000000 1.709400 
# 
# From -- ./inp_files/26102.got.cif
#   From: 2010.05.17/outbox.cif.g08.bks.cpg/sg57_14_cif.got.tgz:26102.got - 2010.06.03 13:58:18.
