data_PCOD9437034
_publ_section_title
;
Structure prediction by ZEFSAII (Michael W. Deem and Ramdas Pophale) SiO2 
 PCOD9437034
Probable space group: P B C M
;
_chemical_formula_sum "Si O2"
_cell_formula_units_Z 56
_cell_length_a 9.343459
_cell_length_b 9.776765
_cell_length_c 25.864221
_cell_angle_alpha 90.000000
_cell_angle_beta 90.000000
_cell_angle_gamma 90.000000
_cell_volume 2362.665627
_symmetry_space_group_name_H-M "P B C M"
_symmetry_group_IT_number 57
_symmetry_cell_setting 'orthorhombic'
loop_
_space_group_symop_operation_xyz
x,y,z
-x,-y,1/2+z
x,1/2-y,-z
-x,1/2+y,1/2-z
-x,-y,-z
x,y,1/2-z
-x,1/2+y,z
x,1/2-y,1/2+z
loop_
_atom_site_type_symbol
_atom_site_label
_atom_site_fract_x
_atom_site_fract_y
_atom_site_fract_z
Si Si1 0.324849 0.271622 0.943744
Si Si2 0.782064 0.036850 0.890618
Si Si3 0.674365 0.603739 0.848736
Si Si4 0.985431 0.632044 0.535426
Si Si5 0.208320 0.677074 0.144023
Si Si6 0.648940 0.240127 0.250000
Si Si7 0.106878 0.171657 0.311517
Si Si8 0.492259 0.506468 0.750000
O O1 0.297265 0.429970 0.928459
O O2 0.391084 0.198156 0.893797
O O3 0.167925 0.197662 0.950047
O O4 0.394384 0.250000 0.000000
O O5 0.806214 0.953639 0.837664
O O6 0.725263 0.189813 0.883092
O O7 0.934646 0.078702 0.914359
O O8 0.737239 0.467930 0.876030
O O9 0.800582 0.692234 0.822343
O O10 0.568995 0.558651 0.802696
O O11 0.058220 0.750000 0.500000
O O12 0.000000 0.500000 0.500000
O O13 0.269793 0.685821 0.201215
O O14 0.038385 0.680152 0.154532
O O15 0.647220 0.402043 0.250000
O O16 0.496716 0.157674 0.250000
O O17 0.081132 0.155854 0.250000
#
# Coordination Sequence:
#
# PCOD9437034 Si02
#       8
#     8   8   8   8   8   4   8   4
#     4  10  20  35  50  77 114 149 198 231 277 337
#     4  11  22  32  50  81 112 160 198 229 279 332
#     4  10  22  38  57  82 116 157 191 234 289 344
#     4  11  20  33  50  73 113 161 202 240 273 326
#     4  11  22  35  55  84 118 149 195 235 283 344
#     4  10  24  41  60  86 112 147 189 248 289 348
#     4  11  21  34  54  80 123 160 187 224 281 355
#     4  10  22  43  62  84 112 145 195 240 299 344
#
# _framework density 23.702041999999999
#
# number of rings (size 3 to 8) (size 9 to 14) (size 15 to 20)
#    0.000    1.429    4.286    3.429    3.000    3.429 
#    0.000    0.000    0.000    0.000    0.000   10.000 
#    0.000    0.000    0.000    0.000    0.000    0.000 
#
# Total GULP energy -312542.671664 kJ/mol
# GULP energy per Si atom -5581.119137 kJ/mol
# Density = 2.364810 g / cm^3
# Si number density = 23.702042 Si / 1000 Ang^3
#
#
#
# Elastic Constant Matrix: (Units=GPa)
#
#
# Indices 1 2 3 4 5 6 
#
# 1 23.1912 10.5736 -4.9941 0.0000 0.0000 0.0000
# 2 10.5736 168.6907 36.8906 0.0000 0.0000 0.0000
# 3 -4.9941 36.8906 107.6243 0.0000 0.0000 0.0000
# 4 0.0000 0.0000 0.0000 22.3249 0.0000 0.0000
# 5 0.0000 0.0000 0.0000 0.0000 -0.7231 0.0000
# 6 0.0000 0.0000 0.0000 0.0000 0.0000 10.5141
#
#
#
# Elastic Compliance Matrix: (Units=1/GPa)
#
#
# Indices 1 2 3 4 5 6 
#
# 1 0.045471 -0.003580 0.003337 0.000000 0.000000 0.000000
# 2 -0.003580 0.006690 -0.002459 0.000000 0.000000 0.000000
# 3 0.003337 -0.002459 0.010289 0.000000 0.000000 0.000000
# 4 0.000000 0.000000 0.000000 0.044793 0.000000 0.000000
# 5 0.000000 0.000000 0.000000 0.000000 -1.382946 0.000000
# 6 0.000000 0.000000 0.000000 0.000000 0.000000 0.095110
#
#
# Mechanical properties :
#
#
# Convention : Reuss Voigt Hill
#
# Bulk Modulus (GPa) = 17.52976 42.71628 30.12302
# Shear Modulus (GPa) = -4.32461 23.55893 9.61716
#
# Velocity S-wave (km/s) = -1.35223 3.15614 2.01651
# Velocity P-wave (km/s) = 2.23022 5.59847 4.26127
#
# Compressibility (1/GPa) = 0.05704584
#
# Stress axis : x y z
#
# Youngs Moduli (GPa) = 21.99227 149.47186 97.18714
#
# Poissons Ratio (x) = 0.53509 -0.32432
# Poissons Ratio (y) = 0.07873 0.23902
# Poissons Ratio (z) = -0.07339 0.36760
#
# Static dielectric constant tensor:
#      x y z
#    x 1.996070 0.000000 0.000000 
#    y 0.000000 1.980360 0.000000 
#    z 0.000000 0.000000 1.941320 
# 
# From -- ./inp_files/28602.got.cif
#   From: 2010.05.17/outbox.cif.g08.bks.cpg/sg57_15_cif.got.tgz:28602.got - 2010.06.03 13:58:18.
