data_PCOD9437760
_publ_section_title
;
Structure prediction by ZEFSAII (Michael W. Deem and Ramdas Pophale) SiO2 
 PCOD9437760
Probable space group: P B C M
;
_chemical_formula_sum "Si O2"
_cell_formula_units_Z 60
_cell_length_a 12.443137
_cell_length_b 12.538787
_cell_length_c 20.788550
_cell_angle_alpha 90.000000
_cell_angle_beta 90.000000
_cell_angle_gamma 90.000000
_cell_volume 3243.467915
_symmetry_space_group_name_H-M "P B C M"
_symmetry_group_IT_number 57
_symmetry_cell_setting 'orthorhombic'
loop_
_space_group_symop_operation_xyz
x,y,z
-x,-y,1/2+z
x,1/2-y,-z
-x,1/2+y,1/2-z
-x,-y,-z
x,y,1/2-z
-x,1/2+y,z
x,1/2-y,1/2+z
loop_
_atom_site_type_symbol
_atom_site_label
_atom_site_fract_x
_atom_site_fract_y
_atom_site_fract_z
Si Si1 0.584066 0.989985 0.325045
Si Si2 0.305058 0.711199 0.176605
Si Si3 0.724738 0.942732 0.517478
Si Si4 0.072182 0.894048 0.675696
Si Si5 0.092167 0.199356 0.428902
Si Si6 0.594120 0.380971 0.089819
Si Si7 0.560786 0.750000 0.000000
Si Si8 0.200053 0.411062 0.375844
O O1 0.556090 0.988515 0.250000
O O2 0.485228 0.953570 0.367937
O O3 0.689157 0.915443 0.335907
O O4 0.623912 0.108626 0.342797
O O5 0.334096 0.736569 0.250000
O O6 0.182533 0.673108 0.174912
O O7 0.327619 0.811734 0.133365
O O8 0.826788 0.898004 0.556253
O O9 0.638854 0.846308 0.519773
O O10 0.765115 0.959326 0.444857
O O11 0.664742 0.046000 0.543320
O O12 0.030378 0.891327 0.750000
O O13 0.997359 0.845587 0.619789
O O14 0.111397 0.013755 0.657486
O O15 0.060599 0.250000 0.500000
O O16 0.154695 0.294730 0.392292
O O17 0.516318 0.298922 0.053534
#
# Coordination Sequence:
#
# PCOD9437760 Si02
#       8
#     8   8   8   8   8   8   4   8
#     4  10  20  37  59  82 115 163 205 239 299 374
#     4   9  21  40  56  83 123 155 199 253 299 365
#     4  11  22  39  59  89 120 158 205 255 301 364
#     4  10  23  40  63  90 121 162 208 256 315 376
#     4  10  22  42  64  88 120 156 205 267 309 362
#     4  12  23  33  61  90 122 160 198 251 309 355
#     4  12  22  38  56  90 128 158 196 248 298 368
#     4  10  20  39  61  83 118 157 200 250 305 367
#
# _framework density 18.498718
#
# number of rings (size 3 to 8) (size 9 to 14) (size 15 to 20)
#    0.000    1.600    3.333    2.800    3.733    5.333 
#    0.000    2.667    0.000    0.000    0.000    0.000 
#    0.000    0.000    0.000    0.000    0.000    0.000 
#
# Total GULP energy -334812.041503 kJ/mol
# GULP energy per Si atom -5580.200692 kJ/mol
# Density = 1.845661 g / cm^3
# Si number density = 18.498718 Si / 1000 Ang^3
#
#
#
# Elastic Constant Matrix: (Units=GPa)
#
#
# Indices 1 2 3 4 5 6 
#
# 1 30.6541 -7.4099 28.5729 0.0000 0.0000 0.0000
# 2 -7.4099 19.5696 21.5809 0.0000 0.0000 0.0000
# 3 28.5729 21.5809 71.9060 0.0000 0.0000 0.0000
# 4 0.0000 0.0000 0.0000 29.2239 0.0000 0.0000
# 5 0.0000 0.0000 0.0000 0.0000 85.9933 0.0000
# 6 0.0000 0.0000 0.0000 0.0000 0.0000 16.0548
#
#
#
# Elastic Compliance Matrix: (Units=1/GPa)
#
#
# Indices 1 2 3 4 5 6 
#
# 1 -4.604886 -5.622348 3.517235 0.000000 0.000000 0.000000
# 2 -5.622348 -6.788241 4.271454 0.000000 0.000000 0.000000
# 3 3.517235 4.271454 -2.665695 0.000000 0.000000 0.000000
# 4 0.000000 0.000000 0.000000 0.034219 0.000000 0.000000
# 5 0.000000 0.000000 0.000000 0.000000 0.011629 0.000000
# 6 0.000000 0.000000 0.000000 0.000000 0.000000 0.062287
#
#
# Mechanical properties :
#
#
# Convention : Reuss Voigt Hill
#
# Bulk Modulus (GPa) = -0.10282 23.06862 11.48290
# Shear Modulus (GPa) = -0.23228 31.54678 15.65725
#
# Velocity S-wave (km/s) = -0.35474 4.13407 2.91245
# Velocity P-wave (km/s) = 0.47274 5.94010 4.18696
#
# Compressibility (1/GPa) = -9.72613887
#
# Stress axis : x y z
#
# Youngs Moduli (GPa) = -0.21716 -0.14731 -0.37514
#
# Poissons Ratio (x) = -0.82825 1.31944
# Poissons Ratio (y) = -1.22095 1.60238
# Poissons Ratio (z) = 0.76381 0.62924
#
# Static dielectric constant tensor:
#      x y z
#    x 1.643220 0.000000 0.000000 
#    y 0.000000 1.658230 0.000000 
#    z 0.000000 0.000000 1.658260 
# 
# From -- ./inp_files/25094.got.cif
#   From: 2010.05.17/outbox.cif.g08.bks.cpg/sg57_13_cif.got.tgz:25094.got - 2010.06.03 13:58:18.
