data_PCOD9437038
_publ_section_title
;
Structure prediction by ZEFSAII (Michael W. Deem and Ramdas Pophale) SiO2 
 PCOD9437038
Probable space group: P B C M
;
_chemical_formula_sum "Si O2"
_cell_formula_units_Z 48
_cell_length_a 12.296485
_cell_length_b 26.470096
_cell_length_c 8.515064
_cell_angle_alpha 90.000000
_cell_angle_beta 90.000000
_cell_angle_gamma 90.000000
_cell_volume 2771.560845
_symmetry_space_group_name_H-M "P B C M"
_symmetry_group_IT_number 57
_symmetry_cell_setting 'orthorhombic'
loop_
_space_group_symop_operation_xyz
x,y,z
-x,-y,1/2+z
x,1/2-y,-z
-x,1/2+y,1/2-z
-x,-y,-z
x,y,1/2-z
-x,1/2+y,z
x,1/2-y,1/2+z
loop_
_atom_site_type_symbol
_atom_site_label
_atom_site_fract_x
_atom_site_fract_y
_atom_site_fract_z
Si Si1 0.024745 0.115745 0.938908
Si Si2 0.470837 0.056267 0.938898
Si Si3 0.230758 0.071926 0.438914
Si Si4 0.848365 0.193466 0.435662
Si Si5 0.323930 0.881227 0.433649
Si Si6 0.139474 0.533477 0.933923
O O1 0.028023 0.113786 0.750000
O O2 0.960697 0.065499 0.001309
O O3 0.145890 0.114540 0.006972
O O4 0.948035 0.162066 0.988250
O O5 0.475233 0.054315 0.750000
O O6 0.561714 0.096851 0.992046
O O7 0.352148 0.073201 0.995116
O O8 0.500000 0.000000 0.000000
O O9 0.236572 0.070259 0.250000
O O10 0.177817 0.019445 0.502102
O O11 0.845071 0.250000 0.500000
O O12 0.863145 0.193683 0.250000
O O13 0.737307 0.163653 0.477933
O O14 0.334042 0.866910 0.250000
O O15 0.241462 0.928669 0.440960
O O16 0.114615 0.524677 0.750000
#
# Coordination Sequence:
#
# PCOD9437038 Si02
#       6
#     8   8   8   8   8   8
#     4  10  20  35  52  76 108 142 180 223 271 322
#     4  11  21  34  52  76 110 152 191 226 268 318
#     4  11  20  32  49  75 110 149 188 222 264 318
#     4  11  22  38  61  86 107 135 174 224 281 332
#     4   9  18  35  54  77 109 144 183 228 269 315
#     4   8  15  29  48  71 104 142 178 219 261 307
#
# _framework density 17.318760999999999
#
# number of rings (size 3 to 8) (size 9 to 14) (size 15 to 20)
#    0.000    2.000    1.667    4.500    0.000    1.333 
#    0.000    1.667    0.000    1.000    0.000    2.333 
#    0.000    0.000    0.000    0.000    0.000    0.000 
#
# Total GULP energy -267726.842742 kJ/mol
# GULP energy per Si atom -5577.642557 kJ/mol
# Density = 1.727934 g / cm^3
# Si number density = 17.318761 Si / 1000 Ang^3
#
#
#
# Elastic Constant Matrix: (Units=GPa)
#
#
# Indices 1 2 3 4 5 6 
#
# 1 151.9935 50.2507 32.9215 0.0000 0.0000 0.0000
# 2 50.2507 69.5218 18.8763 0.0000 0.0000 0.0000
# 3 32.9215 18.8763 57.3932 0.0000 0.0000 0.0000
# 4 0.0000 0.0000 0.0000 22.6239 0.0000 0.0000
# 5 0.0000 0.0000 0.0000 0.0000 28.4056 0.0000
# 6 0.0000 0.0000 0.0000 0.0000 0.0000 6.3387
#
#
#
# Elastic Compliance Matrix: (Units=1/GPa)
#
#
# Indices 1 2 3 4 5 6 
#
# 1 0.009211 -0.005736 -0.003397 0.000000 0.000000 0.000000
# 2 -0.005736 0.019366 -0.003079 0.000000 0.000000 0.000000
# 3 -0.003397 -0.003079 0.020385 0.000000 0.000000 0.000000
# 4 0.000000 0.000000 0.000000 0.044201 0.000000 0.000000
# 5 0.000000 0.000000 0.000000 0.000000 0.035204 0.000000
# 6 0.000000 0.000000 0.000000 0.000000 0.000000 0.157762
#
#
# Mechanical properties :
#
#
# Convention : Reuss Voigt Hill
#
# Bulk Modulus (GPa) = 40.75333 53.66728 47.21030
# Shear Modulus (GPa) = 15.68712 23.26431 19.47572
#
# Velocity S-wave (km/s) = 3.01290 3.66908 3.35706
# Velocity P-wave (km/s) = 5.97376 7.00034 6.50733
#
# Compressibility (1/GPa) = 0.02453787
#
# Stress axis : x y z
#
# Youngs Moduli (GPa) = 108.56207 51.63758 49.05524
#
# Poissons Ratio (x) = 0.29617 0.16666
# Poissons Ratio (y) = 0.62266 0.15106
# Poissons Ratio (z) = 0.36882 0.15901
#
# Static dielectric constant tensor:
#      x y z
#    x 1.609160 0.000000 0.000000 
#    y 0.000000 1.577710 0.000000 
#    z 0.000000 0.000000 1.596970 
# 
# From -- ./inp_files/3167.got.cif
#   From: 2010.05.17/outbox.cif.g08.bks.cpg/sg57_2_cif.got.tgz:3167.got - 2010.06.03 13:58:18.
