data_PCOD9437613
_publ_section_title
;
Structure prediction by ZEFSAII (Michael W. Deem and Ramdas Pophale) SiO2 
 PCOD9437613
Probable space group: P B C M
;
_chemical_formula_sum "Si O2"
_cell_formula_units_Z 48
_cell_length_a 9.543640
_cell_length_b 31.414715
_cell_length_c 8.758423
_cell_angle_alpha 90.000000
_cell_angle_beta 90.000000
_cell_angle_gamma 90.000000
_cell_volume 2625.869199
_symmetry_space_group_name_H-M "P B C M"
_symmetry_group_IT_number 57
_symmetry_cell_setting 'orthorhombic'
loop_
_space_group_symop_operation_xyz
x,y,z
-x,-y,1/2+z
x,1/2-y,-z
-x,1/2+y,1/2-z
-x,-y,-z
x,y,1/2-z
-x,1/2+y,z
x,1/2-y,1/2+z
loop_
_atom_site_type_symbol
_atom_site_label
_atom_site_fract_x
_atom_site_fract_y
_atom_site_fract_z
Si Si1 0.333284 0.203873 0.566674
Si Si2 0.845041 0.123832 0.933329
Si Si3 0.155857 0.373553 0.566705
Si Si4 0.338786 0.455590 0.933369
Si Si5 0.658603 0.295753 0.433563
Si Si6 0.334277 0.547382 0.432095
O O1 0.294349 0.250000 0.500000
O O2 0.324243 0.204709 0.750000
O O3 0.236616 0.166968 0.500723
O O4 0.496342 0.196036 0.522675
O O5 0.854459 0.124111 0.750000
O O6 0.757734 0.165686 0.982675
O O7 0.760713 0.082401 0.987482
O O8 0.998944 0.124496 0.004205
O O9 0.154913 0.370888 0.750000
O O10 0.240624 0.416302 0.523249
O O11 0.331326 0.461512 0.750000
O O12 0.501329 0.445877 0.971491
O O13 0.298796 0.499694 0.013629
O O14 0.700340 0.250000 0.500000
O O15 0.663072 0.293254 0.250000
O O16 0.319027 0.550779 0.250000
#
# Coordination Sequence:
#
# PCOD9437613 Si02
#       6
#     8   8   8   8   8   8
#     4  10  20  37  60  85 111 142 182 227 275 325
#     4  11  23  38  55  80 115 151 185 225 276 331
#     4  11  23  38  56  81 113 149 186 225 273 328
#     4   9  20  38  59  83 111 143 182 229 279 331
#     4   9  20  37  59  84 109 141 182 227 273 323
#     4  10  20  36  60  86 109 140 184 231 278 329
#
# _framework density 18.279662999999999
#
# number of rings (size 3 to 8) (size 9 to 14) (size 15 to 20)
#    0.000    2.000    0.000    3.000    0.000    5.333 
#    0.000    1.667    0.000    0.000    0.000    0.000 
#    0.000    0.000    0.000    0.000    0.000    0.000 
#
# Total GULP energy -268180.951197 kJ/mol
# GULP energy per Si atom -5587.103150 kJ/mol
# Density = 1.823806 g / cm^3
# Si number density = 18.279663 Si / 1000 Ang^3
#
#
#
# Elastic Constant Matrix: (Units=GPa)
#
#
# Indices 1 2 3 4 5 6 
#
# 1 123.4361 123.5163 51.5707 0.0000 0.0000 0.0000
# 2 123.5163 182.5590 61.5274 0.0000 0.0000 0.0000
# 3 51.5707 61.5274 51.1942 0.0000 0.0000 0.0000
# 4 0.0000 0.0000 0.0000 37.3682 0.0000 0.0000
# 5 0.0000 0.0000 0.0000 0.0000 30.8007 0.0000
# 6 0.0000 0.0000 0.0000 0.0000 0.0000 -13.0708
#
#
#
# Elastic Compliance Matrix: (Units=1/GPa)
#
#
# Indices 1 2 3 4 5 6 
#
# 1 0.027306 -0.015471 -0.008914 0.000000 0.000000 0.000000
# 2 -0.015471 0.017972 -0.006015 0.000000 0.000000 0.000000
# 3 -0.008914 -0.006015 0.035742 0.000000 0.000000 0.000000
# 4 0.000000 0.000000 0.000000 0.026761 0.000000 0.000000
# 5 0.000000 0.000000 0.000000 0.000000 0.032467 0.000000
# 6 0.000000 0.000000 0.000000 0.000000 0.000000 -0.076507
#
#
# Mechanical properties :
#
#
# Convention : Reuss Voigt Hill
#
# Bulk Modulus (GPa) = 49.45301 92.26868 70.86085
# Shear Modulus (GPa) = 38.08611 19.05795 28.57203
#
# Velocity S-wave (km/s) = 4.56952 3.23240 3.95783
# Velocity P-wave (km/s) = 7.41302 8.03224 7.72884
#
# Compressibility (1/GPa) = 0.02022122
#
# Stress axis : x y z
#
# Youngs Moduli (GPa) = 36.62151 55.64114 27.97826
#
# Poissons Ratio (x) = 0.86082 0.24939
# Poissons Ratio (y) = 0.56657 0.16830
# Poissons Ratio (z) = 0.32643 0.33469
#
# Static dielectric constant tensor:
#      x y z
#    x 1.606920 0.000000 0.000000 
#    y 0.000000 1.596100 0.000000 
#    z 0.000000 0.000000 1.627280 
# 
# From -- ./inp_files/2063.got.cif
#   From: 2010.05.17/outbox.cif.g08.bks.cpg/sg57_2_cif.got.tgz:2063.got - 2010.06.03 13:58:18.
