data_PCOD9437340
_publ_section_title
;
Structure prediction by ZEFSAII (Michael W. Deem and Ramdas Pophale) SiO2 
 PCOD9437340
Probable space group: P B C M
;
_chemical_formula_sum "Si O2"
_cell_formula_units_Z 64
_cell_length_a 6.996734
_cell_length_b 29.378450
_cell_length_c 17.910903
_cell_angle_alpha 90.000000
_cell_angle_beta 90.000000
_cell_angle_gamma 90.000000
_cell_volume 3681.643426
_symmetry_space_group_name_H-M "P B C M"
_symmetry_group_IT_number 57
_symmetry_cell_setting 'orthorhombic'
loop_
_space_group_symop_operation_xyz
x,y,z
-x,-y,1/2+z
x,1/2-y,-z
-x,1/2+y,1/2-z
-x,-y,-z
x,y,1/2-z
-x,1/2+y,z
x,1/2-y,1/2+z
loop_
_atom_site_type_symbol
_atom_site_label
_atom_site_fract_x
_atom_site_fract_y
_atom_site_fract_z
Si Si1 0.891428 0.170960 0.063271
Si Si2 0.123898 0.760146 0.338932
Si Si3 0.428694 0.796752 0.044730
Si Si4 0.152459 0.174563 0.579615
Si Si5 0.062778 0.429120 0.093591
Si Si6 0.922622 0.432556 0.924234
Si Si7 0.590632 0.502357 0.582320
Si Si8 0.803230 0.998791 0.835659
O O1 0.888315 0.209690 0.125835
O O2 0.917081 0.120539 0.094874
O O3 0.056497 0.181259 0.002245
O O4 0.699134 0.173976 0.012925
O O5 0.146681 0.760127 0.250000
O O6 0.297202 0.784197 0.384206
O O7 0.937199 0.788143 0.365283
O O8 0.622169 0.820327 0.069956
O O9 0.472240 0.750000 0.000000
O O10 0.093656 0.124160 0.606053
O O11 0.265051 0.455248 0.090488
O O12 0.924254 0.455182 0.150278
O O13 0.963690 0.435302 0.012692
O O14 0.725715 0.458392 0.906537
O O15 0.091284 0.460273 0.884436
O O16 0.500000 0.500000 0.500000
O O17 0.413645 0.504680 0.638132
O O18 0.812558 0.985812 0.750000
#
# Coordination Sequence:
#
# PCOD9437340 Si02
#       8
#     8   8   8   8   8   8   8   8
#     4   9  20  35  59  84 107 140 184 232 279 324
#     4  10  21  37  53  78 114 149 180 223 282 338
#     4   9  18  34  55  81 108 138 181 233 272 322
#     4  10  20  35  60  83 106 140 190 232 276 323
#     4  10  21  36  58  84 107 145 187 233 277 335
#     4  10  20  36  60  85 107 144 187 232 276 337
#     4  11  19  34  60  82 112 146 190 226 283 336
#     4  11  23  38  54  81 119 150 182 231 281 333
#
# _framework density 17.383541999999998
#
# number of rings (size 3 to 8) (size 9 to 14) (size 15 to 20)
#    0.000    2.000    2.500    2.625    1.750    4.500 
#    0.000    0.000    0.000    0.000    0.000    0.000 
#    0.000    0.000    0.000    0.000    0.000    0.000 
#
# Total GULP energy -357166.258702 kJ/mol
# GULP energy per Si atom -5580.722792 kJ/mol
# Density = 1.734398 g / cm^3
# Si number density = 17.383542 Si / 1000 Ang^3
#
#
#
# Elastic Constant Matrix: (Units=GPa)
#
#
# Indices 1 2 3 4 5 6 
#
# 1 99.4197 39.0833 7.4724 0.0000 0.0000 0.0000
# 2 39.0833 79.7074 29.3543 0.0000 0.0000 0.0000
# 3 7.4724 29.3543 58.6016 0.0000 0.0000 0.0000
# 4 0.0000 0.0000 0.0000 6.0874 0.0000 0.0000
# 5 0.0000 0.0000 0.0000 0.0000 12.5589 0.0000
# 6 0.0000 0.0000 0.0000 0.0000 0.0000 11.7101
#
#
#
# Elastic Compliance Matrix: (Units=1/GPa)
#
#
# Indices 1 2 3 4 5 6 
#
# 1 0.012618 -0.006860 0.001827 0.000000 0.000000 0.000000
# 2 -0.006860 0.019113 -0.008699 0.000000 0.000000 0.000000
# 3 0.001827 -0.008699 0.021189 0.000000 0.000000 0.000000
# 4 0.000000 0.000000 0.000000 0.164274 0.000000 0.000000
# 5 0.000000 0.000000 0.000000 0.000000 0.079625 0.000000
# 6 0.000000 0.000000 0.000000 0.000000 0.000000 0.085396
#
#
# Mechanical properties :
#
#
# Convention : Reuss Voigt Hill
#
# Bulk Modulus (GPa) = 39.28330 43.28320 41.28325
# Shear Modulus (GPa) = 11.95702 16.85919 14.40811
#
# Velocity S-wave (km/s) = 2.62551 3.11760 2.88207
# Velocity P-wave (km/s) = 5.64253 6.15729 5.90552
#
# Compressibility (1/GPa) = 0.02545611
#
# Stress axis : x y z
#
# Youngs Moduli (GPa) = 79.25352 52.31962 47.19429
#
# Poissons Ratio (x) = 0.35891 -0.08624
# Poissons Ratio (y) = 0.54367 0.41056
# Poissons Ratio (z) = -0.14482 0.45515
#
# Static dielectric constant tensor:
#      x y z
#    x 1.593890 0.000000 0.000000 
#    y 0.000000 1.594520 0.000000 
#    z 0.000000 0.000000 1.565850 
# 
# From -- ./inp_files/20343.got.cif
#   From: 2010.05.17/outbox.cif.g08.bks.cpg/sg57_11_cif.got.tgz:20343.got - 2010.06.03 13:58:18.
