data_PCOD9437965
_publ_section_title
;
Structure prediction by ZEFSAII (Michael W. Deem and Ramdas Pophale) SiO2 
 PCOD9437965
Probable space group: P B C M
;
_chemical_formula_sum "Si O2"
_cell_formula_units_Z 48
_cell_length_a 14.207849
_cell_length_b 10.280732
_cell_length_c 14.802764
_cell_angle_alpha 90.000000
_cell_angle_beta 90.000000
_cell_angle_gamma 90.000000
_cell_volume 2162.196630
_symmetry_space_group_name_H-M "P B C M"
_symmetry_group_IT_number 57
_symmetry_cell_setting 'orthorhombic'
loop_
_space_group_symop_operation_xyz
x,y,z
-x,-y,1/2+z
x,1/2-y,-z
-x,1/2+y,1/2-z
-x,-y,-z
x,y,1/2-z
-x,1/2+y,z
x,1/2-y,1/2+z
loop_
_atom_site_type_symbol
_atom_site_label
_atom_site_fract_x
_atom_site_fract_y
_atom_site_fract_z
Si Si1 0.879171 0.019403 0.094836
Si Si2 0.909658 0.972646 0.883713
Si Si3 0.776577 0.761788 0.109232
Si Si4 0.586288 0.391822 0.361087
Si Si5 0.564885 0.816403 0.855249
Si Si6 0.213544 0.779541 0.146566
O O1 0.822909 0.153893 0.094445
O O2 0.818172 0.901883 0.134710
O O3 0.901407 0.977291 0.992454
O O4 0.980914 0.039358 0.140442
O O5 0.864531 0.107700 0.852806
O O6 0.845482 0.851399 0.855261
O O7 0.670471 0.738088 0.139949
O O8 0.774548 0.750000 0.000000
O O9 0.586842 0.397340 0.250000
O O10 0.508616 0.288404 0.392071
O O11 0.565886 0.537882 0.394478
O O12 0.689911 0.343240 0.388195
O O13 0.538689 0.831070 0.750000
O O14 0.230108 0.736695 0.250000
#
# Coordination Sequence:
#
# PCOD9437965 Si02
#       6
#     8   8   8   8   8   8
#     4  10  22  37  61  86 112 156 198 231 277 347
#     4  10  20  41  61  80 115 159 197 228 280 345
#     4  10  21  37  58  86 116 146 193 244 284 332
#     4   9  20  36  58  83 110 150 190 230 284 349
#     4  10  20  38  60  80 110 152 193 232 285 348
#     4  11  22  37  58  89 120 145 189 243 289 334
#
# _framework density 22.199646000000001
#
# number of rings (size 3 to 8) (size 9 to 14) (size 15 to 20)
#    0.000    2.000    1.667    1.500    2.333    4.000 
#    0.000    4.167    0.000    0.000    0.000    0.000 
#    0.000    0.000    0.000    0.000    0.000    0.000 
#
# Total GULP energy -268337.792373 kJ/mol
# GULP energy per Si atom -5590.370674 kJ/mol
# Density = 2.214912 g / cm^3
# Si number density = 22.199646 Si / 1000 Ang^3
#
#
#
# Elastic Constant Matrix: (Units=GPa)
#
#
# Indices 1 2 3 4 5 6 
#
# 1 145.5666 88.5192 -6.8349 0.0000 0.0000 0.0000
# 2 88.5192 183.0729 -11.4647 0.0000 0.0000 0.0000
# 3 -6.8349 -11.4647 37.4264 0.0000 0.0000 0.0000
# 4 0.0000 0.0000 0.0000 249.0351 0.0000 0.0000
# 5 0.0000 0.0000 0.0000 0.0000 25.2528 0.0000
# 6 0.0000 0.0000 0.0000 0.0000 0.0000 39.7448
#
#
#
# Elastic Compliance Matrix: (Units=1/GPa)
#
#
# Indices 1 2 3 4 5 6 
#
# 1 0.009735 -0.004686 0.000343 0.000000 0.000000 0.000000
# 2 -0.004686 0.007824 0.001541 0.000000 0.000000 0.000000
# 3 0.000343 0.001541 0.027254 0.000000 0.000000 0.000000
# 4 0.000000 0.000000 0.000000 0.004015 0.000000 0.000000
# 5 0.000000 0.000000 0.000000 0.000000 0.039600 0.000000
# 6 0.000000 0.000000 0.000000 0.000000 0.000000 0.025161
#
#
# Mechanical properties :
#
#
# Convention : Reuss Voigt Hill
#
# Bulk Modulus (GPa) = 25.50420 56.27834 40.89127
# Shear Modulus (GPa) = 37.80354 82.52963 60.16658
#
# Velocity S-wave (km/s) = 4.13108 6.10384 5.21165
# Velocity P-wave (km/s) = 5.85389 8.66497 7.39425
#
# Compressibility (1/GPa) = 0.03920922
#
# Stress axis : x y z
#
# Youngs Moduli (GPa) = 102.72038 127.80473 36.69222
#
# Poissons Ratio (x) = 0.59885 -0.01257
# Poissons Ratio (y) = 0.48132 -0.05655
# Poissons Ratio (z) = -0.03518 -0.19696
#
# Static dielectric constant tensor:
#      x y z
#    x 1.767700 0.000000 0.000000 
#    y 0.000000 1.765680 0.000000 
#    z 0.000000 0.000000 1.906200 
# 
# From -- ./inp_files/22396.got.cif
#   From: 2010.05.17/outbox.cif.g08.bks.cpg/sg57_12_cif.got.tgz:22396.got - 2010.06.03 13:58:18.
