data_PCOD9437844
_publ_section_title
;
Structure prediction by ZEFSAII (Michael W. Deem and Ramdas Pophale) SiO2 
 PCOD9437844
Probable space group: P B C M
;
_chemical_formula_sum "Si O2"
_cell_formula_units_Z 64
_cell_length_a 21.261288
_cell_length_b 9.564512
_cell_length_c 14.342790
_cell_angle_alpha 90.000000
_cell_angle_beta 90.000000
_cell_angle_gamma 90.000000
_cell_volume 2916.661483
_symmetry_space_group_name_H-M "P B C M"
_symmetry_group_IT_number 57
_symmetry_cell_setting 'orthorhombic'
loop_
_space_group_symop_operation_xyz
x,y,z
-x,-y,1/2+z
x,1/2-y,-z
-x,1/2+y,1/2-z
-x,-y,-z
x,y,1/2-z
-x,1/2+y,z
x,1/2-y,1/2+z
loop_
_atom_site_type_symbol
_atom_site_label
_atom_site_fract_x
_atom_site_fract_y
_atom_site_fract_z
Si Si1 0.188204 0.008621 0.138517
Si Si2 0.474806 0.965213 0.647386
Si Si3 0.045021 0.480533 0.587930
Si Si4 0.591487 0.965793 0.540563
Si Si5 0.943800 0.828289 0.352364
Si Si6 0.716531 0.476021 0.981799
Si Si7 0.190550 0.154843 0.859064
Si Si8 0.361497 0.748483 0.142238
O O1 0.192677 0.977437 0.250000
O O2 0.117623 0.976212 0.101063
O O3 0.195741 0.177610 0.127833
O O4 0.241640 0.937653 0.073478
O O5 0.476737 0.034349 0.750000
O O6 0.448341 0.046311 0.556155
O O7 0.424685 0.842088 0.652112
O O8 0.544117 0.912332 0.619026
O O9 0.041157 0.315589 0.599952
O O10 0.000000 0.500000 0.500000
O O11 0.002540 0.572101 0.656094
O O12 0.660945 0.919069 0.514944
O O13 0.613794 0.118490 0.582557
O O14 0.922528 0.781417 0.250000
O O15 0.879572 0.890865 0.392571
O O16 0.761244 0.565812 0.916858
O O17 0.686305 0.351362 0.917300
O O18 0.200030 0.123628 0.750000
O O19 0.340655 0.780666 0.250000
#
# Coordination Sequence:
#
# PCOD9437844 Si02
#       8
#     8   8   8   8   8   8   8   8
#     4  10  22  39  57  82 121 163 198 242 303 363
#     4   9  18  35  59  84 111 147 190 233 284 353
#     4  11  21  37  61  89 120 156 200 253 312 373
#     4  10  21  37  57  84 119 155 192 240 303 357
#     4  10  20  37  61  88 118 154 197 249 312 375
#     4  11  20  35  58  84 112 152 205 245 284 348
#     4   9  19  37  60  85 116 154 196 245 301 359
#     4  10  21  39  62  87 118 154 193 245 305 360
#
# _framework density 21.942896000000001
#
# number of rings (size 3 to 8) (size 9 to 14) (size 15 to 20)
#    0.000    2.000    0.000    5.625    0.000    3.500 
#    0.000   13.125    0.000   10.500    0.000    0.000 
#    0.000    0.000    0.000    0.000    0.000    0.000 
#
# Total GULP energy -356273.097725 kJ/mol
# GULP energy per Si atom -5566.767152 kJ/mol
# Density = 2.189295 g / cm^3
# Si number density = 21.942896 Si / 1000 Ang^3
#
#
#
# Elastic Constant Matrix: (Units=GPa)
#
#
# Indices 1 2 3 4 5 6 
#
# 1 175.9129 44.7943 73.4964 0.0000 0.0000 0.0000
# 2 44.7943 36.1156 27.5131 0.0000 0.0000 0.0000
# 3 73.4964 27.5131 169.0372 0.0000 0.0000 0.0000
# 4 0.0000 0.0000 0.0000 41.9183 0.0000 0.0000
# 5 0.0000 0.0000 0.0000 0.0000 23.7646 0.0000
# 6 0.0000 0.0000 0.0000 0.0000 0.0000 10.6839
#
#
#
# Elastic Compliance Matrix: (Units=1/GPa)
#
#
# Indices 1 2 3 4 5 6 
#
# 1 0.009100 -0.009444 -0.002420 0.000000 0.000000 0.000000
# 2 -0.009444 0.041408 -0.002634 0.000000 0.000000 0.000000
# 3 -0.002420 -0.002634 0.007397 0.000000 0.000000 0.000000
# 4 0.000000 0.000000 0.000000 0.023856 0.000000 0.000000
# 5 0.000000 0.000000 0.000000 0.000000 0.042079 0.000000
# 6 0.000000 0.000000 0.000000 0.000000 0.000000 0.093599
#
#
# Mechanical properties :
#
#
# Convention : Reuss Voigt Hill
#
# Bulk Modulus (GPa) = 34.58893 74.74147 54.66520
# Shear Modulus (GPa) = 19.52584 30.95750 25.24167
#
# Velocity S-wave (km/s) = 2.98627 3.76016 3.39534
# Velocity P-wave (km/s) = 5.26192 7.27925 6.35119
#
# Compressibility (1/GPa) = 0.02891098
#
# Stress axis : x y z
#
# Youngs Moduli (GPa) = 109.88605 24.14970 135.19773
#
# Poissons Ratio (x) = 0.22807 0.32713
# Poissons Ratio (y) = 1.03775 0.35606
# Poissons Ratio (z) = 0.26589 0.06360
#
# Static dielectric constant tensor:
#      x y z
#    x 1.984170 0.000000 0.000000 
#    y 0.000000 1.808450 0.000000 
#    z 0.000000 0.000000 -2.063210 
# 
# From -- ./inp_files/19151.got.cif
#   From: 2010.05.17/outbox.cif.g08.bks.cpg/sg57_10_cif.got.tgz:19151.got - 2010.06.03 13:58:18.
