data_PCOD9437171
_publ_section_title
;
Structure prediction by ZEFSAII (Michael W. Deem and Ramdas Pophale) SiO2 
 PCOD9437171
Probable space group: P B C M
;
_chemical_formula_sum "Si O2"
_cell_formula_units_Z 40
_cell_length_a 15.213346
_cell_length_b 12.863946
_cell_length_c 9.583053
_cell_angle_alpha 90.000000
_cell_angle_beta 90.000000
_cell_angle_gamma 90.000000
_cell_volume 1875.438560
_symmetry_space_group_name_H-M "P B C M"
_symmetry_group_IT_number 57
_symmetry_cell_setting 'orthorhombic'
loop_
_space_group_symop_operation_xyz
x,y,z
-x,-y,1/2+z
x,1/2-y,-z
-x,1/2+y,1/2-z
-x,-y,-z
x,y,1/2-z
-x,1/2+y,z
x,1/2-y,1/2+z
loop_
_atom_site_type_symbol
_atom_site_label
_atom_site_fract_x
_atom_site_fract_y
_atom_site_fract_z
Si Si1 0.309944 0.085025 0.415672
Si Si2 0.944645 0.347296 0.414178
Si Si3 0.529535 0.901087 0.090387
Si Si4 0.666655 0.156964 0.906654
Si Si5 0.888925 0.918123 0.912979
O O1 0.331539 0.094349 0.250000
O O2 0.383848 0.136841 0.511098
O O3 0.210121 0.119694 0.437663
O O4 0.312865 0.961088 0.450162
O O5 0.907653 0.250000 0.500000
O O6 0.951148 0.324231 0.250000
O O7 0.893085 0.456288 0.429542
O O8 0.040004 0.370592 0.482861
O O9 0.551426 0.928944 0.250000
O O10 0.440157 0.835074 0.097032
O O11 0.500000 0.000000 0.000000
O O12 0.700931 0.168331 0.750000
O O13 0.700213 0.250000 0.000000
O O14 0.912052 0.897273 0.750000
#
# Coordination Sequence:
#
# PCOD9437171 Si02
#       5
#     8   8   8   8   8
#     4   9  18  33  51  72  98 127 162 207 255 301
#     4  10  20  35  56  80 107 139 175 215 262 317
#     4   9  17  30  47  67  92 125 163 199 238 287
#     4   9  18  30  45  68  97 127 161 200 243 293
#     4   9  19  36  56  78 106 139 174 215 265 319
#
# _framework density 21.328347000000001
#
# number of rings (size 3 to 8) (size 9 to 14) (size 15 to 20)
#    0.000    2.800    0.000    2.400    0.000    6.400 
#    0.000    1.000    0.000    2.400    0.000    0.000 
#    0.000    0.000    0.000    0.000    0.000    0.000 
#
# Total GULP energy -223183.365621 kJ/mol
# GULP energy per Si atom -5579.584141 kJ/mol
# Density = 2.127980 g / cm^3
# Si number density = 21.328347 Si / 1000 Ang^3
#
#
#
# Elastic Constant Matrix: (Units=GPa)
#
#
# Indices 1 2 3 4 5 6 
#
# 1 114.8909 -2.3878 44.8377 0.0000 0.0000 0.0000
# 2 -2.3878 76.5570 44.1394 0.0000 0.0000 0.0000
# 3 44.8377 44.1394 103.2434 0.0000 0.0000 0.0000
# 4 0.0000 0.0000 0.0000 27.5498 0.0000 0.0000
# 5 0.0000 0.0000 0.0000 0.0000 21.0745 0.0000
# 6 0.0000 0.0000 0.0000 0.0000 0.0000 -2.3991
#
#
#
# Elastic Compliance Matrix: (Units=1/GPa)
#
#
# Indices 1 2 3 4 5 6 
#
# 1 0.011447 0.004278 -0.006800 0.000000 0.000000 0.000000
# 2 0.004278 0.018934 -0.009952 0.000000 0.000000 0.000000
# 3 -0.006800 -0.009952 0.016894 0.000000 0.000000 0.000000
# 4 0.000000 0.000000 0.000000 0.036298 0.000000 0.000000
# 5 0.000000 0.000000 0.000000 0.000000 0.047451 0.000000
# 6 0.000000 0.000000 0.000000 0.000000 0.000000 -0.416823
#
#
# Mechanical properties :
#
#
# Convention : Reuss Voigt Hill
#
# Bulk Modulus (GPa) = 44.79349 51.98555 48.38952
# Shear Modulus (GPa) = -19.73096 23.11850 1.69377
#
# Velocity S-wave (km/s) = -3.04485 3.29589 0.89211
# Velocity P-wave (km/s) = 2.94719 6.23784 4.87835
#
# Compressibility (1/GPa) = 0.02232467
#
# Stress axis : x y z
#
# Youngs Moduli (GPa) = 87.36248 52.81596 59.19300
#
# Poissons Ratio (x) = -0.22592 0.40251
# Poissons Ratio (y) = -0.37370 0.58911
# Poissons Ratio (z) = 0.59406 0.52564
#
# Static dielectric constant tensor:
#      x y z
#    x 1.817940 0.000000 0.000000 
#    y 0.000000 1.796170 0.000000 
#    z 0.000000 0.000000 1.733080 
# 
# From -- ./inp_files/4279.got.cif
#   From: 2010.05.17/outbox.cif.g08.bks.cpg/sg57_3_cif.got.tgz:4279.got - 2010.06.03 13:58:18.
