data_PCOD9437006
_publ_section_title
;
Structure prediction by ZEFSAII (Michael W. Deem and Ramdas Pophale) SiO2 
 PCOD9437006
Probable space group: P B C M
;
_chemical_formula_sum "Si O2"
_cell_formula_units_Z 64
_cell_length_a 11.685565
_cell_length_b 18.770640
_cell_length_c 14.704427
_cell_angle_alpha 90.000000
_cell_angle_beta 90.000000
_cell_angle_gamma 90.000000
_cell_volume 3225.350390
_symmetry_space_group_name_H-M "P B C M"
_symmetry_group_IT_number 57
_symmetry_cell_setting 'orthorhombic'
loop_
_space_group_symop_operation_xyz
x,y,z
-x,-y,1/2+z
x,1/2-y,-z
-x,1/2+y,1/2-z
-x,-y,-z
x,y,1/2-z
-x,1/2+y,z
x,1/2-y,1/2+z
loop_
_atom_site_type_symbol
_atom_site_label
_atom_site_fract_x
_atom_site_fract_y
_atom_site_fract_z
Si Si1 0.814849 0.845329 0.356913
Si Si2 0.228042 0.191095 0.144469
Si Si3 0.323396 0.598579 0.142517
Si Si4 0.067554 0.589778 0.849965
Si Si5 0.150509 0.666528 0.480209
Si Si6 0.946848 0.568552 0.406620
Si Si7 0.258390 0.465099 0.476311
Si Si8 0.404644 0.081866 0.142135
O O1 0.784419 0.853158 0.250000
O O2 0.808760 0.765625 0.395942
O O3 0.732007 0.892920 0.418468
O O4 0.946688 0.870026 0.362902
O O5 0.230908 0.207778 0.250000
O O6 0.142599 0.125258 0.133452
O O7 0.350237 0.159011 0.120582
O O8 0.295111 0.604209 0.250000
O O9 0.263603 0.660175 0.082364
O O10 0.459894 0.589197 0.134172
O O11 0.275370 0.528044 0.094109
O O12 0.112937 0.606061 0.750000
O O13 0.039900 0.505038 0.852876
O O14 0.153124 0.621949 0.925253
O O15 0.123293 0.750000 0.500000
O O16 0.053795 0.619160 0.428012
O O17 0.873721 0.537762 0.491458
O O18 0.341837 0.466744 0.564945
O O19 0.378038 0.064238 0.250000
#
# Coordination Sequence:
#
# PCOD9437006 Si02
#       8
#     8   8   8   8   8   8   8   8
#     4  10  20  34  57  92 128 162 200 254 316 374
#     4   9  19  36  58  90 123 158 204 252 314 374
#     4  11  24  44  65  88 123 170 213 255 312 380
#     4  11  22  39  61  90 131 167 205 254 309 373
#     4  12  25  42  61  91 130 167 214 255 307 382
#     4  11  21  35  61  90 126 163 204 252 313 363
#     4  11  20  37  66  94 125 154 209 260 313 372
#     4   9  21  40  64  89 122 162 208 262 315 369
#
# _framework density 19.842806
#
# number of rings (size 3 to 8) (size 9 to 14) (size 15 to 20)
#    0.000    1.500    2.500    3.000    0.000    4.500 
#    2.250    0.000    0.000    0.750    0.000    0.000 
#    0.000    0.000    0.000    0.000    0.000    0.000 
#
# Total GULP energy -356389.260638 kJ/mol
# GULP energy per Si atom -5568.582197 kJ/mol
# Density = 1.979764 g / cm^3
# Si number density = 19.842806 Si / 1000 Ang^3
#
#
#
# Elastic Constant Matrix: (Units=GPa)
#
#
# Indices 1 2 3 4 5 6 
#
# 1 59.4033 9.0074 29.3618 0.0000 0.0000 0.0000
# 2 9.0074 114.1858 4.3848 0.0000 0.0000 0.0000
# 3 29.3618 4.3848 112.6522 0.0000 0.0000 0.0000
# 4 0.0000 0.0000 0.0000 17.5855 0.0000 0.0000
# 5 0.0000 0.0000 0.0000 0.0000 60.2280 0.0000
# 6 0.0000 0.0000 0.0000 0.0000 0.0000 15.0537
#
#
#
# Elastic Compliance Matrix: (Units=1/GPa)
#
#
# Indices 1 2 3 4 5 6 
#
# 1 0.019528 -0.001347 -0.005037 0.000000 0.000000 0.000000
# 2 -0.001347 0.008864 0.000006 0.000000 0.000000 0.000000
# 3 -0.005037 0.000006 0.010190 0.000000 0.000000 0.000000
# 4 0.000000 0.000000 0.000000 0.056865 0.000000 0.000000
# 5 0.000000 0.000000 0.000000 0.000000 0.016604 0.000000
# 6 0.000000 0.000000 0.000000 0.000000 0.000000 0.066429
#
#
# Mechanical properties :
#
#
# Convention : Reuss Voigt Hill
#
# Bulk Modulus (GPa) = 38.72249 41.30549 40.01399
# Shear Modulus (GPa) = 25.01951 34.80593 29.91272
#
# Velocity S-wave (km/s) = 3.55475 4.19272 3.88685
# Velocity P-wave (km/s) = 6.03368 6.65583 6.35238
#
# Compressibility (1/GPa) = 0.02582478
#
# Stress axis : x y z
#
# Youngs Moduli (GPa) = 51.20786 112.81998 98.13924
#
# Poissons Ratio (x) = 0.15197 0.49437
# Poissons Ratio (y) = 0.06898 -0.00060
# Poissons Ratio (z) = 0.25796 -0.00069
#
# Static dielectric constant tensor:
#      x y z
#    x 1.716360 0.000000 0.000000 
#    y 0.000000 1.771980 0.000000 
#    z 0.000000 0.000000 1.786380 
# 
# From -- ./inp_files/17971.got.cif
#   From: 2010.05.17/outbox.cif.g08.bks.cpg/sg57_9_cif.got.tgz:17971.got - 2010.06.03 13:58:18.
