data_PCOD9437592
_publ_section_title
;
Structure prediction by ZEFSAII (Michael W. Deem and Ramdas Pophale) SiO2 
 PCOD9437592
Probable space group: P B C M
;
_chemical_formula_sum "Si O2"
_cell_formula_units_Z 40
_cell_length_a 26.703925
_cell_length_b 9.174613
_cell_length_c 8.625638
_cell_angle_alpha 90.000000
_cell_angle_beta 90.000000
_cell_angle_gamma 90.000000
_cell_volume 2113.265589
_symmetry_space_group_name_H-M "P B C M"
_symmetry_group_IT_number 57
_symmetry_cell_setting 'orthorhombic'
loop_
_space_group_symop_operation_xyz
x,y,z
-x,-y,1/2+z
x,1/2-y,-z
-x,1/2+y,1/2-z
-x,-y,-z
x,y,1/2-z
-x,1/2+y,z
x,1/2-y,1/2+z
loop_
_atom_site_type_symbol
_atom_site_label
_atom_site_fract_x
_atom_site_fract_y
_atom_site_fract_z
Si Si1 0.047438 0.914567 0.065191
Si Si2 0.738098 0.084582 0.436400
Si Si3 0.356564 0.086580 0.064590
Si Si4 0.452075 0.586229 0.064205
Si Si5 0.849543 0.414965 0.935352
O O1 0.046426 0.910886 0.250000
O O2 0.045308 0.750000 0.000000
O O3 0.100512 0.981790 0.009028
O O4 0.000000 0.000000 0.000000
O O5 0.734247 0.250000 0.500000
O O6 0.732503 0.088180 0.250000
O O7 0.794197 0.025542 0.471889
O O8 0.695090 0.987829 0.511388
O O9 0.360093 0.087593 0.250000
O O10 0.359302 0.250000 0.000000
O O11 0.402201 0.993803 0.994698
O O12 0.453127 0.587846 0.250000
O O13 0.452924 0.750000 0.000000
O O14 0.500000 0.500000 0.000000
O O15 0.855337 0.411167 0.750000
O O16 0.847980 0.250000 0.000000
#
# Coordination Sequence:
#
# PCOD9437592 Si02
#       5
#     8   8   8   8   8
#     4  11  21  35  55  80 111 146 187 233 285 341
#     4  10  20  36  59  87 116 149 190 237 285 339
#     4  12  25  42  62  87 120 158 197 240 290 344
#     4  12  25  44  67  94 125 159 199 242 290 342
#     4   9  17  31  53  80 110 144 186 232 282 338
#
# _framework density 18.928052000000001
#
# number of rings (size 3 to 8) (size 9 to 14) (size 15 to 20)
#    0.000    1.200    0.000    9.000    0.000    2.400 
#    0.000    1.000    0.000    4.800    0.000    0.000 
#    0.000    0.000    0.000    0.000    0.000    0.000 
#
# Total GULP energy -223575.860280 kJ/mol
# GULP energy per Si atom -5589.396507 kJ/mol
# Density = 1.888497 g / cm^3
# Si number density = 18.928052 Si / 1000 Ang^3
#
#
#
# Elastic Constant Matrix: (Units=GPa)
#
#
# Indices 1 2 3 4 5 6 
#
# 1 215.2000 88.1496 102.5398 0.0000 0.0000 0.0000
# 2 88.1496 111.3792 60.9821 0.0000 0.0000 0.0000
# 3 102.5398 60.9821 194.2342 0.0000 0.0000 0.0000
# 4 0.0000 0.0000 0.0000 32.4811 0.0000 0.0000
# 5 0.0000 0.0000 0.0000 0.0000 38.0210 0.0000
# 6 0.0000 0.0000 0.0000 0.0000 0.0000 35.7828
#
#
#
# Elastic Compliance Matrix: (Units=1/GPa)
#
#
# Indices 1 2 3 4 5 6 
#
# 1 0.007867 -0.004773 -0.002655 0.000000 0.000000 0.000000
# 2 -0.004773 0.013737 -0.001794 0.000000 0.000000 0.000000
# 3 -0.002655 -0.001794 0.007113 0.000000 0.000000 0.000000
# 4 0.000000 0.000000 0.000000 0.030787 0.000000 0.000000
# 5 0.000000 0.000000 0.000000 0.000000 0.026301 0.000000
# 6 0.000000 0.000000 0.000000 0.000000 0.000000 0.027946
#
#
# Mechanical properties :
#
#
# Convention : Reuss Voigt Hill
#
# Bulk Modulus (GPa) = 97.31604 113.79515 105.55559
# Shear Modulus (GPa) = 36.86822 39.19978 38.03400
#
# Velocity S-wave (km/s) = 4.41819 4.55575 4.48749
# Velocity P-wave (km/s) = 8.80639 9.37675 9.09604
#
# Compressibility (1/GPa) = 0.01027580
#
# Stress axis : x y z
#
# Youngs Moduli (GPa) = 127.11998 72.79361 140.58953
#
# Poissons Ratio (x) = 0.34741 0.37320
# Poissons Ratio (y) = 0.60668 0.25215
# Poissons Ratio (z) = 0.33744 0.13056
#
# Static dielectric constant tensor:
#      x y z
#    x 1.682210 0.000000 0.000000 
#    y 0.000000 1.619690 0.000000 
#    z 0.000000 0.000000 1.629090 
# 
# From -- ./inp_files/8922.got.cif
#   From: 2010.05.17/outbox.cif.g08.bks.cpg/sg57_5_cif.got.tgz:8922.got - 2010.06.03 13:58:18.
