data_PCOD9437058
_publ_section_title
;
Structure prediction by ZEFSAII (Michael W. Deem and Ramdas Pophale) SiO2 
 PCOD9437058
Probable space group: P B C M
;
_chemical_formula_sum "Si O2"
_cell_formula_units_Z 56
_cell_length_a 17.843326
_cell_length_b 20.497043
_cell_length_c 8.383200
_cell_angle_alpha 90.000000
_cell_angle_beta 90.000000
_cell_angle_gamma 90.000000
_cell_volume 3066.033175
_symmetry_space_group_name_H-M "P B C M"
_symmetry_group_IT_number 57
_symmetry_cell_setting 'orthorhombic'
loop_
_space_group_symop_operation_xyz
x,y,z
-x,-y,1/2+z
x,1/2-y,-z
-x,1/2+y,1/2-z
-x,-y,-z
x,y,1/2-z
-x,1/2+y,z
x,1/2-y,1/2+z
loop_
_atom_site_type_symbol
_atom_site_label
_atom_site_fract_x
_atom_site_fract_y
_atom_site_fract_z
Si Si1 0.184395 0.822371 0.940886
Si Si2 0.382273 0.178558 0.057344
Si Si3 0.276993 0.439354 0.945058
Si Si4 0.554879 0.178370 0.440900
Si Si5 0.316896 0.915211 0.059163
Si Si6 0.950547 0.093505 0.442555
Si Si7 0.892561 0.953441 0.942921
O O1 0.186117 0.822510 0.750000
O O2 0.102715 0.847817 0.996370
O O3 0.200422 0.750000 0.000000
O O4 0.246220 0.873159 0.001014
O O5 0.382204 0.178362 0.250000
O O6 0.328699 0.120394 0.001324
O O7 0.468734 0.169027 0.004872
O O8 0.357887 0.250000 0.000000
O O9 0.277420 0.438901 0.750000
O O10 0.308265 0.509994 0.996085
O O11 0.190323 0.433666 0.996710
O O12 0.580024 0.250000 0.500000
O O13 0.556433 0.178854 0.250000
O O14 0.609075 0.121842 0.501327
O O15 0.316488 0.915655 0.250000
O O16 0.950707 0.093353 0.250000
O O17 0.037170 0.091110 0.495781
O O18 0.912475 0.026197 0.499378
O O19 0.891824 0.954299 0.750000
#
# Coordination Sequence:
#
# PCOD9437058 Si02
#       7
#     8   8   8   8   8   8   8
#     4  11  22  35  50  73 107 143 178 218 262 308
#     4   9  19  37  57  77 102 135 174 212 258 313
#     4   9  18  33  55  80 106 136 170 211 259 314
#     4  10  20  35  54  75 103 139 175 214 257 306
#     4  11  21  34  53  78 105 136 175 214 260 315
#     4   9  18  31  50  75 101 131 171 215 252 297
#     4   9  16  31  54  76 100 133 169 205 254 307
#
# _framework density 18.264643
#
# number of rings (size 3 to 8) (size 9 to 14) (size 15 to 20)
#    0.000    2.286    1.429    1.714    0.000    1.714 
#    0.000    2.857    0.000    0.000    0.000    0.000 
#    0.000    0.000    0.000    0.000    0.000    0.000 
#
# Total GULP energy -312414.552492 kJ/mol
# GULP energy per Si atom -5578.831294 kJ/mol
# Density = 1.822307 g / cm^3
# Si number density = 18.264643 Si / 1000 Ang^3
#
#
#
# Elastic Constant Matrix: (Units=GPa)
#
#
# Indices 1 2 3 4 5 6 
#
# 1 134.4052 97.8678 17.1541 0.0000 0.0000 0.0000
# 2 97.8678 149.8311 18.0657 0.0000 0.0000 0.0000
# 3 17.1541 18.0657 17.6365 0.0000 0.0000 0.0000
# 4 0.0000 0.0000 0.0000 20.0828 0.0000 0.0000
# 5 0.0000 0.0000 0.0000 0.0000 7.4542 0.0000
# 6 0.0000 0.0000 0.0000 0.0000 0.0000 28.2587
#
#
#
# Elastic Compliance Matrix: (Units=1/GPa)
#
#
# Indices 1 2 3 4 5 6 
#
# 1 0.014572 -0.008910 -0.005047 0.000000 0.000000 0.000000
# 2 -0.008910 0.013062 -0.004714 0.000000 0.000000 0.000000
# 3 -0.005047 -0.004714 0.066438 0.000000 0.000000 0.000000
# 4 0.000000 0.000000 0.000000 0.049794 0.000000 0.000000
# 5 0.000000 0.000000 0.000000 0.000000 0.134152 0.000000
# 6 0.000000 0.000000 0.000000 0.000000 0.000000 0.035387
#
#
# Mechanical properties :
#
#
# Convention : Reuss Voigt Hill
#
# Bulk Modulus (GPa) = 17.62702 63.11645 40.37174
# Shear Modulus (GPa) = 13.52602 22.41149 17.96875
#
# Velocity S-wave (km/s) = 2.72427 3.50672 3.13996
# Velocity P-wave (km/s) = 4.42350 7.14337 5.94117
#
# Compressibility (1/GPa) = 0.05673108
#
# Stress axis : x y z
#
# Youngs Moduli (GPa) = 68.62494 76.55626 15.05155
#
# Poissons Ratio (x) = 0.68209 0.07596
# Poissons Ratio (y) = 0.61143 0.07096
# Poissons Ratio (z) = 0.34634 0.36090
#
# Static dielectric constant tensor:
#      x y z
#    x 1.651780 0.000000 0.000000 
#    y 0.000000 1.597960 0.000000 
#    z 0.000000 0.000000 1.625890 
# 
# From -- ./inp_files/5289.got.cif
#   From: 2010.05.17/outbox.cif.g08.bks.cpg/sg57_3_cif.got.tgz:5289.got - 2010.06.03 13:58:18.
