data_PCOD9437776
_publ_section_title
;
Structure prediction by ZEFSAII (Michael W. Deem and Ramdas Pophale) SiO2 
 PCOD9437776
Probable space group: P B C M
;
_chemical_formula_sum "Si O2"
_cell_formula_units_Z 32
_cell_length_a 10.792072
_cell_length_b 12.521706
_cell_length_c 11.053381
_cell_angle_alpha 90.000000
_cell_angle_beta 90.000000
_cell_angle_gamma 90.000000
_cell_volume 1493.700329
_symmetry_space_group_name_H-M "P B C M"
_symmetry_group_IT_number 57
_symmetry_cell_setting 'orthorhombic'
loop_
_space_group_symop_operation_xyz
x,y,z
-x,-y,1/2+z
x,1/2-y,-z
-x,1/2+y,1/2-z
-x,-y,-z
x,y,1/2-z
-x,1/2+y,z
x,1/2-y,1/2+z
loop_
_atom_site_type_symbol
_atom_site_label
_atom_site_fract_x
_atom_site_fract_y
_atom_site_fract_z
Si Si1 0.769480 0.181804 0.117468
Si Si2 0.060205 0.128888 0.380297
Si Si3 0.821953 0.634482 0.617384
Si Si4 0.585823 0.980756 0.115073
O O1 0.751125 0.234956 0.250000
O O2 0.684363 0.077498 0.116330
O O3 0.914886 0.153161 0.110249
O O4 0.737570 0.250000 0.000000
O O5 0.085973 0.075804 0.250000
O O6 0.129943 0.244166 0.377429
O O7 0.111961 0.079143 0.503586
O O8 0.851907 0.587337 0.750000
O O9 0.674535 0.622710 0.601546
O O10 0.526571 0.977454 0.250000
O O11 0.500000 0.000000 0.000000
#
# Coordination Sequence:
#
# PCOD9437776 Si02
#       4
#     8   8   8   8
#     4  10  20  37  59  85 116 148 187 234 284 341
#     4   9  17  32  55  86 116 142 178 225 286 342
#     4   9  17  33  56  80 111 147 184 229 277 332
#     4  10  23  41  58  81 114 153 198 237 275 334
#
# _framework density 21.423304999999999
#
# number of rings (size 3 to 8) (size 9 to 14) (size 15 to 20)
#    0.000    2.500    2.500    0.000    0.000    3.000 
#    4.500    0.000    0.000    0.000    0.000    0.000 
#    0.000    0.000    0.000    0.000    0.000    0.000 
#
# Total GULP energy -178381.181095 kJ/mol
# GULP energy per Si atom -5574.411909 kJ/mol
# Density = 2.137454 g / cm^3
# Si number density = 21.423305 Si / 1000 Ang^3
#
#
#
# Elastic Constant Matrix: (Units=GPa)
#
#
# Indices 1 2 3 4 5 6 
#
# 1 87.6663 22.4995 65.9750 0.0000 0.0000 0.0000
# 2 22.4995 49.9349 21.0765 0.0000 0.0000 0.0000
# 3 65.9750 21.0765 232.9249 0.0000 0.0000 0.0000
# 4 0.0000 0.0000 0.0000 16.9130 0.0000 0.0000
# 5 0.0000 0.0000 0.0000 0.0000 27.4675 0.0000
# 6 0.0000 0.0000 0.0000 0.0000 0.0000 27.0454
#
#
#
# Elastic Compliance Matrix: (Units=1/GPa)
#
#
# Indices 1 2 3 4 5 6 
#
# 1 0.015800 -0.005438 -0.003983 0.000000 0.000000 0.000000
# 2 -0.005438 0.022693 -0.000513 0.000000 0.000000 0.000000
# 3 -0.003983 -0.000513 0.005468 0.000000 0.000000 0.000000
# 4 0.000000 0.000000 0.000000 0.059126 0.000000 0.000000
# 5 0.000000 0.000000 0.000000 0.000000 0.036407 0.000000
# 6 0.000000 0.000000 0.000000 0.000000 0.000000 0.036975
#
#
# Mechanical properties :
#
#
# Convention : Reuss Voigt Hill
#
# Bulk Modulus (GPa) = 41.50707 65.51423 53.51065
# Shear Modulus (GPa) = 24.46568 31.68355 28.07461
#
# Velocity S-wave (km/s) = 3.38303 3.84986 3.62397
# Velocity P-wave (km/s) = 5.88869 7.09993 6.52249
#
# Compressibility (1/GPa) = 0.02409228
#
# Stress axis : x y z
#
# Youngs Moduli (GPa) = 63.29017 44.06672 182.88531
#
# Poissons Ratio (x) = 0.23963 0.72849
# Poissons Ratio (y) = 0.34417 0.09384
# Poissons Ratio (z) = 0.25210 0.02261
#
# Static dielectric constant tensor:
#      x y z
#    x 1.752770 0.000000 0.000000 
#    y 0.000000 1.844310 0.000000 
#    z 0.000000 0.000000 1.902250 
# 
# From -- ./inp_files/11305.got.cif
#   From: 2010.05.17/outbox.cif.g08.bks.cpg/sg57_6_cif.got.tgz:11305.got - 2010.06.03 13:58:18.
