data_PCOD9437070
_publ_section_title
;
Structure prediction by ZEFSAII (Michael W. Deem and Ramdas Pophale) SiO2 
 PCOD9437070
Probable space group: P B C M
;
_chemical_formula_sum "Si O2"
_cell_formula_units_Z 48
_cell_length_a 31.967290
_cell_length_b 9.285048
_cell_length_c 8.545405
_cell_angle_alpha 90.000000
_cell_angle_beta 90.000000
_cell_angle_gamma 90.000000
_cell_volume 2536.428501
_symmetry_space_group_name_H-M "P B C M"
_symmetry_group_IT_number 57
_symmetry_cell_setting 'orthorhombic'
loop_
_space_group_symop_operation_xyz
x,y,z
-x,-y,1/2+z
x,1/2-y,-z
-x,1/2+y,1/2-z
-x,-y,-z
x,y,1/2-z
-x,1/2+y,z
x,1/2-y,1/2+z
loop_
_atom_site_type_symbol
_atom_site_label
_atom_site_fract_x
_atom_site_fract_y
_atom_site_fract_z
Si Si1 0.039923 0.587098 0.938103
Si Si2 0.631968 0.087334 0.560988
Si Si3 0.205010 0.912348 0.060871
Si Si4 0.877213 0.587400 0.438970
Si Si5 0.539016 0.088307 0.562762
Si Si6 0.712906 0.588347 0.060749
O O1 0.038733 0.590205 0.750000
O O2 0.081970 0.502965 0.987973
O O3 0.039874 0.750000 0.000000
O O4 0.000000 0.500000 0.000000
O O5 0.637557 0.250000 0.500000
O O6 0.633000 0.092424 0.750000
O O7 0.585459 0.035226 0.513794
O O8 0.669757 0.986261 0.507457
O O9 0.204751 0.908281 0.250000
O O10 0.164703 0.004418 0.009314
O O11 0.247491 0.992318 0.010368
O O12 0.203179 0.750000 0.000000
O O13 0.878534 0.750000 0.500000
O O14 0.876950 0.592163 0.250000
O O15 0.535767 0.250000 0.500000
O O16 0.537665 0.088625 0.750000
O O17 0.500000 0.000000 0.500000
O O18 0.712815 0.591422 0.250000
O O19 0.716615 0.750000 0.000000
#
# Coordination Sequence:
#
# PCOD9437070 Si02
#       6
#     8   8   8   8   8   8
#     4  11  23  39  59  84 114 148 188 231 277 328
#     4   9  19  35  54  77 104 136 175 217 261 314
#     4  10  21  37  57  82 110 141 179 220 264 317
#     4  10  22  38  57  83 113 145 182 225 271 321
#     4  10  20  35  54  77 106 139 177 220 267 318
#     4  10  21  36  54  79 109 139 175 217 262 314
#
# _framework density 18.924247000000001
#
# number of rings (size 3 to 8) (size 9 to 14) (size 15 to 20)
#    0.000    2.000    0.000    3.000    0.000    6.000 
#    0.000    1.667    0.000    0.000    0.000    0.000 
#    0.000    0.000    0.000    0.000    0.000    0.000 
#
# Total GULP energy -268114.257927 kJ/mol
# GULP energy per Si atom -5585.713707 kJ/mol
# Density = 1.888117 g / cm^3
# Si number density = 18.924247 Si / 1000 Ang^3
#
#
#
# Elastic Constant Matrix: (Units=GPa)
#
#
# Indices 1 2 3 4 5 6 
#
# 1 222.7627 127.8052 40.4752 0.0000 0.0000 0.0000
# 2 127.8052 176.4032 27.7963 0.0000 0.0000 0.0000
# 3 40.4752 27.7963 19.1898 0.0000 0.0000 0.0000
# 4 0.0000 0.0000 0.0000 40.0213 0.0000 0.0000
# 5 0.0000 0.0000 0.0000 0.0000 21.4499 0.0000
# 6 0.0000 0.0000 0.0000 0.0000 0.0000 43.3858
#
#
#
# Elastic Compliance Matrix: (Units=1/GPa)
#
#
# Indices 1 2 3 4 5 6 
#
# 1 0.009781 -0.004970 -0.013431 0.000000 0.000000 0.000000
# 2 -0.004970 0.009871 -0.003815 0.000000 0.000000 0.000000
# 3 -0.013431 -0.003815 0.085966 0.000000 0.000000 0.000000
# 4 0.000000 0.000000 0.000000 0.024987 0.000000 0.000000
# 5 0.000000 0.000000 0.000000 0.000000 0.046620 0.000000
# 6 0.000000 0.000000 0.000000 0.000000 0.000000 0.023049
#
#
# Mechanical properties :
#
#
# Convention : Reuss Voigt Hill
#
# Bulk Modulus (GPa) = 16.34377 90.05658 53.20017
# Shear Modulus (GPa) = 18.86082 35.79000 27.32541
#
# Velocity S-wave (km/s) = 3.16040 4.35354 3.80404
# Velocity P-wave (km/s) = 4.68750 8.54180 6.88967
#
# Compressibility (1/GPa) = 0.06118540
#
# Stress axis : x y z
#
# Youngs Moduli (GPa) = 102.24119 101.30965 11.63256
#
# Poissons Ratio (x) = 0.50350 0.15623
# Poissons Ratio (y) = 0.50813 0.04438
# Poissons Ratio (z) = 1.37318 0.38651
#
# Static dielectric constant tensor:
#      x y z
#    x 1.670110 0.000000 0.000000 
#    y 0.000000 1.595410 0.000000 
#    z 0.000000 0.000000 1.651340 
# 
# From -- ./inp_files/9940.got.cif
#   From: 2010.05.17/outbox.cif.g08.bks.cpg/sg57_5_cif.got.tgz:9940.got - 2010.06.03 13:58:18.
