data_PCOD9437597
_publ_section_title
;
Structure prediction by ZEFSAII (Michael W. Deem and Ramdas Pophale) SiO2 
 PCOD9437597
Probable space group: P B C M
;
_chemical_formula_sum "Si O2"
_cell_formula_units_Z 60
_cell_length_a 14.486657
_cell_length_b 13.528642
_cell_length_c 14.956630
_cell_angle_alpha 90.000000
_cell_angle_beta 90.000000
_cell_angle_gamma 90.000000
_cell_volume 2931.272084
_symmetry_space_group_name_H-M "P B C M"
_symmetry_group_IT_number 57
_symmetry_cell_setting 'orthorhombic'
loop_
_space_group_symop_operation_xyz
x,y,z
-x,-y,1/2+z
x,1/2-y,-z
-x,1/2+y,1/2-z
-x,-y,-z
x,y,1/2-z
-x,1/2+y,z
x,1/2-y,1/2+z
loop_
_atom_site_type_symbol
_atom_site_label
_atom_site_fract_x
_atom_site_fract_y
_atom_site_fract_z
Si Si1 0.056409 0.495297 0.647459
Si Si2 0.597551 0.535573 0.961472
Si Si3 0.124250 0.371888 0.151168
Si Si4 0.006002 0.719679 0.102672
Si Si5 0.402405 0.843986 0.851756
Si Si6 0.536360 0.750000 0.000000
Si Si7 0.793100 0.003607 0.004420
Si Si8 0.195980 0.825582 0.850477
O O1 0.087428 0.490537 0.750000
O O2 0.138541 0.508836 0.578152
O O3 0.975855 0.576049 0.641109
O O4 0.003369 0.395969 0.619877
O O5 0.611133 0.461056 0.876640
O O6 0.686039 0.505823 0.021007
O O7 0.500000 0.500000 0.000000
O O8 0.591391 0.655137 0.959342
O O9 0.162308 0.392891 0.250000
O O10 0.184734 0.410833 0.069850
O O11 0.088799 0.260701 0.144313
O O12 0.107932 0.746360 0.140439
O O13 0.004869 0.750000 0.000000
O O14 0.435064 0.836135 0.750000
O O15 0.301904 0.790709 0.857687
O O16 0.471688 0.794640 0.921781
O O17 0.810217 0.097157 0.068628
O O18 0.188453 0.869752 0.750000
#
# Coordination Sequence:
#
# PCOD9437597 Si02
#       8
#     8   8   8   8   8   4   8   8
#     4  11  23  40  56  82 123 158 194 244 294 347
#     4   9  21  40  63  88 120 156 199 259 314 365
#     4  11  22  36  56  84 117 153 195 241 288 351
#     4  12  22  35  56  82 121 160 199 237 293 347
#     4   9  20  38  62  91 121 158 208 254 313 378
#     4  10  20  40  62  90 122 158 198 262 322 362
#     4  11  20  38  62  85 114 159 206 236 302 364
#     4  10  20  36  59  87 119 156 198 251 298 354
#
# _framework density 20.468927999999998
#
# number of rings (size 3 to 8) (size 9 to 14) (size 15 to 20)
#    0.000    1.600    2.667    2.800    0.933    2.133 
#    2.400    2.667    0.000    0.000    0.000    0.000 
#    0.000    0.000    0.000    0.000    0.000    0.000 
#
# Total GULP energy -334472.496223 kJ/mol
# GULP energy per Si atom -5574.541604 kJ/mol
# Density = 2.042234 g / cm^3
# Si number density = 20.468928 Si / 1000 Ang^3
#
#
#
# Elastic Constant Matrix: (Units=GPa)
#
#
# Indices 1 2 3 4 5 6 
#
# 1 70.5627 -11.7201 32.2567 0.0000 0.0000 0.0000
# 2 -11.7201 37.0544 -5.2021 0.0000 0.0000 0.0000
# 3 32.2567 -5.2021 125.0137 0.0000 0.0000 0.0000
# 4 0.0000 0.0000 0.0000 15.6435 0.0000 0.0000
# 5 0.0000 0.0000 0.0000 0.0000 12.5712 0.0000
# 6 0.0000 0.0000 0.0000 0.0000 0.0000 21.9592
#
#
#
# Elastic Compliance Matrix: (Units=1/GPa)
#
#
# Indices 1 2 3 4 5 6 
#
# 1 0.016859 0.004749 -0.004152 0.000000 0.000000 0.000000
# 2 0.004749 0.028484 -0.000040 0.000000 0.000000 0.000000
# 3 -0.004152 -0.000040 0.009069 0.000000 0.000000 0.000000
# 4 0.000000 0.000000 0.000000 0.063924 0.000000 0.000000
# 5 0.000000 0.000000 0.000000 0.000000 0.079547 0.000000
# 6 0.000000 0.000000 0.000000 0.000000 0.000000 0.045539
#
#
# Mechanical properties :
#
#
# Convention : Reuss Voigt Hill
#
# Bulk Modulus (GPa) = 18.00980 29.25552 23.63266
# Shear Modulus (GPa) = 19.17054 24.52119 21.84586
#
# Velocity S-wave (km/s) = 3.06366 3.46493 3.27045
# Velocity P-wave (km/s) = 4.61870 5.50739 5.08250
#
# Compressibility (1/GPa) = 0.05552533
#
# Stress axis : x y z
#
# Youngs Moduli (GPa) = 59.31610 35.10751 110.26735
#
# Poissons Ratio (x) = -0.16674 0.45787
# Poissons Ratio (y) = -0.28172 0.00443
# Poissons Ratio (z) = 0.24630 0.00141
#
# Static dielectric constant tensor:
#      x y z
#    x 1.747270 0.000000 0.000000 
#    y 0.000000 1.833370 0.000000 
#    z 0.000000 0.000000 1.736190 
# 
# From -- ./inp_files/18669.got.cif
#   From: 2010.05.17/outbox.cif.g08.bks.cpg/sg57_10_cif.got.tgz:18669.got - 2010.06.03 13:58:18.
