data_PCOD9437184
_publ_section_title
;
Structure prediction by ZEFSAII (Michael W. Deem and Ramdas Pophale) SiO2 
 PCOD9437184
Probable space group: P B C M
;
_chemical_formula_sum "Si O2"
_cell_formula_units_Z 40
_cell_length_a 13.001589
_cell_length_b 18.729340
_cell_length_c 8.485620
_cell_angle_alpha 90.000000
_cell_angle_beta 90.000000
_cell_angle_gamma 90.000000
_cell_volume 2066.343347
_symmetry_space_group_name_H-M "P B C M"
_symmetry_group_IT_number 57
_symmetry_cell_setting 'orthorhombic'
loop_
_space_group_symop_operation_xyz
x,y,z
-x,-y,1/2+z
x,1/2-y,-z
-x,1/2+y,1/2-z
-x,-y,-z
x,y,1/2-z
-x,1/2+y,z
x,1/2-y,1/2+z
loop_
_atom_site_type_symbol
_atom_site_label
_atom_site_fract_x
_atom_site_fract_y
_atom_site_fract_z
Si Si1 0.322699 0.070500 0.942282
Si Si2 0.136652 0.329405 0.059876
Si Si3 0.705839 0.408298 0.561186
Si Si4 0.097850 0.670108 0.560873
Si Si5 0.508937 0.171094 0.561322
O O1 0.322983 0.069944 0.750000
O O2 0.221253 0.113738 0.993342
O O3 0.423192 0.114199 0.993678
O O4 0.319645 0.988588 0.994555
O O5 0.138337 0.327764 0.250000
O O6 0.019566 0.346806 0.010990
O O7 0.161592 0.250000 0.000000
O O8 0.702504 0.407054 0.750000
O O9 0.817817 0.383469 0.505717
O O10 0.619986 0.354596 0.496612
O O11 0.120737 0.750000 0.500000
O O12 0.102376 0.670004 0.750000
O O13 0.484882 0.250000 0.500000
O O14 0.508003 0.172453 0.750000
#
# Coordination Sequence:
#
# PCOD9437184 Si02
#       5
#     8   8   8   8   8
#     4   9  20  37  57  81 110 142 175 219 271 321
#     4   9  18  35  57  81 109 141 179 221 266 316
#     4  11  22  37  56  79 110 145 180 219 267 318
#     4  10  20  35  56  81 109 142 181 223 265 314
#     4  11  22  38  59  82 108 139 179 222 267 319
#
# _framework density 19.357866999999999
#
# number of rings (size 3 to 8) (size 9 to 14) (size 15 to 20)
#    0.000    2.000    0.000    3.600    0.000    1.600 
#    0.000    6.000    0.000    0.000    0.000    0.000 
#    0.000    0.000    0.000    0.000    0.000    0.000 
#
# Total GULP energy -223474.190865 kJ/mol
# GULP energy per Si atom -5586.854772 kJ/mol
# Density = 1.931381 g / cm^3
# Si number density = 19.357867 Si / 1000 Ang^3
#
#
#
# Elastic Constant Matrix: (Units=GPa)
#
#
# Indices 1 2 3 4 5 6 
#
# 1 48.6767 2.8697 7.3891 0.0000 0.0000 0.0000
# 2 2.8697 40.4454 7.5873 0.0000 0.0000 0.0000
# 3 7.3891 7.5873 34.3465 0.0000 0.0000 0.0000
# 4 0.0000 0.0000 0.0000 22.9219 0.0000 0.0000
# 5 0.0000 0.0000 0.0000 0.0000 -11.2804 0.0000
# 6 0.0000 0.0000 0.0000 0.0000 0.0000 22.9567
#
#
#
# Elastic Compliance Matrix: (Units=1/GPa)
#
#
# Indices 1 2 3 4 5 6 
#
# 1 0.021255 -0.000678 -0.004423 0.000000 0.000000 0.000000
# 2 -0.000678 0.025815 -0.005557 0.000000 0.000000 0.000000
# 3 -0.004423 -0.005557 0.031294 0.000000 0.000000 0.000000
# 4 0.000000 0.000000 0.000000 0.043626 0.000000 0.000000
# 5 0.000000 0.000000 0.000000 0.000000 -0.088649 0.000000
# 6 0.000000 0.000000 0.000000 0.000000 0.000000 0.043560
#
#
# Mechanical properties :
#
#
# Convention : Reuss Voigt Hill
#
# Bulk Modulus (GPa) = 17.52896 17.68452 17.60674
# Shear Modulus (GPa) = 42.64979 13.96114 28.30547
#
# Velocity S-wave (km/s) = 4.69895 2.68845 3.82805
# Velocity P-wave (km/s) = 6.20605 4.33503 5.35292
#
# Compressibility (1/GPa) = 0.05704844
#
# Stress axis : x y z
#
# Youngs Moduli (GPa) = 47.04756 38.73679 31.95500
#
# Poissons Ratio (x) = 0.02628 0.14133
# Poissons Ratio (y) = 0.03192 0.17757
# Poissons Ratio (z) = 0.20808 0.21525
#
# Static dielectric constant tensor:
#      x y z
#    x 1.666450 0.000000 0.000000 
#    y 0.000000 1.644350 0.000000 
#    z 0.000000 0.000000 1.656000 
# 
# From -- ./inp_files/2632.got.cif
#   From: 2010.05.17/outbox.cif.g08.bks.cpg/sg57_2_cif.got.tgz:2632.got - 2010.06.03 13:58:18.
