data_PCOD9437972
_publ_section_title
;
Structure prediction by ZEFSAII (Michael W. Deem and Ramdas Pophale) SiO2 
 PCOD9437972
Probable space group: P B C M
;
_chemical_formula_sum "Si O2"
_cell_formula_units_Z 48
_cell_length_a 15.378799
_cell_length_b 17.927794
_cell_length_c 7.657738
_cell_angle_alpha 90.000000
_cell_angle_beta 90.000000
_cell_angle_gamma 90.000000
_cell_volume 2111.299172
_symmetry_space_group_name_H-M "P B C M"
_symmetry_group_IT_number 57
_symmetry_cell_setting 'orthorhombic'
loop_
_space_group_symop_operation_xyz
x,y,z
-x,-y,1/2+z
x,1/2-y,-z
-x,1/2+y,1/2-z
-x,-y,-z
x,y,1/2-z
-x,1/2+y,z
x,1/2-y,1/2+z
loop_
_atom_site_type_symbol
_atom_site_label
_atom_site_fract_x
_atom_site_fract_y
_atom_site_fract_z
Si Si1 0.736759 0.332720 0.457590
Si Si2 0.121666 0.549797 0.450651
Si Si3 0.376767 0.436341 0.544383
Si Si4 0.018064 0.167398 0.460374
Si Si5 0.561797 0.099444 0.960809
Si Si6 0.191898 0.107156 0.050287
O O1 0.766871 0.250000 0.500000
O O2 0.741679 0.345383 0.250000
O O3 0.796454 0.394592 0.544683
O O4 0.636578 0.343296 0.513122
O O5 0.102825 0.529151 0.250000
O O6 0.148680 0.475193 0.549242
O O7 0.042914 0.599874 0.524134
O O8 0.359412 0.447983 0.750000
O O9 0.403751 0.518186 0.474978
O O10 0.464050 0.388252 0.524688
O O11 0.287743 0.402660 0.469448
O O12 0.984378 0.250000 0.500000
O O13 0.019431 0.159919 0.250000
O O14 0.116346 0.158086 0.529773
O O15 0.557180 0.097188 0.750000
O O16 0.204257 0.132967 0.250000
#
# Coordination Sequence:
#
# PCOD9437972 Si02
#       6
#     8   8   8   8   8   8
#     4  11  22  37  55  80 115 153 189 231 285 339
#     4  11  22  36  57  87 113 145 189 233 282 336
#     4   9  17  32  55  80 106 140 179 222 275 323
#     4  10  23  40  58  81 113 150 188 229 281 337
#     4   9  18  33  52  77 108 143 180 222 274 326
#     4  10  20  38  60  84 113 147 186 234 283 332
#
# _framework density 22.734817
#
# number of rings (size 3 to 8) (size 9 to 14) (size 15 to 20)
#    0.000    2.000    1.667    2.000    0.000    5.333 
#    0.000    0.833    0.000    4.000    0.000    0.000 
#    0.000    0.000    0.000    0.000    0.000    0.000 
#
# Total GULP energy -268081.588177 kJ/mol
# GULP energy per Si atom -5585.033087 kJ/mol
# Density = 2.268307 g / cm^3
# Si number density = 22.734817 Si / 1000 Ang^3
#
#
#
# Elastic Constant Matrix: (Units=GPa)
#
#
# Indices 1 2 3 4 5 6 
#
# 1 155.0308 7.2999 -0.2006 0.0000 0.0000 0.0000
# 2 7.2999 37.9203 -9.9195 0.0000 0.0000 0.0000
# 3 -0.2006 -9.9195 52.1733 0.0000 0.0000 0.0000
# 4 0.0000 0.0000 0.0000 14.2520 0.0000 0.0000
# 5 0.0000 0.0000 0.0000 0.0000 16.1120 0.0000
# 6 0.0000 0.0000 0.0000 0.0000 0.0000 -3.4156
#
#
#
# Elastic Compliance Matrix: (Units=1/GPa)
#
#
# Indices 1 2 3 4 5 6 
#
# 1 0.006512 -0.001312 -0.000224 0.000000 0.000000 0.000000
# 2 -0.001312 0.028016 0.005321 0.000000 0.000000 0.000000
# 3 -0.000224 0.005321 0.020178 0.000000 0.000000 0.000000
# 4 0.000000 0.000000 0.000000 0.070166 0.000000 0.000000
# 5 0.000000 0.000000 0.000000 0.000000 0.062066 0.000000
# 6 0.000000 0.000000 0.000000 0.000000 0.000000 -0.292777
#
#
# Mechanical properties :
#
#
# Convention : Reuss Voigt Hill
#
# Bulk Modulus (GPa) = 16.05786 26.60933 21.33359
# Shear Modulus (GPa) = -53.96590 21.91931 -16.02329
#
# Velocity S-wave (km/s) = -4.87736 3.10841 -2.65767
# Velocity P-wave (km/s) = 4.96384 4.96111 0.11651
#
# Compressibility (1/GPa) = 0.06227480
#
# Stress axis : x y z
#
# Youngs Moduli (GPa) = 153.56657 35.69423 49.55945
#
# Poissons Ratio (x) = 0.04684 0.01112
# Poissons Ratio (y) = 0.20152 -0.26373
# Poissons Ratio (z) = 0.03447 -0.18995
#
# Static dielectric constant tensor:
#      x y z
#    x 1.899020 0.000000 0.000000 
#    y 0.000000 1.791540 0.000000 
#    z 0.000000 0.000000 1.296890 
# 
# From -- ./inp_files/4530.got.cif
#   From: 2010.05.17/outbox.cif.g08.bks.cpg/sg57_3_cif.got.tgz:4530.got - 2010.06.03 13:58:18.
