data_PCOD9437568
_publ_section_title
;
Structure prediction by ZEFSAII (Michael W. Deem and Ramdas Pophale) SiO2 
 PCOD9437568
Probable space group: P B C M
;
_chemical_formula_sum "Si O2"
_cell_formula_units_Z 60
_cell_length_a 28.927654
_cell_length_b 5.399261
_cell_length_c 18.903904
_cell_angle_alpha 90.000000
_cell_angle_beta 90.000000
_cell_angle_gamma 90.000000
_cell_volume 2952.562090
_symmetry_space_group_name_H-M "P B C M"
_symmetry_group_IT_number 57
_symmetry_cell_setting 'orthorhombic'
loop_
_space_group_symop_operation_xyz
x,y,z
-x,-y,1/2+z
x,1/2-y,-z
-x,1/2+y,1/2-z
-x,-y,-z
x,y,1/2-z
-x,1/2+y,z
x,1/2-y,1/2+z
loop_
_atom_site_type_symbol
_atom_site_label
_atom_site_fract_x
_atom_site_fract_y
_atom_site_fract_z
Si Si1 0.029481 0.525207 0.250000
Si Si2 0.473616 0.943842 0.836412
Si Si3 0.687128 0.592191 0.335493
Si Si4 0.632329 0.411817 0.664560
Si Si5 0.192697 0.478973 0.328772
Si Si6 0.240893 0.833861 0.072598
Si Si7 0.145177 0.403051 0.568656
Si Si8 0.101578 0.701176 0.825286
O O1 0.993821 0.758009 0.250000
O O2 0.063753 0.582708 0.183767
O O3 0.473270 0.943937 0.750000
O O4 0.501319 0.697660 0.858286
O O5 0.420475 0.932475 0.860541
O O6 0.695408 0.590927 0.250000
O O7 0.662339 0.848223 0.355922
O O8 0.732677 0.538090 0.381279
O O9 0.655128 0.352545 0.352398
O O10 0.630690 0.421260 0.750000
O O11 0.208199 0.411273 0.250000
O O12 0.232367 0.601670 0.375700
O O13 0.165624 0.265554 0.368877
O O14 0.152954 0.687928 0.323071
O O15 0.190597 0.937488 0.049885
O O16 0.264892 0.750000 0.000000
O O17 0.131944 0.250000 0.500000
O O18 0.102566 0.549795 0.602996
O O19 0.095690 0.557995 0.750000
#
# Coordination Sequence:
#
# PCOD9437568 Si02
#       8
#     4   8   8   8   8   8   8   8
#     4  10  22  38  66  96 128 158 200 252 300 352
#     4   9  15  24  43  70 102 136 173 224 290 352
#     4  10  21  35  53  73 109 153 194 234 286 345
#     4   9  18  32  48  73 106 146 188 231 286 356
#     4  10  20  36  59  82 116 147 196 244 290 348
#     4  11  23  38  51  81 113 151 200 244 299 343
#     4  11  21  35  59  83 117 157 194 250 302 349
#     4   8  20  35  56  90 117 153 196 240 292 345
#
# _framework density 20.321334
#
# number of rings (size 3 to 8) (size 9 to 14) (size 15 to 20)
#    0.400    1.867    1.333    1.600    3.733    4.800 
#    0.000    0.000    0.000    0.800    0.000    0.000 
#    0.000   10.667    0.000    0.000    0.000    0.000 
#
# Total GULP energy -334505.119272 kJ/mol
# GULP energy per Si atom -5575.085321 kJ/mol
# Density = 2.027508 g / cm^3
# Si number density = 20.321334 Si / 1000 Ang^3
#
#
#
# Elastic Constant Matrix: (Units=GPa)
#
#
# Indices 1 2 3 4 5 6 
#
# 1 78.6453 26.2469 7.7706 0.0000 0.0000 0.0000
# 2 26.2469 92.5115 16.1245 0.0000 0.0000 0.0000
# 3 7.7706 16.1245 69.0814 0.0000 0.0000 0.0000
# 4 0.0000 0.0000 0.0000 1.9328 0.0000 0.0000
# 5 0.0000 0.0000 0.0000 0.0000 -37.5474 0.0000
# 6 0.0000 0.0000 0.0000 0.0000 0.0000 36.1719
#
#
#
# Elastic Compliance Matrix: (Units=1/GPa)
#
#
# Indices 1 2 3 4 5 6 
#
# 1 0.014076 -0.003875 -0.000679 0.000000 0.000000 0.000000
# 2 -0.003875 0.012335 -0.002443 0.000000 0.000000 0.000000
# 3 -0.000679 -0.002443 0.015122 0.000000 0.000000 0.000000
# 4 0.000000 0.000000 0.000000 0.517390 0.000000 0.000000
# 5 0.000000 0.000000 0.000000 0.000000 -0.026633 0.000000
# 6 0.000000 0.000000 0.000000 0.000000 0.000000 0.027646
#
#
# Mechanical properties :
#
#
# Convention : Reuss Voigt Hill
#
# Bulk Modulus (GPa) = 36.31288 37.83580 37.07434
# Shear Modulus (GPa) = 8.57472 12.78453 10.67962
#
# Velocity S-wave (km/s) = 2.05639 2.51094 2.29495
# Velocity P-wave (km/s) = 4.85247 5.20246 5.03051
#
# Compressibility (1/GPa) = 0.02753844
#
# Stress axis : x y z
#
# Youngs Moduli (GPa) = 71.04453 81.07165 66.12749
#
# Poissons Ratio (x) = 0.31417 0.04489
# Poissons Ratio (y) = 0.27531 0.16156
# Poissons Ratio (z) = 0.04822 0.19807
#
# Static dielectric constant tensor:
#      x y z
#    x 1.740240 0.000000 0.000000 
#    y 0.000000 1.784560 0.000000 
#    z 0.000000 0.000000 1.732440 
# 
# From -- ./inp_files/23171.got.cif
#   From: 2010.05.17/outbox.cif.g08.bks.cpg/sg57_12_cif.got.tgz:23171.got - 2010.06.03 13:58:18.
