data_PCOD9437284
_publ_section_title
;
Structure prediction by ZEFSAII (Michael W. Deem and Ramdas Pophale) SiO2 
 PCOD9437284
Probable space group: P B C M
;
_chemical_formula_sum "Si O2"
_cell_formula_units_Z 56
_cell_length_a 21.969499
_cell_length_b 15.021737
_cell_length_c 9.041683
_cell_angle_alpha 90.000000
_cell_angle_beta 90.000000
_cell_angle_gamma 90.000000
_cell_volume 2983.936549
_symmetry_space_group_name_H-M "P B C M"
_symmetry_group_IT_number 57
_symmetry_cell_setting 'orthorhombic'
loop_
_space_group_symop_operation_xyz
x,y,z
-x,-y,1/2+z
x,1/2-y,-z
-x,1/2+y,1/2-z
-x,-y,-z
x,y,1/2-z
-x,1/2+y,z
x,1/2-y,1/2+z
loop_
_atom_site_type_symbol
_atom_site_label
_atom_site_fract_x
_atom_site_fract_y
_atom_site_fract_z
Si Si1 0.062025 0.892337 0.419616
Si Si2 0.812307 0.339911 0.574524
Si Si3 0.938471 0.891932 0.919593
Si Si4 0.590438 0.492770 0.426268
Si Si5 0.279521 0.499471 0.074707
Si Si6 0.812785 0.839998 0.074217
Si Si7 0.502929 0.348827 0.927889
O O1 0.063430 0.861218 0.250000
O O2 0.122352 0.863032 0.504605
O O3 0.000403 0.862728 0.500521
O O4 0.061404 0.000197 0.418613
O O5 0.790358 0.250000 0.500000
O O6 0.819413 0.330676 0.750000
O O7 0.763125 0.415943 0.545127
O O8 0.936714 0.860793 0.750000
O O9 0.878476 0.862322 0.005608
O O10 0.586772 0.479062 0.250000
O O11 0.659263 0.499984 0.481464
O O12 0.554752 0.585629 0.459444
O O13 0.557901 0.409251 0.507118
O O14 0.294650 0.498398 0.250000
O O15 0.236014 0.416239 0.042512
O O16 0.819093 0.831485 0.250000
O O17 0.790835 0.750000 0.000000
O O18 0.508599 0.339732 0.750000
O O19 0.499314 0.250000 0.000000
#
# Coordination Sequence:
#
# PCOD9437284 Si02
#       7
#     8   8   8   8   8   8   8
#     4  10  20  35  58  85 113 148 190 242 302 361
#     4  11  23  40  60  85 115 152 198 245 299 356
#     4  10  20  35  58  85 113 148 191 243 302 362
#     4  10  22  39  63  93 125 163 203 245 293 348
#     4  10  23  42  62  84 121 163 199 245 295 350
#     4  11  23  40  60  85 116 154 199 247 300 356
#     4  10  21  39  64  95 129 163 201 245 293 343
#
# _framework density 18.767154999999999
#
# number of rings (size 3 to 8) (size 9 to 14) (size 15 to 20)
#    0.000    1.714    1.429    2.571    0.000    6.857 
#    0.000    7.143    0.000    0.000    0.000    0.000 
#    0.000    0.000    0.000    0.000    0.000    0.000 
#
# Total GULP energy -312920.544339 kJ/mol
# GULP energy per Si atom -5587.866863 kJ/mol
# Density = 1.872444 g / cm^3
# Si number density = 18.767155 Si / 1000 Ang^3
#
#
#
# Elastic Constant Matrix: (Units=GPa)
#
#
# Indices 1 2 3 4 5 6 
#
# 1 128.5396 65.4397 93.1348 0.0000 0.0000 0.0000
# 2 65.4397 139.5494 84.5420 0.0000 0.0000 0.0000
# 3 93.1348 84.5420 130.4260 0.0000 0.0000 0.0000
# 4 0.0000 0.0000 0.0000 31.0947 0.0000 0.0000
# 5 0.0000 0.0000 0.0000 0.0000 38.8910 0.0000
# 6 0.0000 0.0000 0.0000 0.0000 0.0000 311.7527
#
#
#
# Elastic Compliance Matrix: (Units=1/GPa)
#
#
# Indices 1 2 3 4 5 6 
#
# 1 0.016199 -0.000969 -0.010940 0.000000 0.000000 0.000000
# 2 -0.000969 0.011857 -0.006994 0.000000 0.000000 0.000000
# 3 -0.010940 -0.006994 0.020012 0.000000 0.000000 0.000000
# 4 0.000000 0.000000 0.000000 0.032160 0.000000 0.000000
# 5 0.000000 0.000000 0.000000 0.000000 0.025713 0.000000
# 6 0.000000 0.000000 0.000000 0.000000 0.000000 0.003208
#
#
# Mechanical properties :
#
#
# Convention : Reuss Voigt Hill
#
# Bulk Modulus (GPa) = 97.42740 98.30534 97.86637
# Shear Modulus (GPa) = 33.24990 86.70759 59.97874
#
# Velocity S-wave (km/s) = 4.21373 6.80456 5.65940
# Velocity P-wave (km/s) = 8.70060 10.68791 9.74505
#
# Compressibility (1/GPa) = 0.01026405
#
# Stress axis : x y z
#
# Youngs Moduli (GPa) = 61.73044 84.33510 49.96894
#
# Poissons Ratio (x) = 0.08173 0.54664
# Poissons Ratio (y) = 0.05982 0.34948
# Poissons Ratio (z) = 0.67531 0.58984
#
# Static dielectric constant tensor:
#      x y z
#    x 1.606830 0.000000 0.000000 
#    y 0.000000 1.655500 0.000000 
#    z 0.000000 0.000000 1.633000 
# 
# From -- ./inp_files/8200.got.cif
#   From: 2010.05.17/outbox.cif.g08.bks.cpg/sg57_5_cif.got.tgz:8200.got - 2010.06.03 13:58:18.
