data_PCOD9437230
_publ_section_title
;
Structure prediction by ZEFSAII (Michael W. Deem and Ramdas Pophale) SiO2 
 PCOD9437230
Probable space group: P B C M
;
_chemical_formula_sum "Si O2"
_cell_formula_units_Z 48
_cell_length_a 13.734404
_cell_length_b 19.338729
_cell_length_c 8.623632
_cell_angle_alpha 90.000000
_cell_angle_beta 90.000000
_cell_angle_gamma 90.000000
_cell_volume 2290.487685
_symmetry_space_group_name_H-M "P B C M"
_symmetry_group_IT_number 57
_symmetry_cell_setting 'orthorhombic'
loop_
_space_group_symop_operation_xyz
x,y,z
-x,-y,1/2+z
x,1/2-y,-z
-x,1/2+y,1/2-z
-x,-y,-z
x,y,1/2-z
-x,1/2+y,z
x,1/2-y,1/2+z
loop_
_atom_site_type_symbol
_atom_site_label
_atom_site_fract_x
_atom_site_fract_y
_atom_site_fract_z
Si Si1 0.602048 0.413033 0.066542
Si Si2 0.004311 0.326579 0.566479
Si Si3 0.222324 0.672556 0.434495
Si Si4 0.309085 0.453723 0.063453
Si Si5 0.419755 0.327905 0.935086
Si Si6 0.091458 0.458915 0.432908
O O1 0.585157 0.415910 0.250000
O O2 0.703293 0.375297 0.025350
O O3 0.614722 0.489967 0.999165
O O4 0.518358 0.366653 0.989097
O O5 0.015032 0.250000 0.500000
O O6 0.024212 0.328233 0.750000
O O7 0.890740 0.347467 0.544802
O O8 0.071402 0.379625 0.475966
O O9 0.232799 0.750000 0.500000
O O10 0.243401 0.670508 0.250000
O O11 0.312261 0.453347 0.250000
O O12 0.200416 0.475784 0.011579
O O13 0.335669 0.378047 0.000732
O O14 0.415801 0.325626 0.750000
O O15 0.416074 0.250000 0.000000
O O16 0.090782 0.470096 0.250000
O O17 0.000000 0.500000 0.500000
#
# Coordination Sequence:
#
# PCOD9437230 Si02
#       6
#     8   8   8   8   8   8
#     4  12  24  40  64  94 127 165 206 255 311 371
#     4  10  21  37  59  86 121 162 208 259 313 372
#     4  10  20  35  56  87 124 164 209 261 315 371
#     4  11  25  45  66  93 127 165 208 257 310 368
#     4  12  26  46  70  96 127 165 207 255 307 368
#     4  11  24  41  64  92 126 165 209 259 311 368
#
# _framework density 20.956237000000002
#
# number of rings (size 3 to 8) (size 9 to 14) (size 15 to 20)
#    0.000    1.000    0.000    7.000    0.000    9.333 
#    0.000    0.000    0.000    0.000    0.000    0.000 
#    0.000    0.000    0.000    0.000    0.000    0.000 
#
# Total GULP energy -268643.456117 kJ/mol
# GULP energy per Si atom -5596.738669 kJ/mol
# Density = 2.090854 g / cm^3
# Si number density = 20.956237 Si / 1000 Ang^3
#
#
#
# Elastic Constant Matrix: (Units=GPa)
#
#
# Indices 1 2 3 4 5 6 
#
# 1 98.8455 53.4289 32.9716 0.0000 0.0000 0.0000
# 2 53.4289 113.5769 27.7352 0.0000 0.0000 0.0000
# 3 32.9716 27.7352 92.1725 0.0000 0.0000 0.0000
# 4 0.0000 0.0000 0.0000 41.1438 0.0000 0.0000
# 5 0.0000 0.0000 0.0000 0.0000 27.9287 0.0000
# 6 0.0000 0.0000 0.0000 0.0000 0.0000 55.8427
#
#
#
# Elastic Compliance Matrix: (Units=1/GPa)
#
#
# Indices 1 2 3 4 5 6 
#
# 1 0.014480 -0.005987 -0.003378 0.000000 0.000000 0.000000
# 2 -0.005987 0.011978 -0.001463 0.000000 0.000000 0.000000
# 3 -0.003378 -0.001463 0.012498 0.000000 0.000000 0.000000
# 4 0.000000 0.000000 0.000000 0.024305 0.000000 0.000000
# 5 0.000000 0.000000 0.000000 0.000000 0.035805 0.000000
# 6 0.000000 0.000000 0.000000 0.000000 0.000000 0.017907
#
#
# Mechanical properties :
#
#
# Convention : Reuss Voigt Hill
#
# Bulk Modulus (GPa) = 57.80218 59.20737 58.50477
# Shear Modulus (GPa) = 34.62725 37.68034 36.15379
#
# Velocity S-wave (km/s) = 4.06933 4.24494 4.15806
# Velocity P-wave (km/s) = 7.05135 7.23465 7.14359
#
# Compressibility (1/GPa) = 0.01730039
#
# Stress axis : x y z
#
# Youngs Moduli (GPa) = 69.06290 83.48638 80.01406
#
# Poissons Ratio (x) = 0.49979 0.27030
# Poissons Ratio (y) = 0.41345 0.11704
# Poissons Ratio (z) = 0.23331 0.12212
#
# Static dielectric constant tensor:
#      x y z
#    x 1.779790 0.000000 0.000000 
#    y 0.000000 1.763320 0.000000 
#    z 0.000000 0.000000 1.698050 
# 
# From -- ./inp_files/4723.got.cif
#   From: 2010.05.17/outbox.cif.g08.bks.cpg/sg57_3_cif.got.tgz:4723.got - 2010.06.03 13:58:18.
