data_PCOD9437001
_publ_section_title
;
Structure prediction by ZEFSAII (Michael W. Deem and Ramdas Pophale) SiO2 
 PCOD9437001
Probable space group: P B C M
;
_chemical_formula_sum "Si O2"
_cell_formula_units_Z 56
_cell_length_a 5.223708
_cell_length_b 33.185146
_cell_length_c 16.023491
_cell_angle_alpha 90.000000
_cell_angle_beta 90.000000
_cell_angle_gamma 90.000000
_cell_volume 2777.664356
_symmetry_space_group_name_H-M "P B C M"
_symmetry_group_IT_number 57
_symmetry_cell_setting 'orthorhombic'
loop_
_space_group_symop_operation_xyz
x,y,z
-x,-y,1/2+z
x,1/2-y,-z
-x,1/2+y,1/2-z
-x,-y,-z
x,y,1/2-z
-x,1/2+y,z
x,1/2-y,1/2+z
loop_
_atom_site_type_symbol
_atom_site_label
_atom_site_fract_x
_atom_site_fract_y
_atom_site_fract_z
Si Si1 0.209158 0.120457 0.004294
Si Si2 0.740392 0.194436 0.656146
Si Si3 0.890865 0.055016 0.929816
Si Si4 0.456049 0.606279 0.839527
Si Si5 0.236546 0.515046 0.404410
Si Si6 0.764962 0.791234 0.450242
Si Si7 0.275596 0.061408 0.346043
O O1 0.951860 0.096151 0.980282
O O2 0.374861 0.111852 0.921450
O O3 0.196718 0.168707 0.007542
O O4 0.307215 0.097820 0.087186
O O5 0.703958 0.210302 0.750000
O O6 0.721251 0.146010 0.661626
O O7 0.509438 0.207064 0.595398
O O8 0.012107 0.206160 0.618519
O O9 0.717775 0.067319 0.853065
O O10 0.752124 0.026937 0.997610
O O11 0.145562 0.031200 0.902552
O O12 0.594866 0.605352 0.750000
O O13 0.993173 0.539414 0.366600
O O14 0.492752 0.530095 0.361063
O O15 0.788617 0.750000 0.500000
O O16 0.277107 0.074810 0.250000
#
# Coordination Sequence:
#
# PCOD9437001 Si02
#       7
#     8   8   8   8   8   8   8
#     4  10  22  39  61  86 123 160 202 251 301 363
#     4  10  21  39  61  89 125 160 193 243 307 370
#     4  10  20  37  58  84 118 157 199 249 307 359
#     4  10  20  34  57  88 119 157 198 243 303 368
#     4  10  23  37  61  83 118 157 204 251 306 347
#     4  11  22  39  65  93 121 159 205 248 308 368
#     4  11  23  41  60  83 119 164 208 252 298 349
#
# _framework density 20.160826
#
# number of rings (size 3 to 8) (size 9 to 14) (size 15 to 20)
#    0.000    1.714    2.857    1.286    2.000    4.000 
#    0.000    1.429    0.000    0.000    0.000    0.000 
#    0.000    0.000    0.000    0.000    0.000    0.000 
#
# Total GULP energy -312714.549564 kJ/mol
# GULP energy per Si atom -5584.188385 kJ/mol
# Density = 2.011494 g / cm^3
# Si number density = 20.160826 Si / 1000 Ang^3
#
#
#
# Elastic Constant Matrix: (Units=GPa)
#
#
# Indices 1 2 3 4 5 6 
#
# 1 69.0465 12.9004 14.4182 0.0000 0.0000 0.0000
# 2 12.9004 121.8594 39.6721 0.0000 0.0000 0.0000
# 3 14.4182 39.6721 125.9791 0.0000 0.0000 0.0000
# 4 0.0000 0.0000 0.0000 13.9193 0.0000 0.0000
# 5 0.0000 0.0000 0.0000 0.0000 17.9712 0.0000
# 6 0.0000 0.0000 0.0000 0.0000 0.0000 20.1877
#
#
#
# Elastic Compliance Matrix: (Units=1/GPa)
#
#
# Indices 1 2 3 4 5 6 
#
# 1 0.014980 -0.001145 -0.001354 0.000000 0.000000 0.000000
# 2 -0.001145 0.009231 -0.002776 0.000000 0.000000 0.000000
# 3 -0.001354 -0.002776 0.008967 0.000000 0.000000 0.000000
# 4 0.000000 0.000000 0.000000 0.071843 0.000000 0.000000
# 5 0.000000 0.000000 0.000000 0.000000 0.055644 0.000000
# 6 0.000000 0.000000 0.000000 0.000000 0.000000 0.049535
#
#
# Mechanical properties :
#
#
# Convention : Reuss Voigt Hill
#
# Bulk Modulus (GPa) = 44.19282 50.09626 47.14454
# Shear Modulus (GPa) = 21.90172 27.07525 24.48849
#
# Velocity S-wave (km/s) = 3.29956 3.66862 3.48897
# Velocity P-wave (km/s) = 6.04019 6.54579 6.29806
#
# Compressibility (1/GPa) = 0.02262811
#
# Stress axis : x y z
#
# Youngs Moduli (GPa) = 66.75732 108.32926 111.52079
#
# Poissons Ratio (x) = 0.12404 0.15098
# Poissons Ratio (y) = 0.07644 0.30957
# Poissons Ratio (z) = 0.09038 0.30071
#
# Static dielectric constant tensor:
#      x y z
#    x 1.758190 0.000000 0.000000 
#    y 0.000000 1.734140 0.000000 
#    z 0.000000 0.000000 1.737040 
# 
# From -- ./inp_files/15254.got.cif
#   From: 2010.05.17/outbox.cif.g08.bks.cpg/sg57_8_cif.got.tgz:15254.got - 2010.06.03 13:58:18.
