data_PCOD9437276
_publ_section_title
;
Structure prediction by ZEFSAII (Michael W. Deem and Ramdas Pophale) SiO2 
 PCOD9437276
Probable space group: P B C M
;
_chemical_formula_sum "Si O2"
_cell_formula_units_Z 48
_cell_length_a 18.504655
_cell_length_b 15.452515
_cell_length_c 8.514184
_cell_angle_alpha 90.000000
_cell_angle_beta 90.000000
_cell_angle_gamma 90.000000
_cell_volume 2434.575223
_symmetry_space_group_name_H-M "P B C M"
_symmetry_group_IT_number 57
_symmetry_cell_setting 'orthorhombic'
loop_
_space_group_symop_operation_xyz
x,y,z
-x,-y,1/2+z
x,1/2-y,-z
-x,1/2+y,1/2-z
-x,-y,-z
x,y,1/2-z
-x,1/2+y,z
x,1/2-y,1/2+z
loop_
_atom_site_type_symbol
_atom_site_label
_atom_site_fract_x
_atom_site_fract_y
_atom_site_fract_z
Si Si1 0.049811 0.657792 0.563558
Si Si2 0.112119 0.344605 0.563333
Si Si3 0.611442 0.655828 0.437713
Si Si4 0.326120 0.518393 0.439311
Si Si5 0.444991 0.844725 0.939644
Si Si6 0.835370 0.476393 0.562749
O O1 0.078050 0.750000 0.500000
O O2 0.037892 0.662804 0.750000
O O3 0.105029 0.581983 0.521936
O O4 0.972595 0.643887 0.480279
O O5 0.133671 0.250000 0.500000
O O6 0.121271 0.347892 0.750000
O O7 0.153238 0.423639 0.482571
O O8 0.633278 0.750000 0.500000
O O9 0.612815 0.657296 0.250000
O O10 0.659181 0.577538 0.499168
O O11 0.527987 0.639812 0.490255
O O12 0.328618 0.516124 0.250000
O O13 0.389381 0.582402 0.495492
O O14 0.246043 0.549123 0.483943
O O15 0.444210 0.844128 0.750000
O O16 0.423808 0.750000 0.000000
O O17 0.843842 0.466134 0.750000
#
# Coordination Sequence:
#
# PCOD9437276 Si02
#       6
#     8   8   8   8   8   8
#     4  11  22  39  62  87 114 147 187 232 278 330
#     4  11  22  39  62  87 113 145 187 234 280 332
#     4  10  20  35  58  83 110 143 185 231 278 330
#     4  10  22  38  56  80 114 149 185 228 277 329
#     4   9  19  36  57  83 110 143 184 230 278 327
#     4  11  23  39  57  82 116 153 188 229 279 334
#
# _framework density 19.715964
#
# number of rings (size 3 to 8) (size 9 to 14) (size 15 to 20)
#    0.000    1.667    0.000    6.000    0.000    4.000 
#    0.000    1.667    0.000    0.000    0.000    0.000 
#    0.000    0.000    0.000    0.000    0.000    0.000 
#
# Total GULP energy -268323.888491 kJ/mol
# GULP energy per Si atom -5590.081010 kJ/mol
# Density = 1.967109 g / cm^3
# Si number density = 19.715964 Si / 1000 Ang^3
#
#
#
# Elastic Constant Matrix: (Units=GPa)
#
#
# Indices 1 2 3 4 5 6 
#
# 1 15.6482 4.8677 -2.8815 0.0000 0.0000 0.0000
# 2 4.8677 47.7743 -12.2091 0.0000 0.0000 0.0000
# 3 -2.8815 -12.2091 25.7208 0.0000 0.0000 0.0000
# 4 0.0000 0.0000 0.0000 35.7248 0.0000 0.0000
# 5 0.0000 0.0000 0.0000 0.0000 11.7208 0.0000
# 6 0.0000 0.0000 0.0000 0.0000 0.0000 -23.1278
#
#
#
# Elastic Compliance Matrix: (Units=1/GPa)
#
#
# Indices 1 2 3 4 5 6 
#
# 1 0.066518 -0.005546 0.004820 0.000000 0.000000 0.000000
# 2 -0.005546 0.024284 0.010906 0.000000 0.000000 0.000000
# 3 0.004820 0.010906 0.044596 0.000000 0.000000 0.000000
# 4 0.000000 0.000000 0.000000 0.027992 0.000000 0.000000
# 5 0.000000 0.000000 0.000000 0.000000 0.085319 0.000000
# 6 0.000000 0.000000 0.000000 0.000000 0.000000 -0.043238
#
#
# Mechanical properties :
#
#
# Convention : Reuss Voigt Hill
#
# Bulk Modulus (GPa) = 6.42028 7.63305 7.02667
# Shear Modulus (GPa) = 21.09445 11.48798 16.29121
#
# Velocity S-wave (km/s) = 3.27451 2.41648 2.87765
# Velocity P-wave (km/s) = 4.19046 3.41552 3.82268
#
# Compressibility (1/GPa) = 0.15575639
#
# Stress axis : x y z
#
# Youngs Moduli (GPa) = 15.03359 41.17961 22.42370
#
# Poissons Ratio (x) = 0.22837 -0.10807
# Poissons Ratio (y) = 0.08337 -0.24455
# Poissons Ratio (z) = -0.07246 -0.44909
#
# Static dielectric constant tensor:
#      x y z
#    x 1.699150 0.000000 0.000000 
#    y 0.000000 1.668280 0.000000 
#    z 0.000000 0.000000 1.659190 
# 
# From -- ./inp_files/6492.got.cif
#   From: 2010.05.17/outbox.cif.g08.bks.cpg/sg57_4_cif.got.tgz:6492.got - 2010.06.03 13:58:18.
