data_PCOD9437450
_publ_section_title
;
Structure prediction by ZEFSAII (Michael W. Deem and Ramdas Pophale) SiO2 
 PCOD9437450
Probable space group: P B C M
;
_chemical_formula_sum "Si O2"
_cell_formula_units_Z 32
_cell_length_a 16.262104
_cell_length_b 8.823655
_cell_length_c 10.748864
_cell_angle_alpha 90.000000
_cell_angle_beta 90.000000
_cell_angle_gamma 90.000000
_cell_volume 1542.367343
_symmetry_space_group_name_H-M "P B C M"
_symmetry_group_IT_number 57
_symmetry_cell_setting 'orthorhombic'
loop_
_space_group_symop_operation_xyz
x,y,z
-x,-y,1/2+z
x,1/2-y,-z
-x,1/2+y,1/2-z
-x,-y,-z
x,y,1/2-z
-x,1/2+y,z
x,1/2-y,1/2+z
loop_
_atom_site_type_symbol
_atom_site_label
_atom_site_fract_x
_atom_site_fract_y
_atom_site_fract_z
Si Si1 0.532850 0.360051 0.382022
Si Si2 0.363223 0.071623 0.978473
Si Si3 0.893031 0.961854 0.750000
Si Si4 0.927398 0.598587 0.750000
Si Si5 0.180629 0.066654 0.984797
O O1 0.539831 0.250000 0.500000
O O2 0.541079 0.281718 0.250000
O O3 0.603042 0.485340 0.400517
O O4 0.442727 0.436796 0.389749
O O5 0.272516 0.015765 0.945470
O O6 0.354328 0.250000 0.000000
O O7 0.914457 0.781102 0.750000
O O8 0.844425 0.993224 0.621321
O O9 0.977666 0.054134 0.750000
O O10 0.883349 0.534920 0.625681
O O11 0.181113 0.250000 0.000000
#
# Coordination Sequence:
#
# PCOD9437450 Si02
#       5
#     8   8   4   4   8
#     4  10  22  39  58  85 123 160 193 238 293 345
#     4   9  20  36  58  85 111 152 197 240 279 331
#     4  10  20  36  58  81 110 142 178 227 282 338
#     4  10  20  36  56  83 110 140 178 227 282 338
#     4   9  19  35  57  84 109 140 187 233 273 329
#
# _framework density 20.747326000000001
#
# number of rings (size 3 to 8) (size 9 to 14) (size 15 to 20)
#    0.000    2.500    0.000    0.750    3.500    9.000 
#    4.500    2.500    0.000    0.000    0.000    0.000 
#    0.000    0.000    0.000    0.000    0.000    0.000 
#
# Total GULP energy -178270.894305 kJ/mol
# GULP energy per Si atom -5570.965447 kJ/mol
# Density = 2.070010 g / cm^3
# Si number density = 20.747326 Si / 1000 Ang^3
#
#
#
# Elastic Constant Matrix: (Units=GPa)
#
#
# Indices 1 2 3 4 5 6 
#
# 1 101.1829 19.4915 17.2724 0.0000 0.0000 0.0000
# 2 19.4915 31.4414 32.4830 0.0000 0.0000 0.0000
# 3 17.2724 32.4830 142.6421 0.0000 0.0000 0.0000
# 4 0.0000 0.0000 0.0000 16.3850 0.0000 0.0000
# 5 0.0000 0.0000 0.0000 0.0000 -30.6264 0.0000
# 6 0.0000 0.0000 0.0000 0.0000 0.0000 -185.8166
#
#
#
# Elastic Compliance Matrix: (Units=1/GPa)
#
#
# Indices 1 2 3 4 5 6 
#
# 1 0.011233 -0.007268 0.000295 0.000000 0.000000 0.000000
# 2 -0.007268 0.046293 -0.009662 0.000000 0.000000 0.000000
# 3 0.000295 -0.009662 0.009175 0.000000 0.000000 0.000000
# 4 0.000000 0.000000 0.000000 0.061031 0.000000 0.000000
# 5 0.000000 0.000000 0.000000 0.000000 -0.032652 0.000000
# 6 0.000000 0.000000 0.000000 0.000000 0.000000 -0.005382
#
#
# Mechanical properties :
#
#
# Convention : Reuss Voigt Hill
#
# Bulk Modulus (GPa) = 29.91283 45.97334 37.94309
# Shear Modulus (GPa) = 37.28183 -26.27698 5.50243
#
# Velocity S-wave (km/s) = 4.24364 -3.56269 1.63030
# Velocity P-wave (km/s) = 6.20163 2.29851 4.67672
#
# Compressibility (1/GPa) = 0.03343047
#
# Stress axis : x y z
#
# Youngs Moduli (GPa) = 89.02419 21.60146 108.99083
#
# Poissons Ratio (x) = 0.15701 -0.03215
# Poissons Ratio (y) = 0.64707 1.05306
# Poissons Ratio (z) = -0.02626 0.20871
#
# Static dielectric constant tensor:
#      x y z
#    x 1.734930 0.000000 0.000000 
#    y 0.000000 1.778810 0.000000 
#    z 0.000000 0.000000 1.774200 
# 
# From -- ./inp_files/13443.got.cif
#   From: 2010.05.17/outbox.cif.g08.bks.cpg/sg57_7_cif.got.tgz:13443.got - 2010.06.03 13:58:18.
