data_PCOD9437356
_publ_section_title
;
Structure prediction by ZEFSAII (Michael W. Deem and Ramdas Pophale) SiO2 
 PCOD9437356
Probable space group: P B C M
;
_chemical_formula_sum "Si O2"
_cell_formula_units_Z 40
_cell_length_a 7.151715
_cell_length_b 18.962655
_cell_length_c 16.350537
_cell_angle_alpha 90.000000
_cell_angle_beta 90.000000
_cell_angle_gamma 90.000000
_cell_volume 2217.386319
_symmetry_space_group_name_H-M "P B C M"
_symmetry_group_IT_number 57
_symmetry_cell_setting 'orthorhombic'
loop_
_space_group_symop_operation_xyz
x,y,z
-x,-y,1/2+z
x,1/2-y,-z
-x,1/2+y,1/2-z
-x,-y,-z
x,y,1/2-z
-x,1/2+y,z
x,1/2-y,1/2+z
loop_
_atom_site_type_symbol
_atom_site_label
_atom_site_fract_x
_atom_site_fract_y
_atom_site_fract_z
Si Si1 0.198122 0.515581 0.044014
Si Si2 0.486803 0.404323 0.453247
Si Si3 0.274057 0.305292 0.573775
Si Si4 0.405921 0.773066 0.155713
Si Si5 0.114486 0.650433 0.151539
O O1 0.308053 0.447849 0.080544
O O2 0.178906 0.577494 0.110402
O O3 0.343886 0.544401 0.976440
O O4 0.000000 0.500000 0.000000
O O5 0.400363 0.366020 0.532998
O O6 0.573735 0.343388 0.397186
O O7 0.234561 0.250000 0.500000
O O8 0.398192 0.266455 0.641326
O O9 0.087343 0.333854 0.613607
O O10 0.373748 0.790077 0.250000
O O11 0.248319 0.716695 0.129071
O O12 0.111598 0.645322 0.250000
#
# Coordination Sequence:
#
# PCOD9437356 Si02
#       5
#     8   8   8   8   8
#     4  11  22  39  60  87 119 156 200 245 292 362
#     4  10  22  38  61  87 114 158 203 239 297 357
#     4  10  20  35  61  89 114 154 198 242 284 351
#     4  10  22  39  59  87 121 152 194 251 301 347
#     4  11  23  37  59  90 121 156 198 250 303 351
#
# _framework density 18.039255000000001
#
# number of rings (size 3 to 8) (size 9 to 14) (size 15 to 20)
#    0.000    1.600    4.000    0.600    2.800    0.800 
#    0.000    1.000    0.000    0.000    0.000    0.000 
#    0.000    0.000    0.000    0.000    0.000    0.000 
#
# Total GULP energy -223066.398804 kJ/mol
# GULP energy per Si atom -5576.659970 kJ/mol
# Density = 1.799820 g / cm^3
# Si number density = 18.039255 Si / 1000 Ang^3
#
#
#
# Elastic Constant Matrix: (Units=GPa)
#
#
# Indices 1 2 3 4 5 6 
#
# 1 109.1718 49.0261 45.2290 0.0000 0.0000 0.0000
# 2 49.0261 99.7329 36.5899 0.0000 0.0000 0.0000
# 3 45.2290 36.5899 49.8346 0.0000 0.0000 0.0000
# 4 0.0000 0.0000 0.0000 18.1554 0.0000 0.0000
# 5 0.0000 0.0000 0.0000 0.0000 20.7958 0.0000
# 6 0.0000 0.0000 0.0000 0.0000 0.0000 32.5950
#
#
#
# Elastic Compliance Matrix: (Units=1/GPa)
#
#
# Indices 1 2 3 4 5 6 
#
# 1 0.015459 -0.003356 -0.011566 0.000000 0.000000 0.000000
# 2 -0.003356 0.014452 -0.007565 0.000000 0.000000 0.000000
# 3 -0.011566 -0.007565 0.036118 0.000000 0.000000 0.000000
# 4 0.000000 0.000000 0.000000 0.055080 0.000000 0.000000
# 5 0.000000 0.000000 0.000000 0.000000 0.048087 0.000000
# 6 0.000000 0.000000 0.000000 0.000000 0.000000 0.030680
#
#
# Mechanical properties :
#
#
# Convention : Reuss Voigt Hill
#
# Bulk Modulus (GPa) = 47.49603 57.82547 52.66075
# Shear Modulus (GPa) = 19.85169 22.83552 21.34360
#
# Velocity S-wave (km/s) = 3.32093 3.56178 3.44346
# Velocity P-wave (km/s) = 6.41024 7.00285 6.71309
#
# Compressibility (1/GPa) = 0.02105439
#
# Stress axis : x y z
#
# Youngs Moduli (GPa) = 64.68907 69.19476 27.68674
#
# Poissons Ratio (x) = 0.23219 0.32023
# Poissons Ratio (y) = 0.21707 0.20946
# Poissons Ratio (z) = 0.74820 0.52349
#
# Static dielectric constant tensor:
#      x y z
#    x 1.608870 0.000000 0.000000 
#    y 0.000000 1.659280 0.000000 
#    z 0.000000 0.000000 1.597920 
# 
# From -- ./inp_files/19971.got.cif
#   From: 2010.05.17/outbox.cif.g08.bks.cpg/sg57_10_cif.got.tgz:19971.got - 2010.06.03 13:58:18.
