data_PCOD9437508
_publ_section_title
;
Structure prediction by ZEFSAII (Michael W. Deem and Ramdas Pophale) SiO2 
 PCOD9437508
Probable space group: P B C M
;
_chemical_formula_sum "Si O2"
_cell_formula_units_Z 32
_cell_length_a 13.216389
_cell_length_b 8.641101
_cell_length_c 12.177129
_cell_angle_alpha 90.000000
_cell_angle_beta 90.000000
_cell_angle_gamma 90.000000
_cell_volume 1390.678694
_symmetry_space_group_name_H-M "P B C M"
_symmetry_group_IT_number 57
_symmetry_cell_setting 'orthorhombic'
loop_
_space_group_symop_operation_xyz
x,y,z
-x,-y,1/2+z
x,1/2-y,-z
-x,1/2+y,1/2-z
-x,-y,-z
x,y,1/2-z
-x,1/2+y,z
x,1/2-y,1/2+z
loop_
_atom_site_type_symbol
_atom_site_label
_atom_site_fract_x
_atom_site_fract_y
_atom_site_fract_z
Si Si1 0.049245 0.546247 0.127897
Si Si2 0.853371 0.784435 0.878638
Si Si3 0.790899 0.250000 0.500000
Si Si4 0.380114 0.946557 0.120001
Si Si5 0.550251 0.750000 0.000000
O O1 0.055297 0.609228 0.250000
O O2 0.076749 0.367186 0.130540
O O3 0.135438 0.639912 0.066765
O O4 0.932238 0.576423 0.098701
O O5 0.809781 0.802152 0.750000
O O6 0.801034 0.750000 0.000000
O O7 0.717335 0.143195 0.573774
O O8 0.377268 0.956945 0.250000
O O9 0.476973 0.845221 0.082250
O O10 0.391470 0.116502 0.066668
#
# Coordination Sequence:
#
# PCOD9437508 Si02
#       5
#     8   8   4   8   4
#     4  10  21  37  56  81 113 150 195 250 296 343
#     4  10  20  36  58  81 107 146 200 249 295 345
#     4  11  22  36  56  81 124 156 190 231 296 354
#     4  10  20  38  62  89 117 152 188 231 288 344
#     4   9  20  38  64  91 114 144 192 239 270 344
#
# _framework density 23.010348
#
# number of rings (size 3 to 8) (size 9 to 14) (size 15 to 20)
#    0.000    2.000    1.250    2.250    0.000    0.000 
#    2.250    5.000    0.000    0.000    0.000    0.000 
#    0.000    0.000    0.000    0.000    0.000    0.000 
#
# Total GULP energy -178545.392725 kJ/mol
# GULP energy per Si atom -5579.543523 kJ/mol
# Density = 2.295797 g / cm^3
# Si number density = 23.010348 Si / 1000 Ang^3
#
#
#
# Elastic Constant Matrix: (Units=GPa)
#
#
# Indices 1 2 3 4 5 6 
#
# 1 78.0977 52.2188 78.5446 0.0000 0.0000 0.0000
# 2 52.2188 138.1437 52.0958 0.0000 0.0000 0.0000
# 3 78.5446 52.0958 227.9079 0.0000 0.0000 0.0000
# 4 0.0000 0.0000 0.0000 23.4086 0.0000 0.0000
# 5 0.0000 0.0000 0.0000 0.0000 469.8678 0.0000
# 6 0.0000 0.0000 0.0000 0.0000 0.0000 174.2329
#
#
#
# Elastic Compliance Matrix: (Units=1/GPa)
#
#
# Indices 1 2 3 4 5 6 
#
# 1 0.023965 -0.006505 -0.006772 0.000000 0.000000 0.000000
# 2 -0.006505 0.009687 0.000027 0.000000 0.000000 0.000000
# 3 -0.006772 0.000027 0.006715 0.000000 0.000000 0.000000
# 4 0.000000 0.000000 0.000000 0.042719 0.000000 0.000000
# 5 0.000000 0.000000 0.000000 0.000000 0.002128 0.000000
# 6 0.000000 0.000000 0.000000 0.000000 0.000000 0.005739
#
#
# Mechanical properties :
#
#
# Convention : Reuss Voigt Hill
#
# Bulk Modulus (GPa) = 72.10692 89.98528 81.04610
# Shear Modulus (GPa) = 40.95792 150.92121 95.93957
#
# Velocity S-wave (km/s) = 4.22356 8.10745 6.46410
# Velocity P-wave (km/s) = 7.42895 11.26199 9.53996
#
# Compressibility (1/GPa) = 0.01386830
#
# Stress axis : x y z
#
# Youngs Moduli (GPa) = 41.72793 103.22725 148.91220
#
# Poissons Ratio (x) = 0.67148 1.00845
# Poissons Ratio (y) = 0.27144 -0.00409
# Poissons Ratio (z) = 0.28259 -0.00283
#
# Static dielectric constant tensor:
#      x y z
#    x 1.844210 0.000000 0.000000 
#    y 0.000000 1.804010 0.000000 
#    z 0.000000 0.000000 1.968340 
# 
# From -- ./inp_files/13465.got.cif
#   From: 2010.05.17/outbox.cif.g08.bks.cpg/sg57_7_cif.got.tgz:13465.got - 2010.06.03 13:58:18.
