data_PCOD9437828
_publ_section_title
;
Structure prediction by ZEFSAII (Michael W. Deem and Ramdas Pophale) SiO2 
 PCOD9437828
Probable space group: P B C M
;
_chemical_formula_sum "Si O2"
_cell_formula_units_Z 56
_cell_length_a 20.529564
_cell_length_b 8.442199
_cell_length_c 15.573667
_cell_angle_alpha 90.000000
_cell_angle_beta 90.000000
_cell_angle_gamma 90.000000
_cell_volume 2699.144874
_symmetry_space_group_name_H-M "P B C M"
_symmetry_group_IT_number 57
_symmetry_cell_setting 'orthorhombic'
loop_
_space_group_symop_operation_xyz
x,y,z
-x,-y,1/2+z
x,1/2-y,-z
-x,1/2+y,1/2-z
-x,-y,-z
x,y,1/2-z
-x,1/2+y,z
x,1/2-y,1/2+z
loop_
_atom_site_type_symbol
_atom_site_label
_atom_site_fract_x
_atom_site_fract_y
_atom_site_fract_z
Si Si1 0.654779 0.041261 0.154028
Si Si2 0.297805 0.065313 0.478486
Si Si3 0.530739 0.618715 0.932083
Si Si4 0.945620 0.531477 0.347209
Si Si5 0.394032 0.895999 0.153695
Si Si6 0.837086 0.432052 0.475225
Si Si7 0.931353 0.639691 0.918445
O O1 0.674556 0.989351 0.250000
O O2 0.588645 0.950479 0.124888
O O3 0.641688 0.227902 0.156540
O O4 0.700476 0.014232 0.072737
O O5 0.300718 0.250000 0.500000
O O6 0.355933 0.002262 0.416679
O O7 0.228678 0.012841 0.440878
O O8 0.467952 0.651077 0.872784
O O9 0.553733 0.750000 0.000000
O O10 0.500000 0.500000 0.000000
O O11 0.947050 0.476141 0.250000
O O12 0.891984 0.440268 0.402461
O O13 0.927284 0.718074 0.350256
O O14 0.014750 0.486422 0.389888
O O15 0.394088 0.967518 0.250000
O O16 0.825979 0.250000 0.500000
O O17 0.867567 0.542911 0.551226
O O18 0.951462 0.750000 0.000000
#
# Coordination Sequence:
#
# PCOD9437828 Si02
#       7
#     8   8   8   8   8   8   8
#     4  11  24  42  64  93 126 163 210 259 314 376
#     4  12  25  44  65  89 122 164 209 262 315 372
#     4  12  21  39  65  93 127 165 204 252 312 368
#     4  11  21  36  61  95 129 160 202 255 306 357
#     4  11  24  42  65  92 126 167 208 255 313 377
#     4  11  23  42  66  86 118 166 210 249 307 374
#     4  10  20  37  60  90 126 165 204 246 302 367
#
# _framework density 20.747312000000001
#
# number of rings (size 3 to 8) (size 9 to 14) (size 15 to 20)
#    0.000    0.857    2.857    6.857    0.000    1.143 
#    0.000    4.286    0.000    0.000    0.000    0.000 
#    0.000    0.000    0.000    0.000    0.000    0.000 
#
# Total GULP energy -312390.507760 kJ/mol
# GULP energy per Si atom -5578.401924 kJ/mol
# Density = 2.070009 g / cm^3
# Si number density = 20.747312 Si / 1000 Ang^3
#
#
#
# Elastic Constant Matrix: (Units=GPa)
#
#
# Indices 1 2 3 4 5 6 
#
# 1 76.3066 8.7414 0.2389 0.0000 0.0000 0.0000
# 2 8.7414 105.0633 9.9274 0.0000 0.0000 0.0000
# 3 0.2389 9.9274 98.6867 0.0000 0.0000 0.0000
# 4 0.0000 0.0000 0.0000 7.8772 0.0000 0.0000
# 5 0.0000 0.0000 0.0000 0.0000 -0.2833 0.0000
# 6 0.0000 0.0000 0.0000 0.0000 0.0000 30.2899
#
#
#
# Elastic Compliance Matrix: (Units=1/GPa)
#
#
# Indices 1 2 3 4 5 6 
#
# 1 0.013232 -0.001108 0.000079 0.000000 0.000000 0.000000
# 2 -0.001108 0.009702 -0.000973 0.000000 0.000000 0.000000
# 3 0.000079 -0.000973 0.010231 0.000000 0.000000 0.000000
# 4 0.000000 0.000000 0.000000 0.126949 0.000000 0.000000
# 5 0.000000 0.000000 0.000000 0.000000 -3.529662 0.000000
# 6 0.000000 0.000000 0.000000 0.000000 0.000000 0.033014
#
#
# Mechanical properties :
#
#
# Convention : Reuss Voigt Hill
#
# Bulk Modulus (GPa) = 34.29321 35.31911 34.80616
# Shear Modulus (GPa) = -1.50475 24.98669 11.74097
#
# Velocity S-wave (km/s) = -0.85255 3.47412 2.38145
# Velocity P-wave (km/s) = 3.94914 5.75787 4.93704
#
# Compressibility (1/GPa) = 0.02916029
#
# Stress axis : x y z
#
# Youngs Moduli (GPa) = 75.57579 103.06877 97.74415
#
# Poissons Ratio (x) = 0.11424 -0.00777
# Poissons Ratio (y) = 0.08377 0.09514
# Poissons Ratio (z) = -0.00601 0.10032
#
# Static dielectric constant tensor:
#      x y z
#    x 1.766820 0.000000 0.000000 
#    y 0.000000 1.731500 0.000000 
#    z 0.000000 0.000000 1.791120 
# 
# From -- ./inp_files/19333.got.cif
#   From: 2010.05.17/outbox.cif.g08.bks.cpg/sg57_10_cif.got.tgz:19333.got - 2010.06.03 13:58:18.
