data_PCOD9437651
_publ_section_title
;
Structure prediction by ZEFSAII (Michael W. Deem and Ramdas Pophale) SiO2 
 PCOD9437651
Probable space group: P B C M
;
_chemical_formula_sum "Si O2"
_cell_formula_units_Z 64
_cell_length_a 24.376407
_cell_length_b 15.421871
_cell_length_c 8.714362
_cell_angle_alpha 90.000000
_cell_angle_beta 90.000000
_cell_angle_gamma 90.000000
_cell_volume 3275.988400
_symmetry_space_group_name_H-M "P B C M"
_symmetry_group_IT_number 57
_symmetry_cell_setting 'orthorhombic'
loop_
_space_group_symop_operation_xyz
x,y,z
-x,-y,1/2+z
x,1/2-y,-z
-x,1/2+y,1/2-z
-x,-y,-z
x,y,1/2-z
-x,1/2+y,z
x,1/2-y,1/2+z
loop_
_atom_site_type_symbol
_atom_site_label
_atom_site_fract_x
_atom_site_fract_y
_atom_site_fract_z
Si Si1 0.620632 0.620496 0.928549
Si Si2 0.499391 0.658733 0.934426
Si Si3 0.740161 0.837646 0.064834
Si Si4 0.921140 0.480633 0.935124
Si Si5 0.205905 0.982020 0.565046
Si Si6 0.288760 0.841529 0.068341
Si Si7 0.396653 0.582519 0.426849
Si Si8 0.010446 0.349147 0.065531
O O1 0.619546 0.648608 0.750000
O O2 0.561604 0.646508 0.994644
O O3 0.677506 0.653827 0.996631
O O4 0.622691 0.516742 0.930252
O O5 0.500008 0.657224 0.750000
O O6 0.479038 0.750000 0.000000
O O7 0.455752 0.589728 0.994648
O O8 0.738148 0.834894 0.250000
O O9 0.773780 0.922327 0.021106
O O10 0.764885 0.750000 0.000000
O O11 0.926777 0.474143 0.750000
O O12 0.857516 0.470315 0.976503
O O13 0.942828 0.578080 0.976719
O O14 0.956821 0.403088 0.009034
O O15 0.210720 0.974465 0.750000
O O16 0.246955 0.913943 0.490582
O O17 0.289083 0.838635 0.250000
O O18 0.271316 0.750000 0.000000
O O19 0.349988 0.862627 0.009706
O O20 0.401447 0.609984 0.250000
O O21 0.009874 0.341539 0.250000
O O22 0.014927 0.250000 0.000000
#
# Coordination Sequence:
#
# PCOD9437651 Si02
#       8
#     8   8   8   8   8   8   8   8
#     4   9  19  36  58  80 109 146 187 234 292 351
#     4  11  22  36  53  80 111 143 185 235 289 354
#     4  10  20  37  59  85 116 154 194 239 293 351
#     4   9  20  38  61  89 120 162 207 248 294 344
#     4  10  21  41  64  86 121 160 200 248 297 347
#     4  12  25  41  62  88 116 152 198 245 299 361
#     4  11  21  39  61  81 109 147 188 239 299 355
#     4  10  20  36  60  91 127 165 203 247 295 347
#
# _framework density 19.536090000000002
#
# number of rings (size 3 to 8) (size 9 to 14) (size 15 to 20)
#    0.000    1.750    1.250    3.375    0.000    2.500 
#    0.000    2.500    0.000    0.000    0.000    0.000 
#    0.000    0.000    0.000    0.000    0.000    0.000 
#
# Total GULP energy -357238.245692 kJ/mol
# GULP energy per Si atom -5581.847589 kJ/mol
# Density = 1.949162 g / cm^3
# Si number density = 19.536090 Si / 1000 Ang^3
#
#
#
# Elastic Constant Matrix: (Units=GPa)
#
#
# Indices 1 2 3 4 5 6 
#
# 1 75.0269 19.1861 30.5308 0.0000 0.0000 0.0000
# 2 19.1861 102.9629 29.1870 0.0000 0.0000 0.0000
# 3 30.5308 29.1870 50.8985 0.0000 0.0000 0.0000
# 4 0.0000 0.0000 0.0000 27.5304 0.0000 0.0000
# 5 0.0000 0.0000 0.0000 0.0000 13.1115 0.0000
# 6 0.0000 0.0000 0.0000 0.0000 0.0000 18.6594
#
#
#
# Elastic Compliance Matrix: (Units=1/GPa)
#
#
# Indices 1 2 3 4 5 6 
#
# 1 0.017643 -0.000343 -0.010386 0.000000 0.000000 0.000000
# 2 -0.000343 0.011604 -0.006448 0.000000 0.000000 0.000000
# 3 -0.010386 -0.006448 0.029574 0.000000 0.000000 0.000000
# 4 0.000000 0.000000 0.000000 0.036323 0.000000 0.000000
# 5 0.000000 0.000000 0.000000 0.000000 0.076269 0.000000
# 6 0.000000 0.000000 0.000000 0.000000 0.000000 0.053592
#
#
# Mechanical properties :
#
#
# Convention : Reuss Voigt Hill
#
# Bulk Modulus (GPa) = 40.87257 42.96621 41.91939
# Shear Modulus (GPa) = 18.69045 21.85921 20.27483
#
# Velocity S-wave (km/s) = 3.09643 3.34865 3.22501
# Velocity P-wave (km/s) = 5.80955 6.08212 5.94740
#
# Compressibility (1/GPa) = 0.02446629
#
# Stress axis : x y z
#
# Youngs Moduli (GPa) = 56.68072 86.17638 33.81313
#
# Poissons Ratio (x) = 0.02960 0.35118
# Poissons Ratio (y) = 0.01947 0.21803
# Poissons Ratio (z) = 0.58867 0.55568
#
# Static dielectric constant tensor:
#      x y z
#    x 1.688890 0.000000 0.000000 
#    y 0.000000 1.689880 0.000000 
#    z 0.000000 0.000000 1.671250 
# 
# From -- ./inp_files/9282.got.cif
#   From: 2010.05.17/outbox.cif.g08.bks.cpg/sg57_5_cif.got.tgz:9282.got - 2010.06.03 13:58:18.
