data_PCOD9437856
_publ_section_title
;
Structure prediction by ZEFSAII (Michael W. Deem and Ramdas Pophale) SiO2 
 PCOD9437856
Probable space group: P B C M
;
_chemical_formula_sum "Si O2"
_cell_formula_units_Z 40
_cell_length_a 13.147890
_cell_length_b 17.924474
_cell_length_c 8.244598
_cell_angle_alpha 90.000000
_cell_angle_beta 90.000000
_cell_angle_gamma 90.000000
_cell_volume 1942.996269
_symmetry_space_group_name_H-M "P B C M"
_symmetry_group_IT_number 57
_symmetry_cell_setting 'orthorhombic'
loop_
_space_group_symop_operation_xyz
x,y,z
-x,-y,1/2+z
x,1/2-y,-z
-x,1/2+y,1/2-z
-x,-y,-z
x,y,1/2-z
-x,1/2+y,z
x,1/2-y,1/2+z
loop_
_atom_site_type_symbol
_atom_site_label
_atom_site_fract_x
_atom_site_fract_y
_atom_site_fract_z
Si Si1 0.115187 0.834855 0.945135
Si Si2 0.531554 0.582727 0.446698
Si Si3 0.259285 0.162654 0.443471
Si Si4 0.936038 0.928796 0.065099
Si Si5 0.332564 0.834680 0.944751
O O1 0.099473 0.841172 0.750000
O O2 0.224231 0.871526 0.989855
O O3 0.124206 0.750000 0.000000
O O4 0.021477 0.866274 0.042998
O O5 0.500000 0.500000 0.500000
O O6 0.534902 0.583569 0.250000
O O7 0.637003 0.621185 0.503067
O O8 0.435349 0.629963 0.507177
O O9 0.249570 0.250000 0.500000
O O10 0.264555 0.166971 0.250000
O O11 0.164582 0.108066 0.486712
O O12 0.909749 0.945459 0.250000
O O13 0.000000 0.000000 0.000000
O O14 0.334657 0.836701 0.750000
O O15 0.331582 0.750000 0.000000
#
# Coordination Sequence:
#
# PCOD9437856 Si02
#       5
#     8   8   8   8   8
#     4  10  20  37  61  90 123 160 203 251 306 371
#     4  10  23  40  61  92 128 165 210 261 316 376
#     4  11  24  44  68  97 131 173 223 269 321 388
#     4  12  26  43  64  91 126 165 210 265 323 382
#     4   9  19  36  59  88 120 156 199 247 301 364
#
# _framework density 20.586760999999999
#
# number of rings (size 3 to 8) (size 9 to 14) (size 15 to 20)
#    0.000    1.600    0.000    4.200    2.800    3.200 
#    0.000    0.000    0.000    0.000    0.000    0.000 
#    0.000    0.000    0.000    0.000    0.000    0.000 
#
# Total GULP energy -222908.172217 kJ/mol
# GULP energy per Si atom -5572.704305 kJ/mol
# Density = 2.053990 g / cm^3
# Si number density = 20.586761 Si / 1000 Ang^3
#
#
#
# Elastic Constant Matrix: (Units=GPa)
#
#
# Indices 1 2 3 4 5 6 
#
# 1 145.1854 31.9112 1.9759 0.0000 0.0000 0.0000
# 2 31.9112 74.8459 -0.6195 0.0000 0.0000 0.0000
# 3 1.9759 -0.6195 37.5738 0.0000 0.0000 0.0000
# 4 0.0000 0.0000 0.0000 32.9024 0.0000 0.0000
# 5 0.0000 0.0000 0.0000 0.0000 3.8673 0.0000
# 6 0.0000 0.0000 0.0000 0.0000 0.0000 22.7113
#
#
#
# Elastic Compliance Matrix: (Units=1/GPa)
#
#
# Indices 1 2 3 4 5 6 
#
# 1 0.007608 -0.003247 -0.000454 0.000000 0.000000 0.000000
# 2 -0.003247 0.014749 0.000414 0.000000 0.000000 0.000000
# 3 -0.000454 0.000414 0.026645 0.000000 0.000000 0.000000
# 4 0.000000 0.000000 0.000000 0.030393 0.000000 0.000000
# 5 0.000000 0.000000 0.000000 0.000000 0.258580 0.000000
# 6 0.000000 0.000000 0.000000 0.000000 0.000000 0.044031
#
#
# Mechanical properties :
#
#
# Convention : Reuss Voigt Hill
#
# Bulk Modulus (GPa) = 23.56972 36.01559 29.79266
# Shear Modulus (GPa) = 12.41552 26.85203 19.63378
#
# Velocity S-wave (km/s) = 2.45844 3.61548 3.09157
# Velocity P-wave (km/s) = 4.41955 5.91282 5.21986
#
# Compressibility (1/GPa) = 0.04242731
#
# Stress axis : x y z
#
# Youngs Moduli (GPa) = 131.44622 67.80239 37.53058
#
# Poissons Ratio (x) = 0.22018 0.01702
# Poissons Ratio (y) = 0.42685 -0.01554
# Poissons Ratio (z) = 0.05963 -0.02807
#
# Static dielectric constant tensor:
#      x y z
#    x 1.817710 0.000000 0.000000 
#    y 0.000000 2.436400 0.000000 
#    z 0.000000 0.000000 1.747500 
# 
# From -- ./inp_files/2614.got.cif
#   From: 2010.05.17/outbox.cif.g08.bks.cpg/sg57_2_cif.got.tgz:2614.got - 2010.06.03 13:58:18.
