data_PCOD9437286
_publ_section_title
;
Structure prediction by ZEFSAII (Michael W. Deem and Ramdas Pophale) SiO2 
 PCOD9437286
Probable space group: P B C M
;
_chemical_formula_sum "Si O2"
_cell_formula_units_Z 48
_cell_length_a 31.987037
_cell_length_b 9.164645
_cell_length_c 8.671558
_cell_angle_alpha 90.000000
_cell_angle_beta 90.000000
_cell_angle_gamma 90.000000
_cell_volume 2542.065829
_symmetry_space_group_name_H-M "P B C M"
_symmetry_group_IT_number 57
_symmetry_cell_setting 'orthorhombic'
loop_
_space_group_symop_operation_xyz
x,y,z
-x,-y,1/2+z
x,1/2-y,-z
-x,1/2+y,1/2-z
-x,-y,-z
x,y,1/2-z
-x,1/2+y,z
x,1/2-y,1/2+z
loop_
_atom_site_type_symbol
_atom_site_label
_atom_site_fract_x
_atom_site_fract_y
_atom_site_fract_z
Si Si1 0.039516 0.585505 0.434221
Si Si2 0.781940 0.085498 0.934725
Si Si3 0.296414 0.411954 0.434420
Si Si4 0.874614 0.414963 0.065184
Si Si5 0.619360 0.413486 0.564484
Si Si6 0.539903 0.913703 0.934875
O O1 0.037707 0.750000 0.500000
O O2 0.038720 0.589153 0.250000
O O3 0.083742 0.518302 0.491225
O O4 0.000000 0.500000 0.500000
O O5 0.778860 0.093207 0.750000
O O6 0.828506 0.025151 0.972798
O O7 0.778276 0.250000 0.000000
O O8 0.745184 0.987157 0.000783
O O9 0.301254 0.250000 0.500000
O O10 0.293826 0.405343 0.250000
O O11 0.336839 0.508939 0.475473
O O12 0.879349 0.411309 0.250000
O O13 0.873255 0.250000 0.000000
O O14 0.618705 0.250000 0.500000
O O15 0.615112 0.411278 0.750000
O O16 0.581434 0.504523 0.492352
O O17 0.538527 0.911067 0.750000
O O18 0.539578 0.750000 0.000000
O O19 0.500000 0.000000 0.000000
#
# Coordination Sequence:
#
# PCOD9437286 Si02
#       6
#     8   8   8   8   8   8
#     4  11  21  35  55  80 110 145 184 230 280 336
#     4  10  20  35  58  85 114 146 187 234 281 335
#     4  11  24  40  60  85 118 155 193 237 289 345
#     4   9  17  31  52  79 108 142 183 229 278 333
#     4  11  24  42  64  92 122 157 199 245 293 345
#     4  12  25  43  66  93 126 163 202 247 296 350
#
# _framework density 18.882279
#
# number of rings (size 3 to 8) (size 9 to 14) (size 15 to 20)
#    0.000    1.333    0.000    7.500    0.000    7.333 
#    0.000    0.833    0.000    4.000    0.000    0.000 
#    0.000    0.000    0.000    0.000    0.000    0.000 
#
# Total GULP energy -268286.184527 kJ/mol
# GULP energy per Si atom -5589.295511 kJ/mol
# Density = 1.883930 g / cm^3
# Si number density = 18.882279 Si / 1000 Ang^3
#
#
#
# Elastic Constant Matrix: (Units=GPa)
#
#
# Indices 1 2 3 4 5 6 
#
# 1 216.8550 94.7227 96.1979 0.0000 0.0000 0.0000
# 2 94.7227 128.7407 58.1015 0.0000 0.0000 0.0000
# 3 96.1979 58.1015 132.4772 0.0000 0.0000 0.0000
# 4 0.0000 0.0000 0.0000 33.5054 0.0000 0.0000
# 5 0.0000 0.0000 0.0000 0.0000 33.3007 0.0000
# 6 0.0000 0.0000 0.0000 0.0000 0.0000 35.6541
#
#
#
# Elastic Compliance Matrix: (Units=1/GPa)
#
#
# Indices 1 2 3 4 5 6 
#
# 1 0.008314 -0.004230 -0.004182 0.000000 0.000000 0.000000
# 2 -0.004230 0.011836 -0.002120 0.000000 0.000000 0.000000
# 3 -0.004182 -0.002120 0.011515 0.000000 0.000000 0.000000
# 4 0.000000 0.000000 0.000000 0.029846 0.000000 0.000000
# 5 0.000000 0.000000 0.000000 0.000000 0.030029 0.000000
# 6 0.000000 0.000000 0.000000 0.000000 0.000000 0.028047
#
#
# Mechanical properties :
#
#
# Convention : Reuss Voigt Hill
#
# Bulk Modulus (GPa) = 94.32090 108.45746 101.38918
# Shear Modulus (GPa) = 34.67746 35.76207 35.21976
#
# Velocity S-wave (km/s) = 4.29010 4.35667 4.32351
# Velocity P-wave (km/s) = 8.63716 9.10335 8.87331
#
# Compressibility (1/GPa) = 0.01060210
#
# Stress axis : x y z
#
# Youngs Moduli (GPa) = 120.27552 84.48562 86.84296
#
# Poissons Ratio (x) = 0.35736 0.36320
# Poissons Ratio (y) = 0.50875 0.18408
# Poissons Ratio (z) = 0.50302 0.17908
#
# Static dielectric constant tensor:
#      x y z
#    x 1.673530 0.000000 0.000000 
#    y 0.000000 1.605320 0.000000 
#    z 0.000000 0.000000 1.629810 
# 
# From -- ./inp_files/9969.got.cif
#   From: 2010.05.17/outbox.cif.g08.bks.cpg/sg57_5_cif.got.tgz:9969.got - 2010.06.03 13:58:18.
