data_PCOD9437921
_publ_section_title
;
Structure prediction by ZEFSAII (Michael W. Deem and Ramdas Pophale) SiO2 
 PCOD9437921
Probable space group: P B C M
;
_chemical_formula_sum "Si O2"
_cell_formula_units_Z 52
_cell_length_a 21.609042
_cell_length_b 8.521279
_cell_length_c 14.167731
_cell_angle_alpha 90.000000
_cell_angle_beta 90.000000
_cell_angle_gamma 90.000000
_cell_volume 2608.798890
_symmetry_space_group_name_H-M "P B C M"
_symmetry_group_IT_number 57
_symmetry_cell_setting 'orthorhombic'
loop_
_space_group_symop_operation_xyz
x,y,z
-x,-y,1/2+z
x,1/2-y,-z
-x,1/2+y,1/2-z
-x,-y,-z
x,y,1/2-z
-x,1/2+y,z
x,1/2-y,1/2+z
loop_
_atom_site_type_symbol
_atom_site_label
_atom_site_fract_x
_atom_site_fract_y
_atom_site_fract_z
Si Si1 0.162198 0.250000 0.000000
Si Si2 0.461929 0.072051 0.359703
Si Si3 0.644542 0.070252 0.972386
Si Si4 0.126205 0.703254 0.639918
Si Si5 0.926877 0.014764 0.013020
Si Si6 0.764913 0.984733 0.638043
Si Si7 0.590759 0.580904 0.640878
O O1 0.113435 0.368749 0.048252
O O2 0.203615 0.149929 0.073148
O O3 0.448920 0.036930 0.250000
O O4 0.439218 0.248893 0.378478
O O5 0.421709 0.957584 0.423646
O O6 0.534726 0.043367 0.371505
O O7 0.696179 0.011218 0.899916
O O8 0.654248 0.250000 0.000000
O O9 0.643137 0.964714 0.066931
O O10 0.115388 0.724850 0.750000
O O11 0.097586 0.845913 0.580583
O O12 0.093277 0.552684 0.594358
O O13 0.197503 0.650231 0.624989
O O14 0.000000 0.000000 0.000000
O O15 0.767209 0.947970 0.750000
O O16 0.610973 0.578013 0.750000
#
# Coordination Sequence:
#
# PCOD9437921 Si02
#       7
#     4   8   8   8   8   8   8
#     4  10  22  38  66  92 128 166 202 254 316 366
#     4  10  21  40  64  90 125 161 202 265 325 385
#     4  12  25  38  62  87 121 167 218 265 319 381
#     4   9  20  39  61  84 124 168 207 248 303 367
#     4  10  20  37  64  97 129 160 203 255 308 368
#     4  10  24  44  63  88 124 170 217 265 313 373
#     4  10  22  40  63  92 125 161 208 262 327 390
#
# _framework density 19.932545000000001
#
# number of rings (size 3 to 8) (size 9 to 14) (size 15 to 20)
#    0.000    1.846    0.000    3.231    6.462    3.692 
#    0.000    3.077    0.000    0.000    0.000    0.000 
#    0.000    0.000    0.000    0.000    0.000    0.000 
#
# Total GULP energy -289954.476136 kJ/mol
# GULP energy per Si atom -5576.047618 kJ/mol
# Density = 1.988718 g / cm^3
# Si number density = 19.932545 Si / 1000 Ang^3
#
#
#
# Elastic Constant Matrix: (Units=GPa)
#
#
# Indices 1 2 3 4 5 6 
#
# 1 28.8126 -0.2459 39.4945 0.0000 0.0000 0.0000
# 2 -0.2459 71.9840 36.0767 0.0000 0.0000 0.0000
# 3 39.4945 36.0767 122.2527 0.0000 0.0000 0.0000
# 4 0.0000 0.0000 0.0000 25.8103 0.0000 0.0000
# 5 0.0000 0.0000 0.0000 0.0000 23.6722 0.0000
# 6 0.0000 0.0000 0.0000 0.0000 0.0000 -64.3500
#
#
#
# Elastic Compliance Matrix: (Units=1/GPa)
#
#
# Indices 1 2 3 4 5 6 
#
# 1 0.072755 0.014116 -0.027670 0.000000 0.000000 0.000000
# 2 0.014116 0.019042 -0.010179 0.000000 0.000000 0.000000
# 3 -0.027670 -0.010179 0.020123 0.000000 0.000000 0.000000
# 4 0.000000 0.000000 0.000000 0.038744 0.000000 0.000000
# 5 0.000000 0.000000 0.000000 0.000000 0.042244 0.000000
# 6 0.000000 0.000000 0.000000 0.000000 0.000000 -0.015540
#
#
# Mechanical properties :
#
#
# Convention : Reuss Voigt Hill
#
# Bulk Modulus (GPa) = 15.51513 41.52221 28.51867
# Shear Modulus (GPa) = 20.29895 6.87478 13.58687
#
# Velocity S-wave (km/s) = 3.19467 1.85917 2.61366
# Velocity P-wave (km/s) = 4.62695 5.04829 4.84220
#
# Compressibility (1/GPa) = 0.06445320
#
# Stress axis : x y z
#
# Youngs Moduli (GPa) = 13.74473 52.51580 49.69547
#
# Poissons Ratio (x) = -0.74130 1.37505
# Poissons Ratio (y) = -0.19402 0.50587
# Poissons Ratio (z) = 0.38031 0.53458
#
# Static dielectric constant tensor:
#      x y z
#    x 1.737570 0.000000 0.000000 
#    y 0.000000 1.673480 0.000000 
#    z 0.000000 0.000000 1.692870 
# 
# From -- ./inp_files/19281.got.cif
#   From: 2010.05.17/outbox.cif.g08.bks.cpg/sg57_10_cif.got.tgz:19281.got - 2010.06.03 13:58:18.
