data_PCOD9437116
_publ_section_title
;
Structure prediction by ZEFSAII (Michael W. Deem and Ramdas Pophale) SiO2 
 PCOD9437116
Probable space group: P B C M
;
_chemical_formula_sum "Si O2"
_cell_formula_units_Z 48
_cell_length_a 5.161138
_cell_length_b 28.090728
_cell_length_c 15.376576
_cell_angle_alpha 90.000000
_cell_angle_beta 90.000000
_cell_angle_gamma 90.000000
_cell_volume 2229.297891
_symmetry_space_group_name_H-M "P B C M"
_symmetry_group_IT_number 57
_symmetry_cell_setting 'orthorhombic'
loop_
_space_group_symop_operation_xyz
x,y,z
-x,-y,1/2+z
x,1/2-y,-z
-x,1/2+y,1/2-z
-x,-y,-z
x,y,1/2-z
-x,1/2+y,z
x,1/2-y,1/2+z
loop_
_atom_site_type_symbol
_atom_site_label
_atom_site_fract_x
_atom_site_fract_y
_atom_site_fract_z
Si Si1 0.687228 0.637501 0.250000
Si Si2 0.710628 0.206190 0.063687
Si Si3 0.966772 0.000870 0.250000
Si Si4 0.535502 0.435846 0.250000
Si Si5 0.188754 0.699057 0.250000
Si Si6 0.790306 0.860074 0.559057
Si Si7 0.487432 0.073936 0.562178
Si Si8 0.798715 0.023224 0.433460
O O1 0.891300 0.681891 0.250000
O O2 0.746313 0.615904 0.345219
O O3 0.387329 0.653738 0.250000
O O4 0.741749 0.225207 0.161859
O O5 0.940131 0.167649 0.054167
O O6 0.438525 0.179224 0.053063
O O7 0.736812 0.250000 0.000000
O O8 0.913636 0.029667 0.337978
O O9 0.756615 0.957389 0.250000
O O10 0.250092 0.977748 0.250000
O O11 0.571049 0.408861 0.342354
O O12 0.743918 0.896271 0.479968
O O13 0.687687 0.068959 0.482418
O O14 0.413769 0.018591 0.578611
O O15 0.000000 0.000000 0.500000
#
# Coordination Sequence:
#
# PCOD9437116 Si02
#       8
#     4   8   4   4   4   8   8   8
#     4   8  16  33  51  77 108 138 170 216 281 322
#     4  10  20  37  58  82 109 143 180 221 274 330
#     4  10  20  35  55  79 106 147 189 230 273 326
#     4  10  20  36  54  75 112 151 181 222 286 324
#     4   8  16  32  54  77 106 142 166 212 276 330
#     4  10  21  35  58  81 111 142 182 225 274 329
#     4  10  22  36  56  82 111 149 188 231 277 329
#     4  10  20  36  57  78 111 147 190 228 275 329
#
# _framework density 21.531442999999999
#
# number of rings (size 3 to 8) (size 9 to 14) (size 15 to 20)
#    0.000    2.333    1.667    0.500    2.333    0.667 
#    0.000    3.333    0.000    0.000    0.000    0.000 
#    0.000    0.000    0.000    0.000    0.000    0.000 
#
# Total GULP energy -267743.051569 kJ/mol
# GULP energy per Si atom -5577.980241 kJ/mol
# Density = 2.148244 g / cm^3
# Si number density = 21.531443 Si / 1000 Ang^3
#
#
#
# Elastic Constant Matrix: (Units=GPa)
#
#
# Indices 1 2 3 4 5 6 
#
# 1 97.1170 21.3211 10.4190 0.0000 0.0000 0.0000
# 2 21.3211 49.2979 51.7244 0.0000 0.0000 0.0000
# 3 10.4190 51.7244 194.8983 0.0000 0.0000 0.0000
# 4 0.0000 0.0000 0.0000 18.9541 0.0000 0.0000
# 5 0.0000 0.0000 0.0000 0.0000 17.0325 0.0000
# 6 0.0000 0.0000 0.0000 0.0000 0.0000 21.4285
#
#
#
# Elastic Compliance Matrix: (Units=1/GPa)
#
#
# Indices 1 2 3 4 5 6 
#
# 1 0.011510 -0.006004 0.000978 0.000000 0.000000 0.000000
# 2 -0.006004 0.031245 -0.007971 0.000000 0.000000 0.000000
# 3 0.000978 -0.007971 0.007194 0.000000 0.000000 0.000000
# 4 0.000000 0.000000 0.000000 0.052759 0.000000 0.000000
# 5 0.000000 0.000000 0.000000 0.000000 0.058711 0.000000
# 6 0.000000 0.000000 0.000000 0.000000 0.000000 0.046667
#
#
# Mechanical properties :
#
#
# Convention : Reuss Voigt Hill
#
# Bulk Modulus (GPa) = 41.74561 56.47134 49.10848
# Shear Modulus (GPa) = 20.65548 28.67295 24.66421
#
# Velocity S-wave (km/s) = 3.10064 3.65318 3.38819
# Velocity P-wave (km/s) = 5.67882 6.63917 6.17768
#
# Compressibility (1/GPa) = 0.02395461
#
# Stress axis : x y z
#
# Youngs Moduli (GPa) = 86.88007 32.00474 139.00287
#
# Poissons Ratio (x) = 0.19217 -0.13597
# Poissons Ratio (y) = 0.52166 1.10803
# Poissons Ratio (z) = -0.08499 0.25512
#
# Static dielectric constant tensor:
#      x y z
#    x 1.827810 0.000000 0.000000 
#    y 0.000000 1.739850 0.000000 
#    z 0.000000 0.000000 1.830440 
# 
# From -- ./inp_files/15170.got.cif
#   From: 2010.05.17/outbox.cif.g08.bks.cpg/sg57_8_cif.got.tgz:15170.got - 2010.06.03 13:58:18.
