data_PCOD9437459
_publ_section_title
;
Structure prediction by ZEFSAII (Michael W. Deem and Ramdas Pophale) SiO2 
 PCOD9437459
Probable space group: P B C M
;
_chemical_formula_sum "Si O2"
_cell_formula_units_Z 56
_cell_length_a 13.466526
_cell_length_b 9.802591
_cell_length_c 20.767284
_cell_angle_alpha 90.000000
_cell_angle_beta 90.000000
_cell_angle_gamma 90.000000
_cell_volume 2741.423673
_symmetry_space_group_name_H-M "P B C M"
_symmetry_group_IT_number 57
_symmetry_cell_setting 'orthorhombic'
loop_
_space_group_symop_operation_xyz
x,y,z
-x,-y,1/2+z
x,1/2-y,-z
-x,1/2+y,1/2-z
-x,-y,-z
x,y,1/2-z
-x,1/2+y,z
x,1/2-y,1/2+z
loop_
_atom_site_type_symbol
_atom_site_label
_atom_site_fract_x
_atom_site_fract_y
_atom_site_fract_z
Si Si1 0.438080 0.569780 0.380574
Si Si2 0.890357 0.592987 0.674634
Si Si3 0.694649 0.656096 0.904001
Si Si4 0.079689 0.776407 0.825650
Si Si5 0.475007 0.193817 0.250000
Si Si6 0.643086 0.562633 0.048639
Si Si7 0.378794 0.929056 0.250000
Si Si8 0.713994 0.305812 0.118970
O O1 0.394804 0.419646 0.367727
O O2 0.478135 0.633831 0.315232
O O3 0.525866 0.563966 0.433205
O O4 0.347182 0.669388 0.398211
O O5 0.860611 0.610939 0.750000
O O6 0.796883 0.613002 0.628309
O O7 0.929816 0.438916 0.667900
O O8 0.978238 0.698172 0.659687
O O9 0.686495 0.818010 0.906165
O O10 0.672660 0.604270 0.976596
O O11 0.103428 0.748628 0.750000
O O12 0.171401 0.727544 0.868883
O O13 0.512926 0.351312 0.250000
O O14 0.376594 0.095281 0.250000
O O15 0.689614 0.418541 0.066085
O O16 0.326787 0.871001 0.314112
#
# Coordination Sequence:
#
# PCOD9437459 Si02
#       8
#     8   8   8   8   4   8   4   8
#     4  11  22  40  63  94 130 177 217 266 316 380
#     4  10  23  44  71  99 126 164 212 271 331 384
#     4  11  25  44  63  90 131 171 216 271 320 380
#     4  10  21  41  68  99 132 161 209 271 330 386
#     4  10  22  32  58  91 129 165 209 266 316 368
#     4  11  25  41  61  91 133 172 220 259 310 386
#     4  10  20  36  56  91 133 165 211 266 312 378
#     4  11  21  38  64  94 130 171 216 261 319 382
#
# _framework density 20.427341999999999
#
# number of rings (size 3 to 8) (size 9 to 14) (size 15 to 20)
#    0.000    1.429    3.571    1.286    5.000    1.714 
#    2.571    0.714    0.000    0.000    0.000    0.000 
#    0.000    0.000    0.000    0.000    0.000    0.000 
#
# Total GULP energy -312596.812548 kJ/mol
# GULP energy per Si atom -5582.085938 kJ/mol
# Density = 2.038085 g / cm^3
# Si number density = 20.427342 Si / 1000 Ang^3
#
#
#
# Elastic Constant Matrix: (Units=GPa)
#
#
# Indices 1 2 3 4 5 6 
#
# 1 133.2462 45.6727 61.5948 0.0000 0.0000 0.0000
# 2 45.6727 39.5832 6.1882 0.0000 0.0000 0.0000
# 3 61.5948 6.1882 68.9943 0.0000 0.0000 0.0000
# 4 0.0000 0.0000 0.0000 23.9787 0.0000 0.0000
# 5 0.0000 0.0000 0.0000 0.0000 19.7532 0.0000
# 6 0.0000 0.0000 0.0000 0.0000 0.0000 34.8102
#
#
#
# Elastic Compliance Matrix: (Units=1/GPa)
#
#
# Indices 1 2 3 4 5 6 
#
# 1 0.027058 -0.027835 -0.021660 0.000000 0.000000 0.000000
# 2 -0.027835 0.054256 0.019983 0.000000 0.000000 0.000000
# 3 -0.021660 0.019983 0.032038 0.000000 0.000000 0.000000
# 4 0.000000 0.000000 0.000000 0.041704 0.000000 0.000000
# 5 0.000000 0.000000 0.000000 0.000000 0.050625 0.000000
# 6 0.000000 0.000000 0.000000 0.000000 0.000000 0.028727
#
#
# Mechanical properties :
#
#
# Convention : Reuss Voigt Hill
#
# Bulk Modulus (GPa) = 18.40603 52.08169 35.24386
# Shear Modulus (GPa) = 16.04925 24.26629 20.15777
#
# Velocity S-wave (km/s) = 2.80603 3.45038 3.14475
# Velocity P-wave (km/s) = 4.41910 6.43622 5.52057
#
# Compressibility (1/GPa) = 0.05433002
#
# Stress axis : x y z
#
# Youngs Moduli (GPa) = 36.95720 18.43115 31.21248
#
# Poissons Ratio (x) = 0.51303 0.67606
# Poissons Ratio (y) = 1.02869 -0.62373
# Poissons Ratio (z) = 0.80049 -0.36831
#
# Static dielectric constant tensor:
#      x y z
#    x 1.704540 0.000000 0.000000 
#    y 0.000000 1.753280 0.000000 
#    z 0.000000 0.000000 1.754460 
# 
# From -- ./inp_files/25449.got.cif
#   From: 2010.05.17/outbox.cif.g08.bks.cpg/sg57_13_cif.got.tgz:25449.got - 2010.06.03 13:58:18.
