data_PCOD9437723
_publ_section_title
;
Structure prediction by ZEFSAII (Michael W. Deem and Ramdas Pophale) SiO2 
 PCOD9437723
Probable space group: P B C M
;
_chemical_formula_sum "Si O2"
_cell_formula_units_Z 48
_cell_length_a 15.621625
_cell_length_b 9.741852
_cell_length_c 15.872904
_cell_angle_alpha 90.000000
_cell_angle_beta 90.000000
_cell_angle_gamma 90.000000
_cell_volume 2415.595018
_symmetry_space_group_name_H-M "P B C M"
_symmetry_group_IT_number 57
_symmetry_cell_setting 'orthorhombic'
loop_
_space_group_symop_operation_xyz
x,y,z
-x,-y,1/2+z
x,1/2-y,-z
-x,1/2+y,1/2-z
-x,-y,-z
x,y,1/2-z
-x,1/2+y,z
x,1/2-y,1/2+z
loop_
_atom_site_type_symbol
_atom_site_label
_atom_site_fract_x
_atom_site_fract_y
_atom_site_fract_z
Si Si1 0.572340 0.404592 0.105998
Si Si2 0.235957 0.896885 0.652939
Si Si3 0.943406 0.336526 0.847099
Si Si4 0.418400 0.908634 0.596211
Si Si5 0.760735 0.435588 0.152635
Si Si6 0.937815 0.462618 0.078365
O O1 0.570678 0.245059 0.133192
O O2 0.489459 0.489992 0.133153
O O3 0.662485 0.472624 0.132548
O O4 0.570136 0.400997 0.004330
O O5 0.240819 0.939254 0.750000
O O6 0.139911 0.922050 0.621224
O O7 0.320194 0.953129 0.609289
O O8 0.240139 0.730878 0.647285
O O9 0.926125 0.298135 0.750000
O O10 0.952936 0.196750 0.898777
O O11 0.023989 0.434496 0.852337
O O12 0.781192 0.472112 0.250000
O O13 0.834723 0.480889 0.087102
O O14 0.000000 0.500000 0.000000
#
# Coordination Sequence:
#
# PCOD9437723 Si02
#       6
#     8   8   8   8   8   8
#     4   9  18  31  52  74 102 140 173 218 269 321
#     4   8  16  30  52  76 101 135 179 220 260 317
#     4  10  20  37  57  79 111 149 182 228 285 336
#     4   9  17  31  50  75 103 134 174 219 266 314
#     4   9  18  34  53  76 106 145 182 219 272 337
#     4  11  22  35  57  84 111 142 189 236 276 333
#
# _framework density 19.870882000000002
#
# number of rings (size 3 to 8) (size 9 to 14) (size 15 to 20)
#    0.000    2.667    0.000    3.000    2.333    0.667 
#    0.000    1.667    7.333    2.000    0.000    0.000 
#    0.000    0.000    0.000    0.000    0.000    0.000 
#
# Total GULP energy -267226.620804 kJ/mol
# GULP energy per Si atom -5567.221267 kJ/mol
# Density = 1.982565 g / cm^3
# Si number density = 19.870882 Si / 1000 Ang^3
#
#
#
# Elastic Constant Matrix: (Units=GPa)
#
#
# Indices 1 2 3 4 5 6 
#
# 1 160.5999 49.6209 30.4255 0.0000 0.0000 0.0000
# 2 49.6209 38.0031 11.2230 0.0000 0.0000 0.0000
# 3 30.4255 11.2230 57.3287 0.0000 0.0000 0.0000
# 4 0.0000 0.0000 0.0000 15.7276 0.0000 0.0000
# 5 0.0000 0.0000 0.0000 0.0000 30.4138 0.0000
# 6 0.0000 0.0000 0.0000 0.0000 0.0000 34.5830
#
#
#
# Elastic Compliance Matrix: (Units=1/GPa)
#
#
# Indices 1 2 3 4 5 6 
#
# 1 0.010964 -0.013371 -0.003201 0.000000 0.000000 0.000000
# 2 -0.013371 0.044234 -0.001563 0.000000 0.000000 0.000000
# 3 -0.003201 -0.001563 0.019448 0.000000 0.000000 0.000000
# 4 0.000000 0.000000 0.000000 0.063583 0.000000 0.000000
# 5 0.000000 0.000000 0.000000 0.000000 0.032880 0.000000
# 6 0.000000 0.000000 0.000000 0.000000 0.000000 0.028916
#
#
# Mechanical properties :
#
#
# Convention : Reuss Voigt Hill
#
# Bulk Modulus (GPa) = 26.05844 48.71893 37.38868
# Shear Modulus (GPa) = 20.07326 27.12236 23.59781
#
# Velocity S-wave (km/s) = 3.18179 3.69850 3.44983
# Velocity P-wave (km/s) = 5.16146 6.54290 5.89280
#
# Compressibility (1/GPa) = 0.03837529
#
# Stress axis : x y z
#
# Youngs Moduli (GPa) = 91.20455 22.60724 51.41811
#
# Poissons Ratio (x) = 0.30228 0.16461
# Poissons Ratio (y) = 1.21948 0.08038
# Poissons Ratio (z) = 0.29199 0.03534
#
# Static dielectric constant tensor:
#      x y z
#    x 1.751050 0.000000 0.000000 
#    y 0.000000 1.651650 0.000000 
#    z 0.000000 0.000000 3.349430 
# 
# From -- ./inp_files/22474.got.cif
#   From: 2010.05.17/outbox.cif.g08.bks.cpg/sg57_12_cif.got.tgz:22474.got - 2010.06.03 13:58:18.
