data_PCOD9437550
_publ_section_title
;
Structure prediction by ZEFSAII (Michael W. Deem and Ramdas Pophale) SiO2 
 PCOD9437550
Probable space group: P B C M
;
_chemical_formula_sum "Si O2"
_cell_formula_units_Z 64
_cell_length_a 21.306526
_cell_length_b 19.186808
_cell_length_c 8.746674
_cell_angle_alpha 90.000000
_cell_angle_beta 90.000000
_cell_angle_gamma 90.000000
_cell_volume 3575.677273
_symmetry_space_group_name_H-M "P B C M"
_symmetry_group_IT_number 57
_symmetry_cell_setting 'orthorhombic'
loop_
_space_group_symop_operation_xyz
x,y,z
-x,-y,1/2+z
x,1/2-y,-z
-x,1/2+y,1/2-z
-x,-y,-z
x,y,1/2-z
-x,1/2+y,z
x,1/2-y,1/2+z
loop_
_atom_site_type_symbol
_atom_site_label
_atom_site_fract_x
_atom_site_fract_y
_atom_site_fract_z
Si Si1 0.814229 0.030689 0.065397
Si Si2 0.502018 0.576988 0.065416
Si Si3 0.390923 0.676222 0.434080
Si Si4 0.246214 0.675840 0.065779
Si Si5 0.117854 0.326041 0.066608
Si Si6 0.061332 0.463409 0.567770
Si Si7 0.619645 0.827449 0.566945
Si Si8 0.746464 0.890429 0.432815
O O1 0.823373 0.028568 0.250000
O O2 0.792553 0.107693 0.020138
O O3 0.762207 0.971235 0.031090
O O4 0.877929 0.007266 0.985136
O O5 0.502909 0.573771 0.250000
O O6 0.438965 0.617112 0.016984
O O7 0.562661 0.622052 0.017118
O O8 0.500000 0.500000 0.000000
O O9 0.412258 0.750000 0.500000
O O10 0.391640 0.679490 0.250000
O O11 0.318851 0.665286 0.482489
O O12 0.244912 0.679693 0.250000
O O13 0.224611 0.750000 0.000000
O O14 0.112698 0.326150 0.250000
O O15 0.189733 0.348408 0.027950
O O16 0.104785 0.250000 0.000000
O O17 0.073357 0.386000 0.998548
O O18 0.057562 0.460424 0.750000
O O19 0.000000 0.500000 0.500000
O O20 0.612586 0.750000 0.500000
O O21 0.618244 0.822689 0.750000
O O22 0.685816 0.860039 0.514762
O O23 0.737274 0.884767 0.250000
#
# Coordination Sequence:
#
# PCOD9437550 Si02
#       8
#     8   8   8   8   8   8   8   8
#     4   9  19  36  57  82 111 145 185 225 274 330
#     4  10  23  38  53  75 103 137 180 226 273 327
#     4   9  18  34  55  76 100 135 177 221 272 328
#     4   9  18  33  55  81 108 139 178 226 277 330
#     4  10  20  36  58  86 117 149 189 230 275 329
#     4  11  22  38  60  85 115 152 190 230 275 323
#     4  11  23  37  53  78 108 141 180 224 273 328
#     4   9  19  34  56  82 109 146 183 223 274 328
#
# _framework density 17.898707999999999
#
# number of rings (size 3 to 8) (size 9 to 14) (size 15 to 20)
#    0.000    2.250    0.000    3.375    1.750    5.500 
#    0.000    0.625    0.000    1.500    0.000    0.000 
#    0.000    0.000    0.000    0.000    0.000    0.000 
#
# Total GULP energy -357261.178761 kJ/mol
# GULP energy per Si atom -5582.205918 kJ/mol
# Density = 1.785797 g / cm^3
# Si number density = 17.898708 Si / 1000 Ang^3
#
#
#
# Elastic Constant Matrix: (Units=GPa)
#
#
# Indices 1 2 3 4 5 6 
#
# 1 82.3738 88.5145 39.7645 0.0000 0.0000 0.0000
# 2 88.5145 199.7940 55.4139 0.0000 0.0000 0.0000
# 3 39.7645 55.4139 45.7966 0.0000 0.0000 0.0000
# 4 0.0000 0.0000 0.0000 34.4253 0.0000 0.0000
# 5 0.0000 0.0000 0.0000 0.0000 26.3157 0.0000
# 6 0.0000 0.0000 0.0000 0.0000 0.0000 26.7438
#
#
#
# Elastic Compliance Matrix: (Units=1/GPa)
#
#
# Indices 1 2 3 4 5 6 
#
# 1 0.028128 -0.008561 -0.014065 0.000000 0.000000 0.000000
# 2 -0.008561 0.010139 -0.004835 0.000000 0.000000 0.000000
# 3 -0.014065 -0.004835 0.039898 0.000000 0.000000 0.000000
# 4 0.000000 0.000000 0.000000 0.029048 0.000000 0.000000
# 5 0.000000 0.000000 0.000000 0.000000 0.038000 0.000000
# 6 0.000000 0.000000 0.000000 0.000000 0.000000 0.037392
#
#
# Mechanical properties :
#
#
# Convention : Reuss Voigt Hill
#
# Bulk Modulus (GPa) = 43.02115 77.26113 60.14114
# Shear Modulus (GPa) = 20.38534 27.11505 23.75020
#
# Velocity S-wave (km/s) = 3.37846 3.89642 3.64665
# Velocity P-wave (km/s) = 6.26951 7.96883 7.16969
#
# Compressibility (1/GPa) = 0.02324438
#
# Stress axis : x y z
#
# Youngs Moduli (GPa) = 35.55157 98.63194 25.06381
#
# Poissons Ratio (x) = 0.84435 0.35252
# Poissons Ratio (y) = 0.30434 0.12118
# Poissons Ratio (z) = 0.50003 0.47686
#
# Static dielectric constant tensor:
#      x y z
#    x 1.596790 0.000000 0.000000 
#    y 0.000000 1.553380 0.000000 
#    z 0.000000 0.000000 1.604040 
# 
# From -- ./inp_files/8599.got.cif
#   From: 2010.05.17/outbox.cif.g08.bks.cpg/sg57_5_cif.got.tgz:8599.got - 2010.06.03 13:58:18.
