data_PCOD9437317
_publ_section_title
;
Structure prediction by ZEFSAII (Michael W. Deem and Ramdas Pophale) SiO2 
 PCOD9437317
Probable space group: P B C M
;
_chemical_formula_sum "Si O2"
_cell_formula_units_Z 56
_cell_length_a 12.745383
_cell_length_b 14.028693
_cell_length_c 15.435400
_cell_angle_alpha 90.000000
_cell_angle_beta 90.000000
_cell_angle_gamma 90.000000
_cell_volume 2759.865963
_symmetry_space_group_name_H-M "P B C M"
_symmetry_group_IT_number 57
_symmetry_cell_setting 'orthorhombic'
loop_
_space_group_symop_operation_xyz
x,y,z
-x,-y,1/2+z
x,1/2-y,-z
-x,1/2+y,1/2-z
-x,-y,-z
x,y,1/2-z
-x,1/2+y,z
x,1/2-y,1/2+z
loop_
_atom_site_type_symbol
_atom_site_label
_atom_site_fract_x
_atom_site_fract_y
_atom_site_fract_z
Si Si1 0.893942 0.123050 0.653113
Si Si2 0.238086 0.812811 0.647868
Si Si3 0.819995 0.475373 0.979788
Si Si4 0.110850 0.317253 0.083893
Si Si5 0.413048 0.024041 0.929537
Si Si6 0.336234 0.269867 0.099666
Si Si7 0.534992 0.340296 0.653882
O O1 0.887562 0.080031 0.750000
O O2 0.812526 0.209713 0.646413
O O3 0.866508 0.054406 0.572548
O O4 0.007098 0.172424 0.640596
O O5 0.241295 0.844615 0.750000
O O6 0.173614 0.888255 0.589451
O O7 0.357285 0.802894 0.610887
O O8 0.869293 0.574488 0.948390
O O9 0.696074 0.497985 0.976413
O O10 0.217274 0.282527 0.133805
O O11 0.090784 0.250000 0.000000
O O12 0.399235 0.130794 0.895271
O O13 0.442779 0.952552 0.852492
O O14 0.500000 0.000000 0.000000
O O15 0.419552 0.188562 0.123517
O O16 0.313523 0.250000 0.000000
O O17 0.538987 0.301619 0.750000
#
# Coordination Sequence:
#
# PCOD9437317 Si02
#       7
#     8   8   8   8   8   8   8
#     4  11  23  39  61  91 119 151 199 252 306 356
#     4   9  20  37  60  90 117 150 200 251 298 355
#     4  10  21  38  64  87 117 160 199 248 297 353
#     4  10  22  40  59  83 118 159 206 244 297 362
#     4  10  20  35  59  87 116 156 198 232 289 353
#     4  10  20  35  59  83 114 157 199 239 289 363
#     4  10  21  36  56  87 120 150 192 244 295 350
#
# _framework density 20.290839999999999
#
# number of rings (size 3 to 8) (size 9 to 14) (size 15 to 20)
#    0.000    2.000    1.429    1.714    2.000    1.714 
#    0.000    5.714    0.000    0.000    0.000    0.000 
#    0.000    0.000    0.000    0.000    0.000    0.000 
#
# Total GULP energy -311791.734822 kJ/mol
# GULP energy per Si atom -5567.709550 kJ/mol
# Density = 2.024466 g / cm^3
# Si number density = 20.290840 Si / 1000 Ang^3
#
#
#
# Elastic Constant Matrix: (Units=GPa)
#
#
# Indices 1 2 3 4 5 6 
#
# 1 22.1399 2.2825 16.8547 0.0000 0.0000 0.0000
# 2 2.2825 34.7837 -4.9721 0.0000 0.0000 0.0000
# 3 16.8547 -4.9721 61.1005 0.0000 0.0000 0.0000
# 4 0.0000 0.0000 0.0000 11.4627 0.0000 0.0000
# 5 0.0000 0.0000 0.0000 0.0000 -7.7076 0.0000
# 6 0.0000 0.0000 0.0000 0.0000 0.0000 6.6092
#
#
#
# Elastic Compliance Matrix: (Units=1/GPa)
#
#
# Indices 1 2 3 4 5 6 
#
# 1 0.058472 -0.006215 -0.016635 0.000000 0.000000 0.000000
# 2 -0.006215 0.029748 0.004135 0.000000 0.000000 0.000000
# 3 -0.016635 0.004135 0.021292 0.000000 0.000000 0.000000
# 4 0.000000 0.000000 0.000000 0.087240 0.000000 0.000000
# 5 0.000000 0.000000 0.000000 0.000000 -0.129742 0.000000
# 6 0.000000 0.000000 0.000000 0.000000 0.000000 0.151304
#
#
# Mechanical properties :
#
#
# Convention : Reuss Voigt Hill
#
# Bulk Modulus (GPa) = 13.87311 16.26159 15.06735
# Shear Modulus (GPa) = 17.87171 8.99678 13.43424
#
# Velocity S-wave (km/s) = 2.97101 2.10797 2.57589
# Velocity P-wave (km/s) = 4.31522 3.73582 4.03593
#
# Compressibility (1/GPa) = 0.07208188
#
# Stress axis : x y z
#
# Youngs Moduli (GPa) = 17.10213 33.61567 46.96622
#
# Poissons Ratio (x) = 0.20892 0.78130
# Poissons Ratio (y) = 0.10629 -0.19421
# Poissons Ratio (z) = 0.28450 -0.13901
#
# Static dielectric constant tensor:
#      x y z
#    x 1.840650 0.000000 0.000000 
#    y 0.000000 1.821180 0.000000 
#    z 0.000000 0.000000 1.788230 
# 
# From -- ./inp_files/17726.got.cif
#   From: 2010.05.17/outbox.cif.g08.bks.cpg/sg57_9_cif.got.tgz:17726.got - 2010.06.03 13:58:18.
