data_PCOD9437551
_publ_section_title
;
Structure prediction by ZEFSAII (Michael W. Deem and Ramdas Pophale) SiO2 
 PCOD9437551
Probable space group: P B C M
;
_chemical_formula_sum "Si O2"
_cell_formula_units_Z 64
_cell_length_a 18.786392
_cell_length_b 19.951386
_cell_length_c 9.083404
_cell_angle_alpha 90.000000
_cell_angle_beta 90.000000
_cell_angle_gamma 90.000000
_cell_volume 3404.592058
_symmetry_space_group_name_H-M "P B C M"
_symmetry_group_IT_number 57
_symmetry_cell_setting 'orthorhombic'
loop_
_space_group_symop_operation_xyz
x,y,z
-x,-y,1/2+z
x,1/2-y,-z
-x,1/2+y,1/2-z
-x,-y,-z
x,y,1/2-z
-x,1/2+y,z
x,1/2-y,1/2+z
loop_
_atom_site_type_symbol
_atom_site_label
_atom_site_fract_x
_atom_site_fract_y
_atom_site_fract_z
Si Si1 0.942760 0.951247 0.421585
Si Si2 0.800413 0.507901 0.072788
Si Si3 0.027487 0.814196 0.080035
Si Si4 0.549578 0.823398 0.573306
Si Si5 0.641558 0.555078 0.073046
Si Si6 0.321777 0.684952 0.080237
Si Si7 0.576839 0.428737 0.926713
Si Si8 0.831856 0.366177 0.922377
O O1 0.934634 0.971137 0.250000
O O2 0.867441 0.953180 0.503951
O O3 0.976105 0.877625 0.426057
O O4 0.000000 0.000000 0.500000
O O5 0.805192 0.506813 0.250000
O O6 0.722730 0.536881 0.031195
O O7 0.811673 0.433716 0.008085
O O8 0.043891 0.799080 0.250000
O O9 0.995621 0.750000 0.000000
O O10 0.099708 0.833705 0.996125
O O11 0.545714 0.750000 0.500000
O O12 0.547748 0.813837 0.750000
O O13 0.618344 0.869144 0.533722
O O14 0.485790 0.875902 0.536423
O O15 0.635572 0.549455 0.250000
O O16 0.587503 0.500117 0.004401
O O17 0.342390 0.690788 0.250000
O O18 0.353729 0.614658 0.029195
O O19 0.237140 0.680726 0.068782
O O20 0.350312 0.750000 0.000000
O O21 0.574389 0.439976 0.750000
O O22 0.844783 0.380500 0.750000
#
# Coordination Sequence:
#
# PCOD9437551 Si02
#       8
#     8   8   8   8   8   8   8   8
#     4  11  23  39  62  89 118 153 196 240 290 349
#     4  11  22  37  59  87 118 154 198 247 297 350
#     4  11  24  40  59  86 118 153 194 238 292 353
#     4  10  22  40  61  87 119 155 199 247 300 357
#     4  10  22  39  60  88 119 154 198 247 296 351
#     4  10  21  33  48  77 114 154 193 232 281 342
#     4  10  20  36  58  86 118 152 194 242 292 353
#     4  11  21  35  56  81 116 156 196 240 289 349
#
# _framework density 18.798141000000001
#
# number of rings (size 3 to 8) (size 9 to 14) (size 15 to 20)
#    0.000    1.500    2.500    2.625    0.000    5.500 
#    0.000    0.625    0.000    3.000    0.000    0.000 
#    0.000    0.000    0.000    0.000    0.000    0.000 
#
# Total GULP energy -357241.239380 kJ/mol
# GULP energy per Si atom -5581.894365 kJ/mol
# Density = 1.875536 g / cm^3
# Si number density = 18.798141 Si / 1000 Ang^3
#
#
#
# Elastic Constant Matrix: (Units=GPa)
#
#
# Indices 1 2 3 4 5 6 
#
# 1 80.0439 41.5717 43.0678 0.0000 0.0000 0.0000
# 2 41.5717 128.3678 52.8784 0.0000 0.0000 0.0000
# 3 43.0678 52.8784 79.5797 0.0000 0.0000 0.0000
# 4 0.0000 0.0000 0.0000 33.2092 0.0000 0.0000
# 5 0.0000 0.0000 0.0000 0.0000 21.2616 0.0000
# 6 0.0000 0.0000 0.0000 0.0000 0.0000 17.0143
#
#
#
# Elastic Compliance Matrix: (Units=1/GPa)
#
#
# Indices 1 2 3 4 5 6 
#
# 1 0.018203 -0.002529 -0.008171 0.000000 0.000000 0.000000
# 2 -0.002529 0.011077 -0.005992 0.000000 0.000000 0.000000
# 3 -0.008171 -0.005992 0.020969 0.000000 0.000000 0.000000
# 4 0.000000 0.000000 0.000000 0.030112 0.000000 0.000000
# 5 0.000000 0.000000 0.000000 0.000000 0.047033 0.000000
# 6 0.000000 0.000000 0.000000 0.000000 0.000000 0.058774
#
#
# Mechanical properties :
#
#
# Convention : Reuss Voigt Hill
#
# Bulk Modulus (GPa) = 59.29014 62.55858 60.92436
# Shear Modulus (GPa) = 22.20498 24.32858 23.26678
#
# Velocity S-wave (km/s) = 3.44064 3.60140 3.52194
# Velocity P-wave (km/s) = 6.88425 7.11652 7.00135
#
# Compressibility (1/GPa) = 0.01686621
#
# Stress axis : x y z
#
# Youngs Moduli (GPa) = 54.93599 90.27379 47.68883
#
# Poissons Ratio (x) = 0.22833 0.38965
# Poissons Ratio (y) = 0.13895 0.28574
# Poissons Ratio (z) = 0.44886 0.54090
#
# Static dielectric constant tensor:
#      x y z
#    x 1.681590 0.000000 0.000000 
#    y 0.000000 1.677840 0.000000 
#    z 0.000000 0.000000 1.640400 
# 
# From -- ./inp_files/8398.got.cif
#   From: 2010.05.17/outbox.cif.g08.bks.cpg/sg57_5_cif.got.tgz:8398.got - 2010.06.03 13:58:18.
