data_PCOD9437923
_publ_section_title
;
Structure prediction by ZEFSAII (Michael W. Deem and Ramdas Pophale) SiO2 
 PCOD9437923
Probable space group: P B C M
;
_chemical_formula_sum "Si O2"
_cell_formula_units_Z 56
_cell_length_a 5.239159
_cell_length_b 12.221697
_cell_length_c 35.511130
_cell_angle_alpha 90.000000
_cell_angle_beta 90.000000
_cell_angle_gamma 90.000000
_cell_volume 2273.827861
_symmetry_space_group_name_H-M "P B C M"
_symmetry_group_IT_number 57
_symmetry_cell_setting 'orthorhombic'
loop_
_space_group_symop_operation_xyz
x,y,z
-x,-y,1/2+z
x,1/2-y,-z
-x,1/2+y,1/2-z
-x,-y,-z
x,y,1/2-z
-x,1/2+y,z
x,1/2-y,1/2+z
loop_
_atom_site_type_symbol
_atom_site_label
_atom_site_fract_x
_atom_site_fract_y
_atom_site_fract_z
Si Si1 0.574827 0.689873 0.039772
Si Si2 0.345759 0.738663 0.384608
Si Si3 0.986261 0.846467 0.330363
Si Si4 0.717914 0.867725 0.827257
Si Si5 0.072474 0.549586 0.040119
Si Si6 0.936260 0.004783 0.380884
Si Si7 0.969962 0.175111 0.750000
Si Si8 0.471960 0.175803 0.250000
O O1 0.480592 0.760598 0.075623
O O2 0.856229 0.642511 0.047210
O O3 0.359927 0.595072 0.037107
O O4 0.575392 0.750000 0.000000
O O5 0.163716 0.829705 0.367269
O O6 0.544652 0.711434 0.352200
O O7 0.199993 0.622279 0.387772
O O8 0.056506 0.892018 0.289207
O O9 0.943311 0.719382 0.319249
O O10 0.786977 0.927815 0.351087
O O11 0.821774 0.959474 0.855039
O O12 0.578941 0.891500 0.788161
O O13 0.042594 0.468369 0.075735
O O14 0.000000 0.500000 0.000000
O O15 0.743705 0.264816 0.750000
O O16 0.256405 0.227174 0.750000
#
# Coordination Sequence:
#
# PCOD9437923 Si02
#       8
#     8   8   8   8   8   8   4   4
#     4  11  24  42  66  93 127 165 216 265 316 390
#     4  10  21  40  63  88 127 168 214 263 324 382
#     4  10  22  38  65  89 126 171 212 263 328 379
#     4  10  20  40  62  89 124 170 211 263 322 381
#     4  11  24  43  62  94 130 163 210 269 321 379
#     4  10  23  40  61  93 129 165 218 265 315 394
#     4  10  20  39  59  96 125 156 218 264 306 385
#     4  10  20  37  65  90 123 168 208 266 320 375
#
# _framework density 24.628072
#
# number of rings (size 3 to 8) (size 9 to 14) (size 15 to 20)
#    0.000    1.714    2.857    0.857    2.000    2.857 
#    0.000    1.429    0.000    0.000    0.000    0.000 
#    0.000    0.000    0.000    0.000    0.000    0.000 
#
# Total GULP energy -312109.518108 kJ/mol
# GULP energy per Si atom -5573.384252 kJ/mol
# Density = 2.457202 g / cm^3
# Si number density = 24.628072 Si / 1000 Ang^3
#
#
#
# Elastic Constant Matrix: (Units=GPa)
#
#
# Indices 1 2 3 4 5 6 
#
# 1 62.7004 -11.0129 1.1304 0.0000 0.0000 0.0000
# 2 -11.0129 34.7054 25.7020 0.0000 0.0000 0.0000
# 3 1.1304 25.7020 184.2684 0.0000 0.0000 0.0000
# 4 0.0000 0.0000 0.0000 32.8900 0.0000 0.0000
# 5 0.0000 0.0000 0.0000 0.0000 34.2579 0.0000
# 6 0.0000 0.0000 0.0000 0.0000 0.0000 0.2603
#
#
#
# Elastic Compliance Matrix: (Units=1/GPa)
#
#
# Indices 1 2 3 4 5 6 
#
# 1 0.017040 0.006117 -0.000958 0.000000 0.000000 0.000000
# 2 0.006117 0.034329 -0.004826 0.000000 0.000000 0.000000
# 3 -0.000958 -0.004826 0.006106 0.000000 0.000000 0.000000
# 4 0.000000 0.000000 0.000000 0.030404 0.000000 0.000000
# 5 0.000000 0.000000 0.000000 0.000000 0.029190 0.000000
# 6 0.000000 0.000000 0.000000 0.000000 0.000000 3.841314
#
#
# Mechanical properties :
#
#
# Convention : Reuss Voigt Hill
#
# Bulk Modulus (GPa) = 17.19944 34.81256 26.00600
# Shear Modulus (GPa) = 1.25720 31.20529 16.23124
#
# Velocity S-wave (km/s) = 0.71525 3.56344 2.56999
# Velocity P-wave (km/s) = 2.77145 5.57645 4.40328
#
# Compressibility (1/GPa) = 0.05814142
#
# Stress axis : x y z
#
# Youngs Moduli (GPa) = 58.68380 29.13014 163.77763
#
# Poissons Ratio (x) = -0.17818 0.15685
# Poissons Ratio (y) = -0.35895 0.79035
# Poissons Ratio (z) = 0.05620 0.14057
#
# Static dielectric constant tensor:
#      x y z
#    x 2.184960 0.000000 0.000000 
#    y 0.000000 2.703630 0.000000 
#    z 0.000000 0.000000 2.151600 
# 
# From -- ./inp_files/29221.got.cif
#   From: 2010.05.17/outbox.cif.g08.bks.cpg/sg57_15_cif.got.tgz:29221.got - 2010.06.03 13:58:18.
