data_PCOD9437605
_publ_section_title
;
Structure prediction by ZEFSAII (Michael W. Deem and Ramdas Pophale) SiO2 
 PCOD9437605
Probable space group: P B C M
;
_chemical_formula_sum "Si O2"
_cell_formula_units_Z 56
_cell_length_a 15.231126
_cell_length_b 23.157482
_cell_length_c 8.462974
_cell_angle_alpha 90.000000
_cell_angle_beta 90.000000
_cell_angle_gamma 90.000000
_cell_volume 2985.013865
_symmetry_space_group_name_H-M "P B C M"
_symmetry_group_IT_number 57
_symmetry_cell_setting 'orthorhombic'
loop_
_space_group_symop_operation_xyz
x,y,z
-x,-y,1/2+z
x,1/2-y,-z
-x,1/2+y,1/2-z
-x,-y,-z
x,y,1/2-z
-x,1/2+y,z
x,1/2-y,1/2+z
loop_
_atom_site_type_symbol
_atom_site_label
_atom_site_fract_x
_atom_site_fract_y
_atom_site_fract_z
Si Si1 0.429015 0.187523 0.058918
Si Si2 0.915021 0.423725 0.939462
Si Si3 0.295336 0.089518 0.441549
Si Si4 0.593908 0.022452 0.560326
Si Si5 0.622783 0.149961 0.061670
Si Si6 0.190371 0.687353 0.936907
Si Si7 0.887593 0.949499 0.940962
O O1 0.429981 0.185783 0.250000
O O2 0.361094 0.138989 0.000766
O O3 0.528958 0.174936 0.006287
O O4 0.401829 0.250000 0.000000
O O5 0.912052 0.424792 0.750000
O O6 0.017435 0.425726 0.991661
O O7 0.864117 0.367118 0.996810
O O8 0.876909 0.484425 0.002436
O O9 0.294544 0.094285 0.250000
O O10 0.194836 0.088562 0.495993
O O11 0.337119 0.027591 0.478626
O O12 0.591241 0.029857 0.750000
O O13 0.619322 0.082312 0.479889
O O14 0.500000 0.000000 0.500000
O O15 0.629418 0.157635 0.250000
O O16 0.707800 0.178106 0.983837
O O17 0.182535 0.687026 0.750000
O O18 0.161269 0.750000 0.000000
O O19 0.887233 0.950548 0.750000
#
# Coordination Sequence:
#
# PCOD9437605 Si02
#       7
#     8   8   8   8   8   8   8
#     4  10  21  37  54  74 105 145 185 227 272 325
#     4  10  20  36  59  89 119 148 185 236 291 346
#     4   9  18  35  55  78 110 147 183 226 279 332
#     4  11  20  33  54  82 116 153 190 233 286 337
#     4  11  22  38  58  83 114 148 189 238 287 343
#     4  12  25  41  60  84 115 155 196 241 293 351
#     4   9  18  35  62  88 114 150 189 232 289 347
#
# _framework density 18.760383000000001
#
# number of rings (size 3 to 8) (size 9 to 14) (size 15 to 20)
#    0.000    1.714    1.429    3.857    0.000    4.000 
#    0.000    2.143    0.000    1.714    0.000    0.000 
#    0.000    0.000    0.000    0.000    0.000    0.000 
#
# Total GULP energy -312780.645397 kJ/mol
# GULP energy per Si atom -5585.368668 kJ/mol
# Density = 1.871768 g / cm^3
# Si number density = 18.760383 Si / 1000 Ang^3
#
#
#
# Elastic Constant Matrix: (Units=GPa)
#
#
# Indices 1 2 3 4 5 6 
#
# 1 119.1237 50.9242 13.3728 0.0000 0.0000 0.0000
# 2 50.9242 99.0240 3.8206 0.0000 0.0000 0.0000
# 3 13.3728 3.8206 25.7485 0.0000 0.0000 0.0000
# 4 0.0000 0.0000 0.0000 31.9235 0.0000 0.0000
# 5 0.0000 0.0000 0.0000 0.0000 18.6931 0.0000
# 6 0.0000 0.0000 0.0000 0.0000 0.0000 15.5454
#
#
#
# Elastic Compliance Matrix: (Units=1/GPa)
#
#
# Indices 1 2 3 4 5 6 
#
# 1 0.011383 -0.005658 -0.005072 0.000000 0.000000 0.000000
# 2 -0.005658 0.012969 0.001014 0.000000 0.000000 0.000000
# 3 -0.005072 0.001014 0.041321 0.000000 0.000000 0.000000
# 4 0.000000 0.000000 0.000000 0.031325 0.000000 0.000000
# 5 0.000000 0.000000 0.000000 0.000000 0.053496 0.000000
# 6 0.000000 0.000000 0.000000 0.000000 0.000000 0.064328
#
#
# Mechanical properties :
#
#
# Convention : Reuss Voigt Hill
#
# Bulk Modulus (GPa) = 21.62589 42.23680 31.93135
# Shear Modulus (GPa) = 20.02667 24.95097 22.48882
#
# Velocity S-wave (km/s) = 3.27080 3.65085 3.46604
# Velocity P-wave (km/s) = 5.08101 6.35093 5.75113
#
# Compressibility (1/GPa) = 0.04624086
#
# Stress axis : x y z
#
# Youngs Moduli (GPa) = 87.85190 77.10610 24.20070
#
# Poissons Ratio (x) = 0.43627 0.12275
# Poissons Ratio (y) = 0.49707 -0.02454
# Poissons Ratio (z) = 0.44560 -0.07820
#
# Static dielectric constant tensor:
#      x y z
#    x 1.672250 0.000000 0.000000 
#    y 0.000000 1.619420 0.000000 
#    z 0.000000 0.000000 1.640470 
# 
# From -- ./inp_files/5239.got.cif
#   From: 2010.05.17/outbox.cif.g08.bks.cpg/sg57_3_cif.got.tgz:5239.got - 2010.06.03 13:58:18.
