data_PCOD9437926
_publ_section_title
;
Structure prediction by ZEFSAII (Michael W. Deem and Ramdas Pophale) SiO2 
 PCOD9437926
Probable space group: P B C M
;
_chemical_formula_sum "Si O2"
_cell_formula_units_Z 56
_cell_length_a 9.829618
_cell_length_b 17.566712
_cell_length_c 14.077716
_cell_angle_alpha 90.000000
_cell_angle_beta 90.000000
_cell_angle_gamma 90.000000
_cell_volume 2430.856497
_symmetry_space_group_name_H-M "P B C M"
_symmetry_group_IT_number 57
_symmetry_cell_setting 'orthorhombic'
loop_
_space_group_symop_operation_xyz
x,y,z
-x,-y,1/2+z
x,1/2-y,-z
-x,1/2+y,1/2-z
-x,-y,-z
x,y,1/2-z
-x,1/2+y,z
x,1/2-y,1/2+z
loop_
_atom_site_type_symbol
_atom_site_label
_atom_site_fract_x
_atom_site_fract_y
_atom_site_fract_z
Si Si1 0.900016 0.083366 0.049197
Si Si2 0.565031 0.163049 0.638112
Si Si3 0.654751 0.015723 0.527170
Si Si4 0.188377 0.386870 0.637162
Si Si5 0.993745 0.875494 0.143272
Si Si6 0.271624 0.283511 0.365094
Si Si7 0.190594 0.770797 0.644130
O O1 0.842658 0.168302 0.065129
O O2 0.034300 0.087890 0.113334
O O3 0.767041 0.029959 0.056157
O O4 0.952503 0.072963 0.941410
O O5 0.553598 0.142689 0.750000
O O6 0.640853 0.094200 0.586175
O O7 0.416554 0.185704 0.600055
O O8 0.660429 0.236644 0.632187
O O9 0.500000 0.000000 0.500000
O O10 0.710866 0.946520 0.589109
O O11 0.205632 0.387804 0.750000
O O12 0.222073 0.300328 0.602824
O O13 0.997572 0.908272 0.250000
O O14 0.844593 0.845558 0.117754
O O15 0.086245 0.799495 0.144799
O O16 0.283019 0.277373 0.250000
O O17 0.180358 0.806631 0.750000
#
# Coordination Sequence:
#
# PCOD9437926 Si02
#       7
#     8   8   8   8   8   8   8
#     4  12  24  43  69 104 135 180 236 287 344 418
#     4  10  22  43  69  95 132 179 228 282 347 416
#     4  12  29  46  62  96 145 189 236 276 348 426
#     4  11  25  48  72  98 140 187 230 292 356 417
#     4  10  20  37  66 103 136 169 220 290 353 404
#     4   9  20  39  68 103 130 167 229 287 348 403
#     4  10  20  38  68 103 130 166 226 293 348 404
#
# _framework density 23.037147000000001
#
# number of rings (size 3 to 8) (size 9 to 14) (size 15 to 20)
#    0.000    1.429    2.857    1.714    4.000    0.571 
#    0.000    2.143    0.000    0.000    0.000    0.000 
#    0.000    0.000    0.000    0.000    0.000    0.000 
#
# Total GULP energy -313315.262240 kJ/mol
# GULP energy per Si atom -5594.915397 kJ/mol
# Density = 2.298471 g / cm^3
# Si number density = 23.037147 Si / 1000 Ang^3
#
#
#
# Elastic Constant Matrix: (Units=GPa)
#
#
# Indices 1 2 3 4 5 6 
#
# 1 170.6425 23.1446 11.9563 0.0000 0.0000 0.0000
# 2 23.1446 82.8951 11.6398 0.0000 0.0000 0.0000
# 3 11.9563 11.6398 57.5087 0.0000 0.0000 0.0000
# 4 0.0000 0.0000 0.0000 26.1312 0.0000 0.0000
# 5 0.0000 0.0000 0.0000 0.0000 29.5925 0.0000
# 6 0.0000 0.0000 0.0000 0.0000 0.0000 24.1061
#
#
#
# Elastic Compliance Matrix: (Units=1/GPa)
#
#
# Indices 1 2 3 4 5 6 
#
# 1 0.006142 -0.001580 -0.000957 0.000000 0.000000 0.000000
# 2 -0.001580 0.012823 -0.002267 0.000000 0.000000 0.000000
# 3 -0.000957 -0.002267 0.018046 0.000000 0.000000 0.000000
# 4 0.000000 0.000000 0.000000 0.038268 0.000000 0.000000
# 5 0.000000 0.000000 0.000000 0.000000 0.033792 0.000000
# 6 0.000000 0.000000 0.000000 0.000000 0.000000 0.041483
#
#
# Mechanical properties :
#
#
# Convention : Reuss Voigt Hill
#
# Bulk Modulus (GPa) = 36.49282 44.94751 40.72017
# Shear Modulus (GPa) = 29.53379 33.58634 31.56007
#
# Velocity S-wave (km/s) = 3.58440 3.82242 3.70532
# Velocity P-wave (km/s) = 5.74507 6.24775 6.00167
#
# Compressibility (1/GPa) = 0.02740265
#
# Stress axis : x y z
#
# Youngs Moduli (GPa) = 162.82377 77.98494 55.41259
#
# Poissons Ratio (x) = 0.12325 0.05303
# Poissons Ratio (y) = 0.25732 0.12561
# Poissons Ratio (z) = 0.15582 0.17678
#
# Static dielectric constant tensor:
#      x y z
#    x 1.866650 0.000000 0.000000 
#    y 0.000000 1.853520 0.000000 
#    z 0.000000 0.000000 1.899890 
# 
# From -- ./inp_files/16691.got.cif
#   From: 2010.05.17/outbox.cif.g08.bks.cpg/sg57_9_cif.got.tgz:16691.got - 2010.06.03 13:58:18.
