data_PCOD9437448
_publ_section_title
;
Structure prediction by ZEFSAII (Michael W. Deem and Ramdas Pophale) SiO2 
 PCOD9437448
Probable space group: P B C M
;
_chemical_formula_sum "Si O2"
_cell_formula_units_Z 48
_cell_length_a 28.281570
_cell_length_b 10.042208
_cell_length_c 9.377578
_cell_angle_alpha 90.000000
_cell_angle_beta 90.000000
_cell_angle_gamma 90.000000
_cell_volume 2663.320381
_symmetry_space_group_name_H-M "P B C M"
_symmetry_group_IT_number 57
_symmetry_cell_setting 'orthorhombic'
loop_
_space_group_symop_operation_xyz
x,y,z
-x,-y,1/2+z
x,1/2-y,-z
-x,1/2+y,1/2-z
-x,-y,-z
x,y,1/2-z
-x,1/2+y,z
x,1/2-y,1/2+z
loop_
_atom_site_type_symbol
_atom_site_label
_atom_site_fract_x
_atom_site_fract_y
_atom_site_fract_z
Si Si1 0.890846 0.398165 0.524983
Si Si2 0.357711 0.885957 0.081922
Si Si3 0.970489 0.326794 0.750000
Si Si4 0.184985 0.381785 0.084670
Si Si5 0.531921 0.391096 0.078359
Si Si6 0.718243 0.888530 0.922843
Si Si7 0.945635 0.471639 0.250000
O O1 0.869990 0.250000 0.500000
O O2 0.937310 0.370183 0.619231
O O3 0.853019 0.500220 0.585791
O O4 0.911294 0.463779 0.383603
O O5 0.353000 0.860187 0.250000
O O6 0.412465 0.923992 0.056627
O O7 0.321218 0.001729 0.044207
O O8 0.347598 0.750000 0.000000
O O9 0.975314 0.167233 0.750000
O O10 0.019336 0.404633 0.750000
O O11 0.196508 0.348858 0.250000
O O12 0.167405 0.250000 0.000000
O O13 0.231483 0.424328 0.995436
O O14 0.523323 0.383849 0.250000
O O15 0.523641 0.250000 0.000000
O O16 0.500000 0.500000 0.000000
O O17 0.721912 0.875980 0.750000
O O18 0.705266 0.750000 0.000000
#
# Coordination Sequence:
#
# PCOD9437448 Si02
#       7
#     8   8   4   8   8   8   4
#     4  10  22  39  58  83 114 147 183 226 273 324
#     4   9  20  37  57  83 114 149 191 237 283 339
#     4  10  20  40  54  86 110 148 180 228 265 328
#     4  11  23  39  59  84 113 144 185 229 277 332
#     4  10  20  36  56  82 116 153 196 242 291 343
#     4  10  21  38  58  83 113 145 185 230 280 334
#     4  10  22  34  62  80 116 142 184 220 275 318
#
# _framework density 18.022617
#
# number of rings (size 3 to 8) (size 9 to 14) (size 15 to 20)
#    0.000    2.000    0.833    3.000    2.333    4.667 
#    0.000    3.333    0.000    0.000    0.000    0.000 
#    0.000    0.000    0.000    0.000    0.000    0.000 
#
# Total GULP energy -267710.319206 kJ/mol
# GULP energy per Si atom -5577.298317 kJ/mol
# Density = 1.798160 g / cm^3
# Si number density = 18.022617 Si / 1000 Ang^3
#
#
#
# Elastic Constant Matrix: (Units=GPa)
#
#
# Indices 1 2 3 4 5 6 
#
# 1 70.5075 76.8001 35.8360 0.0000 0.0000 0.0000
# 2 76.8001 97.1360 35.5822 0.0000 0.0000 0.0000
# 3 35.8360 35.5822 106.4175 0.0000 0.0000 0.0000
# 4 0.0000 0.0000 0.0000 32.7456 0.0000 0.0000
# 5 0.0000 0.0000 0.0000 0.0000 54.4752 0.0000
# 6 0.0000 0.0000 0.0000 0.0000 0.0000 43.8465
#
#
#
# Elastic Compliance Matrix: (Units=1/GPa)
#
#
# Indices 1 2 3 4 5 6 
#
# 1 0.109284 -0.083102 -0.009015 0.000000 0.000000 0.000000
# 2 -0.083102 0.074925 0.002932 0.000000 0.000000 0.000000
# 3 -0.009015 0.002932 0.011452 0.000000 0.000000 0.000000
# 4 0.000000 0.000000 0.000000 0.030538 0.000000 0.000000
# 5 0.000000 0.000000 0.000000 0.000000 0.018357 0.000000
# 6 0.000000 0.000000 0.000000 0.000000 0.000000 0.022807
#
#
# Mechanical properties :
#
#
# Convention : Reuss Voigt Hill
#
# Bulk Modulus (GPa) = 57.83172 63.38859 60.61016
# Shear Modulus (GPa) = 11.07428 34.60297 22.83862
#
# Velocity S-wave (km/s) = 2.48153 4.38651 3.56367
# Velocity P-wave (km/s) = 6.35364 7.80406 7.11590
#
# Compressibility (1/GPa) = 0.01729155
#
# Stress axis : x y z
#
# Youngs Moduli (GPa) = 9.15050 13.34666 87.31967
#
# Poissons Ratio (x) = 1.10914 0.78716
# Poissons Ratio (y) = 0.76043 -0.25605
# Poissons Ratio (z) = 0.08249 -0.03914
#
# Static dielectric constant tensor:
#      x y z
#    x 1.592800 0.000000 0.000000 
#    y 0.000000 1.598490 0.000000 
#    z 0.000000 0.000000 1.629740 
# 
# From -- ./inp_files/10113.got.cif
#   From: 2010.05.17/outbox.cif.g08.bks.cpg/sg57_6_cif.got.tgz:10113.got - 2010.06.03 13:58:18.
