data_PCOD9437101
_publ_section_title
;
Structure prediction by ZEFSAII (Michael W. Deem and Ramdas Pophale) SiO2 
 PCOD9437101
Probable space group: P B C M
;
_chemical_formula_sum "Si O2"
_cell_formula_units_Z 56
_cell_length_a 19.356954
_cell_length_b 9.180924
_cell_length_c 16.287030
_cell_angle_alpha 90.000000
_cell_angle_beta 90.000000
_cell_angle_gamma 90.000000
_cell_volume 2894.445034
_symmetry_space_group_name_H-M "P B C M"
_symmetry_group_IT_number 57
_symmetry_cell_setting 'orthorhombic'
loop_
_space_group_symop_operation_xyz
x,y,z
-x,-y,1/2+z
x,1/2-y,-z
-x,1/2+y,1/2-z
-x,-y,-z
x,y,1/2-z
-x,1/2+y,z
x,1/2-y,1/2+z
loop_
_atom_site_type_symbol
_atom_site_label
_atom_site_fract_x
_atom_site_fract_y
_atom_site_fract_z
Si Si1 0.423082 0.352744 0.347364
Si Si2 0.731874 0.698347 0.905731
Si Si3 0.113028 0.806150 0.092004
Si Si4 0.844455 0.587700 0.159174
Si Si5 0.045987 0.194841 0.905650
Si Si6 0.471925 0.629110 0.059663
Si Si7 0.158126 0.516334 0.345804
O O1 0.434502 0.340004 0.250000
O O2 0.344702 0.315335 0.371538
O O3 0.471656 0.233243 0.394673
O O4 0.434829 0.522176 0.375045
O O5 0.777787 0.815066 0.856577
O O6 0.775593 0.550959 0.891099
O O7 0.730927 0.750000 0.000000
O O8 0.151986 0.688154 0.146415
O O9 0.033250 0.823587 0.118843
O O10 0.150532 0.959194 0.095023
O O11 0.111704 0.750000 0.000000
O O12 0.844511 0.525325 0.250000
O O13 0.911824 0.687443 0.146611
O O14 0.089951 0.048934 0.890494
O O15 0.049581 0.250000 0.000000
O O16 0.434890 0.750000 0.000000
O O17 0.500000 0.500000 0.000000
O O18 0.158701 0.471927 0.250000
#
# Coordination Sequence:
#
# PCOD9437101 Si02
#       7
#     8   8   8   8   8   8   8
#     4  11  21  38  64  95 126 159 198 244 291 336
#     4  11  22  40  62  81 110 154 192 226 279 347
#     4  11  22  36  53  76 107 143 185 235 289 345
#     4  11  22  36  55  81 109 141 187 238 286 342
#     4  10  20  35  55  76 103 143 186 229 285 350
#     4   9  19  37  61  92 127 161 198 235 281 341
#     4  11  22  36  54  79 109 141 183 236 288 338
#
# _framework density 19.347405999999999
#
# number of rings (size 3 to 8) (size 9 to 14) (size 15 to 20)
#    0.000    1.429    0.000    9.000    0.000    5.714 
#    0.000    5.000    0.000    0.000    0.000    0.000 
#    0.000    0.000    0.000    0.000    0.000    0.000 
#
# Total GULP energy -312428.647746 kJ/mol
# GULP energy per Si atom -5579.082995 kJ/mol
# Density = 1.930337 g / cm^3
# Si number density = 19.347406 Si / 1000 Ang^3
#
#
#
# Elastic Constant Matrix: (Units=GPa)
#
#
# Indices 1 2 3 4 5 6 
#
# 1 99.0042 37.6761 24.3545 0.0000 0.0000 0.0000
# 2 37.6761 107.2739 13.9690 0.0000 0.0000 0.0000
# 3 24.3545 13.9690 92.8568 0.0000 0.0000 0.0000
# 4 0.0000 0.0000 0.0000 39.3084 0.0000 0.0000
# 5 0.0000 0.0000 0.0000 0.0000 -6.3133 0.0000
# 6 0.0000 0.0000 0.0000 0.0000 0.0000 64.7580
#
#
#
# Elastic Compliance Matrix: (Units=1/GPa)
#
#
# Indices 1 2 3 4 5 6 
#
# 1 0.012252 -0.003962 -0.002617 0.000000 0.000000 0.000000
# 2 -0.003962 0.010790 -0.000584 0.000000 0.000000 0.000000
# 3 -0.002617 -0.000584 0.011544 0.000000 0.000000 0.000000
# 4 0.000000 0.000000 0.000000 0.025440 0.000000 0.000000
# 5 0.000000 0.000000 0.000000 0.000000 -0.158396 0.000000
# 6 0.000000 0.000000 0.000000 0.000000 0.000000 0.015442
#
#
# Mechanical properties :
#
#
# Convention : Reuss Voigt Hill
#
# Bulk Modulus (GPa) = 49.36290 50.12601 49.74446
# Shear Modulus (GPa) = -80.84261 34.42631 -23.20815
#
# Velocity S-wave (km/s) = -6.47112 4.22284 -3.46721
# Velocity P-wave (km/s) = 5.50132 7.05274 3.12062
#
# Compressibility (1/GPa) = 0.02025813
#
# Stress axis : x y z
#
# Youngs Moduli (GPa) = 81.61705 92.68186 86.62796
#
# Poissons Ratio (x) = 0.36724 0.22675
# Poissons Ratio (y) = 0.32340 0.05058
# Poissons Ratio (z) = 0.21363 0.05412
#
# Static dielectric constant tensor:
#      x y z
#    x 1.639210 0.000000 0.000000 
#    y 0.000000 1.709390 0.000000 
#    z 0.000000 0.000000 1.715430 
# 
# From -- ./inp_files/19349.got.cif
#   From: 2010.05.17/outbox.cif.g08.bks.cpg/sg57_10_cif.got.tgz:19349.got - 2010.06.03 13:58:18.
