data_PCOD9437078
_publ_section_title
;
Structure prediction by ZEFSAII (Michael W. Deem and Ramdas Pophale) SiO2 
 PCOD9437078
Probable space group: P B C M
;
_chemical_formula_sum "Si O2"
_cell_formula_units_Z 48
_cell_length_a 31.150197
_cell_length_b 9.704869
_cell_length_c 8.600330
_cell_angle_alpha 90.000000
_cell_angle_beta 90.000000
_cell_angle_gamma 90.000000
_cell_volume 2599.953560
_symmetry_space_group_name_H-M "P B C M"
_symmetry_group_IT_number 57
_symmetry_cell_setting 'orthorhombic'
loop_
_space_group_symop_operation_xyz
x,y,z
-x,-y,1/2+z
x,1/2-y,-z
-x,1/2+y,1/2-z
-x,-y,-z
x,y,1/2-z
-x,1/2+y,z
x,1/2-y,1/2+z
loop_
_atom_site_type_symbol
_atom_site_label
_atom_site_fract_x
_atom_site_fract_y
_atom_site_fract_z
Si Si1 0.788605 0.100289 0.562912
Si Si2 0.887986 0.098011 0.562728
Si Si3 0.365969 0.903734 0.437549
Si Si4 0.961483 0.905404 0.064073
Si Si5 0.712272 0.903873 0.938088
Si Si6 0.537179 0.096428 0.563777
O O1 0.775756 0.250000 0.500000
O O2 0.787478 0.105624 0.750000
O O3 0.838118 0.074974 0.517681
O O4 0.755125 0.984863 0.510685
O O5 0.900360 0.250000 0.500000
O O6 0.891465 0.097735 0.750000
O O7 0.918235 0.981284 0.492240
O O8 0.358137 0.750000 0.500000
O O9 0.364749 0.897707 0.250000
O O10 0.414351 0.946645 0.483762
O O11 0.329248 0.008633 0.489667
O O12 0.963340 0.901791 0.250000
O O13 0.964330 0.750000 0.000000
O O14 0.000000 0.000000 0.000000
O O15 0.712170 0.900723 0.750000
O O16 0.711193 0.750000 0.000000
O O17 0.530959 0.250000 0.500000
O O18 0.535522 0.097952 0.750000
O O19 0.500000 0.000000 0.500000
#
# Coordination Sequence:
#
# PCOD9437078 Si02
#       6
#     8   8   8   8   8   8
#     4   9  19  35  57  82 110 143 182 222 265 318
#     4  10  20  37  59  86 116 148 185 227 272 324
#     4   9  19  35  55  77 103 135 177 220 264 318
#     4  12  25  42  62  86 115 150 188 230 277 327
#     4  10  21  36  52  77 109 141 177 221 268 318
#     4  10  20  35  54  78 106 139 176 220 269 323
#
# _framework density 18.461867999999999
#
# number of rings (size 3 to 8) (size 9 to 14) (size 15 to 20)
#    0.000    2.000    0.000    3.500    0.000    4.000 
#    0.000    3.333    0.000    0.000    0.000    0.000 
#    0.000    0.000    0.000    0.000    0.000    0.000 
#
# Total GULP energy -268090.619391 kJ/mol
# GULP energy per Si atom -5585.221237 kJ/mol
# Density = 1.841985 g / cm^3
# Si number density = 18.461868 Si / 1000 Ang^3
#
#
#
# Elastic Constant Matrix: (Units=GPa)
#
#
# Indices 1 2 3 4 5 6 
#
# 1 134.7115 119.0696 42.6074 0.0000 0.0000 0.0000
# 2 119.0696 168.5338 46.1832 0.0000 0.0000 0.0000
# 3 42.6074 46.1832 59.8937 0.0000 0.0000 0.0000
# 4 0.0000 0.0000 0.0000 38.9263 0.0000 0.0000
# 5 0.0000 0.0000 0.0000 0.0000 22.6778 0.0000
# 6 0.0000 0.0000 0.0000 0.0000 0.0000 38.9259
#
#
#
# Elastic Compliance Matrix: (Units=1/GPa)
#
#
# Indices 1 2 3 4 5 6 
#
# 1 0.020627 -0.013379 -0.004357 0.000000 0.000000 0.000000
# 2 -0.013379 0.016201 -0.002975 0.000000 0.000000 0.000000
# 3 -0.004357 -0.002975 0.022090 0.000000 0.000000 0.000000
# 4 0.000000 0.000000 0.000000 0.025690 0.000000 0.000000
# 5 0.000000 0.000000 0.000000 0.000000 0.044096 0.000000
# 6 0.000000 0.000000 0.000000 0.000000 0.000000 0.025690
#
#
# Mechanical properties :
#
#
# Convention : Reuss Voigt Hill
#
# Bulk Modulus (GPa) = 57.15733 86.53992 71.84862
# Shear Modulus (GPa) = 24.79581 30.45790 27.62685
#
# Velocity S-wave (km/s) = 3.66878 4.06615 3.87257
# Velocity P-wave (km/s) = 6.99811 8.30791 7.68098
#
# Compressibility (1/GPa) = 0.01749557
#
# Stress axis : x y z
#
# Youngs Moduli (GPa) = 48.48044 61.72483 45.26972
#
# Poissons Ratio (x) = 0.82581 0.19726
# Poissons Ratio (y) = 0.64862 0.13467
# Poissons Ratio (z) = 0.21125 0.18362
#
# Static dielectric constant tensor:
#      x y z
#    x 1.654310 0.000000 0.000000 
#    y 0.000000 1.584100 0.000000 
#    z 0.000000 0.000000 1.624300 
# 
# From -- ./inp_files/9941.got.cif
#   From: 2010.05.17/outbox.cif.g08.bks.cpg/sg57_5_cif.got.tgz:9941.got - 2010.06.03 13:58:18.
