data_PCOD9437366
_publ_section_title
;
Structure prediction by ZEFSAII (Michael W. Deem and Ramdas Pophale) SiO2 
 PCOD9437366
Probable space group: P B C M
;
_chemical_formula_sum "Si O2"
_cell_formula_units_Z 56
_cell_length_a 17.947020
_cell_length_b 8.965248
_cell_length_c 18.419578
_cell_angle_alpha 90.000000
_cell_angle_beta 90.000000
_cell_angle_gamma 90.000000
_cell_volume 2963.700617
_symmetry_space_group_name_H-M "P B C M"
_symmetry_group_IT_number 57
_symmetry_cell_setting 'orthorhombic'
loop_
_space_group_symop_operation_xyz
x,y,z
-x,-y,1/2+z
x,1/2-y,-z
-x,1/2+y,1/2-z
-x,-y,-z
x,y,1/2-z
-x,1/2+y,z
x,1/2-y,1/2+z
loop_
_atom_site_type_symbol
_atom_site_label
_atom_site_fract_x
_atom_site_fract_y
_atom_site_fract_z
Si Si1 0.422703 0.185668 0.581997
Si Si2 0.421443 0.679680 0.081052
Si Si3 0.273972 0.350987 0.899643
Si Si4 0.722092 0.331244 0.666444
Si Si5 0.837431 0.434652 0.330334
Si Si6 0.076277 0.578140 0.522178
Si Si7 0.223592 0.053681 0.954135
O O1 0.418078 0.250000 0.500000
O O2 0.500712 0.252324 0.609635
O O3 0.350892 0.266586 0.618359
O O4 0.423846 0.003751 0.581319
O O5 0.353981 0.732263 0.132322
O O6 0.411288 0.750000 0.000000
O O7 0.229103 0.445642 0.841775
O O8 0.218617 0.220205 0.924932
O O9 0.277454 0.447918 0.974596
O O10 0.710483 0.376183 0.750000
O O11 0.791379 0.218740 0.663644
O O12 0.742530 0.461268 0.611231
O O13 0.869822 0.449232 0.250000
O O14 0.898172 0.441935 0.394048
O O15 0.071183 0.750000 0.500000
O O16 0.145180 0.509287 0.478142
O O17 0.000000 0.500000 0.500000
#
# Coordination Sequence:
#
# PCOD9437366 Si02
#       7
#     8   8   8   8   8   8   8
#     4  11  20  36  54  92 118 158 210 267 311 367
#     4  11  24  34  60  84 120 160 209 265 320 359
#     4  10  20  35  65  90 123 158 218 253 310 354
#     4  11  23  40  60  88 120 164 211 256 313 372
#     4  10  24  42  64  94 128 163 204 254 312 369
#     4  11  24  41  70  97 128 160 202 245 301 367
#     4  10  20  39  63  90 121 159 204 259 289 363
#
# _framework density 18.895295999999998
#
# number of rings (size 3 to 8) (size 9 to 14) (size 15 to 20)
#    0.000    1.429    4.286    1.714   12.000    0.571 
#    0.000    2.857    0.000    0.000    0.000    0.000 
#    0.000    0.000    0.000    0.000    0.000    0.000 
#
# Total GULP energy -312180.894634 kJ/mol
# GULP energy per Si atom -5574.658833 kJ/mol
# Density = 1.885229 g / cm^3
# Si number density = 18.895296 Si / 1000 Ang^3
#
#
#
# Elastic Constant Matrix: (Units=GPa)
#
#
# Indices 1 2 3 4 5 6 
#
# 1 124.7918 42.3860 65.4271 0.0000 0.0000 0.0000
# 2 42.3860 71.7308 36.7742 0.0000 0.0000 0.0000
# 3 65.4271 36.7742 116.0792 0.0000 0.0000 0.0000
# 4 0.0000 0.0000 0.0000 -18.8721 0.0000 0.0000
# 5 0.0000 0.0000 0.0000 0.0000 17.0248 0.0000
# 6 0.0000 0.0000 0.0000 0.0000 0.0000 33.9542
#
#
#
# Elastic Compliance Matrix: (Units=1/GPa)
#
#
# Indices 1 2 3 4 5 6 
#
# 1 0.012483 -0.004500 -0.005610 0.000000 0.000000 0.000000
# 2 -0.004500 0.018267 -0.003250 0.000000 0.000000 0.000000
# 3 -0.005610 -0.003250 0.012807 0.000000 0.000000 0.000000
# 4 0.000000 0.000000 0.000000 -0.052988 0.000000 0.000000
# 5 0.000000 0.000000 0.000000 0.000000 0.058738 0.000000
# 6 0.000000 0.000000 0.000000 0.000000 0.000000 0.029451
#
#
# Mechanical properties :
#
#
# Convention : Reuss Voigt Hill
#
# Bulk Modulus (GPa) = 59.40125 66.86406 63.13266
# Shear Modulus (GPa) = 45.00789 17.62233 31.31511
#
# Velocity S-wave (km/s) = 4.88583 3.05721 4.07541
# Velocity P-wave (km/s) = 7.95825 6.92283 7.45853
#
# Compressibility (1/GPa) = 0.01683466
#
# Stress axis : x y z
#
# Youngs Moduli (GPa) = 80.10665 54.74489 78.08315
#
# Poissons Ratio (x) = 0.24636 0.43808
# Poissons Ratio (y) = 0.36049 0.25380
# Poissons Ratio (z) = 0.44944 0.17794
#
# Static dielectric constant tensor:
#      x y z
#    x 1.674380 0.000000 0.000000 
#    y 0.000000 1.715350 0.000000 
#    z 0.000000 0.000000 1.676370 
# 
# From -- ./inp_files/25565.got.cif
#   From: 2010.05.17/outbox.cif.g08.bks.cpg/sg57_13_cif.got.tgz:25565.got - 2010.06.03 13:58:18.
