data_PCOD9437488
_publ_section_title
;
Structure prediction by ZEFSAII (Michael W. Deem and Ramdas Pophale) SiO2 
 PCOD9437488
Probable space group: P B C M
;
_chemical_formula_sum "Si O2"
_cell_formula_units_Z 64
_cell_length_a 21.383708
_cell_length_b 19.224850
_cell_length_c 8.602500
_cell_angle_alpha 90.000000
_cell_angle_beta 90.000000
_cell_angle_gamma 90.000000
_cell_volume 3536.475524
_symmetry_space_group_name_H-M "P B C M"
_symmetry_group_IT_number 57
_symmetry_cell_setting 'orthorhombic'
loop_
_space_group_symop_operation_xyz
x,y,z
-x,-y,1/2+z
x,1/2-y,-z
-x,1/2+y,1/2-z
-x,-y,-z
x,y,1/2-z
-x,1/2+y,z
x,1/2-y,1/2+z
loop_
_atom_site_type_symbol
_atom_site_label
_atom_site_fract_x
_atom_site_fract_y
_atom_site_fract_z
Si Si1 0.893447 0.176343 0.436774
Si Si2 0.374945 0.174582 0.563056
Si Si3 0.753053 0.890310 0.564168
Si Si4 0.304255 0.971548 0.561606
Si Si5 0.882499 0.828262 0.063961
Si Si6 0.250422 0.824312 0.562557
Si Si7 0.995443 0.922352 0.937128
Si Si8 0.562653 0.533790 0.563458
O O1 0.916482 0.250000 0.500000
O O2 0.892676 0.178784 0.250000
O O3 0.821884 0.167000 0.489334
O O4 0.940853 0.116807 0.484830
O O5 0.392224 0.250000 0.500000
O O6 0.370912 0.175582 0.750000
O O7 0.307221 0.152276 0.497118
O O8 0.423237 0.113548 0.516411
O O9 0.755455 0.886821 0.750000
O O10 0.816096 0.858403 0.493931
O O11 0.740927 0.969661 0.509255
O O12 0.299374 0.976527 0.750000
O O13 0.287106 0.893405 0.514151
O O14 0.374934 0.991648 0.516710
O O15 0.883376 0.826419 0.250000
O O16 0.891011 0.750000 0.000000
O O17 0.937170 0.878837 0.003033
O O18 0.273268 0.750000 0.500000
O O19 0.251444 0.821467 0.750000
O O20 0.991341 0.922789 0.750000
O O21 0.000000 0.000000 0.000000
O O22 0.500000 0.500000 0.500000
O O23 0.559722 0.532418 0.750000
#
# Coordination Sequence:
#
# PCOD9437488 Si02
#       8
#     8   8   8   8   8   8   8   8
#     4   9  19  35  56  79 104 138 179 223 276 331
#     4  10  20  36  57  84 115 149 188 231 280 335
#     4  11  22  36  57  87 116 146 185 231 282 341
#     4   9  19  36  57  81 113 150 187 229 281 334
#     4  12  25  42  61  82 113 151 188 234 286 339
#     4   9  18  34  56  81 109 142 180 226 277 331
#     4  11  24  40  57  83 112 145 190 234 282 338
#     4   9  19  35  55  80 111 149 189 229 273 325
#
# _framework density 18.097114000000001
#
# number of rings (size 3 to 8) (size 9 to 14) (size 15 to 20)
#    0.000    2.000    0.000    4.500    1.750    5.000 
#    0.000    0.625    0.000    3.000    0.000    0.000 
#    0.000    0.000    0.000    0.000    0.000    0.000 
#
# Total GULP energy -357362.753642 kJ/mol
# GULP energy per Si atom -5583.793026 kJ/mol
# Density = 1.805592 g / cm^3
# Si number density = 18.097114 Si / 1000 Ang^3
#
#
#
# Elastic Constant Matrix: (Units=GPa)
#
#
# Indices 1 2 3 4 5 6 
#
# 1 91.1413 94.7899 35.8789 0.0000 0.0000 0.0000
# 2 94.7899 210.1216 52.5588 0.0000 0.0000 0.0000
# 3 35.8789 52.5588 68.5686 0.0000 0.0000 0.0000
# 4 0.0000 0.0000 0.0000 34.7618 0.0000 0.0000
# 5 0.0000 0.0000 0.0000 0.0000 28.8895 0.0000
# 6 0.0000 0.0000 0.0000 0.0000 0.0000 26.0068
#
#
#
# Elastic Compliance Matrix: (Units=1/GPa)
#
#
# Indices 1 2 3 4 5 6 
#
# 1 0.021878 -0.008668 -0.004804 0.000000 0.000000 0.000000
# 2 -0.008668 0.009322 -0.002610 0.000000 0.000000 0.000000
# 3 -0.004804 -0.002610 0.019098 0.000000 0.000000 0.000000
# 4 0.000000 0.000000 0.000000 0.028767 0.000000 0.000000
# 5 0.000000 0.000000 0.000000 0.000000 0.034615 0.000000
# 6 0.000000 0.000000 0.000000 0.000000 0.000000 0.038452
#
#
# Mechanical properties :
#
#
# Convention : Reuss Voigt Hill
#
# Bulk Modulus (GPa) = 55.14210 81.80963 68.47587
# Shear Modulus (GPa) = 26.26874 30.37189 28.32031
#
# Velocity S-wave (km/s) = 3.81405 4.10112 3.96018
# Velocity P-wave (km/s) = 7.06627 8.22980 7.67013
#
# Compressibility (1/GPa) = 0.01813496
#
# Stress axis : x y z
#
# Youngs Moduli (GPa) = 45.70804 107.26920 52.36115
#
# Poissons Ratio (x) = 0.92981 0.25152
# Poissons Ratio (y) = 0.39620 0.13667
# Poissons Ratio (z) = 0.21956 0.27998
#
# Static dielectric constant tensor:
#      x y z
#    x 1.600500 0.000000 0.000000 
#    y 0.000000 1.597370 0.000000 
#    z 0.000000 0.000000 1.611550 
# 
# From -- ./inp_files/8544.got.cif
#   From: 2010.05.17/outbox.cif.g08.bks.cpg/sg57_5_cif.got.tgz:8544.got - 2010.06.03 13:58:18.
