data_PCOD9437199
_publ_section_title
;
Structure prediction by ZEFSAII (Michael W. Deem and Ramdas Pophale) SiO2 
 PCOD9437199
Probable space group: P B C M
;
_chemical_formula_sum "Si O2"
_cell_formula_units_Z 64
_cell_length_a 24.871460
_cell_length_b 15.043413
_cell_length_c 8.520364
_cell_angle_alpha 90.000000
_cell_angle_beta 90.000000
_cell_angle_gamma 90.000000
_cell_volume 3187.908204
_symmetry_space_group_name_H-M "P B C M"
_symmetry_group_IT_number 57
_symmetry_cell_setting 'orthorhombic'
loop_
_space_group_symop_operation_xyz
x,y,z
-x,-y,1/2+z
x,1/2-y,-z
-x,1/2+y,1/2-z
-x,-y,-z
x,y,1/2-z
-x,1/2+y,z
x,1/2-y,1/2+z
loop_
_atom_site_type_symbol
_atom_site_label
_atom_site_fract_x
_atom_site_fract_y
_atom_site_fract_z
Si Si1 0.888999 0.342419 0.434995
Si Si2 0.369791 0.467465 0.938745
Si Si3 0.769052 0.160624 0.062482
Si Si4 0.747497 0.966851 0.559862
Si Si5 0.851621 0.649280 0.437948
Si Si6 0.940698 0.517976 0.934084
Si Si7 0.534760 0.652273 0.562692
Si Si8 0.588411 0.152848 0.561158
O O1 0.912557 0.250000 0.500000
O O2 0.899087 0.351993 0.250000
O O3 0.825687 0.338876 0.469467
O O4 0.909977 0.426764 0.528306
O O5 0.373425 0.466653 0.750000
O O6 0.311364 0.428042 0.979935
O O7 0.375485 0.570217 0.990708
O O8 0.420500 0.414892 0.003325
O O9 0.776624 0.167324 0.250000
O O10 0.739779 0.250000 0.000000
O O11 0.747338 0.064102 0.017532
O O12 0.750725 0.977272 0.750000
O O13 0.798820 0.907780 0.510354
O O14 0.850131 0.750000 0.500000
O O15 0.850674 0.651528 0.250000
O O16 0.905265 0.596801 0.490767
O O17 0.944081 0.534780 0.750000
O O18 0.000000 0.500000 0.000000
O O19 0.548021 0.750000 0.500000
O O20 0.534775 0.652666 0.750000
O O21 0.473389 0.632961 0.510685
O O22 0.603162 0.250000 0.500000
O O23 0.589485 0.156496 0.750000
#
# Coordination Sequence:
#
# PCOD9437199 Si02
#       8
#     8   8   8   8   8   8   8   8
#     4  11  21  37  61  91 124 158 196 242 295 353
#     4  10  21  37  57  85 119 156 197 252 306 360
#     4  11  21  35  59  87 117 155 197 241 294 355
#     4  10  22  40  61  86 122 162 204 252 305 360
#     4  11  24  44  68  92 123 165 210 257 306 363
#     4  12  25  43  67  97 129 163 203 251 305 362
#     4  10  20  35  56  82 112 152 198 252 306 366
#     4   9  19  35  56  82 116 155 199 246 306 367
#
# _framework density 20.075859999999999
#
# number of rings (size 3 to 8) (size 9 to 14) (size 15 to 20)
#    0.000    1.500    1.250    5.250    0.000    3.500 
#    0.000    5.000    0.000    0.000    0.000    0.000 
#    0.000    0.000    0.000    0.000    0.000    0.000 
#
# Total GULP energy -357390.362984 kJ/mol
# GULP energy per Si atom -5584.224422 kJ/mol
# Density = 2.003017 g / cm^3
# Si number density = 20.075860 Si / 1000 Ang^3
#
#
#
# Elastic Constant Matrix: (Units=GPa)
#
#
# Indices 1 2 3 4 5 6 
#
# 1 114.0344 63.7045 27.0088 0.0000 0.0000 0.0000
# 2 63.7045 126.8562 26.2674 0.0000 0.0000 0.0000
# 3 27.0088 26.2674 50.6069 0.0000 0.0000 0.0000
# 4 0.0000 0.0000 0.0000 37.2531 0.0000 0.0000
# 5 0.0000 0.0000 0.0000 0.0000 9.1845 0.0000
# 6 0.0000 0.0000 0.0000 0.0000 0.0000 -1.2467
#
#
#
# Elastic Compliance Matrix: (Units=1/GPa)
#
#
# Indices 1 2 3 4 5 6 
#
# 1 0.012851 -0.005639 -0.003931 0.000000 0.000000 0.000000
# 2 -0.005639 0.011307 -0.002859 0.000000 0.000000 0.000000
# 3 -0.003931 -0.002859 0.023342 0.000000 0.000000 0.000000
# 4 0.000000 0.000000 0.000000 0.026843 0.000000 0.000000
# 5 0.000000 0.000000 0.000000 0.000000 0.108879 0.000000
# 6 0.000000 0.000000 0.000000 0.000000 0.000000 -0.802111
#
#
# Mechanical properties :
#
#
# Convention : Reuss Voigt Hill
#
# Bulk Modulus (GPa) = 44.16882 58.38431 51.27657
# Shear Modulus (GPa) = -8.52540 20.67263 6.07362
#
# Velocity S-wave (km/s) = -2.06296 3.21242 1.74124
# Velocity P-wave (km/s) = 4.04652 6.55015 5.44421
#
# Compressibility (1/GPa) = 0.02264041
#
# Stress axis : x y z
#
# Youngs Moduli (GPa) = 77.81607 88.44135 42.84058
#
# Poissons Ratio (x) = 0.49875 0.16842
# Poissons Ratio (y) = 0.43883 0.12249
# Poissons Ratio (z) = 0.30592 0.25286
#
# Static dielectric constant tensor:
#      x y z
#    x 1.753560 0.000000 0.000000 
#    y 0.000000 1.710140 0.000000 
#    z 0.000000 0.000000 1.678560 
# 
# From -- ./inp_files/9439.got.cif
#   From: 2010.05.17/outbox.cif.g08.bks.cpg/sg57_5_cif.got.tgz:9439.got - 2010.06.03 13:58:18.
