data_PCOD9437139
_publ_section_title
;
Structure prediction by ZEFSAII (Michael W. Deem and Ramdas Pophale) SiO2 
 PCOD9437139
Probable space group: P B C M
;
_chemical_formula_sum "Si O2"
_cell_formula_units_Z 64
_cell_length_a 12.500265
_cell_length_b 32.180811
_cell_length_c 8.004815
_cell_angle_alpha 90.000000
_cell_angle_beta 90.000000
_cell_angle_gamma 90.000000
_cell_volume 3220.086247
_symmetry_space_group_name_H-M "P B C M"
_symmetry_group_IT_number 57
_symmetry_cell_setting 'orthorhombic'
loop_
_space_group_symop_operation_xyz
x,y,z
-x,-y,1/2+z
x,1/2-y,-z
-x,1/2+y,1/2-z
-x,-y,-z
x,y,1/2-z
-x,1/2+y,z
x,1/2-y,1/2+z
loop_
_atom_site_type_symbol
_atom_site_label
_atom_site_fract_x
_atom_site_fract_y
_atom_site_fract_z
Si Si1 0.626704 0.365128 0.447221
Si Si2 0.013015 0.201603 0.449563
Si Si3 0.324586 0.499871 0.949040
Si Si4 0.513412 0.938294 0.048140
Si Si5 0.132455 0.624068 0.951873
Si Si6 0.094388 0.968815 0.451787
Si Si7 0.248421 0.201521 0.048768
Si Si8 0.478813 0.202153 0.449666
O O1 0.634265 0.373993 0.250000
O O2 0.531612 0.394478 0.512886
O O3 0.744751 0.373448 0.515013
O O4 0.582089 0.319591 0.474869
O O5 0.992118 0.250000 0.500000
O O6 0.016453 0.202142 0.250000
O O7 0.929872 0.166041 0.501364
O O8 0.131646 0.187691 0.513016
O O9 0.320274 0.505027 0.750000
O O10 0.418030 0.530763 0.010227
O O11 0.208352 0.512674 0.013458
O O12 0.372612 0.454584 0.986255
O O13 0.518346 0.939365 0.250000
O O14 0.134747 0.622973 0.750000
O O15 0.084397 0.579445 0.008087
O O16 0.097948 0.967861 0.250000
O O17 0.000000 0.000000 0.500000
O O18 0.248825 0.197863 0.250000
O O19 0.363111 0.184256 0.989401
O O20 0.250241 0.250000 0.000000
O O21 0.479610 0.250000 0.500000
O O22 0.483005 0.198368 0.250000
#
# Coordination Sequence:
#
# PCOD9437139 Si02
#       8
#     8   8   8   8   8   8   8   8
#     4  10  20  36  56  77 107 145 183 225 274 326
#     4  10  20  36  59  86 114 147 189 233 278 329
#     4   9  17  33  56  80 105 138 175 218 272 323
#     4   9  17  32  55  80 105 135 175 221 267 320
#     4  10  21  39  59  79 110 150 190 232 279 332
#     4  10  21  39  60  81 111 150 189 231 283 335
#     4   8  16  32  53  75 102 135 171 216 267 318
#     4  10  20  35  55  80 110 144 181 221 270 326
#
# _framework density 19.875245
#
# number of rings (size 3 to 8) (size 9 to 14) (size 15 to 20)
#    0.000    2.500    1.250    0.750    0.000    3.500 
#    2.250    0.000    0.000    0.000    0.000    0.000 
#    0.000    0.000    0.000    0.000    0.000    0.000 
#
# Total GULP energy -356391.729073 kJ/mol
# GULP energy per Si atom -5568.620767 kJ/mol
# Density = 1.983001 g / cm^3
# Si number density = 19.875245 Si / 1000 Ang^3
#
#
#
# Elastic Constant Matrix: (Units=GPa)
#
#
# Indices 1 2 3 4 5 6 
#
# 1 106.7438 70.9927 6.8713 0.0000 0.0000 0.0000
# 2 70.9927 103.4383 3.5498 0.0000 0.0000 0.0000
# 3 6.8713 3.5498 16.1093 0.0000 0.0000 0.0000
# 4 0.0000 0.0000 0.0000 23.3411 0.0000 0.0000
# 5 0.0000 0.0000 0.0000 0.0000 20.2499 0.0000
# 6 0.0000 0.0000 0.0000 0.0000 0.0000 36.3923
#
#
#
# Elastic Compliance Matrix: (Units=1/GPa)
#
#
# Indices 1 2 3 4 5 6 
#
# 1 0.017609 -0.011918 -0.004885 0.000000 0.000000 0.000000
# 2 -0.011918 0.017807 0.001159 0.000000 0.000000 0.000000
# 3 -0.004885 0.001159 0.063904 0.000000 0.000000 0.000000
# 4 0.000000 0.000000 0.000000 0.042843 0.000000 0.000000
# 5 0.000000 0.000000 0.000000 0.000000 0.049383 0.000000
# 6 0.000000 0.000000 0.000000 0.000000 0.000000 0.027478
#
#
# Mechanical properties :
#
#
# Convention : Reuss Voigt Hill
#
# Bulk Modulus (GPa) = 14.69856 43.23545 28.96701
# Shear Modulus (GPa) = 18.31578 25.65518 21.98548
#
# Velocity S-wave (km/s) = 3.03898 3.59668 3.32953
# Velocity P-wave (km/s) = 4.44132 6.24891 5.42098
#
# Compressibility (1/GPa) = 0.06803387
#
# Stress axis : x y z
#
# Youngs Moduli (GPa) = 56.78912 56.15629 15.64851
#
# Poissons Ratio (x) = 0.66927 0.07644
# Poissons Ratio (y) = 0.67681 -0.01814
# Poissons Ratio (z) = 0.27740 -0.06511
#
# Static dielectric constant tensor:
#      x y z
#    x 1.734530 0.000000 0.000000 
#    y 0.000000 1.703500 0.000000 
#    z 0.000000 0.000000 1.721180 
# 
# From -- ./inp_files/3775.got.cif
#   From: 2010.05.17/outbox.cif.g08.bks.cpg/sg57_2_cif.got.tgz:3775.got - 2010.06.03 13:58:18.
