data_PCOD9437537
_publ_section_title
;
Structure prediction by ZEFSAII (Michael W. Deem and Ramdas Pophale) SiO2 
 PCOD9437537
Probable space group: P B C M
;
_chemical_formula_sum "Si O2"
_cell_formula_units_Z 64
_cell_length_a 26.679831
_cell_length_b 15.132297
_cell_length_c 8.525609
_cell_angle_alpha 90.000000
_cell_angle_beta 90.000000
_cell_angle_gamma 90.000000
_cell_volume 3442.019624
_symmetry_space_group_name_H-M "P B C M"
_symmetry_group_IT_number 57
_symmetry_cell_setting 'orthorhombic'
loop_
_space_group_symop_operation_xyz
x,y,z
-x,-y,1/2+z
x,1/2-y,-z
-x,1/2+y,1/2-z
-x,-y,-z
x,y,1/2-z
-x,1/2+y,z
x,1/2-y,1/2+z
loop_
_atom_site_type_symbol
_atom_site_label
_atom_site_fract_x
_atom_site_fract_y
_atom_site_fract_z
Si Si1 0.634904 0.649029 0.438566
Si Si2 0.888614 0.655889 0.938358
Si Si3 0.820075 0.500288 0.437826
Si Si4 0.365328 0.850914 0.061456
Si Si5 0.892195 0.342269 0.438532
Si Si6 0.708022 0.499733 0.563518
Si Si7 0.999082 0.900555 0.439316
Si Si8 0.443764 0.000131 0.061152
O O1 0.634673 0.750000 0.500000
O O2 0.635854 0.652417 0.250000
O O3 0.681120 0.587830 0.495703
O O4 0.586981 0.588400 0.487937
O O5 0.886862 0.650315 0.750000
O O6 0.946489 0.641319 0.990150
O O7 0.872088 0.750000 0.000000
O O8 0.852431 0.584344 0.013217
O O9 0.813948 0.497070 0.250000
O O10 0.854885 0.418809 0.489627
O O11 0.765960 0.499558 0.516190
O O12 0.364383 0.847542 0.250000
O O13 0.413139 0.911759 0.012074
O O14 0.365686 0.750000 0.000000
O O15 0.319045 0.911879 0.004271
O O16 0.873082 0.250000 0.500000
O O17 0.893757 0.342981 0.250000
O O18 0.949327 0.356519 0.496017
O O19 0.702082 0.499948 0.750000
O O20 0.999723 0.900025 0.250000
O O21 0.000000 0.000000 0.500000
O O22 0.444214 0.000185 0.250000
O O23 0.500000 0.000000 0.000000
#
# Coordination Sequence:
#
# PCOD9437537 Si02
#       8
#     8   8   8   8   8   8   8   8
#     4  10  21  39  61  88 119 156 200 244 292 346
#     4  11  23  38  59  86 115 148 188 233 283 343
#     4  11  23  41  61  83 116 150 188 238 289 344
#     4  10  21  39  61  88 119 157 202 246 293 345
#     4  10  22  38  58  84 113 147 185 226 279 336
#     4  11  23  40  62  87 115 150 193 243 298 351
#     4  10  20  36  58  84 112 147 186 227 278 338
#     4   9  20  36  56  85 124 162 200 244 289 340
#
# _framework density 18.593734999999999
#
# number of rings (size 3 to 8) (size 9 to 14) (size 15 to 20)
#    0.000    1.750    1.250    3.750    0.000    6.500 
#    0.000    6.250    0.000    0.000    0.000    0.000 
#    0.000    0.000    0.000    0.000    0.000    0.000 
#
# Total GULP energy -357294.371722 kJ/mol
# GULP energy per Si atom -5582.724558 kJ/mol
# Density = 1.855141 g / cm^3
# Si number density = 18.593735 Si / 1000 Ang^3
#
#
#
# Elastic Constant Matrix: (Units=GPa)
#
#
# Indices 1 2 3 4 5 6 
#
# 1 152.2315 85.2523 29.7253 0.0000 0.0000 0.0000
# 2 85.2523 200.4542 36.2626 0.0000 0.0000 0.0000
# 3 29.7253 36.2626 44.0486 0.0000 0.0000 0.0000
# 4 0.0000 0.0000 0.0000 33.8818 0.0000 0.0000
# 5 0.0000 0.0000 0.0000 0.0000 41.9775 0.0000
# 6 0.0000 0.0000 0.0000 0.0000 0.0000 26.2832
#
#
#
# Elastic Compliance Matrix: (Units=1/GPa)
#
#
# Indices 1 2 3 4 5 6 
#
# 1 0.009048 -0.003224 -0.003452 0.000000 0.000000 0.000000
# 2 -0.003224 0.007010 -0.003596 0.000000 0.000000 0.000000
# 3 -0.003452 -0.003596 0.027992 0.000000 0.000000 0.000000
# 4 0.000000 0.000000 0.000000 0.029514 0.000000 0.000000
# 5 0.000000 0.000000 0.000000 0.000000 0.023822 0.000000
# 6 0.000000 0.000000 0.000000 0.000000 0.000000 0.038047
#
#
# Mechanical properties :
#
#
# Convention : Reuss Voigt Hill
#
# Bulk Modulus (GPa) = 42.53987 77.69052 60.11519
# Shear Modulus (GPa) = 30.52263 36.79478 33.65871
#
# Velocity S-wave (km/s) = 4.05601 4.45329 4.25928
# Velocity P-wave (km/s) = 6.69800 8.26536 7.52261
#
# Compressibility (1/GPa) = 0.02350736
#
# Stress axis : x y z
#
# Youngs Moduli (GPa) = 110.51704 142.65026 35.72470
#
# Poissons Ratio (x) = 0.45986 0.12333
# Poissons Ratio (y) = 0.35628 0.12845
# Poissons Ratio (z) = 0.38153 0.51291
#
# Static dielectric constant tensor:
#      x y z
#    x 1.638470 0.000000 0.000000 
#    y 0.000000 1.610890 0.000000 
#    z 0.000000 0.000000 1.637250 
# 
# From -- ./inp_files/9269.got.cif
#   From: 2010.05.17/outbox.cif.g08.bks.cpg/sg57_5_cif.got.tgz:9269.got - 2010.06.03 13:58:18.
