data_PCOD9437996
_publ_section_title
;
Structure prediction by ZEFSAII (Michael W. Deem and Ramdas Pophale) SiO2 
 PCOD9437996
Probable space group: P B C M
;
_chemical_formula_sum "Si O2"
_cell_formula_units_Z 56
_cell_length_a 5.659400
_cell_length_b 15.027164
_cell_length_c 29.106052
_cell_angle_alpha 90.000000
_cell_angle_beta 90.000000
_cell_angle_gamma 90.000000
_cell_volume 2475.316390
_symmetry_space_group_name_H-M "P B C M"
_symmetry_group_IT_number 57
_symmetry_cell_setting 'orthorhombic'
loop_
_space_group_symop_operation_xyz
x,y,z
-x,-y,1/2+z
x,1/2-y,-z
-x,1/2+y,1/2-z
-x,-y,-z
x,y,1/2-z
-x,1/2+y,z
x,1/2-y,1/2+z
loop_
_atom_site_type_symbol
_atom_site_label
_atom_site_fract_x
_atom_site_fract_y
_atom_site_fract_z
Si Si1 0.590927 0.058063 0.957590
Si Si2 0.031503 0.629368 0.852461
Si Si3 0.939537 0.163138 0.016912
Si Si4 0.599965 0.737983 0.250000
Si Si5 0.894299 0.347102 0.250000
Si Si6 0.898738 0.955536 0.601196
Si Si7 0.274985 0.196042 0.153746
Si Si8 0.591747 0.229065 0.581938
O O1 0.453694 0.147086 0.942344
O O2 0.646224 0.998324 0.913419
O O3 0.835517 0.103417 0.975976
O O4 0.500000 0.000000 0.000000
O O5 0.103560 0.605324 0.799915
O O6 0.961497 0.541335 0.880406
O O7 0.237899 0.679786 0.881040
O O8 0.835697 0.705525 0.847938
O O9 0.732684 0.214579 0.044497
O O10 0.036434 0.095362 0.054497
O O11 0.086220 0.250000 0.000000
O O12 0.354664 0.793024 0.250000
O O13 0.606215 0.683592 0.297245
O O14 0.855962 0.790629 0.250000
O O15 0.901221 0.882659 0.641181
O O16 0.446824 0.200190 0.110598
#
# Coordination Sequence:
#
# PCOD9437996 Si02
#       8
#     8   8   8   4   4   8   8   8
#     4  10  22  36  54  89 121 162 216 273 326 399
#     4  10  22  40  63  92 128 166 216 271 331 405
#     4  10  21  38  58  84 128 168 218 277 338 401
#     4  10  22  39  72  97 133 181 216 277 342 411
#     4  10  20  43  68  99 135 175 216 277 348 397
#     4  11  23  38  63  93 121 173 222 269 333 404
#     4  11  22  40  65  93 126 173 216 269 342 403
#     4  10  20  38  61  86 122 166 212 269 328 401
#
# _framework density 22.623370000000001
#
# number of rings (size 3 to 8) (size 9 to 14) (size 15 to 20)
#    0.000    1.714    2.857    1.286    2.000    1.714 
#    0.000    0.000    0.000    1.714    0.000    0.000 
#    0.000    0.000    0.000    0.000    0.000    0.000 
#
# Total GULP energy -312058.351802 kJ/mol
# GULP energy per Si atom -5572.470568 kJ/mol
# Density = 2.257188 g / cm^3
# Si number density = 22.623370 Si / 1000 Ang^3
#
#
#
# Elastic Constant Matrix: (Units=GPa)
#
#
# Indices 1 2 3 4 5 6 
#
# 1 36.1605 10.1748 11.5988 0.0000 0.0000 0.0000
# 2 10.1748 115.9908 39.2410 0.0000 0.0000 0.0000
# 3 11.5988 39.2410 120.2035 0.0000 0.0000 0.0000
# 4 0.0000 0.0000 0.0000 23.5976 0.0000 0.0000
# 5 0.0000 0.0000 0.0000 0.0000 29.7811 0.0000
# 6 0.0000 0.0000 0.0000 0.0000 0.0000 22.1354
#
#
#
# Elastic Compliance Matrix: (Units=1/GPa)
#
#
# Indices 1 2 3 4 5 6 
#
# 1 0.028864 -0.001787 -0.002202 0.000000 0.000000 0.000000
# 2 -0.001787 0.009802 -0.003028 0.000000 0.000000 0.000000
# 3 -0.002202 -0.003028 0.009520 0.000000 0.000000 0.000000
# 4 0.000000 0.000000 0.000000 0.042377 0.000000 0.000000
# 5 0.000000 0.000000 0.000000 0.000000 0.033578 0.000000
# 6 0.000000 0.000000 0.000000 0.000000 0.000000 0.045177
#
#
# Mechanical properties :
#
#
# Convention : Reuss Voigt Hill
#
# Bulk Modulus (GPa) = 29.27984 43.82045 36.55015
# Shear Modulus (GPa) = 25.67588 29.19217 27.43402
#
# Velocity S-wave (km/s) = 3.37252 3.59605 3.48608
# Velocity P-wave (km/s) = 5.30430 6.05423 5.69163
#
# Compressibility (1/GPa) = 0.03415319
#
# Stress axis : x y z
#
# Youngs Moduli (GPa) = 34.64579 102.01582 105.04149
#
# Poissons Ratio (x) = 0.18231 0.23127
# Poissons Ratio (y) = 0.06191 0.31802
# Poissons Ratio (z) = 0.07628 0.30886
#
# Static dielectric constant tensor:
#      x y z
#    x 1.969690 0.000000 0.000000 
#    y 0.000000 1.998300 0.000000 
#    z 0.000000 0.000000 1.862000 
# 
# From -- ./inp_files/29206.got.cif
#   From: 2010.05.17/outbox.cif.g08.bks.cpg/sg57_15_cif.got.tgz:29206.got - 2010.06.03 13:58:18.
