data_PCOD9437861
_publ_section_title
;
Structure prediction by ZEFSAII (Michael W. Deem and Ramdas Pophale) SiO2 
 PCOD9437861
Probable space group: P B C M
;
_chemical_formula_sum "Si O2"
_cell_formula_units_Z 40
_cell_length_a 9.415412
_cell_length_b 14.358125
_cell_length_c 13.510143
_cell_angle_alpha 90.000000
_cell_angle_beta 90.000000
_cell_angle_gamma 90.000000
_cell_volume 1826.404651
_symmetry_space_group_name_H-M "P B C M"
_symmetry_group_IT_number 57
_symmetry_cell_setting 'orthorhombic'
loop_
_space_group_symop_operation_xyz
x,y,z
-x,-y,1/2+z
x,1/2-y,-z
-x,1/2+y,1/2-z
-x,-y,-z
x,y,1/2-z
-x,1/2+y,z
x,1/2-y,1/2+z
loop_
_atom_site_type_symbol
_atom_site_label
_atom_site_fract_x
_atom_site_fract_y
_atom_site_fract_z
Si Si1 0.330293 0.635142 0.250000
Si Si2 0.514078 0.952040 0.250000
Si Si3 0.375706 0.432722 0.032768
Si Si4 0.241464 0.250000 0.500000
Si Si5 0.870099 0.051221 0.413863
Si Si6 0.002522 0.138540 0.904652
Si Si7 0.242070 0.834053 0.250000
O O1 0.461740 0.564108 0.250000
O O2 0.231031 0.606946 0.158170
O O3 0.346761 0.745012 0.250000
O O4 0.593023 0.916808 0.349935
O O5 0.350397 0.920612 0.250000
O O6 0.345684 0.336393 0.977809
O O7 0.235345 0.493536 0.015670
O O8 0.500000 0.500000 0.000000
O O9 0.136720 0.208298 0.585773
O O10 0.961038 0.118768 0.481339
O O11 0.954066 0.964727 0.365541
O O12 0.866383 0.170141 0.842713
#
# Coordination Sequence:
#
# PCOD9437861 Si02
#       7
#     4   4   8   4   8   8   4
#     4  10  21  37  57  82 119 165 209 257 311 373
#     4  10  24  42  58  90 130 166 214 268 325 384
#     4  10  21  40  63  89 125 168 211 259 314 384
#     4  10  22  38  62  92 122 160 208 264 320 374
#     4   9  19  37  59  84 122 162 202 256 315 375
#     4  10  20  37  61  92 124 158 206 260 319 381
#     4  12  23  37  63  94 127 169 213 263 320 389
#
# _framework density 21.900950999999999
#
# number of rings (size 3 to 8) (size 9 to 14) (size 15 to 20)
#    0.000    2.000    0.000    3.000    0.000    5.600 
#    0.000    6.000    0.000    0.000    0.000    0.000 
#    0.000    0.000    0.000    0.000    0.000    0.000 
#
# Total GULP energy -222945.330718 kJ/mol
# GULP energy per Si atom -5573.633268 kJ/mol
# Density = 2.185110 g / cm^3
# Si number density = 21.900951 Si / 1000 Ang^3
#
#
#
# Elastic Constant Matrix: (Units=GPa)
#
#
# Indices 1 2 3 4 5 6 
#
# 1 106.2076 60.4419 18.9373 0.0000 0.0000 0.0000
# 2 60.4419 137.1605 31.5749 0.0000 0.0000 0.0000
# 3 18.9373 31.5749 64.5735 0.0000 0.0000 0.0000
# 4 0.0000 0.0000 0.0000 126.4383 0.0000 0.0000
# 5 0.0000 0.0000 0.0000 0.0000 15.2907 0.0000
# 6 0.0000 0.0000 0.0000 0.0000 0.0000 54.3147
#
#
#
# Elastic Compliance Matrix: (Units=1/GPa)
#
#
# Indices 1 2 3 4 5 6 
#
# 1 0.012637 -0.005314 -0.001108 0.000000 0.000000 0.000000
# 2 -0.005314 0.010450 -0.003551 0.000000 0.000000 0.000000
# 3 -0.001108 -0.003551 0.017548 0.000000 0.000000 0.000000
# 4 0.000000 0.000000 0.000000 0.007909 0.000000 0.000000
# 5 0.000000 0.000000 0.000000 0.000000 0.065399 0.000000
# 6 0.000000 0.000000 0.000000 0.000000 0.000000 0.018411
#
#
# Mechanical properties :
#
#
# Convention : Reuss Voigt Hill
#
# Bulk Modulus (GPa) = 48.33527 58.87219 53.60373
# Shear Modulus (GPa) = 31.40787 52.34125 41.87456
#
# Velocity S-wave (km/s) = 3.79104 4.89397 4.37738
# Velocity P-wave (km/s) = 6.42499 7.67294 7.07653
#
# Compressibility (1/GPa) = 0.02068883
#
# Stress axis : x y z
#
# Youngs Moduli (GPa) = 79.13263 95.69530 56.98772
#
# Poissons Ratio (x) = 0.50849 0.06313
# Poissons Ratio (y) = 0.42049 0.20239
# Poissons Ratio (z) = 0.08766 0.33985
#
# Static dielectric constant tensor:
#      x y z
#    x 1.853240 0.000000 0.000000 
#    y 0.000000 1.897530 0.000000 
#    z 0.000000 0.000000 1.821830 
# 
# From -- ./inp_files/16006.got.cif
#   From: 2010.05.17/outbox.cif.g08.bks.cpg/sg57_9_cif.got.tgz:16006.got - 2010.06.03 13:58:18.
