data_PCOD9437331
_publ_section_title
;
Structure prediction by ZEFSAII (Michael W. Deem and Ramdas Pophale) SiO2 
 PCOD9437331
Probable space group: P B C M
;
_chemical_formula_sum "Si O2"
_cell_formula_units_Z 32
_cell_length_a 10.206262
_cell_length_b 20.034775
_cell_length_c 8.722686
_cell_angle_alpha 90.000000
_cell_angle_beta 90.000000
_cell_angle_gamma 90.000000
_cell_volume 1783.616253
_symmetry_space_group_name_H-M "P B C M"
_symmetry_group_IT_number 57
_symmetry_cell_setting 'orthorhombic'
loop_
_space_group_symop_operation_xyz
x,y,z
-x,-y,1/2+z
x,1/2-y,-z
-x,1/2+y,1/2-z
-x,-y,-z
x,y,1/2-z
-x,1/2+y,z
x,1/2-y,1/2+z
loop_
_atom_site_type_symbol
_atom_site_label
_atom_site_fract_x
_atom_site_fract_y
_atom_site_fract_z
Si Si1 0.325103 0.560582 0.932313
Si Si2 0.043568 0.571547 0.433076
Si Si3 0.399361 0.405710 0.567573
Si Si4 0.163249 0.323769 0.433106
O O1 0.315277 0.571067 0.750000
O O2 0.344521 0.480930 0.958527
O O3 0.192929 0.582867 0.015163
O O4 0.454951 0.595056 0.998792
O O5 0.032369 0.569972 0.250000
O O6 0.000000 0.500000 0.500000
O O7 0.948529 0.627696 0.500647
O O8 0.402375 0.394515 0.750000
O O9 0.301452 0.354564 0.487726
O O10 0.147581 0.250000 0.500000
O O11 0.156925 0.322853 0.250000
#
# Coordination Sequence:
#
# PCOD9437331 Si02
#       4
#     8   8   8   8
#     4  10  20  35  59  90 123 156 198 249 302 354
#     4  12  23  38  61  91 124 161 205 254 307 362
#     4  10  20  36  59  88 122 157 199 247 300 358
#     4  12  25  42  63  88 123 164 206 252 308 370
#
# _framework density 17.941078000000001
#
# number of rings (size 3 to 8) (size 9 to 14) (size 15 to 20)
#    0.000    1.000    2.500    6.000    0.000    2.000 
#    0.000    1.250    0.000    0.000    0.000    0.000 
#    0.000    0.000    0.000    0.000    0.000    0.000 
#
# Total GULP energy -178985.685359 kJ/mol
# GULP energy per Si atom -5593.302667 kJ/mol
# Density = 1.790024 g / cm^3
# Si number density = 17.941078 Si / 1000 Ang^3
#
#
#
# Elastic Constant Matrix: (Units=GPa)
#
#
# Indices 1 2 3 4 5 6 
#
# 1 166.0512 91.5662 86.2847 0.0000 0.0000 0.0000
# 2 91.5662 128.6936 87.6230 0.0000 0.0000 0.0000
# 3 86.2847 87.6230 166.8145 0.0000 0.0000 0.0000
# 4 0.0000 0.0000 0.0000 28.6389 0.0000 0.0000
# 5 0.0000 0.0000 0.0000 0.0000 39.6075 0.0000
# 6 0.0000 0.0000 0.0000 0.0000 0.0000 21.4902
#
#
#
# Elastic Compliance Matrix: (Units=1/GPa)
#
#
# Indices 1 2 3 4 5 6 
#
# 1 0.010465 -0.005854 -0.002338 0.000000 0.000000 0.000000
# 2 -0.005854 0.015371 -0.005046 0.000000 0.000000 0.000000
# 3 -0.002338 -0.005046 0.009855 0.000000 0.000000 0.000000
# 4 0.000000 0.000000 0.000000 0.034917 0.000000 0.000000
# 5 0.000000 0.000000 0.000000 0.000000 0.025248 0.000000
# 6 0.000000 0.000000 0.000000 0.000000 0.000000 0.046533
#
#
# Mechanical properties :
#
#
# Convention : Reuss Voigt Hill
#
# Bulk Modulus (GPa) = 108.52407 110.27857 109.40132
# Shear Modulus (GPa) = 29.08025 31.01969 30.04997
#
# Velocity S-wave (km/s) = 4.03038 4.16261 4.09703
# Velocity P-wave (km/s) = 9.07078 9.20345 9.13736
#
# Compressibility (1/GPa) = 0.00921455
#
# Stress axis : x y z
#
# Youngs Moduli (GPa) = 95.55268 65.05584 101.47479
#
# Poissons Ratio (x) = 0.38085 0.23727
# Poissons Ratio (y) = 0.55939 0.51205
# Poissons Ratio (z) = 0.22342 0.32828
#
# Static dielectric constant tensor:
#      x y z
#    x 1.603120 0.000000 0.000000 
#    y 0.000000 1.587560 0.000000 
#    z 0.000000 0.000000 1.591010 
# 
# From -- ./inp_files/1226.got.cif
#   From: 2010.05.17/outbox.cif.g08.bks.cpg/sg57_1_cif.got.tgz:1226.got - 2010.06.03 13:58:18.
