data_PCOD9437600
_publ_section_title
;
Structure prediction by ZEFSAII (Michael W. Deem and Ramdas Pophale) SiO2 
 PCOD9437600
Probable space group: P B C M
;
_chemical_formula_sum "Si O2"
_cell_formula_units_Z 40
_cell_length_a 12.932723
_cell_length_b 17.621986
_cell_length_c 8.970642
_cell_angle_alpha 90.000000
_cell_angle_beta 90.000000
_cell_angle_gamma 90.000000
_cell_volume 2044.411677
_symmetry_space_group_name_H-M "P B C M"
_symmetry_group_IT_number 57
_symmetry_cell_setting 'orthorhombic'
loop_
_space_group_symop_operation_xyz
x,y,z
-x,-y,1/2+z
x,1/2-y,-z
-x,1/2+y,1/2-z
-x,-y,-z
x,y,1/2-z
-x,1/2+y,z
x,1/2-y,1/2+z
loop_
_atom_site_type_symbol
_atom_site_label
_atom_site_fract_x
_atom_site_fract_y
_atom_site_fract_z
Si Si1 0.941218 0.929825 0.578560
Si Si2 0.142558 0.829362 0.581227
Si Si3 0.460392 0.077999 0.572057
Si Si4 0.753377 0.663807 0.931212
Si Si5 0.334111 0.667653 0.573417
O O1 0.910989 0.948734 0.750000
O O2 0.846680 0.889416 0.492066
O O3 0.033581 0.869426 0.583951
O O4 0.000000 0.000000 0.500000
O O5 0.126645 0.750000 0.500000
O O6 0.177949 0.817577 0.750000
O O7 0.234056 0.873847 0.496141
O O8 0.453221 0.066254 0.750000
O O9 0.353167 0.119056 0.527291
O O10 0.555507 0.133366 0.538504
O O11 0.500000 0.000000 0.500000
O O12 0.758713 0.669877 0.750000
O O13 0.756439 0.750000 0.000000
O O14 0.331832 0.750000 0.500000
O O15 0.322409 0.670254 0.750000
#
# Coordination Sequence:
#
# PCOD9437600 Si02
#       5
#     8   8   8   8   8
#     4  11  25  42  63  92 127 166 210 263 321 378
#     4  10  21  37  59  87 118 155 198 247 302 363
#     4  10  24  41  61  91 126 163 208 260 315 374
#     4  11  24  44  68  96 130 171 220 268 321 388
#     4  10  20  36  59  88 118 155 199 246 301 364
#
# _framework density 19.565529999999999
#
# number of rings (size 3 to 8) (size 9 to 14) (size 15 to 20)
#    0.000    1.600    0.000    4.800    2.800    8.000 
#    0.000    0.000    0.000    0.000    0.000    0.000 
#    0.000    0.000    0.000    0.000    0.000    0.000 
#
# Total GULP energy -223013.825835 kJ/mol
# GULP energy per Si atom -5575.345646 kJ/mol
# Density = 1.952100 g / cm^3
# Si number density = 19.565530 Si / 1000 Ang^3
#
#
#
# Elastic Constant Matrix: (Units=GPa)
#
#
# Indices 1 2 3 4 5 6 
#
# 1 147.0343 41.4372 37.6914 0.0000 0.0000 0.0000
# 2 41.4372 89.0638 34.4397 0.0000 0.0000 0.0000
# 3 37.6914 34.4397 65.1709 0.0000 0.0000 0.0000
# 4 0.0000 0.0000 0.0000 24.6407 0.0000 0.0000
# 5 0.0000 0.0000 0.0000 0.0000 28.3539 0.0000
# 6 0.0000 0.0000 0.0000 0.0000 0.0000 33.3024
#
#
#
# Elastic Compliance Matrix: (Units=1/GPa)
#
#
# Indices 1 2 3 4 5 6 
#
# 1 0.008425 -0.002558 -0.003520 0.000000 0.000000 0.000000
# 2 -0.002558 0.014888 -0.006388 0.000000 0.000000 0.000000
# 3 -0.003520 -0.006388 0.020756 0.000000 0.000000 0.000000
# 4 0.000000 0.000000 0.000000 0.040583 0.000000 0.000000
# 5 0.000000 0.000000 0.000000 0.000000 0.035269 0.000000
# 6 0.000000 0.000000 0.000000 0.000000 0.000000 0.030028
#
#
# Mechanical properties :
#
#
# Convention : Reuss Voigt Hill
#
# Bulk Modulus (GPa) = 52.25942 58.71174 55.48558
# Shear Modulus (GPa) = 27.58453 29.77277 28.67865
#
# Velocity S-wave (km/s) = 3.75888 3.90512 3.83270
# Velocity P-wave (km/s) = 6.75328 7.09973 6.92867
#
# Compressibility (1/GPa) = 0.01913531
#
# Stress axis : x y z
#
# Youngs Moduli (GPa) = 118.70094 67.16643 48.17846
#
# Poissons Ratio (x) = 0.17183 0.16961
# Poissons Ratio (y) = 0.30367 0.30778
# Poissons Ratio (z) = 0.41787 0.42908
#
# Static dielectric constant tensor:
#      x y z
#    x 1.774500 0.000000 0.000000 
#    y 0.000000 2.345780 0.000000 
#    z 0.000000 0.000000 1.706270 
# 
# From -- ./inp_files/2613.got.cif
#   From: 2010.05.17/outbox.cif.g08.bks.cpg/sg57_2_cif.got.tgz:2613.got - 2010.06.03 13:58:18.
