data_PCOD9437552
_publ_section_title
;
Structure prediction by ZEFSAII (Michael W. Deem and Ramdas Pophale) SiO2 
 PCOD9437552
Probable space group: P B C M
;
_chemical_formula_sum "Si O2"
_cell_formula_units_Z 64
_cell_length_a 21.819949
_cell_length_b 17.802299
_cell_length_c 8.744207
_cell_angle_alpha 90.000000
_cell_angle_beta 90.000000
_cell_angle_gamma 90.000000
_cell_volume 3396.645729
_symmetry_space_group_name_H-M "P B C M"
_symmetry_group_IT_number 57
_symmetry_cell_setting 'orthorhombic'
loop_
_space_group_symop_operation_xyz
x,y,z
-x,-y,1/2+z
x,1/2-y,-z
-x,1/2+y,1/2-z
-x,-y,-z
x,y,1/2-z
-x,1/2+y,z
x,1/2-y,1/2+z
loop_
_atom_site_type_symbol
_atom_site_label
_atom_site_fract_x
_atom_site_fract_y
_atom_site_fract_z
Si Si1 0.192916 0.950858 0.066369
Si Si2 0.602564 0.060800 0.066953
Si Si3 0.497951 0.669774 0.567625
Si Si4 0.934606 0.979155 0.567630
Si Si5 0.252218 0.101219 0.931388
Si Si6 0.121469 0.329648 0.069045
Si Si7 0.719487 0.332685 0.567606
Si Si8 0.381225 0.105387 0.068438
O O1 0.198414 0.954567 0.250000
O O2 0.121896 0.965640 0.024006
O O3 0.221996 0.874425 0.004740
O O4 0.231353 0.019631 0.993390
O O5 0.598297 0.049465 0.250000
O O6 0.660843 0.114315 0.034832
O O7 0.543398 0.104315 0.004910
O O8 0.610185 0.980949 0.985326
O O9 0.477966 0.750000 0.500000
O O10 0.492198 0.669740 0.750000
O O11 0.567439 0.653858 0.516725
O O12 0.938230 0.979181 0.750000
O O13 0.914419 0.897517 0.509203
O O14 0.000000 0.000000 0.500000
O O15 0.264373 0.095387 0.750000
O O16 0.193704 0.154234 0.956818
O O17 0.312849 0.127107 0.017709
O O18 0.110734 0.331625 0.250000
O O19 0.104339 0.250000 0.000000
O O20 0.710708 0.250000 0.500000
O O21 0.726146 0.328212 0.750000
O O22 0.388953 0.111671 0.250000
#
# Coordination Sequence:
#
# PCOD9437552 Si02
#       8
#     8   8   8   8   8   8   8   8
#     4  10  20  36  59  86 118 152 194 240 288 348
#     4  11  23  41  63  88 117 152 198 246 297 357
#     4  12  26  44  62  83 115 153 197 248 303 361
#     4  10  21  38  62  91 122 161 204 247 292 349
#     4  10  20  36  58  86 118 154 195 241 294 350
#     4  10  21  37  60  89 124 161 200 248 298 351
#     4  11  23  37  59  87 120 155 194 243 298 353
#     4  12  24  39  62  89 118 155 198 246 298 355
#
# _framework density 18.842119
#
# number of rings (size 3 to 8) (size 9 to 14) (size 15 to 20)
#    0.000    1.250    1.250    5.250    0.000    6.000 
#    0.000    1.875    0.000    3.000    0.000    0.000 
#    0.000    0.000    0.000    0.000    0.000    0.000 
#
# Total GULP energy -357955.385548 kJ/mol
# GULP energy per Si atom -5593.052899 kJ/mol
# Density = 1.879923 g / cm^3
# Si number density = 18.842119 Si / 1000 Ang^3
#
#
#
# Elastic Constant Matrix: (Units=GPa)
#
#
# Indices 1 2 3 4 5 6 
#
# 1 87.6120 -2.7790 26.1016 0.0000 0.0000 0.0000
# 2 -2.7790 40.3670 12.4600 0.0000 0.0000 0.0000
# 3 26.1016 12.4600 57.0382 0.0000 0.0000 0.0000
# 4 0.0000 0.0000 0.0000 33.0718 0.0000 0.0000
# 5 0.0000 0.0000 0.0000 0.0000 32.3197 0.0000
# 6 0.0000 0.0000 0.0000 0.0000 0.0000 12.6651
#
#
#
# Elastic Compliance Matrix: (Units=1/GPa)
#
#
# Indices 1 2 3 4 5 6 
#
# 1 0.013558 0.003054 -0.006872 0.000000 0.000000 0.000000
# 2 0.003054 0.027252 -0.007351 0.000000 0.000000 0.000000
# 3 -0.006872 -0.007351 0.022282 0.000000 0.000000 0.000000
# 4 0.000000 0.000000 0.000000 0.030237 0.000000 0.000000
# 5 0.000000 0.000000 0.000000 0.000000 0.030941 0.000000
# 6 0.000000 0.000000 0.000000 0.000000 0.000000 0.078957
#
#
# Mechanical properties :
#
#
# Convention : Reuss Voigt Hill
#
# Bulk Modulus (GPa) = 24.53612 28.50915 26.52263
# Shear Modulus (GPa) = 20.90742 25.56031 23.23386
#
# Velocity S-wave (km/s) = 3.33470 3.68714 3.51534
# Velocity P-wave (km/s) = 5.27988 5.76975 5.53024
#
# Compressibility (1/GPa) = 0.04075625
#
# Stress axis : x y z
#
# Youngs Moduli (GPa) = 73.75689 36.69461 44.87830
#
# Poissons Ratio (x) = -0.11208 0.30839
# Poissons Ratio (y) = -0.22529 0.32990
# Poissons Ratio (z) = 0.50683 0.26974
#
# Static dielectric constant tensor:
#      x y z
#    x 1.655240 0.000000 0.000000 
#    y 0.000000 1.629620 0.000000 
#    z 0.000000 0.000000 1.622460 
# 
# From -- ./inp_files/8510.got.cif
#   From: 2010.05.17/outbox.cif.g08.bks.cpg/sg57_5_cif.got.tgz:8510.got - 2010.06.03 13:58:18.
