data_PCOD9437008
_publ_section_title
;
Structure prediction by ZEFSAII (Michael W. Deem and Ramdas Pophale) SiO2 
 PCOD9437008
Probable space group: P B C M
;
_chemical_formula_sum "Si O2"
_cell_formula_units_Z 48
_cell_length_a 18.591172
_cell_length_b 9.684695
_cell_length_c 14.111078
_cell_angle_alpha 90.000000
_cell_angle_beta 90.000000
_cell_angle_gamma 90.000000
_cell_volume 2540.697202
_symmetry_space_group_name_H-M "P B C M"
_symmetry_group_IT_number 57
_symmetry_cell_setting 'orthorhombic'
loop_
_space_group_symop_operation_xyz
x,y,z
-x,-y,1/2+z
x,1/2-y,-z
-x,1/2+y,1/2-z
-x,-y,-z
x,y,1/2-z
-x,1/2+y,z
x,1/2-y,1/2+z
loop_
_atom_site_type_symbol
_atom_site_label
_atom_site_fract_x
_atom_site_fract_y
_atom_site_fract_z
Si Si1 0.943872 0.110857 0.135869
Si Si2 0.912597 0.891588 0.520665
Si Si3 0.415929 0.705227 0.750000
Si Si4 0.673598 0.123627 0.932527
Si Si5 0.836577 0.131766 0.636781
Si Si6 0.490630 0.443617 0.750000
Si Si7 0.436517 0.097289 0.457540
O O1 0.954042 0.094113 0.250000
O O2 0.882137 0.227015 0.121038
O O3 0.016086 0.154084 0.079651
O O4 0.925358 0.970288 0.079162
O O5 0.871007 0.750000 0.500000
O O6 0.877532 0.005269 0.588224
O O7 0.370642 0.658612 0.661051
O O8 0.487592 0.609701 0.750000
O O9 0.433723 0.865901 0.750000
O O10 0.757532 0.128927 0.908349
O O11 0.639199 0.982241 0.971962
O O12 0.656648 0.250000 0.000000
O O13 0.831326 0.113943 0.750000
O O14 0.451609 0.395075 0.654583
O O15 0.439008 0.250000 0.500000
O O16 0.500000 0.000000 0.500000
#
# Coordination Sequence:
#
# PCOD9437008 Si02
#       7
#     8   8   4   8   8   4   8
#     4  10  21  38  61  89 122 161 213 259 310 378
#     4  11  22  36  59  91 123 159 204 262 318 371
#     4  10  20  36  56  88 110 152 188 242 294 358
#     4  11  22  38  61  86 121 157 204 251 310 373
#     4  11  23  42  64  86 121 167 211 261 321 383
#     4  10  20  34  58  82 122 148 196 244 296 354
#     4  11  22  38  61  93 124 164 206 255 309 377
#
# _framework density 18.892451999999999
#
# number of rings (size 3 to 8) (size 9 to 14) (size 15 to 20)
#    0.000    1.333    0.833    7.500    0.000    3.333 
#    0.000    0.000    0.000    0.000    0.000    0.000 
#    0.000    0.000    0.000    0.000    0.000    0.000 
#
# Total GULP energy -267772.080546 kJ/mol
# GULP energy per Si atom -5578.585011 kJ/mol
# Density = 1.884945 g / cm^3
# Si number density = 18.892452 Si / 1000 Ang^3
#
#
#
# Elastic Constant Matrix: (Units=GPa)
#
#
# Indices 1 2 3 4 5 6 
#
# 1 92.4856 57.0658 28.5016 0.0000 0.0000 0.0000
# 2 57.0658 144.7863 72.3185 0.0000 0.0000 0.0000
# 3 28.5016 72.3185 127.6622 0.0000 0.0000 0.0000
# 4 0.0000 0.0000 0.0000 23.1871 0.0000 0.0000
# 5 0.0000 0.0000 0.0000 0.0000 31.6805 0.0000
# 6 0.0000 0.0000 0.0000 0.0000 0.0000 21.0653
#
#
#
# Elastic Compliance Matrix: (Units=1/GPa)
#
#
# Indices 1 2 3 4 5 6 
#
# 1 0.014287 -0.005631 0.000000 0.000000 0.000000 0.000000
# 2 -0.005631 0.011852 -0.005457 0.000000 0.000000 0.000000
# 3 0.000000 -0.005457 0.010924 0.000000 0.000000 0.000000
# 4 0.000000 0.000000 0.000000 0.043127 0.000000 0.000000
# 5 0.000000 0.000000 0.000000 0.000000 0.031565 0.000000
# 6 0.000000 0.000000 0.000000 0.000000 0.000000 0.047472
#
#
# Mechanical properties :
#
#
# Convention : Reuss Voigt Hill
#
# Bulk Modulus (GPa) = 67.16870 75.63399 71.40135
# Shear Modulus (GPa) = 26.82914 28.98977 27.90946
#
# Velocity S-wave (km/s) = 3.77251 3.92147 3.84771
# Velocity P-wave (km/s) = 7.38960 7.78619 7.59049
#
# Compressibility (1/GPa) = 0.01488789
#
# Stress axis : x y z
#
# Youngs Moduli (GPa) = 69.99384 84.37635 91.54020
#
# Poissons Ratio (x) = 0.47514 -0.00003
# Poissons Ratio (y) = 0.39415 0.49950
# Poissons Ratio (z) = -0.00002 0.46041
#
# Static dielectric constant tensor:
#      x y z
#    x 1.674730 0.000000 0.000000 
#    y 0.000000 1.674510 0.000000 
#    z 0.000000 0.000000 1.644160 
# 
# From -- ./inp_files/19012.got.cif
#   From: 2010.05.17/outbox.cif.g08.bks.cpg/sg57_10_cif.got.tgz:19012.got - 2010.06.03 13:58:18.
