data_PCOD9437540
_publ_section_title
;
Structure prediction by ZEFSAII (Michael W. Deem and Ramdas Pophale) SiO2 
 PCOD9437540
Probable space group: P B C M
;
_chemical_formula_sum "Si O2"
_cell_formula_units_Z 40
_cell_length_a 6.115567
_cell_length_b 25.641663
_cell_length_c 10.270933
_cell_angle_alpha 90.000000
_cell_angle_beta 90.000000
_cell_angle_gamma 90.000000
_cell_volume 1610.618981
_symmetry_space_group_name_H-M "P B C M"
_symmetry_group_IT_number 57
_symmetry_cell_setting 'orthorhombic'
loop_
_space_group_symop_operation_xyz
x,y,z
-x,-y,1/2+z
x,1/2-y,-z
-x,1/2+y,1/2-z
-x,-y,-z
x,y,1/2-z
-x,1/2+y,z
x,1/2-y,1/2+z
loop_
_atom_site_type_symbol
_atom_site_label
_atom_site_fract_x
_atom_site_fract_y
_atom_site_fract_z
Si Si1 0.201811 0.690957 0.530706
Si Si2 0.866510 0.019035 0.250000
Si Si3 0.170525 0.834318 0.750000
Si Si4 0.870498 0.675717 0.750000
Si Si5 0.423308 0.940882 0.970760
Si Si6 0.243232 0.088742 0.250000
Si Si7 0.482103 0.730151 0.750000
Si Si8 0.453773 0.081382 0.750000
O O1 0.121497 0.750000 0.500000
O O2 0.230147 0.656845 0.402331
O O3 0.416305 0.701355 0.616295
O O4 0.020012 0.668849 0.625343
O O5 0.783824 0.049180 0.378445
O O6 0.122482 0.031724 0.250000
O O7 0.731273 0.965103 0.250000
O O8 0.312095 0.778437 0.750000
O O9 0.926817 0.862380 0.750000
O O10 0.744583 0.731962 0.750000
O O11 0.688503 0.632694 0.750000
O O12 0.604132 0.912766 0.878441
O O13 0.406752 0.919277 0.117024
O O14 0.500000 0.000000 0.000000
#
# Coordination Sequence:
#
# PCOD9437540 Si02
#       8
#     8   4   4   4   8   4   4   4
#     4   9  20  39  57  80 116 150 188 243 295 352
#     4   9  21  39  57  84 120 158 202 243 295 358
#     4  10  20  38  60  86 120 151 195 253 296 355
#     4  11  21  37  61  86 112 156 201 233 298 361
#     4   9  20  39  57  82 120 155 199 248 290 354
#     4  11  21  37  62  86 116 161 198 241 306 354
#     4   9  21  39  56  80 116 150 192 244 292 353
#     4  10  20  36  58  84 118 154 194 250 293 341
#
# _framework density 24.835172
#
# number of rings (size 3 to 8) (size 9 to 14) (size 15 to 20)
#    0.000    2.400    0.000    2.400    0.000    7.200 
#    0.000   18.000    0.000    0.000    0.000    0.000 
#    0.000    0.000    0.000    0.000    0.000    0.000 
#
# Total GULP energy -222716.036532 kJ/mol
# GULP energy per Si atom -5567.900913 kJ/mol
# Density = 2.477865 g / cm^3
# Si number density = 24.835172 Si / 1000 Ang^3
#
#
#
# Elastic Constant Matrix: (Units=GPa)
#
#
# Indices 1 2 3 4 5 6 
#
# 1 85.0199 11.6544 50.6351 0.0000 0.0000 0.0000
# 2 11.6544 100.2135 13.8087 0.0000 0.0000 0.0000
# 3 50.6351 13.8087 236.0333 0.0000 0.0000 0.0000
# 4 0.0000 0.0000 0.0000 153.7915 0.0000 0.0000
# 5 0.0000 0.0000 0.0000 0.0000 13.0771 0.0000
# 6 0.0000 0.0000 0.0000 0.0000 0.0000 40.2393
#
#
#
# Elastic Compliance Matrix: (Units=1/GPa)
#
#
# Indices 1 2 3 4 5 6 
#
# 1 0.013624 -0.001191 -0.002853 0.000000 0.000000 0.000000
# 2 -0.001191 0.010164 -0.000339 0.000000 0.000000 0.000000
# 3 -0.002853 -0.000339 0.004869 0.000000 0.000000 0.000000
# 4 0.000000 0.000000 0.000000 0.006502 0.000000 0.000000
# 5 0.000000 0.000000 0.000000 0.000000 0.076470 0.000000
# 6 0.000000 0.000000 0.000000 0.000000 0.000000 0.024851
#
#
# Mechanical properties :
#
#
# Convention : Reuss Voigt Hill
#
# Bulk Modulus (GPa) = 50.27638 63.71811 56.99724
# Shear Modulus (GPa) = 32.92133 64.43282 48.67708
#
# Velocity S-wave (km/s) = 3.64482 5.09907 4.43200
# Velocity P-wave (km/s) = 6.16449 7.77042 7.01357
#
# Compressibility (1/GPa) = 0.01989006
#
# Stress axis : x y z
#
# Youngs Moduli (GPa) = 73.39741 98.38683 205.39842
#
# Poissons Ratio (x) = 0.11721 0.58602
# Poissons Ratio (y) = 0.08744 0.06964
# Poissons Ratio (z) = 0.20941 0.03336
#
# Static dielectric constant tensor:
#      x y z
#    x 1.928180 0.000000 0.000000 
#    y 0.000000 2.176120 0.000000 
#    z 0.000000 0.000000 1.957980 
# 
# From -- ./inp_files/11069.got.cif
#   From: 2010.05.17/outbox.cif.g08.bks.cpg/sg57_6_cif.got.tgz:11069.got - 2010.06.03 13:58:18.
