data_PCOD9437643
_publ_section_title
;
Structure prediction by ZEFSAII (Michael W. Deem and Ramdas Pophale) SiO2 
 PCOD9437643
Probable space group: P B C M
;
_chemical_formula_sum "Si O2"
_cell_formula_units_Z 64
_cell_length_a 24.293562
_cell_length_b 15.589138
_cell_length_c 8.393105
_cell_angle_alpha 90.000000
_cell_angle_beta 90.000000
_cell_angle_gamma 90.000000
_cell_volume 3178.600556
_symmetry_space_group_name_H-M "P B C M"
_symmetry_group_IT_number 57
_symmetry_cell_setting 'orthorhombic'
loop_
_space_group_symop_operation_xyz
x,y,z
-x,-y,1/2+z
x,1/2-y,-z
-x,1/2+y,1/2-z
-x,-y,-z
x,y,1/2-z
-x,1/2+y,z
x,1/2-y,1/2+z
loop_
_atom_site_type_symbol
_atom_site_label
_atom_site_fract_x
_atom_site_fract_y
_atom_site_fract_z
Si Si1 0.505924 0.341448 0.564064
Si Si2 0.007529 0.349999 0.940938
Si Si3 0.612499 0.873350 0.065523
Si Si4 0.398462 0.943976 0.063157
Si Si5 0.080730 0.512816 0.557002
Si Si6 0.290814 0.844181 0.440642
Si Si7 0.264750 0.339109 0.440475
Si Si8 0.207056 0.989815 0.057571
O O1 0.525467 0.250000 0.500000
O O2 0.517248 0.351517 0.750000
O O3 0.440886 0.345899 0.532432
O O4 0.540072 0.411437 0.466755
O O5 0.008712 0.345091 0.750000
O O6 0.055121 0.419532 0.991588
O O7 0.010346 0.250000 0.000000
O O8 0.953887 0.405471 0.993822
O O9 0.605380 0.847597 0.250000
O O10 0.671590 0.843349 0.002907
O O11 0.613476 0.975473 0.047189
O O12 0.391526 0.967068 0.250000
O O13 0.353090 0.872756 0.020535
O O14 0.077875 0.515565 0.750000
O O15 0.144017 0.519334 0.505281
O O16 0.278483 0.750000 0.500000
O O17 0.287284 0.844310 0.250000
O O18 0.247424 0.914590 0.501280
O O19 0.240121 0.250000 0.500000
O O20 0.265986 0.341861 0.250000
O O21 0.232156 0.420162 0.504432
O O22 0.207246 0.987609 0.250000
#
# Coordination Sequence:
#
# PCOD9437643 Si02
#       8
#     8   8   8   8   8   8   8   8
#     4  12  25  40  58  83 114 148 190 244 300 365
#     4  10  20  36  60  90 125 165 205 251 300 354
#     4  11  23  40  61  86 114 150 194 244 301 364
#     4  11  22  39  61  85 113 151 194 242 302 362
#     4   9  20  38  61  89 123 163 206 253 301 352
#     4  10  22  38  60  86 116 156 197 245 299 357
#     4  11  24  40  62  89 119 158 202 250 304 362
#     4  10  21  41  63  88 123 160 203 252 303 355
#
# _framework density 20.134646
#
# number of rings (size 3 to 8) (size 9 to 14) (size 15 to 20)
#    0.000    1.500    1.250    3.750    0.000    7.000 
#    0.000    2.500    0.000    0.000    0.000    0.000 
#    0.000    0.000    0.000    0.000    0.000    0.000 
#
# Total GULP energy -357441.424093 kJ/mol
# GULP energy per Si atom -5585.022251 kJ/mol
# Density = 2.008882 g / cm^3
# Si number density = 20.134646 Si / 1000 Ang^3
#
#
#
# Elastic Constant Matrix: (Units=GPa)
#
#
# Indices 1 2 3 4 5 6 
#
# 1 103.0719 37.6624 18.0451 0.0000 0.0000 0.0000
# 2 37.6624 143.8197 12.2425 0.0000 0.0000 0.0000
# 3 18.0451 12.2425 27.1741 0.0000 0.0000 0.0000
# 4 0.0000 0.0000 0.0000 32.1193 0.0000 0.0000
# 5 0.0000 0.0000 0.0000 0.0000 21.2448 0.0000
# 6 0.0000 0.0000 0.0000 0.0000 0.0000 -114.4922
#
#
#
# Elastic Compliance Matrix: (Units=1/GPa)
#
#
# Indices 1 2 3 4 5 6 
#
# 1 0.011795 -0.002519 -0.006698 0.000000 0.000000 0.000000
# 2 -0.002519 0.007768 -0.001827 0.000000 0.000000 0.000000
# 3 -0.006698 -0.001827 0.042071 0.000000 0.000000 0.000000
# 4 0.000000 0.000000 0.000000 0.031134 0.000000 0.000000
# 5 0.000000 0.000000 0.000000 0.000000 0.047070 0.000000
# 6 0.000000 0.000000 0.000000 0.000000 0.000000 -0.008734
#
#
# Mechanical properties :
#
#
# Convention : Reuss Voigt Hill
#
# Bulk Modulus (GPa) = 25.28669 45.55173 35.41921
# Shear Modulus (GPa) = 30.05292 1.51541 15.78417
#
# Velocity S-wave (km/s) = 3.86761 0.86849 2.80291
# Velocity P-wave (km/s) = 5.70356 4.86604 5.30136
#
# Compressibility (1/GPa) = 0.03954649
#
# Stress axis : x y z
#
# Youngs Moduli (GPa) = 84.78275 128.72912 23.76956
#
# Poissons Ratio (x) = 0.32422 0.15920
# Poissons Ratio (y) = 0.21353 0.04343
# Poissons Ratio (z) = 0.56785 0.23522
#
# Static dielectric constant tensor:
#      x y z
#    x 1.716300 0.000000 0.000000 
#    y 0.000000 1.713300 0.000000 
#    z 0.000000 0.000000 1.682630 
# 
# From -- ./inp_files/9391.got.cif
#   From: 2010.05.17/outbox.cif.g08.bks.cpg/sg57_5_cif.got.tgz:9391.got - 2010.06.03 13:58:18.
