data_PCOD9437955
_publ_section_title
;
Structure prediction by ZEFSAII (Michael W. Deem and Ramdas Pophale) SiO2 
 PCOD9437955
Probable space group: P B C M
;
_chemical_formula_sum "Si O2"
_cell_formula_units_Z 64
_cell_length_a 25.003069
_cell_length_b 15.173807
_cell_length_c 8.651392
_cell_angle_alpha 90.000000
_cell_angle_beta 90.000000
_cell_angle_gamma 90.000000
_cell_volume 3282.266694
_symmetry_space_group_name_H-M "P B C M"
_symmetry_group_IT_number 57
_symmetry_cell_setting 'orthorhombic'
loop_
_space_group_symop_operation_xyz
x,y,z
-x,-y,1/2+z
x,1/2-y,-z
-x,1/2+y,1/2-z
-x,-y,-z
x,y,1/2-z
-x,1/2+y,z
x,1/2-y,1/2+z
loop_
_atom_site_type_symbol
_atom_site_label
_atom_site_fract_x
_atom_site_fract_y
_atom_site_fract_z
Si Si1 0.210517 0.349698 0.063156
Si Si2 0.486829 0.649747 0.564293
Si Si3 0.245971 0.650684 0.564319
Si Si4 0.873078 0.151833 0.934606
Si Si5 0.421282 0.476022 0.564552
Si Si6 0.985671 0.093421 0.433050
Si Si7 0.095830 0.156244 0.565689
Si Si8 0.696107 0.515428 0.564400
O O1 0.210103 0.342728 0.250000
O O2 0.151661 0.392768 0.023274
O O3 0.258336 0.414344 0.015215
O O4 0.219088 0.250000 0.000000
O O5 0.480650 0.750000 0.500000
O O6 0.487799 0.656120 0.750000
O O7 0.442007 0.575276 0.521041
O O8 0.540283 0.599527 0.505564
O O9 0.252231 0.750000 0.500000
O O10 0.250435 0.653616 0.750000
O O11 0.185737 0.616868 0.524400
O O12 0.286580 0.581183 0.493313
O O13 0.878006 0.151426 0.750000
O O14 0.872284 0.250000 0.000000
O O15 0.926965 0.112969 0.003927
O O16 0.424067 0.470362 0.750000
O O17 0.361415 0.462851 0.505563
O O18 0.983779 0.097627 0.250000
O O19 0.037755 0.144867 0.490927
O O20 0.000000 0.000000 0.500000
O O21 0.111986 0.250000 0.500000
O O22 0.088892 0.150763 0.750000
O O23 0.693554 0.516315 0.750000
#
# Coordination Sequence:
#
# PCOD9437955 Si02
#       8
#     8   8   8   8   8   8   8   8
#     4   9  21  39  60  86 115 154 199 246 299 356
#     4  10  21  39  65  94 126 165 207 252 304 356
#     4  10  22  40  62  88 117 155 202 250 304 365
#     4  10  21  39  60  83 109 144 187 235 294 358
#     4  10  22  40  61  91 128 166 210 254 299 354
#     4  12  25  38  54  80 110 142 182 234 292 358
#     4  10  20  38  59  81 108 143 185 234 292 355
#     4  11  23  39  61  90 126 165 205 253 304 354
#
# _framework density 19.498721
#
# number of rings (size 3 to 8) (size 9 to 14) (size 15 to 20)
#    0.000    1.750    0.000    3.750    1.750    5.500 
#    0.000    2.500    0.000    0.000    0.000    0.000 
#    0.000    0.000    0.000    0.000    0.000    0.000 
#
# Total GULP energy -356682.354027 kJ/mol
# GULP energy per Si atom -5573.161782 kJ/mol
# Density = 1.945434 g / cm^3
# Si number density = 19.498721 Si / 1000 Ang^3
#
#
#
# Elastic Constant Matrix: (Units=GPa)
#
#
# Indices 1 2 3 4 5 6 
#
# 1 51.4690 -12.7603 11.5421 0.0000 0.0000 0.0000
# 2 -12.7603 58.6448 2.6631 0.0000 0.0000 0.0000
# 3 11.5421 2.6631 53.7927 0.0000 0.0000 0.0000
# 4 0.0000 0.0000 0.0000 30.9629 0.0000 0.0000
# 5 0.0000 0.0000 0.0000 0.0000 57.6187 0.0000
# 6 0.0000 0.0000 0.0000 0.0000 0.0000 27.8740
#
#
#
# Elastic Compliance Matrix: (Units=1/GPa)
#
#
# Indices 1 2 3 4 5 6 
#
# 1 0.021760 0.004958 -0.004915 0.000000 0.000000 0.000000
# 2 0.004958 0.018220 -0.001966 0.000000 0.000000 0.000000
# 3 -0.004915 -0.001966 0.019742 0.000000 0.000000 0.000000
# 4 0.000000 0.000000 0.000000 0.032297 0.000000 0.000000
# 5 0.000000 0.000000 0.000000 0.000000 0.017355 0.000000
# 6 0.000000 0.000000 0.000000 0.000000 0.000000 0.035876
#
#
# Mechanical properties :
#
#
# Convention : Reuss Voigt Hill
#
# Bulk Modulus (GPa) = 17.89637 18.53292 18.21464
# Shear Modulus (GPa) = 29.81152 34.12190 31.96671
#
# Velocity S-wave (km/s) = 3.91435 4.18779 4.05338
# Velocity P-wave (km/s) = 5.44313 5.73661 5.59180
#
# Compressibility (1/GPa) = 0.05587727
#
# Stress axis : x y z
#
# Youngs Moduli (GPa) = 45.95489 54.88518 50.65418
#
# Poissons Ratio (x) = -0.27212 0.24894
# Poissons Ratio (y) = -0.22784 0.09958
# Poissons Ratio (z) = 0.22585 0.10789
#
# Static dielectric constant tensor:
#      x y z
#    x -0.125580 0.000000 0.000000 
#    y 0.000000 1.683980 0.000000 
#    z 0.000000 0.000000 1.657670 
# 
# From -- ./inp_files/9304.got.cif
#   From: 2010.05.17/outbox.cif.g08.bks.cpg/sg57_5_cif.got.tgz:9304.got - 2010.06.03 13:58:18.
