data_PCOD9437650
_publ_section_title
;
Structure prediction by ZEFSAII (Michael W. Deem and Ramdas Pophale) SiO2 
 PCOD9437650
Probable space group: P B C M
;
_chemical_formula_sum "Si O2"
_cell_formula_units_Z 64
_cell_length_a 24.167000
_cell_length_b 15.363639
_cell_length_c 9.021945
_cell_angle_alpha 90.000000
_cell_angle_beta 90.000000
_cell_angle_gamma 90.000000
_cell_volume 3349.785600
_symmetry_space_group_name_H-M "P B C M"
_symmetry_group_IT_number 57
_symmetry_cell_setting 'orthorhombic'
loop_
_space_group_symop_operation_xyz
x,y,z
-x,-y,1/2+z
x,1/2-y,-z
-x,1/2+y,1/2-z
-x,-y,-z
x,y,1/2-z
-x,1/2+y,z
x,1/2-y,1/2+z
loop_
_atom_site_type_symbol
_atom_site_label
_atom_site_fract_x
_atom_site_fract_y
_atom_site_fract_z
Si Si1 0.502324 0.160913 0.426779
Si Si2 0.004232 0.347861 0.928657
Si Si3 0.623051 0.878062 0.920945
Si Si4 0.400149 0.919694 0.079216
Si Si5 0.077966 0.514975 0.573331
Si Si6 0.286909 0.839097 0.428180
Si Si7 0.263740 0.336685 0.424824
Si Si8 0.207862 0.999345 0.073366
O O1 0.522583 0.250000 0.500000
O O2 0.503770 0.164371 0.250000
O O3 0.438433 0.148016 0.471155
O O4 0.544477 0.088678 0.484890
O O5 0.001645 0.337868 0.750000
O O6 0.053532 0.418304 0.963786
O O7 0.008096 0.250000 0.000000
O O8 0.952454 0.405867 0.988351
O O9 0.631464 0.848576 0.750000
O O10 0.622596 0.982529 0.920135
O O11 0.672707 0.846563 0.021974
O O12 0.413189 0.896448 0.250000
O O13 0.349535 0.861261 0.022446
O O14 0.068148 0.527054 0.750000
O O15 0.143311 0.516522 0.545435
O O16 0.268279 0.750000 0.500000
O O17 0.288394 0.832637 0.250000
O O18 0.245454 0.916737 0.466486
O O19 0.240851 0.250000 0.500000
O O20 0.261159 0.330554 0.250000
O O21 0.230546 0.418838 0.484958
O O22 0.215146 0.015286 0.250000
#
# Coordination Sequence:
#
# PCOD9437650 Si02
#       8
#     8   8   8   8   8   8   8   8
#     4  11  23  36  54  80 110 144 185 238 293 358
#     4  10  20  36  60  91 127 164 204 250 297 352
#     4  10  21  40  61  82 111 146 189 241 301 359
#     4  10  20  37  59  81 109 146 187 237 298 356
#     4   9  20  38  62  90 121 163 207 251 301 350
#     4  10  21  37  59  83 114 154 193 242 295 352
#     4  12  25  40  62  89 118 156 200 247 300 360
#     4  10  21  42  64  86 122 161 202 250 301 351
#
# _framework density 19.105699999999999
#
# number of rings (size 3 to 8) (size 9 to 14) (size 15 to 20)
#    0.000    1.750    1.250    3.000    0.000    6.500 
#    0.000    2.500    0.000    0.000    0.000    0.000 
#    0.000    0.000    0.000    0.000    0.000    0.000 
#
# Total GULP energy -357349.163482 kJ/mol
# GULP energy per Si atom -5583.580679 kJ/mol
# Density = 1.906221 g / cm^3
# Si number density = 19.105700 Si / 1000 Ang^3
#
#
#
# Elastic Constant Matrix: (Units=GPa)
#
#
# Indices 1 2 3 4 5 6 
#
# 1 84.2151 31.9257 41.0116 0.0000 0.0000 0.0000
# 2 31.9257 120.5643 41.6867 0.0000 0.0000 0.0000
# 3 41.0116 41.6867 53.4668 0.0000 0.0000 0.0000
# 4 0.0000 0.0000 0.0000 25.6377 0.0000 0.0000
# 5 0.0000 0.0000 0.0000 0.0000 27.0571 0.0000
# 6 0.0000 0.0000 0.0000 0.0000 0.0000 39.4083
#
#
#
# Elastic Compliance Matrix: (Units=1/GPa)
#
#
# Indices 1 2 3 4 5 6 
#
# 1 0.018955 0.000011 -0.014548 0.000000 0.000000 0.000000
# 2 0.000011 0.011356 -0.008862 0.000000 0.000000 0.000000
# 3 -0.014548 -0.008862 0.036771 0.000000 0.000000 0.000000
# 4 0.000000 0.000000 0.000000 0.039005 0.000000 0.000000
# 5 0.000000 0.000000 0.000000 0.000000 0.036959 0.000000
# 6 0.000000 0.000000 0.000000 0.000000 0.000000 0.025375
#
#
# Mechanical properties :
#
#
# Convention : Reuss Voigt Hill
#
# Bulk Modulus (GPa) = 49.29960 54.16604 51.73282
# Shear Modulus (GPa) = 22.52456 27.99544 25.26000
#
# Velocity S-wave (km/s) = 3.43730 3.83207 3.64004
# Velocity P-wave (km/s) = 6.45081 6.92762 6.69346
#
# Compressibility (1/GPa) = 0.02028414
#
# Stress axis : x y z
#
# Youngs Moduli (GPa) = 52.75717 88.06222 27.19509
#
# Poissons Ratio (x) = -0.00095 0.39562
# Poissons Ratio (y) = -0.00057 0.24100
# Poissons Ratio (z) = 0.76749 0.78040
#
# Static dielectric constant tensor:
#      x y z
#    x 1.655440 0.000000 0.000000 
#    y 0.000000 1.696030 0.000000 
#    z 0.000000 0.000000 1.645560 
# 
# From -- ./inp_files/9389.got.cif
#   From: 2010.05.17/outbox.cif.g08.bks.cpg/sg57_5_cif.got.tgz:9389.got - 2010.06.03 13:58:18.
