data_PCOD9437410
_publ_section_title
;
Structure prediction by ZEFSAII (Michael W. Deem and Ramdas Pophale) SiO2 
 PCOD9437410
Probable space group: P B C M
;
_chemical_formula_sum "Si O2"
_cell_formula_units_Z 64
_cell_length_a 20.924365
_cell_length_b 9.287080
_cell_length_c 14.108324
_cell_angle_alpha 90.000000
_cell_angle_beta 90.000000
_cell_angle_gamma 90.000000
_cell_volume 2741.617721
_symmetry_space_group_name_H-M "P B C M"
_symmetry_group_IT_number 57
_symmetry_cell_setting 'orthorhombic'
loop_
_space_group_symop_operation_xyz
x,y,z
-x,-y,1/2+z
x,1/2-y,-z
-x,1/2+y,1/2-z
-x,-y,-z
x,y,1/2-z
-x,1/2+y,z
x,1/2-y,1/2+z
loop_
_atom_site_type_symbol
_atom_site_label
_atom_site_fract_x
_atom_site_fract_y
_atom_site_fract_z
Si Si1 0.784385 0.200075 0.640078
Si Si2 0.178439 0.017438 0.866058
Si Si3 0.330248 0.500206 0.866232
Si Si4 0.544980 0.324053 0.365876
Si Si5 0.698635 0.822551 0.134115
Si Si6 0.577569 0.000870 0.134066
Si Si7 0.037340 0.984847 0.856986
Si Si8 0.075598 0.674073 0.599059
O O1 0.766517 0.222541 0.750000
O O2 0.795310 0.361241 0.601693
O O3 0.728293 0.100938 0.600856
O O4 0.855141 0.130799 0.637749
O O5 0.175143 0.012169 0.750000
O O6 0.230032 0.134643 0.894810
O O7 0.105515 0.037679 0.898029
O O8 0.329082 0.497265 0.750000
O O9 0.397541 0.569914 0.893348
O O10 0.321363 0.336117 0.897281
O O11 0.543801 0.320821 0.250000
O O12 0.477211 0.388856 0.395938
O O13 0.560037 0.161829 0.397186
O O14 0.698459 0.822132 0.250000
O O15 0.646834 0.942420 0.105546
O O16 0.577309 0.003693 0.250000
O O17 0.032146 0.041160 0.750000
O O18 0.974498 0.045784 0.906079
O O19 0.043757 0.812314 0.850230
O O20 0.087821 0.750000 0.500000
#
# Coordination Sequence:
#
# PCOD9437410 Si02
#       8
#     8   8   8   8   8   8   8   8
#     4   9  17  31  48  66  90 126 165 202 245 301
#     4   8  15  27  43  61  83 113 154 197 239 288
#     4   9  16  24  37  57  82 112 155 202 243 290
#     4   9  15  22  31  48  75 115 159 198 240 292
#     4   9  15  23  35  56  82 111 149 197 245 292
#     4   9  15  21  31  46  74 114 154 192 238 294
#     4  10  20  36  56  77 102 137 176 213 255 315
#     4  11  22  36  54  79 108 136 168 215 267 314
#
# _framework density 23.343882000000001
#
# number of rings (size 3 to 8) (size 9 to 14) (size 15 to 20)
#    0.000    2.750    0.000    3.750    0.000    7.000 
#    0.000    2.500    0.000    0.000    0.000    0.000 
#    0.000    0.000    0.000   19.125    0.000   23.000 
#
# Total GULP energy -357647.819927 kJ/mol
# GULP energy per Si atom -5588.247186 kJ/mol
# Density = 2.329075 g / cm^3
# Si number density = 23.343882 Si / 1000 Ang^3
#
#
#
# Elastic Constant Matrix: (Units=GPa)
#
#
# Indices 1 2 3 4 5 6 
#
# 1 77.6432 7.2550 -3.2304 0.0000 0.0000 0.0000
# 2 7.2550 44.9559 1.7462 0.0000 0.0000 0.0000
# 3 -3.2304 1.7462 50.0792 0.0000 0.0000 0.0000
# 4 0.0000 0.0000 0.0000 30.6984 0.0000 0.0000
# 5 0.0000 0.0000 0.0000 0.0000 24.2625 0.0000
# 6 0.0000 0.0000 0.0000 0.0000 0.0000 46.4088
#
#
#
# Elastic Compliance Matrix: (Units=1/GPa)
#
#
# Indices 1 2 3 4 5 6 
#
# 1 0.013119 -0.002153 0.000921 0.000000 0.000000 0.000000
# 2 -0.002153 0.022627 -0.000928 0.000000 0.000000 0.000000
# 3 0.000921 -0.000928 0.020060 0.000000 0.000000 0.000000
# 4 0.000000 0.000000 0.000000 0.032575 0.000000 0.000000
# 5 0.000000 0.000000 0.000000 0.000000 0.041216 0.000000
# 6 0.000000 0.000000 0.000000 0.000000 0.000000 0.021548
#
#
# Mechanical properties :
#
#
# Convention : Reuss Voigt Hill
#
# Bulk Modulus (GPa) = 19.42216 20.46889 19.94553
# Shear Modulus (GPa) = 28.96424 31.40110 30.18267
#
# Velocity S-wave (km/s) = 3.52627 3.67161 3.59967
# Velocity P-wave (km/s) = 4.99174 5.17318 5.08327
#
# Compressibility (1/GPa) = 0.05148758
#
# Stress axis : x y z
#
# Youngs Moduli (GPa) = 76.22568 44.19402 49.85005
#
# Poissons Ratio (x) = 0.09515 -0.04593
# Poissons Ratio (y) = 0.16411 0.04626
# Poissons Ratio (z) = -0.07023 0.04101
#
# Static dielectric constant tensor:
#      x y z
#    x 1.823880 0.000000 0.000000 
#    y 0.000000 1.826350 0.000000 
#    z 0.000000 0.000000 1.994120 
# 
# From -- ./inp_files/23007.got.cif
#   From: 2010.05.17/outbox.cif.g08.bks.cpg/sg57_12_cif.got.tgz:23007.got - 2010.06.03 13:58:18.
