data_PCOD9437946
_publ_section_title
;
Structure prediction by ZEFSAII (Michael W. Deem and Ramdas Pophale) SiO2 
 PCOD9437946
Probable space group: P B C M
;
_chemical_formula_sum "Si O2"
_cell_formula_units_Z 36
_cell_length_a 21.707399
_cell_length_b 9.139795
_cell_length_c 9.243263
_cell_angle_alpha 90.000000
_cell_angle_beta 90.000000
_cell_angle_gamma 90.000000
_cell_volume 1833.874257
_symmetry_space_group_name_H-M "P B C M"
_symmetry_group_IT_number 57
_symmetry_cell_setting 'orthorhombic'
loop_
_space_group_symop_operation_xyz
x,y,z
-x,-y,1/2+z
x,1/2-y,-z
-x,1/2+y,1/2-z
-x,-y,-z
x,y,1/2-z
-x,1/2+y,z
x,1/2-y,1/2+z
loop_
_atom_site_type_symbol
_atom_site_label
_atom_site_fract_x
_atom_site_fract_y
_atom_site_fract_z
Si Si1 0.910057 0.981844 0.091167
Si Si2 0.325684 0.598677 0.920567
Si Si3 0.775493 0.904227 0.073280
Si Si4 0.996419 0.250000 0.500000
Si Si5 0.448482 0.095572 0.080372
O O1 0.890557 0.025703 0.250000
O O2 0.950690 0.118434 0.040711
O O3 0.845325 0.941688 0.019349
O O4 0.954536 0.840572 0.095903
O O5 0.310509 0.620628 0.750000
O O6 0.384126 0.491090 0.927417
O O7 0.341389 0.750000 0.000000
O O8 0.269945 0.525424 0.009180
O O9 0.772130 0.893613 0.250000
O O10 0.758557 0.750000 0.000000
O O11 0.464169 0.116154 0.250000
O O12 0.443203 0.250000 0.000000
O O13 0.500000 0.000000 0.000000
#
# Coordination Sequence:
#
# PCOD9437946 Si02
#       5
#     8   8   8   4   8
#     4  10  21  37  58  85 117 156 203 254 315 377
#     4  11  25  44  66  96 129 170 213 263 316 375
#     4  11  23  41  62  90 124 165 213 263 317 381
#     4  10  20  38  58  84 118 152 204 250 318 376
#     4  11  24  42  68 100 137 174 218 261 314 369
#
# _framework density 19.630571
#
# number of rings (size 3 to 8) (size 9 to 14) (size 15 to 20)
#    0.000    1.333    1.111    4.000    1.556    7.111 
#    0.000    2.222    0.000    0.000    0.000    0.000 
#    0.000    0.000    0.000    0.000    0.000    0.000 
#
# Total GULP energy -200602.786348 kJ/mol
# GULP energy per Si atom -5572.299621 kJ/mol
# Density = 1.958589 g / cm^3
# Si number density = 19.630571 Si / 1000 Ang^3
#
#
#
# Elastic Constant Matrix: (Units=GPa)
#
#
# Indices 1 2 3 4 5 6 
#
# 1 75.7039 35.6464 49.5572 0.0000 0.0000 0.0000
# 2 35.6464 142.7967 71.4394 0.0000 0.0000 0.0000
# 3 49.5572 71.4394 133.5176 0.0000 0.0000 0.0000
# 4 0.0000 0.0000 0.0000 25.0943 0.0000 0.0000
# 5 0.0000 0.0000 0.0000 0.0000 58.6681 0.0000
# 6 0.0000 0.0000 0.0000 0.0000 0.0000 36.6508
#
#
#
# Elastic Compliance Matrix: (Units=1/GPa)
#
#
# Indices 1 2 3 4 5 6 
#
# 1 0.017695 -0.001545 -0.005741 0.000000 0.000000 0.000000
# 2 -0.001545 0.009698 -0.004615 0.000000 0.000000 0.000000
# 3 -0.005741 -0.004615 0.012090 0.000000 0.000000 0.000000
# 4 0.000000 0.000000 0.000000 0.039850 0.000000 0.000000
# 5 0.000000 0.000000 0.000000 0.000000 0.017045 0.000000
# 6 0.000000 0.000000 0.000000 0.000000 0.000000 0.027285
#
#
# Mechanical properties :
#
#
# Convention : Reuss Voigt Hill
#
# Bulk Modulus (GPa) = 63.77633 73.92269 68.84951
# Shear Modulus (GPa) = 32.74574 37.10765 34.92670
#
# Velocity S-wave (km/s) = 4.08867 4.35247 4.22263
# Velocity P-wave (km/s) = 7.40597 7.93709 7.67612
#
# Compressibility (1/GPa) = 0.01567980
#
# Stress axis : x y z
#
# Youngs Moduli (GPa) = 56.51276 103.11792 82.71278
#
# Poissons Ratio (x) = 0.15932 0.47487
# Poissons Ratio (y) = 0.08731 0.38175
# Poissons Ratio (z) = 0.32445 0.47592
#
# Static dielectric constant tensor:
#      x y z
#    x 1.723750 0.000000 0.000000 
#    y 0.000000 1.696820 0.000000 
#    z 0.000000 0.000000 1.716070 
# 
# From -- ./inp_files/7646.got.cif
#   From: 2010.05.17/outbox.cif.g08.bks.cpg/sg57_4_cif.got.tgz:7646.got - 2010.06.03 13:58:18.
