data_PCOD9437887
_publ_section_title
;
Structure prediction by ZEFSAII (Michael W. Deem and Ramdas Pophale) SiO2 
 PCOD9437887
Probable space group: P B C M
;
_chemical_formula_sum "Si O2"
_cell_formula_units_Z 64
_cell_length_a 10.656606
_cell_length_b 16.350934
_cell_length_c 18.217039
_cell_angle_alpha 90.000000
_cell_angle_beta 90.000000
_cell_angle_gamma 90.000000
_cell_volume 3174.236365
_symmetry_space_group_name_H-M "P B C M"
_symmetry_group_IT_number 57
_symmetry_cell_setting 'orthorhombic'
loop_
_space_group_symop_operation_xyz
x,y,z
-x,-y,1/2+z
x,1/2-y,-z
-x,1/2+y,1/2-z
-x,-y,-z
x,y,1/2-z
-x,1/2+y,z
x,1/2-y,1/2+z
loop_
_atom_site_type_symbol
_atom_site_label
_atom_site_fract_x
_atom_site_fract_y
_atom_site_fract_z
Si Si1 0.414592 0.115997 0.668239
Si Si2 0.623275 0.708360 0.163949
Si Si3 0.777910 0.471678 0.666489
Si Si4 0.334866 0.795278 0.838445
Si Si5 0.411836 0.554319 0.946535
Si Si6 0.803834 0.175607 0.555306
Si Si7 0.244105 0.449611 0.661489
Si Si8 0.013957 0.533255 0.918055
O O1 0.474979 0.123286 0.750000
O O2 0.333340 0.198051 0.659869
O O3 0.501464 0.116286 0.597860
O O4 0.341818 0.031137 0.666760
O O5 0.608676 0.688595 0.250000
O O6 0.480414 0.699713 0.134824
O O7 0.724067 0.643135 0.138089
O O8 0.825856 0.466638 0.750000
O O9 0.735724 0.380637 0.645127
O O10 0.880391 0.517429 0.618369
O O11 0.335646 0.785958 0.750000
O O12 0.262980 0.720024 0.875862
O O13 0.295466 0.608112 0.976875
O O14 0.351233 0.500048 0.881370
O O15 0.500000 0.500000 0.000000
O O16 0.829169 0.250000 0.500000
O O17 0.926295 0.123885 0.577709
O O18 0.247417 0.460297 0.750000
O O19 0.113769 0.480693 0.628846
O O20 0.000000 0.500000 0.000000
#
# Coordination Sequence:
#
# PCOD9437887 Si02
#       8
#     8   8   8   8   8   8   8   8
#     4  10  20  37  62  92 130 164 204 259 320 387
#     4   9  18  36  62  98 130 157 203 264 323 385
#     4  10  22  40  66  93 124 168 215 261 317 383
#     4  10  20  38  66  97 126 161 207 265 326 388
#     4  11  24  35  62  95 131 169 205 261 326 389
#     4  11  25  42  62  91 126 169 212 265 316 387
#     4  10  22  41  67  94 124 168 217 263 316 384
#     4  11  25  45  65  86 126 171 221 274 317 374
#
# _framework density 20.162329
#
# number of rings (size 3 to 8) (size 9 to 14) (size 15 to 20)
#    0.000    1.750    1.250    2.250    7.000    4.500 
#    4.500    0.000    0.000    0.000    0.000    0.000 
#    0.000    0.000    0.000    0.000    0.000    0.000 
#
# Total GULP energy -356837.654588 kJ/mol
# GULP energy per Si atom -5575.588353 kJ/mol
# Density = 2.011644 g / cm^3
# Si number density = 20.162329 Si / 1000 Ang^3
#
#
#
# Elastic Constant Matrix: (Units=GPa)
#
#
# Indices 1 2 3 4 5 6 
#
# 1 48.3339 23.6405 20.8380 0.0000 0.0000 0.0000
# 2 23.6405 119.4681 28.9507 0.0000 0.0000 0.0000
# 3 20.8380 28.9507 85.9816 0.0000 0.0000 0.0000
# 4 0.0000 0.0000 0.0000 29.7960 0.0000 0.0000
# 5 0.0000 0.0000 0.0000 0.0000 24.3138 0.0000
# 6 0.0000 0.0000 0.0000 0.0000 0.0000 34.1451
#
#
#
# Elastic Compliance Matrix: (Units=1/GPa)
#
#
# Indices 1 2 3 4 5 6 
#
# 1 0.024531 -0.003717 -0.004694 0.000000 0.000000 0.000000
# 2 -0.003717 0.009677 -0.002358 0.000000 0.000000 0.000000
# 3 -0.004694 -0.002358 0.013562 0.000000 0.000000 0.000000
# 4 0.000000 0.000000 0.000000 0.033562 0.000000 0.000000
# 5 0.000000 0.000000 0.000000 0.000000 0.041129 0.000000
# 6 0.000000 0.000000 0.000000 0.000000 0.000000 0.029287
#
#
# Mechanical properties :
#
#
# Convention : Reuss Voigt Hill
#
# Bulk Modulus (GPa) = 38.11890 44.51577 41.31733
# Shear Modulus (GPa) = 27.46830 29.67459 28.57145
#
# Velocity S-wave (km/s) = 3.69502 3.84055 3.76848
# Velocity P-wave (km/s) = 6.09518 6.46475 6.28268
#
# Compressibility (1/GPa) = 0.02623371
#
# Stress axis : x y z
#
# Youngs Moduli (GPa) = 40.76489 103.33528 73.73676
#
# Poissons Ratio (x) = 0.38407 0.34610
# Poissons Ratio (y) = 0.15151 0.17384
# Poissons Ratio (z) = 0.19134 0.24363
#
# Static dielectric constant tensor:
#      x y z
#    x 1.736570 0.000000 0.000000 
#    y 0.000000 1.730770 0.000000 
#    z 0.000000 0.000000 -0.792620 
# 
# From -- ./inp_files/22097.got.cif
#   From: 2010.05.17/outbox.cif.g08.bks.cpg/sg57_12_cif.got.tgz:22097.got - 2010.06.03 13:58:18.
