data_PCOD9437696
_publ_section_title
;
Structure prediction by ZEFSAII (Michael W. Deem and Ramdas Pophale) SiO2 
 PCOD9437696
Probable space group: P B C M
;
_chemical_formula_sum "Si O2"
_cell_formula_units_Z 52
_cell_length_a 7.137148
_cell_length_b 17.907770
_cell_length_c 14.570742
_cell_angle_alpha 90.000000
_cell_angle_beta 90.000000
_cell_angle_gamma 90.000000
_cell_volume 1862.292434
_symmetry_space_group_name_H-M "P B C M"
_symmetry_group_IT_number 57
_symmetry_cell_setting 'orthorhombic'
loop_
_space_group_symop_operation_xyz
x,y,z
-x,-y,1/2+z
x,1/2-y,-z
-x,1/2+y,1/2-z
-x,-y,-z
x,y,1/2-z
-x,1/2+y,z
x,1/2-y,1/2+z
loop_
_atom_site_type_symbol
_atom_site_label
_atom_site_fract_x
_atom_site_fract_y
_atom_site_fract_z
Si Si1 0.475128 0.248235 0.853105
Si Si2 0.644539 0.967695 0.750000
Si Si3 0.943537 0.419905 0.895167
Si Si4 0.984282 0.916008 0.115239
Si Si5 0.030982 0.250667 0.889750
Si Si6 0.551634 0.915909 0.115511
Si Si7 0.480363 0.602515 0.411142
O O1 0.529750 0.268264 0.750000
O O2 0.251843 0.246938 0.868119
O O3 0.535685 0.164629 0.869418
O O4 0.557990 0.309475 0.920207
O O5 0.575427 0.027556 0.670330
O O6 0.633501 0.903977 0.668263
O O7 0.038541 0.497158 0.853853
O O8 0.719669 0.432047 0.884953
O O9 0.973439 0.335053 0.859015
O O10 0.989503 0.418717 0.004389
O O11 0.048709 0.831259 0.142498
O O12 0.767182 0.914189 0.143933
O O13 0.008314 0.250000 0.000000
O O14 0.553249 0.926581 0.006756
#
# Coordination Sequence:
#
# PCOD9437696 Si02
#       7
#     8   4   8   8   8   8   8
#     4  11  22  41  64  96 128 170 230 273 317 393
#     4  12  24  40  62 102 136 166 220 272 326 402
#     4  10  20  36  63  92 124 169 215 267 332 397
#     4   9  19  37  62  89 119 169 225 258 316 397
#     4   9  19  38  61  87 123 168 221 267 322 392
#     4  11  23  44  70  92 131 180 220 272 325 394
#     4  12  24  41  68  99 135 174 214 274 342 387
#
# _framework density 27.922574000000001
#
# number of rings (size 3 to 8) (size 9 to 14) (size 15 to 20)
#    0.000    1.538    3.077    3.692    0.000    3.692 
#    1.385    0.000    0.000    2.769    0.000    0.000 
#    0.000    0.000    0.000    0.000    0.000    0.000 
#
# Total GULP energy -289637.906865 kJ/mol
# GULP energy per Si atom -5569.959747 kJ/mol
# Density = 2.785902 g / cm^3
# Si number density = 27.922574 Si / 1000 Ang^3
#
#
#
# Elastic Constant Matrix: (Units=GPa)
#
#
# Indices 1 2 3 4 5 6 
#
# 1 127.6104 17.1433 -32.3506 0.0000 0.0000 0.0000
# 2 17.1433 266.7288 12.3658 0.0000 0.0000 0.0000
# 3 -32.3506 12.3658 135.6939 0.0000 0.0000 0.0000
# 4 0.0000 0.0000 0.0000 50.3928 0.0000 0.0000
# 5 0.0000 0.0000 0.0000 0.0000 -293.2733 0.0000
# 6 0.0000 0.0000 0.0000 0.0000 0.0000 33.2920
#
#
#
# Elastic Compliance Matrix: (Units=1/GPa)
#
#
# Indices 1 2 3 4 5 6 
#
# 1 0.008448 -0.000639 0.002072 0.000000 0.000000 0.000000
# 2 -0.000639 0.003813 -0.000500 0.000000 0.000000 0.000000
# 3 0.002072 -0.000500 0.007909 0.000000 0.000000 0.000000
# 4 0.000000 0.000000 0.000000 0.019844 0.000000 0.000000
# 5 0.000000 0.000000 0.000000 0.000000 -0.003410 0.000000
# 6 0.000000 0.000000 0.000000 0.000000 0.000000 0.030037
#
#
# Mechanical properties :
#
#
# Convention : Reuss Voigt Hill
#
# Bulk Modulus (GPa) = 45.37896 58.26113 51.82004
# Shear Modulus (GPa) = 69.32847 -6.39272 31.46787
#
# Velocity S-wave (km/s) = 4.98826 -1.51473 3.36068
# Velocity P-wave (km/s) = 7.03306 4.22508 5.80152
#
# Compressibility (1/GPa) = 0.02203664
#
# Stress axis : x y z
#
# Youngs Moduli (GPa) = 118.37796 262.23521 126.43652
#
# Poissons Ratio (x) = 0.16757 -0.26200
# Poissons Ratio (y) = 0.07564 0.06320
# Poissons Ratio (z) = -0.24530 0.13108
#
# Static dielectric constant tensor:
#      x y z
#    x 2.228470 0.000000 0.000000 
#    y 0.000000 2.275050 0.000000 
#    z 0.000000 0.000000 2.081850 
# 
# From -- ./inp_files/21187.got.cif
#   From: 2010.05.17/outbox.cif.g08.bks.cpg/sg57_11_cif.got.tgz:21187.got - 2010.06.03 13:58:18.
