data_PCOD9437782
_publ_section_title
;
Structure prediction by ZEFSAII (Michael W. Deem and Ramdas Pophale) SiO2 
 PCOD9437782
Probable space group: P B C M
;
_chemical_formula_sum "Si O2"
_cell_formula_units_Z 48
_cell_length_a 31.497149
_cell_length_b 9.341861
_cell_length_c 8.610749
_cell_angle_alpha 90.000000
_cell_angle_beta 90.000000
_cell_angle_gamma 90.000000
_cell_volume 2533.643903
_symmetry_space_group_name_H-M "P B C M"
_symmetry_group_IT_number 57
_symmetry_cell_setting 'orthorhombic'
loop_
_space_group_symop_operation_xyz
x,y,z
-x,-y,1/2+z
x,1/2-y,-z
-x,1/2+y,1/2-z
-x,-y,-z
x,y,1/2-z
-x,1/2+y,z
x,1/2-y,1/2+z
loop_
_atom_site_type_symbol
_atom_site_label
_atom_site_fract_x
_atom_site_fract_y
_atom_site_fract_z
Si Si1 0.786085 0.908710 0.062923
Si Si2 0.376532 0.089378 0.562698
Si Si3 0.539957 0.411408 0.563192
Si Si4 0.117038 0.090094 0.936875
Si Si5 0.960514 0.409835 0.064656
Si Si6 0.294230 0.909659 0.937804
O O1 0.784825 0.902489 0.250000
O O2 0.834373 0.947592 0.018479
O O3 0.750072 0.018871 0.010485
O O4 0.777080 0.750000 0.000000
O O5 0.379146 0.250000 0.500000
O O6 0.376288 0.096000 0.750000
O O7 0.417143 0.994727 0.515645
O O8 0.333440 0.009784 0.512293
O O9 0.539712 0.250000 0.500000
O O10 0.500000 0.500000 0.500000
O O11 0.538236 0.407291 0.750000
O O12 0.113781 0.090277 0.750000
O O13 0.108883 0.250000 0.000000
O O14 0.082750 0.983781 0.007468
O O15 0.962033 0.408446 0.250000
O O16 0.963086 0.250000 0.000000
O O17 0.000000 0.500000 0.000000
O O18 0.294418 0.905048 0.750000
O O19 0.299089 0.750000 0.000000
#
# Coordination Sequence:
#
# PCOD9437782 Si02
#       6
#     8   8   8   8   8   8
#     4   9  19  35  57  83 113 147 187 229 274 328
#     4  10  22  38  58  83 112 145 187 233 282 336
#     4  11  23  39  59  85 115 150 189 234 283 338
#     4  10  20  37  59  86 117 151 189 232 279 333
#     4  12  25  42  62  86 115 150 189 233 282 335
#     4  10  21  37  55  81 113 147 186 231 279 332
#
# _framework density 18.945045
#
# number of rings (size 3 to 8) (size 9 to 14) (size 15 to 20)
#    0.000    1.667    0.000    4.500    0.000    5.333 
#    0.000    1.667    0.000    0.000    0.000    0.000 
#    0.000    0.000    0.000    0.000    0.000    0.000 
#
# Total GULP energy -268319.906900 kJ/mol
# GULP energy per Si atom -5589.998060 kJ/mol
# Density = 1.890193 g / cm^3
# Si number density = 18.945045 Si / 1000 Ang^3
#
#
#
# Elastic Constant Matrix: (Units=GPa)
#
#
# Indices 1 2 3 4 5 6 
#
# 1 161.3255 128.2165 51.4250 0.0000 0.0000 0.0000
# 2 128.2165 196.3231 50.4571 0.0000 0.0000 0.0000
# 3 51.4250 50.4571 64.6355 0.0000 0.0000 0.0000
# 4 0.0000 0.0000 0.0000 40.4739 0.0000 0.0000
# 5 0.0000 0.0000 0.0000 0.0000 24.7135 0.0000
# 6 0.0000 0.0000 0.0000 0.0000 0.0000 35.5553
#
#
#
# Elastic Compliance Matrix: (Units=1/GPa)
#
#
# Indices 1 2 3 4 5 6 
#
# 1 0.014088 -0.007906 -0.005037 0.000000 0.000000 0.000000
# 2 -0.007906 0.010809 -0.002148 0.000000 0.000000 0.000000
# 3 -0.005037 -0.002148 0.021155 0.000000 0.000000 0.000000
# 4 0.000000 0.000000 0.000000 0.024707 0.000000 0.000000
# 5 0.000000 0.000000 0.000000 0.000000 0.040464 0.000000
# 6 0.000000 0.000000 0.000000 0.000000 0.000000 0.028125
#
#
# Mechanical properties :
#
#
# Convention : Reuss Voigt Hill
#
# Bulk Modulus (GPa) = 63.00777 98.05347 80.53062
# Shear Modulus (GPa) = 28.60104 32.96093 30.78099
#
# Velocity S-wave (km/s) = 3.88968 4.17564 4.03519
# Velocity P-wave (km/s) = 7.31459 8.66701 8.01936
#
# Compressibility (1/GPa) = 0.01587106
#
# Stress axis : x y z
#
# Youngs Moduli (GPa) = 70.98465 92.51578 47.26978
#
# Poissons Ratio (x) = 0.73143 0.23808
# Poissons Ratio (y) = 0.56120 0.10153
# Poissons Ratio (z) = 0.35752 0.19870
#
# Static dielectric constant tensor:
#      x y z
#    x 1.658660 0.000000 0.000000 
#    y 0.000000 1.602370 0.000000 
#    z 0.000000 0.000000 1.643520 
# 
# From -- ./inp_files/9882.got.cif
#   From: 2010.05.17/outbox.cif.g08.bks.cpg/sg57_5_cif.got.tgz:9882.got - 2010.06.03 13:58:18.
