data_PCOD9437260
_publ_section_title
;
Structure prediction by ZEFSAII (Michael W. Deem and Ramdas Pophale) SiO2 
 PCOD9437260
Probable space group: P B C M
;
_chemical_formula_sum "Si O2"
_cell_formula_units_Z 64
_cell_length_a 24.911277
_cell_length_b 15.775348
_cell_length_c 7.804491
_cell_angle_alpha 90.000000
_cell_angle_beta 90.000000
_cell_angle_gamma 90.000000
_cell_volume 3067.040589
_symmetry_space_group_name_H-M "P B C M"
_symmetry_group_IT_number 57
_symmetry_cell_setting 'orthorhombic'
loop_
_space_group_symop_operation_xyz
x,y,z
-x,-y,1/2+z
x,1/2-y,-z
-x,1/2+y,1/2-z
-x,-y,-z
x,y,1/2-z
-x,1/2+y,z
x,1/2-y,1/2+z
loop_
_atom_site_type_symbol
_atom_site_label
_atom_site_fract_x
_atom_site_fract_y
_atom_site_fract_z
Si Si1 0.055126 0.153978 0.956460
Si Si2 0.669728 0.657874 0.543673
Si Si3 0.067166 0.845830 0.454317
Si Si4 0.134498 0.008606 0.953962
Si Si5 0.744519 0.993644 0.045367
Si Si6 0.561216 0.406376 0.042109
Si Si7 0.555445 0.605324 0.545515
Si Si8 0.324148 0.655712 0.953738
O O1 0.053129 0.147425 0.750000
O O2 0.095891 0.082931 0.023027
O O3 0.993966 0.141194 0.020528
O O4 0.071431 0.250000 0.000000
O O5 0.691779 0.750000 0.500000
O O6 0.667039 0.650081 0.750000
O O7 0.706462 0.581419 0.477467
O O8 0.608734 0.649512 0.475161
O O9 0.083446 0.750000 0.500000
O O10 0.065844 0.852542 0.250000
O O11 0.106345 0.918245 0.520214
O O12 0.138310 0.022750 0.750000
O O13 0.194982 0.009361 0.024225
O O14 0.747794 0.981673 0.250000
O O15 0.715644 0.083022 0.016286
O O16 0.560756 0.403951 0.250000
O O17 0.503799 0.370639 0.979164
O O18 0.615237 0.361420 0.979121
O O19 0.562777 0.504882 0.987954
O O20 0.554387 0.618655 0.750000
O O21 0.326509 0.648613 0.750000
O O22 0.306694 0.750000 0.000000
#
# Coordination Sequence:
#
# PCOD9437260 Si02
#       8
#     8   8   8   8   8   8   8   8
#     4   9  19  35  56  85 118 150 182 222 270 323
#     4  10  21  36  56  80 108 143 181 222 271 325
#     4  10  20  35  57  85 117 149 183 222 271 326
#     4  10  21  37  58  82 111 146 187 231 274 322
#     4  10  22  41  59  78 108 147 188 231 277 322
#     4   9  18  32  53  81 108 137 175 221 272 327
#     4   9  17  32  54  79 109 141 174 217 272 329
#     4  11  23  38  58  82 109 142 184 230 278 333
#
# _framework density 20.867021000000001
#
# number of rings (size 3 to 8) (size 9 to 14) (size 15 to 20)
#    0.000    2.250    1.250    1.125    0.000    4.500 
#    0.000    0.000    0.000    0.000    0.000    0.000 
#    0.000    0.000    0.000    0.000    0.000    0.000 
#
# Total GULP energy -357352.677036 kJ/mol
# GULP energy per Si atom -5583.635579 kJ/mol
# Density = 2.081953 g / cm^3
# Si number density = 20.867021 Si / 1000 Ang^3
#
#
#
# Elastic Constant Matrix: (Units=GPa)
#
#
# Indices 1 2 3 4 5 6 
#
# 1 131.4642 73.5804 1.2804 0.0000 0.0000 0.0000
# 2 73.5804 109.2071 -21.2720 0.0000 0.0000 0.0000
# 3 1.2804 -21.2720 22.9389 0.0000 0.0000 0.0000
# 4 0.0000 0.0000 0.0000 24.4992 0.0000 0.0000
# 5 0.0000 0.0000 0.0000 0.0000 8.9330 0.0000
# 6 0.0000 0.0000 0.0000 0.0000 0.0000 -24.1243
#
#
#
# Elastic Compliance Matrix: (Units=1/GPa)
#
#
# Indices 1 2 3 4 5 6 
#
# 1 0.014510 -0.012124 -0.012053 0.000000 0.000000 0.000000
# 2 -0.012124 0.021306 0.020434 0.000000 0.000000 0.000000
# 3 -0.012053 0.020434 0.063216 0.000000 0.000000 0.000000
# 4 0.000000 0.000000 0.000000 0.040818 0.000000 0.000000
# 5 0.000000 0.000000 0.000000 0.000000 0.111945 0.000000
# 6 0.000000 0.000000 0.000000 0.000000 0.000000 -0.041452
#
#
# Mechanical properties :
#
#
# Convention : Reuss Voigt Hill
#
# Bulk Modulus (GPa) = 10.92330 41.19867 26.06099
# Shear Modulus (GPa) = 20.13343 15.86299 17.99821
#
# Velocity S-wave (km/s) = 3.10956 2.76015 2.94005
# Velocity P-wave (km/s) = 4.25894 5.47213 4.90320
#
# Compressibility (1/GPa) = 0.09154743
#
# Stress axis : x y z
#
# Youngs Moduli (GPa) = 68.91893 46.93512 15.81869
#
# Poissons Ratio (x) = 0.56904 0.19066
# Poissons Ratio (y) = 0.83557 -0.32325
# Poissons Ratio (z) = 0.83067 -0.95909
#
# Static dielectric constant tensor:
#      x y z
#    x 1.774760 0.000000 0.000000 
#    y 0.000000 1.456690 0.000000 
#    z 0.000000 0.000000 1.785620 
# 
# From -- ./inp_files/9406.got.cif
#   From: 2010.05.17/outbox.cif.g08.bks.cpg/sg57_5_cif.got.tgz:9406.got - 2010.06.03 13:58:18.
