data_PCOD9437019
_publ_section_title
;
Structure prediction by ZEFSAII (Michael W. Deem and Ramdas Pophale) SiO2 
 PCOD9437019
Probable space group: P B C M
;
_chemical_formula_sum "Si O2"
_cell_formula_units_Z 48
_cell_length_a 5.447446
_cell_length_b 20.157604
_cell_length_c 18.385199
_cell_angle_alpha 90.000000
_cell_angle_beta 90.000000
_cell_angle_gamma 90.000000
_cell_volume 2018.831991
_symmetry_space_group_name_H-M "P B C M"
_symmetry_group_IT_number 57
_symmetry_cell_setting 'orthorhombic'
loop_
_space_group_symop_operation_xyz
x,y,z
-x,-y,1/2+z
x,1/2-y,-z
-x,1/2+y,1/2-z
-x,-y,-z
x,y,1/2-z
-x,1/2+y,z
x,1/2-y,1/2+z
loop_
_atom_site_type_symbol
_atom_site_label
_atom_site_fract_x
_atom_site_fract_y
_atom_site_fract_z
Si Si1 0.718009 0.345520 0.831549
Si Si2 0.579970 0.518673 0.330539
Si Si3 0.957185 0.912962 0.571377
Si Si4 0.555437 0.716558 0.662913
Si Si5 0.947006 0.355052 0.161789
Si Si6 0.776699 0.955490 0.431059
O O1 0.814664 0.327640 0.750000
O O2 0.612177 0.419875 0.826611
O O3 0.505725 0.293526 0.850102
O O4 0.913679 0.348733 0.896327
O O5 0.611171 0.490857 0.250000
O O6 0.818238 0.554288 0.360977
O O7 0.468215 0.464620 0.384609
O O8 0.773646 0.911036 0.503365
O O9 0.154562 0.968895 0.546579
O O10 0.559090 0.708202 0.750000
O O11 0.820970 0.691268 0.639048
O O12 0.312786 0.676102 0.638337
O O13 0.948329 0.361356 0.250000
O O14 0.021005 0.423308 0.122374
#
# Coordination Sequence:
#
# PCOD9437019 Si02
#       6
#     8   8   8   8   8   8
#     4   9  19  36  58  86 114 148 201 254 295 354
#     4  10  20  34  59  88 113 149 200 253 302 356
#     4  10  21  37  59  82 117 161 195 245 316 365
#     4   9  20  37  61  88 118 155 203 252 303 353
#     4  10  21  38  61  89 119 160 202 251 305 365
#     4  10  22  38  55  84 123 154 199 246 308 377
#
# _framework density 23.776123999999999
#
# number of rings (size 3 to 8) (size 9 to 14) (size 15 to 20)
#    0.000    2.333    0.000    1.500    4.667    2.000 
#    0.000    0.833    0.000    0.000    0.000    0.000 
#    0.000    0.000    0.000    0.000    0.000    0.000 
#
# Total GULP energy -267982.400491 kJ/mol
# GULP energy per Si atom -5582.966677 kJ/mol
# Density = 2.372201 g / cm^3
# Si number density = 23.776124 Si / 1000 Ang^3
#
#
#
# Elastic Constant Matrix: (Units=GPa)
#
#
# Indices 1 2 3 4 5 6 
#
# 1 82.2418 24.2193 11.3016 0.0000 0.0000 0.0000
# 2 24.2193 65.5831 25.6950 0.0000 0.0000 0.0000
# 3 11.3016 25.6950 55.1268 0.0000 0.0000 0.0000
# 4 0.0000 0.0000 0.0000 10.2372 0.0000 0.0000
# 5 0.0000 0.0000 0.0000 0.0000 -3.9565 0.0000
# 6 0.0000 0.0000 0.0000 0.0000 0.0000 35.1836
#
#
#
# Elastic Compliance Matrix: (Units=1/GPa)
#
#
# Indices 1 2 3 4 5 6 
#
# 1 0.013657 -0.004828 -0.000549 0.000000 0.000000 0.000000
# 2 -0.004828 0.020361 -0.008501 0.000000 0.000000 0.000000
# 3 -0.000549 -0.008501 0.022215 0.000000 0.000000 0.000000
# 4 0.000000 0.000000 0.000000 0.097683 0.000000 0.000000
# 5 0.000000 0.000000 0.000000 0.000000 -0.252747 0.000000
# 6 0.000000 0.000000 0.000000 0.000000 0.000000 0.028422
#
#
# Mechanical properties :
#
#
# Convention : Reuss Voigt Hill
#
# Bulk Modulus (GPa) = 35.11672 36.15373 35.63522
# Shear Modulus (GPa) = -150.78172 17.74190 -66.51991
#
# Velocity S-wave (km/s) = -7.97214 2.73464 -5.29512
# Velocity P-wave (km/s) = 8.36290 5.02095 4.72907
#
# Compressibility (1/GPa) = 0.02847646
#
# Stress axis : x y z
#
# Youngs Moduli (GPa) = 73.22491 49.11273 45.01489
#
# Poissons Ratio (x) = 0.23712 0.02473
# Poissons Ratio (y) = 0.35353 0.38266
# Poissons Ratio (z) = 0.04023 0.41750
#
# Static dielectric constant tensor:
#      x y z
#    x 1.932230 0.000000 0.000000 
#    y 0.000000 1.956100 0.000000 
#    z 0.000000 0.000000 1.922660 
# 
# From -- ./inp_files/20198.got.cif
#   From: 2010.05.17/outbox.cif.g08.bks.cpg/sg57_11_cif.got.tgz:20198.got - 2010.06.03 13:58:18.
