data_PCOD9437686
_publ_section_title
;
Structure prediction by ZEFSAII (Michael W. Deem and Ramdas Pophale) SiO2 
 PCOD9437686
Probable space group: P B C M
;
_chemical_formula_sum "Si O2"
_cell_formula_units_Z 60
_cell_length_a 13.735648
_cell_length_b 10.289392
_cell_length_c 21.917081
_cell_angle_alpha 90.000000
_cell_angle_beta 90.000000
_cell_angle_gamma 90.000000
_cell_volume 3097.573202
_symmetry_space_group_name_H-M "P B C M"
_symmetry_group_IT_number 57
_symmetry_cell_setting 'orthorhombic'
loop_
_space_group_symop_operation_xyz
x,y,z
-x,-y,1/2+z
x,1/2-y,-z
-x,1/2+y,1/2-z
-x,-y,-z
x,y,1/2-z
-x,1/2+y,z
x,1/2-y,1/2+z
loop_
_atom_site_type_symbol
_atom_site_label
_atom_site_fract_x
_atom_site_fract_y
_atom_site_fract_z
Si Si1 0.280702 0.750000 0.000000
Si Si2 0.358493 0.406976 0.124503
Si Si3 0.428219 0.609651 0.819474
Si Si4 0.614080 0.977208 0.510001
Si Si5 0.942104 0.262302 0.178972
Si Si6 0.735061 0.186805 0.364847
Si Si7 0.309882 0.123321 0.362089
Si Si8 0.095012 0.450469 0.675076
O O1 0.342695 0.878280 0.013877
O O2 0.232627 0.786436 0.935255
O O3 0.472205 0.400610 0.142747
O O4 0.349195 0.407959 0.051234
O O5 0.309099 0.542809 0.143802
O O6 0.313008 0.276030 0.151469
O O7 0.350468 0.711719 0.847165
O O8 0.377831 0.468435 0.821116
O O9 0.353720 0.401664 0.929659
O O10 0.500000 0.000000 0.500000
O O11 0.966637 0.273902 0.250000
O O12 0.832108 0.210478 0.173338
O O13 0.943147 0.408589 0.154478
O O14 0.020093 0.160397 0.154294
O O15 0.449880 0.852332 0.250000
O O16 0.200736 0.073118 0.353214
O O17 0.103794 0.450900 0.750000
#
# Coordination Sequence:
#
# PCOD9437686 Si02
#       8
#     4   8   8   8   8   8   8   8
#     4  10  20  36  62  86 114 162 210 250 300 372
#     4  11  26  37  59  96 128 167 211 258 311 377
#     4  12  24  41  60  87 129 175 213 255 317 379
#     4  11  21  36  62  88 122 163 212 253 304 366
#     4  10  21  40  66  91 120 159 209 265 320 383
#     4  11  22  41  63  91 125 168 213 260 320 377
#     4  12  23  40  63  91 129 166 208 265 315 385
#     4  10  22  40  65  93 121 162 212 266 328 381
#
# _framework density 19.370001999999999
#
# number of rings (size 3 to 8) (size 9 to 14) (size 15 to 20)
#    0.000    1.067    4.000    2.000    5.600    3.200 
#    0.000    0.000    2.933    2.400    0.000    0.000 
#    0.000    0.000    0.000    0.000    0.000    0.000 
#
# Total GULP energy -334896.672856 kJ/mol
# GULP energy per Si atom -5581.611214 kJ/mol
# Density = 1.932592 g / cm^3
# Si number density = 19.370002 Si / 1000 Ang^3
#
#
#
# Elastic Constant Matrix: (Units=GPa)
#
#
# Indices 1 2 3 4 5 6 
#
# 1 81.2256 37.0500 9.2446 0.0000 0.0000 0.0000
# 2 37.0500 137.0206 19.4437 0.0000 0.0000 0.0000
# 3 9.2446 19.4437 57.9844 0.0000 0.0000 0.0000
# 4 0.0000 0.0000 0.0000 18.5398 0.0000 0.0000
# 5 0.0000 0.0000 0.0000 0.0000 50.9900 0.0000
# 6 0.0000 0.0000 0.0000 0.0000 0.0000 30.7819
#
#
#
# Elastic Compliance Matrix: (Units=1/GPa)
#
#
# Indices 1 2 3 4 5 6 
#
# 1 0.014100 -0.003668 -0.001018 0.000000 0.000000 0.000000
# 2 -0.003668 0.008617 -0.002305 0.000000 0.000000 0.000000
# 3 -0.001018 -0.002305 0.018181 0.000000 0.000000 0.000000
# 4 0.000000 0.000000 0.000000 0.053938 0.000000 0.000000
# 5 0.000000 0.000000 0.000000 0.000000 0.019612 0.000000
# 6 0.000000 0.000000 0.000000 0.000000 0.000000 0.032487
#
#
# Mechanical properties :
#
#
# Convention : Reuss Voigt Hill
#
# Bulk Modulus (GPa) = 37.15154 45.30079 41.22617
# Shear Modulus (GPa) = 29.43091 34.09515 31.76303
#
# Velocity S-wave (km/s) = 3.90219 4.20003 4.05384
# Velocity P-wave (km/s) = 6.28684 6.85260 6.57581
#
# Compressibility (1/GPa) = 0.02691678
#
# Stress axis : x y z
#
# Youngs Moduli (GPa) = 70.91949 116.04815 55.00200
#
# Poissons Ratio (x) = 0.42570 0.05599
# Poissons Ratio (y) = 0.26015 0.12676
# Poissons Ratio (z) = 0.07220 0.26746
#
# Static dielectric constant tensor:
#      x y z
#    x 1.627860 0.000000 0.000000 
#    y 0.000000 1.672030 0.000000 
#    z 0.000000 0.000000 1.418390 
# 
# From -- ./inp_files/27437.got.cif
#   From: 2010.05.17/outbox.cif.g08.bks.cpg/sg57_14_cif.got.tgz:27437.got - 2010.06.03 13:58:18.
