data_PCOD9437104
_publ_section_title
;
Structure prediction by ZEFSAII (Michael W. Deem and Ramdas Pophale) SiO2 
 PCOD9437104
Probable space group: P B C M
;
_chemical_formula_sum "Si O2"
_cell_formula_units_Z 64
_cell_length_a 16.708529
_cell_length_b 25.214731
_cell_length_c 8.370152
_cell_angle_alpha 90.000000
_cell_angle_beta 90.000000
_cell_angle_gamma 90.000000
_cell_volume 3526.353945
_symmetry_space_group_name_H-M "P B C M"
_symmetry_group_IT_number 57
_symmetry_cell_setting 'orthorhombic'
loop_
_space_group_symop_operation_xyz
x,y,z
-x,-y,1/2+z
x,1/2-y,-z
-x,1/2+y,1/2-z
-x,-y,-z
x,y,1/2-z
-x,1/2+y,z
x,1/2-y,1/2+z
loop_
_atom_site_type_symbol
_atom_site_label
_atom_site_fract_x
_atom_site_fract_y
_atom_site_fract_z
Si Si1 0.107982 0.386048 0.444486
Si Si2 0.370008 0.103394 0.557236
Si Si3 0.252083 0.309100 0.441545
Si Si4 0.775241 0.524633 0.944533
Si Si5 0.788106 0.192596 0.940980
Si Si6 0.972815 0.308064 0.443279
Si Si7 0.707390 0.414403 0.943444
Si Si8 0.470879 0.943042 0.560344
O O1 0.104515 0.388791 0.250000
O O2 0.175445 0.343279 0.491161
O O3 0.145998 0.442401 0.498001
O O4 0.025547 0.358518 0.497964
O O5 0.375177 0.101136 0.750000
O O6 0.330047 0.158471 0.506334
O O7 0.305021 0.057912 0.511015
O O8 0.457273 0.095441 0.487684
O O9 0.249026 0.250000 0.500000
O O10 0.251632 0.309500 0.250000
O O11 0.776851 0.524984 0.750000
O O12 0.762926 0.464074 0.996586
O O13 0.788410 0.192981 0.750000
O O14 0.880703 0.187212 0.996910
O O15 0.758438 0.250000 0.000000
O O16 0.738769 0.142146 0.999713
O O17 0.003123 0.250000 0.500000
O O18 0.974869 0.307323 0.250000
O O19 0.707369 0.414430 0.750000
O O20 0.616775 0.426477 0.999931
O O21 0.464478 0.946189 0.750000
O O22 0.500000 0.000000 0.500000
#
# Coordination Sequence:
#
# PCOD9437104 Si02
#       8
#     8   8   8   8   8   8   8   8
#     4   8  14  26  47  73 100 134 171 205 245 294
#     4   9  17  32  49  70 100 134 171 207 243 290
#     4   9  17  28  46  69  99 136 171 204 243 295
#     4   8  14  28  49  72 101 135 169 201 240 298
#     4  10  21  37  56  77 102 131 167 214 260 304
#     4   9  17  30  50  75 100 130 171 214 255 298
#     4  10  20  35  55  77 101 133 171 208 250 305
#     4  11  21  33  53  79 103 128 164 208 249 297
#
# _framework density 18.149058
#
# number of rings (size 3 to 8) (size 9 to 14) (size 15 to 20)
#    0.000    2.750    1.250    2.625    0.000    2.000 
#    0.000    1.250    0.000    3.000    0.000    0.000 
#    0.000    0.000    0.000    0.000    0.000    0.000 
#
# Total GULP energy -356560.862029 kJ/mol
# GULP energy per Si atom -5571.263469 kJ/mol
# Density = 1.810775 g / cm^3
# Si number density = 18.149058 Si / 1000 Ang^3
#
#
#
# Elastic Constant Matrix: (Units=GPa)
#
#
# Indices 1 2 3 4 5 6 
#
# 1 82.9617 58.9403 11.8952 0.0000 0.0000 0.0000
# 2 58.9403 137.3028 15.4296 0.0000 0.0000 0.0000
# 3 11.8952 15.4296 8.3636 0.0000 0.0000 0.0000
# 4 0.0000 0.0000 0.0000 26.7508 0.0000 0.0000
# 5 0.0000 0.0000 0.0000 0.0000 14.2772 0.0000
# 6 0.0000 0.0000 0.0000 0.0000 0.0000 28.6832
#
#
#
# Elastic Compliance Matrix: (Units=1/GPa)
#
#
# Indices 1 2 3 4 5 6 
#
# 1 0.018703 -0.006357 -0.014872 0.000000 0.000000 0.000000
# 2 -0.006357 0.011349 -0.011895 0.000000 0.000000 0.000000
# 3 -0.014872 -0.011895 0.162663 0.000000 0.000000 0.000000
# 4 0.000000 0.000000 0.000000 0.037382 0.000000 0.000000
# 5 0.000000 0.000000 0.000000 0.000000 0.070042 0.000000
# 6 0.000000 0.000000 0.000000 0.000000 0.000000 0.034864
#
#
# Mechanical properties :
#
#
# Convention : Reuss Voigt Hill
#
# Bulk Modulus (GPa) = 7.90729 44.57315 26.24022
# Shear Modulus (GPa) = 11.27634 23.43311 17.35472
#
# Velocity S-wave (km/s) = 2.49533 3.59715 3.09566
# Velocity P-wave (km/s) = 3.55929 6.47035 5.22178
#
# Compressibility (1/GPa) = 0.12646560
#
# Stress axis : x y z
#
# Youngs Moduli (GPa) = 53.46837 88.11393 6.14768
#
# Poissons Ratio (x) = 0.56017 0.09143
# Poissons Ratio (y) = 0.33991 0.07313
# Poissons Ratio (z) = 0.79517 1.04815
#
# Static dielectric constant tensor:
#      x y z
#    x 1.632520 0.000000 0.000000 
#    y 0.000000 1.629210 0.000000 
#    z 0.000000 0.000000 1.624970 
# 
# From -- ./inp_files/5590.got.cif
#   From: 2010.05.17/outbox.cif.g08.bks.cpg/sg57_3_cif.got.tgz:5590.got - 2010.06.03 13:58:18.
