data_PCOD9437589
_publ_section_title
;
Structure prediction by ZEFSAII (Michael W. Deem and Ramdas Pophale) SiO2 
 PCOD9437589
Probable space group: P B C M
;
_chemical_formula_sum "Si O2"
_cell_formula_units_Z 32
_cell_length_a 9.437116
_cell_length_b 11.868847
_cell_length_c 11.906686
_cell_angle_alpha 90.000000
_cell_angle_beta 90.000000
_cell_angle_gamma 90.000000
_cell_volume 1333.640346
_symmetry_space_group_name_H-M "P B C M"
_symmetry_group_IT_number 57
_symmetry_cell_setting 'orthorhombic'
loop_
_space_group_symop_operation_xyz
x,y,z
-x,-y,1/2+z
x,1/2-y,-z
-x,1/2+y,1/2-z
-x,-y,-z
x,y,1/2-z
-x,1/2+y,z
x,1/2-y,1/2+z
loop_
_atom_site_type_symbol
_atom_site_label
_atom_site_fract_x
_atom_site_fract_y
_atom_site_fract_z
Si Si1 0.068261 0.495200 0.874568
Si Si2 0.683454 0.369826 0.442090
Si Si3 0.440063 0.992590 0.866889
Si Si4 0.308269 0.307436 0.624115
O O1 0.994385 0.496479 0.750000
O O2 0.177855 0.600807 0.873834
O O3 0.167418 0.384334 0.874521
O O4 0.000000 0.500000 0.000000
O O5 0.687603 0.250000 0.500000
O O6 0.670651 0.465804 0.537885
O O7 0.536295 0.395962 0.378383
O O8 0.365165 0.988998 0.750000
O O9 0.555046 0.890911 0.871488
O O10 0.311034 0.250000 0.500000
O O11 0.307168 0.249973 0.750000
#
# Coordination Sequence:
#
# PCOD9437589 Si02
#       4
#     8   8   8   8
#     4  10  23  42  59  80 115 154 197 250 300 349
#     4  10  20  36  59  86 117 155 198 243 294 349
#     4   9  19  35  55  85 124 156 187 234 291 353
#     4   9  18  35  58  84 115 151 189 235 292 351
#
# _framework density 23.994475000000001
#
# number of rings (size 3 to 8) (size 9 to 14) (size 15 to 20)
#    0.000    2.500    0.000    3.000    0.000    5.000 
#    0.000   18.750    0.000    0.000    0.000    0.000 
#    0.000    0.000    0.000    0.000    0.000    0.000 
#
# Total GULP energy -178172.132214 kJ/mol
# GULP energy per Si atom -5567.879132 kJ/mol
# Density = 2.393986 g / cm^3
# Si number density = 23.994475 Si / 1000 Ang^3
#
#
#
# Elastic Constant Matrix: (Units=GPa)
#
#
# Indices 1 2 3 4 5 6 
#
# 1 66.7047 12.0756 48.4541 0.0000 0.0000 0.0000
# 2 12.0756 94.3645 44.7578 0.0000 0.0000 0.0000
# 3 48.4541 44.7578 272.3626 0.0000 0.0000 0.0000
# 4 0.0000 0.0000 0.0000 28.2572 0.0000 0.0000
# 5 0.0000 0.0000 0.0000 0.0000 28.5877 0.0000
# 6 0.0000 0.0000 0.0000 0.0000 0.0000 13.8696
#
#
#
# Elastic Compliance Matrix: (Units=1/GPa)
#
#
# Indices 1 2 3 4 5 6 
#
# 1 0.017274 -0.000817 -0.002939 0.000000 0.000000 0.000000
# 2 -0.000817 0.011532 -0.001750 0.000000 0.000000 0.000000
# 3 -0.002939 -0.001750 0.004482 0.000000 0.000000 0.000000
# 4 0.000000 0.000000 0.000000 0.035389 0.000000 0.000000
# 5 0.000000 0.000000 0.000000 0.000000 0.034980 0.000000
# 6 0.000000 0.000000 0.000000 0.000000 0.000000 0.072100
#
#
# Mechanical properties :
#
#
# Convention : Reuss Voigt Hill
#
# Bulk Modulus (GPa) = 44.88895 71.55631 58.22263
# Shear Modulus (GPa) = 25.74754 36.01918 30.88336
#
# Velocity S-wave (km/s) = 3.27932 3.87866 3.59151
# Velocity P-wave (km/s) = 5.75215 7.06721 6.44332
#
# Compressibility (1/GPa) = 0.02227720
#
# Stress axis : x y z
#
# Youngs Moduli (GPa) = 57.89018 86.71810 223.11694
#
# Poissons Ratio (x) = 0.07081 0.65572
# Poissons Ratio (y) = 0.04727 0.39040
# Poissons Ratio (z) = 0.17013 0.15173
#
# Static dielectric constant tensor:
#      x y z
#    x 1.905720 0.000000 0.000000 
#    y 0.000000 1.966220 0.000000 
#    z 0.000000 0.000000 3.796060 
# 
# From -- ./inp_files/12421.got.cif
#   From: 2010.05.17/outbox.cif.g08.bks.cpg/sg57_7_cif.got.tgz:12421.got - 2010.06.03 13:58:18.
