data_PCOD9437896
_publ_section_title
;
Structure prediction by ZEFSAII (Michael W. Deem and Ramdas Pophale) SiO2 
 PCOD9437896
Probable space group: P B C M
;
_chemical_formula_sum "Si O2"
_cell_formula_units_Z 48
_cell_length_a 6.692224
_cell_length_b 18.702407
_cell_length_c 16.738982
_cell_angle_alpha 90.000000
_cell_angle_beta 90.000000
_cell_angle_gamma 90.000000
_cell_volume 2095.062654
_symmetry_space_group_name_H-M "P B C M"
_symmetry_group_IT_number 57
_symmetry_cell_setting 'orthorhombic'
loop_
_space_group_symop_operation_xyz
x,y,z
-x,-y,1/2+z
x,1/2-y,-z
-x,1/2+y,1/2-z
-x,-y,-z
x,y,1/2-z
-x,1/2+y,z
x,1/2-y,1/2+z
loop_
_atom_site_type_symbol
_atom_site_label
_atom_site_fract_x
_atom_site_fract_y
_atom_site_fract_z
Si Si1 0.317146 0.622023 0.630752
Si Si2 0.984179 0.238378 0.876130
Si Si3 0.293658 0.141680 0.158762
Si Si4 0.642395 0.321289 0.960833
Si Si5 0.041552 0.488011 0.840722
Si Si6 0.777984 0.608295 0.844030
O O1 0.203095 0.693528 0.660513
O O2 0.320060 0.625998 0.534227
O O3 0.200662 0.552513 0.658991
O O4 0.544335 0.619253 0.655825
O O5 0.856584 0.293224 0.929701
O O6 0.153124 0.288148 0.837706
O O7 0.116095 0.168362 0.898662
O O8 0.349674 0.122371 0.250000
O O9 0.492081 0.152220 0.106660
O O10 0.152955 0.079363 0.122376
O O11 0.544952 0.250000 0.000000
O O12 0.991667 0.465176 0.750000
O O13 0.845965 0.529261 0.872070
O O14 0.842877 0.616879 0.750000
#
# Coordination Sequence:
#
# PCOD9437896 Si02
#       6
#     8   8   8   8   8   8
#     4  10  21  38  62  88 119 160 201 247 301 356
#     4  10  21  36  56  85 119 154 196 243 293 348
#     4  11  24  41  63  91 123 159 198 245 301 358
#     4  10  23  40  60  89 124 157 199 251 300 352
#     4   9  21  40  60  89 125 158 199 247 296 355
#     4  10  20  37  63  90 118 158 204 246 292 353
#
# _framework density 22.911010000000001
#
# number of rings (size 3 to 8) (size 9 to 14) (size 15 to 20)
#    0.000    2.000    0.000    3.000    0.000   12.667 
#    0.000    7.500    0.000    0.000    0.000    0.000 
#    0.000    0.000    0.000    0.000    0.000    0.000 
#
# Total GULP energy -267383.879485 kJ/mol
# GULP energy per Si atom -5570.497489 kJ/mol
# Density = 2.285886 g / cm^3
# Si number density = 22.911010 Si / 1000 Ang^3
#
#
#
# Elastic Constant Matrix: (Units=GPa)
#
#
# Indices 1 2 3 4 5 6 
#
# 1 99.9686 -10.7801 19.9139 0.0000 0.0000 0.0000
# 2 -10.7801 53.1581 0.3599 0.0000 0.0000 0.0000
# 3 19.9139 0.3599 64.4271 0.0000 0.0000 0.0000
# 4 0.0000 0.0000 0.0000 13.5712 0.0000 0.0000
# 5 0.0000 0.0000 0.0000 0.0000 32.6984 0.0000
# 6 0.0000 0.0000 0.0000 0.0000 0.0000 18.3491
#
#
#
# Elastic Compliance Matrix: (Units=1/GPa)
#
#
# Indices 1 2 3 4 5 6 
#
# 1 0.010919 0.002237 -0.003388 0.000000 0.000000 0.000000
# 2 0.002237 0.019271 -0.000799 0.000000 0.000000 0.000000
# 3 -0.003388 -0.000799 0.016573 0.000000 0.000000 0.000000
# 4 0.000000 0.000000 0.000000 0.073686 0.000000 0.000000
# 5 0.000000 0.000000 0.000000 0.000000 0.030583 0.000000
# 6 0.000000 0.000000 0.000000 0.000000 0.000000 0.054499
#
#
# Mechanical properties :
#
#
# Convention : Reuss Voigt Hill
#
# Bulk Modulus (GPa) = 23.32948 26.28235 24.80591
# Shear Modulus (GPa) = 22.34969 26.79440 24.57204
#
# Velocity S-wave (km/s) = 3.12669 3.42350 3.27846
# Velocity P-wave (km/s) = 4.82075 5.20803 5.01813
#
# Compressibility (1/GPa) = 0.04286423
#
# Stress axis : x y z
#
# Youngs Moduli (GPa) = 91.58179 51.89160 60.33929
#
# Poissons Ratio (x) = -0.11610 0.20440
# Poissons Ratio (y) = -0.20489 0.04822
# Poissons Ratio (z) = 0.31024 0.04147
#
# Static dielectric constant tensor:
#      x y z
#    x 1.841390 0.000000 0.000000 
#    y 0.000000 1.865170 0.000000 
#    z 0.000000 0.000000 1.961350 
# 
# From -- ./inp_files/23679.got.cif
#   From: 2010.05.17/outbox.cif.g08.bks.cpg/sg57_12_cif.got.tgz:23679.got - 2010.06.03 13:58:18.
