data_PCOD9437682
_publ_section_title
;
Structure prediction by ZEFSAII (Michael W. Deem and Ramdas Pophale) SiO2 
 PCOD9437682
Probable space group: P B C M
;
_chemical_formula_sum "Si O2"
_cell_formula_units_Z 32
_cell_length_a 5.746200
_cell_length_b 10.565426
_cell_length_c 22.412957
_cell_angle_alpha 90.000000
_cell_angle_beta 90.000000
_cell_angle_gamma 90.000000
_cell_volume 1360.714173
_symmetry_space_group_name_H-M "P B C M"
_symmetry_group_IT_number 57
_symmetry_cell_setting 'orthorhombic'
loop_
_space_group_symop_operation_xyz
x,y,z
-x,-y,1/2+z
x,1/2-y,-z
-x,1/2+y,1/2-z
-x,-y,-z
x,y,1/2-z
-x,1/2+y,z
x,1/2-y,1/2+z
loop_
_atom_site_type_symbol
_atom_site_label
_atom_site_fract_x
_atom_site_fract_y
_atom_site_fract_z
Si Si1 0.091795 0.012369 0.097808
Si Si2 0.538919 0.330744 0.126173
Si Si3 0.710434 0.421904 0.820705
Si Si4 0.749079 0.876611 0.486992
O O1 0.963749 0.092766 0.148022
O O2 0.201864 0.888040 0.126133
O O3 0.286922 0.067413 0.052717
O O4 0.885696 0.976828 0.052487
O O5 0.548656 0.192899 0.155644
O O6 0.389319 0.439430 0.160206
O O7 0.452106 0.328308 0.057238
O O8 0.727330 0.415339 0.750000
O O9 0.898633 0.750000 0.500000
#
# Coordination Sequence:
#
# PCOD9437682 Si02
#       4
#     8   8   8   8
#     4  10  22  39  61  93 128 171 216 263 326 390
#     4  11  23  42  66  95 130 170 217 271 329 385
#     4  11  25  43  65  95 131 175 224 270 324 393
#     4  10  20  36  61  94 129 164 210 267 328 391
#
# _framework density 23.517064999999999
#
# number of rings (size 3 to 8) (size 9 to 14) (size 15 to 20)
#    0.000    1.500    0.000    4.500    0.000    9.000 
#    0.000    0.000    0.000    0.000    0.000    0.000 
#    0.000    0.000    0.000    0.000    0.000    0.000 
#
# Total GULP energy -178457.095885 kJ/mol
# GULP energy per Si atom -5576.784246 kJ/mol
# Density = 2.346354 g / cm^3
# Si number density = 23.517065 Si / 1000 Ang^3
#
#
#
# Elastic Constant Matrix: (Units=GPa)
#
#
# Indices 1 2 3 4 5 6 
#
# 1 54.3343 14.3667 49.0689 0.0000 0.0000 0.0000
# 2 14.3667 110.8602 62.4066 0.0000 0.0000 0.0000
# 3 49.0689 62.4066 202.9907 0.0000 0.0000 0.0000
# 4 0.0000 0.0000 0.0000 29.5555 0.0000 0.0000
# 5 0.0000 0.0000 0.0000 0.0000 26.1680 0.0000
# 6 0.0000 0.0000 0.0000 0.0000 0.0000 37.8797
#
#
#
# Elastic Compliance Matrix: (Units=1/GPa)
#
#
# Indices 1 2 3 4 5 6 
#
# 1 0.023548 0.000185 -0.005749 0.000000 0.000000 0.000000
# 2 0.000185 0.010910 -0.003399 0.000000 0.000000 0.000000
# 3 -0.005749 -0.003399 0.007361 0.000000 0.000000 0.000000
# 4 0.000000 0.000000 0.000000 0.033835 0.000000 0.000000
# 5 0.000000 0.000000 0.000000 0.000000 0.038215 0.000000
# 6 0.000000 0.000000 0.000000 0.000000 0.000000 0.026399
#
#
# Mechanical properties :
#
#
# Convention : Reuss Voigt Hill
#
# Bulk Modulus (GPa) = 41.85459 68.87441 55.36450
# Shear Modulus (GPa) = 30.09209 34.87685 32.48447
#
# Velocity S-wave (km/s) = 3.58101 3.85521 3.72064
# Velocity P-wave (km/s) = 5.91053 7.01195 6.48467
#
# Compressibility (1/GPa) = 0.02389224
#
# Stress axis : x y z
#
# Youngs Moduli (GPa) = 42.46725 91.66203 135.85323
#
# Poissons Ratio (x) = -0.01692 0.78101
# Poissons Ratio (y) = -0.00784 0.46172
# Poissons Ratio (z) = 0.24414 0.31153
#
# Static dielectric constant tensor:
#      x y z
#    x 1.936100 0.000000 0.000000 
#    y 0.000000 2.004860 0.000000 
#    z 0.000000 0.000000 1.859830 
# 
# From -- ./inp_files/23341.got.cif
#   From: 2010.05.17/outbox.cif.g08.bks.cpg/sg57_12_cif.got.tgz:23341.got - 2010.06.03 13:58:18.
