data_PCOD9437296
_publ_section_title
;
Structure prediction by ZEFSAII (Michael W. Deem and Ramdas Pophale) SiO2 
 PCOD9437296
Probable space group: P B C M
;
_chemical_formula_sum "Si O2"
_cell_formula_units_Z 32
_cell_length_a 10.457766
_cell_length_b 19.715127
_cell_length_c 8.647925
_cell_angle_alpha 90.000000
_cell_angle_beta 90.000000
_cell_angle_gamma 90.000000
_cell_volume 1782.996183
_symmetry_space_group_name_H-M "P B C M"
_symmetry_group_IT_number 57
_symmetry_cell_setting 'orthorhombic'
loop_
_space_group_symop_operation_xyz
x,y,z
-x,-y,1/2+z
x,1/2-y,-z
-x,1/2+y,1/2-z
-x,-y,-z
x,y,1/2-z
-x,1/2+y,z
x,1/2-y,1/2+z
loop_
_atom_site_type_symbol
_atom_site_label
_atom_site_fract_x
_atom_site_fract_y
_atom_site_fract_z
Si Si1 0.267440 0.677547 0.064466
Si Si2 0.371512 0.532940 0.435416
Si Si3 0.019425 0.176709 0.564960
Si Si4 0.121483 0.040957 0.434863
O O1 0.254133 0.681955 0.250000
O O2 0.354646 0.612825 0.026175
O O3 0.313158 0.750000 0.000000
O O4 0.126408 0.665351 0.993336
O O5 0.500000 0.500000 0.500000
O O6 0.368674 0.527153 0.250000
O O7 0.249687 0.494183 0.504982
O O8 0.058142 0.250000 0.500000
O O9 0.020769 0.176365 0.750000
O O10 0.105957 0.117035 0.497712
O O11 0.117729 0.040257 0.250000
O O12 0.000000 0.000000 0.500000
#
# Coordination Sequence:
#
# PCOD9437296 Si02
#       4
#     8   8   8   8
#     4  10  20  35  58  86 118 153 197 245 296 357
#     4  11  24  41  61  88 122 160 203 250 303 360
#     4  11  21  35  58  88 122 157 197 248 303 356
#     4  12  23  38  61  89 120 156 200 248 302 357
#
# _framework density 17.947317999999999
#
# number of rings (size 3 to 8) (size 9 to 14) (size 15 to 20)
#    0.000    1.000    2.500    7.500    0.000    3.000 
#    0.000    1.250    0.000    3.000    0.000    0.000 
#    0.000    0.000    0.000    0.000    0.000    0.000 
#
# Total GULP energy -178910.988121 kJ/mol
# GULP energy per Si atom -5590.968379 kJ/mol
# Density = 1.790647 g / cm^3
# Si number density = 17.947318 Si / 1000 Ang^3
#
#
#
# Elastic Constant Matrix: (Units=GPa)
#
#
# Indices 1 2 3 4 5 6 
#
# 1 117.6172 86.9017 58.5923 0.0000 0.0000 0.0000
# 2 86.9017 188.7197 85.7762 0.0000 0.0000 0.0000
# 3 58.5923 85.7762 146.5230 0.0000 0.0000 0.0000
# 4 0.0000 0.0000 0.0000 35.9820 0.0000 0.0000
# 5 0.0000 0.0000 0.0000 0.0000 30.3915 0.0000
# 6 0.0000 0.0000 0.0000 0.0000 0.0000 28.7137
#
#
#
# Elastic Compliance Matrix: (Units=1/GPa)
#
#
# Indices 1 2 3 4 5 6 
#
# 1 0.013475 -0.005118 -0.002393 0.000000 0.000000 0.000000
# 2 -0.005118 0.009163 -0.003318 0.000000 0.000000 0.000000
# 3 -0.002393 -0.003318 0.009724 0.000000 0.000000 0.000000
# 4 0.000000 0.000000 0.000000 0.027792 0.000000 0.000000
# 5 0.000000 0.000000 0.000000 0.000000 0.032904 0.000000
# 6 0.000000 0.000000 0.000000 0.000000 0.000000 0.034827
#
#
# Mechanical properties :
#
#
# Convention : Reuss Voigt Hill
#
# Bulk Modulus (GPa) = 93.40257 101.71114 97.55686
# Shear Modulus (GPa) = 32.65626 33.79009 33.22317
#
# Velocity S-wave (km/s) = 4.27026 4.34376 4.30717
# Velocity P-wave (km/s) = 8.74466 9.05278 8.90005
#
# Compressibility (1/GPa) = 0.01070634
#
# Stress axis : x y z
#
# Youngs Moduli (GPa) = 74.21040 109.12898 102.83814
#
# Poissons Ratio (x) = 0.55847 0.24606
# Poissons Ratio (y) = 0.37978 0.34121
# Poissons Ratio (z) = 0.17756 0.36209
#
# Static dielectric constant tensor:
#      x y z
#    x 1.569630 0.000000 0.000000 
#    y 0.000000 1.650750 0.000000 
#    z 0.000000 0.000000 1.596820 
# 
# From -- ./inp_files/1234.got.cif
#   From: 2010.05.17/outbox.cif.g08.bks.cpg/sg57_1_cif.got.tgz:1234.got - 2010.06.03 13:58:18.
