data_PCOD9437555
_publ_section_title
;
Structure prediction by ZEFSAII (Michael W. Deem and Ramdas Pophale) SiO2 
 PCOD9437555
Probable space group: P B C M
;
_chemical_formula_sum "Si O2"
_cell_formula_units_Z 60
_cell_length_a 11.674752
_cell_length_b 26.182857
_cell_length_c 9.601830
_cell_angle_alpha 90.000000
_cell_angle_beta 90.000000
_cell_angle_gamma 90.000000
_cell_volume 2935.071668
_symmetry_space_group_name_H-M "P B C M"
_symmetry_group_IT_number 57
_symmetry_cell_setting 'orthorhombic'
loop_
_space_group_symop_operation_xyz
x,y,z
-x,-y,1/2+z
x,1/2-y,-z
-x,1/2+y,1/2-z
-x,-y,-z
x,y,1/2-z
-x,1/2+y,z
x,1/2-y,1/2+z
loop_
_atom_site_type_symbol
_atom_site_label
_atom_site_fract_x
_atom_site_fract_y
_atom_site_fract_z
Si Si1 0.938474 0.900254 0.410362
Si Si2 0.657249 0.993398 0.988305
Si Si3 0.489602 0.520209 0.750000
Si Si4 0.922150 0.205448 0.591189
Si Si5 0.519471 0.697248 0.415980
Si Si6 0.729698 0.343248 0.911576
Si Si7 0.286390 0.116480 0.410117
Si Si8 0.865619 0.449609 0.586969
O O1 0.923459 0.916749 0.250000
O O2 0.819572 0.889813 0.487278
O O3 0.003432 0.845757 0.409565
O O4 0.022177 0.937259 0.497166
O O5 0.584490 0.993452 0.128389
O O6 0.788524 0.005373 0.024827
O O7 0.605815 0.030961 0.873504
O O8 0.646853 0.937387 0.918552
O O9 0.978120 0.250000 0.500000
O O10 0.905129 0.221622 0.750000
O O11 0.803890 0.191173 0.515084
O O12 0.517149 0.750000 0.500000
O O13 0.523728 0.707634 0.250000
O O14 0.403949 0.664682 0.442145
O O15 0.628620 0.662106 0.450958
O O16 0.747690 0.327784 0.750000
O O17 0.780512 0.400263 0.922508
O O18 0.248932 0.124177 0.250000
O O19 0.893177 0.456790 0.750000
#
# Coordination Sequence:
#
# PCOD9437555 Si02
#       8
#     8   8   4   8   8   8   8   8
#     4  10  24  42  61  88 118 154 210 259 303 357
#     4  11  23  41  63  97 126 167 202 243 301 356
#     4  10  24  38  64  94 136 156 206 246 292 362
#     4  10  20  36  58  87 117 152 197 252 304 357
#     4  10  23  41  60  87 120 158 199 247 304 365
#     4   9  19  35  60  88 122 158 193 240 298 363
#     4  11  25  44  64  85 121 164 204 249 304 366
#     4  10  21  39  64  92 125 164 202 246 301 360
#
# _framework density 20.442433000000001
#
# number of rings (size 3 to 8) (size 9 to 14) (size 15 to 20)
#    0.000    1.867    1.333    1.200    5.600    4.800 
#    0.000    2.667    0.000    0.000    0.000    0.000 
#    0.000    0.000    0.000    0.000    0.000    0.000 
#
# Total GULP energy -334202.097807 kJ/mol
# GULP energy per Si atom -5570.034963 kJ/mol
# Density = 2.039590 g / cm^3
# Si number density = 20.442433 Si / 1000 Ang^3
#
#
#
# Elastic Constant Matrix: (Units=GPa)
#
#
# Indices 1 2 3 4 5 6 
#
# 1 117.5845 22.2804 62.5163 0.0000 0.0000 0.0000
# 2 22.2804 68.4754 25.2075 0.0000 0.0000 0.0000
# 3 62.5163 25.2075 141.9026 0.0000 0.0000 0.0000
# 4 0.0000 0.0000 0.0000 -26.1659 0.0000 0.0000
# 5 0.0000 0.0000 0.0000 0.0000 19.2558 0.0000
# 6 0.0000 0.0000 0.0000 0.0000 0.0000 18.5939
#
#
#
# Elastic Compliance Matrix: (Units=1/GPa)
#
#
# Indices 1 2 3 4 5 6 
#
# 1 0.011352 -0.001982 -0.004649 0.000000 0.000000 0.000000
# 2 -0.001982 0.015972 -0.001964 0.000000 0.000000 0.000000
# 3 -0.004649 -0.001964 0.009444 0.000000 0.000000 0.000000
# 4 0.000000 0.000000 0.000000 -0.038218 0.000000 0.000000
# 5 0.000000 0.000000 0.000000 0.000000 0.051932 0.000000
# 6 0.000000 0.000000 0.000000 0.000000 0.000000 0.053781
#
#
# Mechanical properties :
#
#
# Convention : Reuss Voigt Hill
#
# Bulk Modulus (GPa) = 51.07939 60.88565 55.98252
# Shear Modulus (GPa) = 39.06876 16.86734 27.96805
#
# Velocity S-wave (km/s) = 4.37642 2.87560 3.70285
# Velocity P-wave (km/s) = 7.11187 6.39328 6.76212
#
# Compressibility (1/GPa) = 0.01957737
#
# Stress axis : x y z
#
# Youngs Moduli (GPa) = 88.09114 62.61062 105.88594
#
# Poissons Ratio (x) = 0.12411 0.49227
# Poissons Ratio (y) = 0.17462 0.20795
# Poissons Ratio (z) = 0.40954 0.12296
#
# Static dielectric constant tensor:
#      x y z
#    x 1.727630 0.000000 0.000000 
#    y 0.000000 1.785080 0.000000 
#    z 0.000000 0.000000 1.692230 
# 
# From -- ./inp_files/3478.got.cif
#   From: 2010.05.17/outbox.cif.g08.bks.cpg/sg57_2_cif.got.tgz:3478.got - 2010.06.03 13:58:18.
