data_PCOD9437702
_publ_section_title
;
Structure prediction by ZEFSAII (Michael W. Deem and Ramdas Pophale) SiO2 
 PCOD9437702
Probable space group: P B C M
;
_chemical_formula_sum "Si O2"
_cell_formula_units_Z 56
_cell_length_a 8.324030
_cell_length_b 14.631582
_cell_length_c 20.176233
_cell_angle_alpha 90.000000
_cell_angle_beta 90.000000
_cell_angle_gamma 90.000000
_cell_volume 2457.338624
_symmetry_space_group_name_H-M "P B C M"
_symmetry_group_IT_number 57
_symmetry_cell_setting 'orthorhombic'
loop_
_space_group_symop_operation_xyz
x,y,z
-x,-y,1/2+z
x,1/2-y,-z
-x,1/2+y,1/2-z
-x,-y,-z
x,y,1/2-z
-x,1/2+y,z
x,1/2-y,1/2+z
loop_
_atom_site_type_symbol
_atom_site_label
_atom_site_fract_x
_atom_site_fract_y
_atom_site_fract_z
Si Si1 0.398595 0.724328 0.424841
Si Si2 0.189157 0.850903 0.750000
Si Si3 0.905854 0.476403 0.409027
Si Si4 0.658272 0.113298 0.675232
Si Si5 0.813360 0.750000 0.000000
Si Si6 0.757643 0.944060 0.029060
Si Si7 0.428970 0.551073 0.357682
Si Si8 0.042901 0.676317 0.386469
O O1 0.424095 0.750000 0.500000
O O2 0.406912 0.810365 0.375036
O O3 0.500458 0.641410 0.392892
O O4 0.213857 0.687455 0.422998
O O5 0.298549 0.906937 0.693144
O O6 0.083233 0.802446 0.689929
O O7 0.833591 0.415348 0.351268
O O8 0.766001 0.494972 0.462871
O O9 0.056698 0.434922 0.447331
O O10 0.970820 0.573846 0.384945
O O11 0.659616 0.151380 0.750000
O O12 0.555170 0.019609 0.673512
O O13 0.713278 0.659159 0.985449
O O14 0.919447 0.770287 0.934132
O O15 0.657586 0.992124 0.085500
#
# Coordination Sequence:
#
# PCOD9437702 Si02
#       8
#     8   4   8   8   4   8   8   8
#     4  11  23  43  73  99 129 182 235 280 337 417
#     4  10  20  38  68  88 128 192 222 258 348 410
#     4  10  21  38  66 100 131 170 221 282 339 390
#     4  12  28  43  67 104 138 181 232 284 342 415
#     4  10  20  36  64 106 142 160 226 296 330 388
#     4  10  20  40  68  95 133 178 218 277 341 398
#     4  11  24  47  68  91 143 186 222 280 347 409
#     4  10  20  38  67  99 134 172 221 279 340 396
#
# _framework density 22.788881
#
# number of rings (size 3 to 8) (size 9 to 14) (size 15 to 20)
#    0.000    1.429    4.286    1.714    7.000    2.286 
#    6.429    0.714    0.000    0.000    0.000    0.000 
#    0.000    0.000    0.000    0.000    0.000    0.000 
#
# Total GULP energy -311996.602103 kJ/mol
# GULP energy per Si atom -5571.367895 kJ/mol
# Density = 2.273701 g / cm^3
# Si number density = 22.788881 Si / 1000 Ang^3
#
#
#
# Elastic Constant Matrix: (Units=GPa)
#
#
# Indices 1 2 3 4 5 6 
#
# 1 52.8794 13.9037 40.0760 0.0000 0.0000 0.0000
# 2 13.9037 129.7911 61.5209 0.0000 0.0000 0.0000
# 3 40.0760 61.5209 197.8967 0.0000 0.0000 0.0000
# 4 0.0000 0.0000 0.0000 30.6447 0.0000 0.0000
# 5 0.0000 0.0000 0.0000 0.0000 38.5892 0.0000
# 6 0.0000 0.0000 0.0000 0.0000 0.0000 28.7886
#
#
#
# Elastic Compliance Matrix: (Units=1/GPa)
#
#
# Indices 1 2 3 4 5 6 
#
# 1 0.022349 -0.000292 -0.004435 0.000000 0.000000 0.000000
# 2 -0.000292 0.009040 -0.002751 0.000000 0.000000 0.000000
# 3 -0.004435 -0.002751 0.006807 0.000000 0.000000 0.000000
# 4 0.000000 0.000000 0.000000 0.032632 0.000000 0.000000
# 5 0.000000 0.000000 0.000000 0.000000 0.025914 0.000000
# 6 0.000000 0.000000 0.000000 0.000000 0.000000 0.034736
#
#
# Mechanical properties :
#
#
# Convention : Reuss Voigt Hill
#
# Bulk Modulus (GPa) = 43.03075 67.95203 55.49139
# Shear Modulus (GPa) = 32.42952 37.27560 34.85256
#
# Velocity S-wave (km/s) = 3.77641 4.04876 3.91495
# Velocity P-wave (km/s) = 6.15942 7.19301 6.69618
#
# Compressibility (1/GPa) = 0.02323920
#
# Stress axis : x y z
#
# Youngs Moduli (GPa) = 44.74471 110.61925 146.91661
#
# Poissons Ratio (x) = 0.03228 0.65160
# Poissons Ratio (y) = 0.01306 0.40420
# Poissons Ratio (z) = 0.19845 0.30434
#
# Static dielectric constant tensor:
#      x y z
#    x 1.879040 0.000000 0.000000 
#    y 0.000000 1.909920 0.000000 
#    z 0.000000 0.000000 1.865790 
# 
# From -- ./inp_files/24459.got.cif
#   From: 2010.05.17/outbox.cif.g08.bks.cpg/sg57_13_cif.got.tgz:24459.got - 2010.06.03 13:58:18.
