data_PCOD9437241
_publ_section_title
;
Structure prediction by ZEFSAII (Michael W. Deem and Ramdas Pophale) SiO2 
 PCOD9437241
Probable space group: P B C M
;
_chemical_formula_sum "Si O2"
_cell_formula_units_Z 48
_cell_length_a 31.686884
_cell_length_b 9.280079
_cell_length_c 8.679809
_cell_angle_alpha 90.000000
_cell_angle_beta 90.000000
_cell_angle_gamma 90.000000
_cell_volume 2552.356744
_symmetry_space_group_name_H-M "P B C M"
_symmetry_group_IT_number 57
_symmetry_cell_setting 'orthorhombic'
loop_
_space_group_symop_operation_xyz
x,y,z
-x,-y,1/2+z
x,1/2-y,-z
-x,1/2+y,1/2-z
-x,-y,-z
x,y,1/2-z
-x,1/2+y,z
x,1/2-y,1/2+z
loop_
_atom_site_type_symbol
_atom_site_label
_atom_site_fract_x
_atom_site_fract_y
_atom_site_fract_z
Si Si1 0.539201 0.410385 0.065224
Si Si2 0.622116 0.910527 0.934829
Si Si3 0.123266 0.089035 0.564215
Si Si4 0.960366 0.411675 0.935366
Si Si5 0.794494 0.410500 0.936010
Si Si6 0.712186 0.910972 0.064864
O O1 0.536544 0.407038 0.250000
O O2 0.582999 0.488688 0.022103
O O3 0.538112 0.250000 0.000000
O O4 0.500000 0.500000 0.000000
O O5 0.624953 0.902779 0.750000
O O6 0.614908 0.750000 0.000000
O O7 0.666945 0.961609 0.001532
O O8 0.120974 0.250000 0.500000
O O9 0.123889 0.097086 0.750000
O O10 0.082445 0.995375 0.519446
O O11 0.165822 0.007592 0.513381
O O12 0.962588 0.406848 0.750000
O O13 0.960301 0.250000 0.000000
O O14 0.000000 0.500000 0.000000
O O15 0.795335 0.404353 0.750000
O O16 0.750771 0.486938 0.982132
O O17 0.797709 0.250000 0.000000
O O18 0.710533 0.903764 0.250000
O O19 0.719074 0.750000 0.000000
#
# Coordination Sequence:
#
# PCOD9437241 Si02
#       6
#     8   8   8   8   8   8
#     4  11  24  40  60  85 114 149 188 232 281 334
#     4  10  21  37  58  84 113 147 186 228 277 331
#     4  10  22  39  59  84 113 147 188 233 282 336
#     4  11  23  39  60  86 117 152 191 235 284 338
#     4  10  22  38  56  82 113 146 186 230 278 331
#     4  10  20  35  57  83 111 145 185 228 274 328
#
# _framework density 18.806149000000001
#
# number of rings (size 3 to 8) (size 9 to 14) (size 15 to 20)
#    0.000    1.667    0.000    5.000    0.000    9.333 
#    0.000    3.333    0.000    0.000    0.000    0.000 
#    0.000    0.000    0.000    0.000    0.000    0.000 
#
# Total GULP energy -268331.522984 kJ/mol
# GULP energy per Si atom -5590.240062 kJ/mol
# Density = 1.876334 g / cm^3
# Si number density = 18.806149 Si / 1000 Ang^3
#
#
#
# Elastic Constant Matrix: (Units=GPa)
#
#
# Indices 1 2 3 4 5 6 
#
# 1 210.6981 136.5838 58.2605 0.0000 0.0000 0.0000
# 2 136.5838 178.7467 46.4108 0.0000 0.0000 0.0000
# 3 58.2605 46.4108 43.2454 0.0000 0.0000 0.0000
# 4 0.0000 0.0000 0.0000 38.5332 0.0000 0.0000
# 5 0.0000 0.0000 0.0000 0.0000 27.4751 0.0000
# 6 0.0000 0.0000 0.0000 0.0000 0.0000 40.5837
#
#
#
# Elastic Compliance Matrix: (Units=1/GPa)
#
#
# Indices 1 2 3 4 5 6 
#
# 1 0.011152 -0.006405 -0.008150 0.000000 0.000000 0.000000
# 2 -0.006405 0.011435 -0.003642 0.000000 0.000000 0.000000
# 3 -0.008150 -0.003642 0.038012 0.000000 0.000000 0.000000
# 4 0.000000 0.000000 0.000000 0.025952 0.000000 0.000000
# 5 0.000000 0.000000 0.000000 0.000000 0.036397 0.000000
# 6 0.000000 0.000000 0.000000 0.000000 0.000000 0.024640
#
#
# Mechanical properties :
#
#
# Convention : Reuss Voigt Hill
#
# Bulk Modulus (GPa) = 41.31563 101.68894 71.50228
# Shear Modulus (GPa) = 26.03493 34.08073 30.05783
#
# Velocity S-wave (km/s) = 3.72477 4.26163 4.00221
# Velocity P-wave (km/s) = 6.36517 8.85465 7.71104
#
# Compressibility (1/GPa) = 0.02420392
#
# Stress axis : x y z
#
# Youngs Moduli (GPa) = 89.67173 87.45368 26.30743
#
# Poissons Ratio (x) = 0.56017 0.21440
# Poissons Ratio (y) = 0.57437 0.09582
# Poissons Ratio (z) = 0.73079 0.31854
#
# Static dielectric constant tensor:
#      x y z
#    x 1.646370 0.000000 0.000000 
#    y 0.000000 1.601170 0.000000 
#    z 0.000000 0.000000 1.637990 
# 
# From -- ./inp_files/10061.got.cif
#   From: 2010.05.17/outbox.cif.g08.bks.cpg/sg57_6_cif.got.tgz:10061.got - 2010.06.03 13:58:18.
