data_PCOD9437618
_publ_section_title
;
Structure prediction by ZEFSAII (Michael W. Deem and Ramdas Pophale) SiO2 
 PCOD9437618
Probable space group: P B C M
;
_chemical_formula_sum "Si O2"
_cell_formula_units_Z 40
_cell_length_a 12.879059
_cell_length_b 18.710142
_cell_length_c 8.904384
_cell_angle_alpha 90.000000
_cell_angle_beta 90.000000
_cell_angle_gamma 90.000000
_cell_volume 2145.680710
_symmetry_space_group_name_H-M "P B C M"
_symmetry_group_IT_number 57
_symmetry_cell_setting 'orthorhombic'
loop_
_space_group_symop_operation_xyz
x,y,z
-x,-y,1/2+z
x,1/2-y,-z
-x,1/2+y,1/2-z
-x,-y,-z
x,y,1/2-z
-x,1/2+y,z
x,1/2-y,1/2+z
loop_
_atom_site_type_symbol
_atom_site_label
_atom_site_fract_x
_atom_site_fract_y
_atom_site_fract_z
Si Si1 0.117258 0.582990 0.928976
Si Si2 0.877751 0.929506 0.070594
Si Si3 0.297562 0.827037 0.928875
Si Si4 0.314722 0.171415 0.930105
Si Si5 0.499975 0.921307 0.930038
O O1 0.128949 0.587085 0.750000
O O2 0.995467 0.593378 0.966743
O O3 0.145124 0.503458 0.986016
O O4 0.192166 0.639577 0.006451
O O5 0.874094 0.943716 0.250000
O O6 0.792866 0.869683 0.036170
O O7 0.290053 0.820050 0.750000
O O8 0.391906 0.880984 0.963209
O O9 0.318475 0.750000 0.000000
O O10 0.326411 0.175495 0.750000
O O11 0.315332 0.250000 0.000000
O O12 0.407452 0.124902 0.999453
O O13 0.511656 0.925504 0.750000
O O14 0.500000 0.000000 0.000000
#
# Coordination Sequence:
#
# PCOD9437618 Si02
#       5
#     8   8   8   8   8
#     4  10  20  36  60  87 115 150 192 236 282 335
#     4   9  20  38  58  84 117 152 191 235 282 334
#     4  11  24  40  58  83 116 151 188 234 285 337
#     4  11  23  39  59  84 117 152 189 235 286 340
#     4  11  24  41  62  87 115 149 190 235 284 339
#
# _framework density 18.642102000000001
#
# number of rings (size 3 to 8) (size 9 to 14) (size 15 to 20)
#    0.000    1.600    0.000    4.200    0.000   12.800 
#    0.000    2.000    0.000    0.000    0.000    0.000 
#    0.000    0.000    0.000    0.000    0.000    0.000 
#
# Total GULP energy -223650.934690 kJ/mol
# GULP energy per Si atom -5591.273367 kJ/mol
# Density = 1.859967 g / cm^3
# Si number density = 18.642102 Si / 1000 Ang^3
#
#
#
# Elastic Constant Matrix: (Units=GPa)
#
#
# Indices 1 2 3 4 5 6 
#
# 1 76.6032 51.6253 44.2314 0.0000 0.0000 0.0000
# 2 51.6253 111.2414 48.4017 0.0000 0.0000 0.0000
# 3 44.2314 48.4017 52.3707 0.0000 0.0000 0.0000
# 4 0.0000 0.0000 0.0000 41.5829 0.0000 0.0000
# 5 0.0000 0.0000 0.0000 0.0000 30.8531 0.0000
# 6 0.0000 0.0000 0.0000 0.0000 0.0000 -28.3070
#
#
#
# Elastic Compliance Matrix: (Units=1/GPa)
#
#
# Indices 1 2 3 4 5 6 
#
# 1 0.026660 -0.004308 -0.018535 0.000000 0.000000 0.000000
# 2 -0.004308 0.015732 -0.010901 0.000000 0.000000 0.000000
# 3 -0.018535 -0.010901 0.044824 0.000000 0.000000 0.000000
# 4 0.000000 0.000000 0.000000 0.024048 0.000000 0.000000
# 5 0.000000 0.000000 0.000000 0.000000 0.032412 0.000000
# 6 0.000000 0.000000 0.000000 0.000000 0.000000 -0.035327
#
#
# Mechanical properties :
#
#
# Convention : Reuss Voigt Hill
#
# Bulk Modulus (GPa) = 50.69068 58.74800 54.71934
# Shear Modulus (GPa) = 27.41030 15.22295 21.31663
#
# Velocity S-wave (km/s) = 3.83867 2.86070 3.38519
# Velocity P-wave (km/s) = 6.84819 6.51871 6.68548
#
# Compressibility (1/GPa) = 0.01972749
#
# Stress axis : x y z
#
# Youngs Moduli (GPa) = 37.50983 63.56552 22.30926
#
# Poissons Ratio (x) = 0.27381 0.41351
# Poissons Ratio (y) = 0.16158 0.24320
# Poissons Ratio (z) = 0.69525 0.69296
#
# Static dielectric constant tensor:
#      x y z
#    x 1.633310 0.000000 0.000000 
#    y 0.000000 1.596700 0.000000 
#    z 0.000000 0.000000 1.621810 
# 
# From -- ./inp_files/2655.got.cif
#   From: 2010.05.17/outbox.cif.g08.bks.cpg/sg57_2_cif.got.tgz:2655.got - 2010.06.03 13:58:18.
