data_PCOD9437697
_publ_section_title
;
Structure prediction by ZEFSAII (Michael W. Deem and Ramdas Pophale) SiO2 
 PCOD9437697
Probable space group: P B C M
;
_chemical_formula_sum "Si O2"
_cell_formula_units_Z 56
_cell_length_a 15.011091
_cell_length_b 22.927168
_cell_length_c 8.662546
_cell_angle_alpha 90.000000
_cell_angle_beta 90.000000
_cell_angle_gamma 90.000000
_cell_volume 2981.317469
_symmetry_space_group_name_H-M "P B C M"
_symmetry_group_IT_number 57
_symmetry_cell_setting 'orthorhombic'
loop_
_space_group_symop_operation_xyz
x,y,z
-x,-y,1/2+z
x,1/2-y,-z
-x,1/2+y,1/2-z
-x,-y,-z
x,y,1/2-z
-x,1/2+y,z
x,1/2-y,1/2+z
loop_
_atom_site_type_symbol
_atom_site_label
_atom_site_fract_x
_atom_site_fract_y
_atom_site_fract_z
Si Si1 0.926719 0.688901 0.434356
Si Si2 0.093259 0.976704 0.933181
Si Si3 0.615912 0.555580 0.934115
Si Si4 0.422517 0.577283 0.436171
Si Si5 0.116664 0.651023 0.566419
Si Si6 0.695837 0.188775 0.434951
Si Si7 0.201846 0.080952 0.433412
O O1 0.892928 0.750000 0.500000
O O2 0.934599 0.691781 0.250000
O O3 0.860269 0.636000 0.472861
O O4 0.024162 0.676951 0.504076
O O5 0.086000 0.967471 0.750000
O O6 0.117111 0.916323 0.014449
O O7 0.165252 0.025650 0.973048
O O8 0.000000 0.000000 0.000000
O O9 0.625512 0.560859 0.750000
O O10 0.618648 0.486252 0.974755
O O11 0.519523 0.578273 0.986806
O O12 0.695811 0.588121 0.019801
O O13 0.432533 0.578665 0.250000
O O14 0.361557 0.631979 0.482569
O O15 0.119061 0.656243 0.750000
O O16 0.203693 0.680581 0.494975
O O17 0.660233 0.250000 0.500000
O O18 0.696667 0.190791 0.250000
O O19 0.193351 0.070323 0.250000
#
# Coordination Sequence:
#
# PCOD9437697 Si02
#       7
#     8   8   8   8   8   8   8
#     4  11  24  41  60  81 113 155 202 248 292 346
#     4  12  23  37  58  87 121 156 196 243 297 350
#     4  10  20  36  63  93 119 150 191 244 300 360
#     4   9  20  39  61  87 119 154 190 239 300 360
#     4  12  24  39  61  87 119 159 201 245 297 357
#     4  11  23  40  61  87 122 161 204 251 300 361
#     4  11  23  39  60  87 120 157 196 243 294 352
#
# _framework density 18.783640999999999
#
# number of rings (size 3 to 8) (size 9 to 14) (size 15 to 20)
#    0.000    1.143    1.429    5.571    0.000    4.571 
#    0.000    0.714    0.000    0.000    0.000    0.000 
#    0.000    0.000    0.000    0.000    0.000    0.000 
#
# Total GULP energy -313203.752946 kJ/mol
# GULP energy per Si atom -5592.924160 kJ/mol
# Density = 1.874089 g / cm^3
# Si number density = 18.783641 Si / 1000 Ang^3
#
#
#
# Elastic Constant Matrix: (Units=GPa)
#
#
# Indices 1 2 3 4 5 6 
#
# 1 103.9001 39.7843 30.9486 0.0000 0.0000 0.0000
# 2 39.7843 98.1272 27.0446 0.0000 0.0000 0.0000
# 3 30.9486 27.0446 60.0610 0.0000 0.0000 0.0000
# 4 0.0000 0.0000 0.0000 32.0471 0.0000 0.0000
# 5 0.0000 0.0000 0.0000 0.0000 31.9933 0.0000
# 6 0.0000 0.0000 0.0000 0.0000 0.0000 10.5519
#
#
#
# Elastic Compliance Matrix: (Units=1/GPa)
#
#
# Indices 1 2 3 4 5 6 
#
# 1 0.012472 -0.003751 -0.004738 0.000000 0.000000 0.000000
# 2 -0.003751 0.012763 -0.003814 0.000000 0.000000 0.000000
# 3 -0.004738 -0.003814 0.020808 0.000000 0.000000 0.000000
# 4 0.000000 0.000000 0.000000 0.031204 0.000000 0.000000
# 5 0.000000 0.000000 0.000000 0.000000 0.031257 0.000000
# 6 0.000000 0.000000 0.000000 0.000000 0.000000 0.094770
#
#
# Mechanical properties :
#
#
# Convention : Reuss Voigt Hill
#
# Bulk Modulus (GPa) = 46.64641 50.84927 48.74784
# Shear Modulus (GPa) = 21.27433 25.87251 23.57342
#
# Velocity S-wave (km/s) = 3.36906 3.71535 3.54644
# Velocity P-wave (km/s) = 6.32626 6.74796 6.54051
#
# Compressibility (1/GPa) = 0.02143788
#
# Stress axis : x y z
#
# Youngs Moduli (GPa) = 80.17892 78.35266 48.05738
#
# Poissons Ratio (x) = 0.29389 0.22768
# Poissons Ratio (y) = 0.30074 0.18330
# Poissons Ratio (z) = 0.37987 0.29885
#
# Static dielectric constant tensor:
#      x y z
#    x 1.132830 0.000000 0.000000 
#    y 0.000000 1.640590 0.000000 
#    z 0.000000 0.000000 1.627770 
# 
# From -- ./inp_files/5283.got.cif
#   From: 2010.05.17/outbox.cif.g08.bks.cpg/sg57_3_cif.got.tgz:5283.got - 2010.06.03 13:58:18.
