data_PCOD9437287
_publ_section_title
;
Structure prediction by ZEFSAII (Michael W. Deem and Ramdas Pophale) SiO2 
 PCOD9437287
Probable space group: P B C M
;
_chemical_formula_sum "Si O2"
_cell_formula_units_Z 48
_cell_length_a 16.773613
_cell_length_b 18.174406
_cell_length_c 8.770242
_cell_angle_alpha 90.000000
_cell_angle_beta 90.000000
_cell_angle_gamma 90.000000
_cell_volume 2673.612244
_symmetry_space_group_name_H-M "P B C M"
_symmetry_group_IT_number 57
_symmetry_cell_setting 'orthorhombic'
loop_
_space_group_symop_operation_xyz
x,y,z
-x,-y,1/2+z
x,1/2-y,-z
-x,1/2+y,1/2-z
-x,-y,-z
x,y,1/2-z
-x,1/2+y,z
x,1/2-y,1/2+z
loop_
_atom_site_type_symbol
_atom_site_label
_atom_site_fract_x
_atom_site_fract_y
_atom_site_fract_z
Si Si1 0.740629 0.051819 0.069757
Si Si2 0.006651 0.417786 0.567841
Si Si3 0.143371 0.668914 0.931897
Si Si4 0.824907 0.894179 0.430196
Si Si5 0.414442 0.019591 0.432654
Si Si6 0.332355 0.326629 0.567880
O O1 0.736216 0.066963 0.250000
O O2 0.794738 0.978455 0.049573
O O3 0.782945 0.118108 0.983207
O O4 0.654344 0.031449 0.004020
O O5 0.000519 0.421266 0.750000
O O6 0.091923 0.385894 0.516588
O O7 0.000000 0.500000 0.500000
O O8 0.935456 0.369235 0.500580
O O9 0.137621 0.671447 0.750000
O O10 0.151536 0.750000 0.000000
O O11 0.834930 0.880911 0.250000
O O12 0.754169 0.844506 0.496691
O O13 0.414491 0.011905 0.250000
O O14 0.388273 0.103567 0.469233
O O15 0.500000 0.000000 0.500000
O O16 0.362175 0.250000 0.500000
O O17 0.325390 0.321786 0.750000
#
# Coordination Sequence:
#
# PCOD9437287 Si02
#       6
#     8   8   8   8   8   8
#     4  10  20  37  61  86 115 150 192 236 288 351
#     4  12  23  37  58  85 117 156 202 248 295 348
#     4  12  25  41  60  84 118 156 199 249 298 349
#     4  10  20  35  58  85 114 151 195 238 287 346
#     4  10  21  38  62  91 120 152 195 241 291 352
#     4  10  21  37  58  86 120 154 191 238 294 351
#
# _framework density 17.953239
#
# number of rings (size 3 to 8) (size 9 to 14) (size 15 to 20)
#    0.000    1.333    1.667    5.000    0.000    4.000 
#    0.000    4.167    0.000    2.000    0.000    0.000 
#    0.000    0.000    0.000    0.000    0.000    0.000 
#
# Total GULP energy -268377.490970 kJ/mol
# GULP energy per Si atom -5591.197729 kJ/mol
# Density = 1.791238 g / cm^3
# Si number density = 17.953239 Si / 1000 Ang^3
#
#
#
# Elastic Constant Matrix: (Units=GPa)
#
#
# Indices 1 2 3 4 5 6 
#
# 1 147.9928 63.7453 75.8142 0.0000 0.0000 0.0000
# 2 63.7453 112.0427 73.4603 0.0000 0.0000 0.0000
# 3 75.8142 73.4603 148.9252 0.0000 0.0000 0.0000
# 4 0.0000 0.0000 0.0000 31.7468 0.0000 0.0000
# 5 0.0000 0.0000 0.0000 0.0000 36.0007 0.0000
# 6 0.0000 0.0000 0.0000 0.0000 0.0000 16.0451
#
#
#
# Elastic Compliance Matrix: (Units=1/GPa)
#
#
# Indices 1 2 3 4 5 6 
#
# 1 0.009976 -0.003467 -0.003368 0.000000 0.000000 0.000000
# 2 -0.003467 0.014397 -0.005336 0.000000 0.000000 0.000000
# 3 -0.003368 -0.005336 0.011062 0.000000 0.000000 0.000000
# 4 0.000000 0.000000 0.000000 0.031499 0.000000 0.000000
# 5 0.000000 0.000000 0.000000 0.000000 0.027777 0.000000
# 6 0.000000 0.000000 0.000000 0.000000 0.000000 0.062324
#
#
# Mechanical properties :
#
#
# Convention : Reuss Voigt Hill
#
# Bulk Modulus (GPa) = 90.16626 92.77780 91.47203
# Shear Modulus (GPa) = 27.01598 29.82126 28.41862
#
# Velocity S-wave (km/s) = 3.88338 4.08002 3.98291
# Velocity P-wave (km/s) = 8.39282 8.60146 8.49778
#
# Compressibility (1/GPa) = 0.01109062
#
# Stress axis : x y z
#
# Youngs Moduli (GPa) = 100.23972 69.46091 90.40239
#
# Poissons Ratio (x) = 0.24085 0.30449
# Poissons Ratio (y) = 0.34757 0.48241
# Poissons Ratio (z) = 0.33763 0.37066
#
# Static dielectric constant tensor:
#      x y z
#    x 1.586400 0.000000 0.000000 
#    y 0.000000 1.608660 0.000000 
#    z 0.000000 0.000000 1.591180 
# 
# From -- ./inp_files/4695.got.cif
#   From: 2010.05.17/outbox.cif.g08.bks.cpg/sg57_3_cif.got.tgz:4695.got - 2010.06.03 13:58:18.
