data_PCOD9437532
_publ_section_title
;
Structure prediction by ZEFSAII (Michael W. Deem and Ramdas Pophale) SiO2 
 PCOD9437532
Probable space group: P B C M
;
_chemical_formula_sum "Si O2"
_cell_formula_units_Z 64
_cell_length_a 11.813415
_cell_length_b 30.506208
_cell_length_c 8.992502
_cell_angle_alpha 90.000000
_cell_angle_beta 90.000000
_cell_angle_gamma 90.000000
_cell_volume 3240.740309
_symmetry_space_group_name_H-M "P B C M"
_symmetry_group_IT_number 57
_symmetry_cell_setting 'orthorhombic'
loop_
_space_group_symop_operation_xyz
x,y,z
-x,-y,1/2+z
x,1/2-y,-z
-x,1/2+y,1/2-z
-x,-y,-z
x,y,1/2-z
-x,1/2+y,z
x,1/2-y,1/2+z
loop_
_atom_site_type_symbol
_atom_site_label
_atom_site_fract_x
_atom_site_fract_y
_atom_site_fract_z
Si Si1 0.337346 0.469405 0.579735
Si Si2 0.963016 0.119745 0.925431
Si Si3 0.639822 0.798132 0.428273
Si Si4 0.607992 0.298012 0.071809
Si Si5 0.889389 0.701752 0.570387
Si Si6 0.730174 0.374667 0.925725
Si Si7 0.452748 0.565437 0.580610
Si Si8 0.904968 0.530555 0.925441
O O1 0.270264 0.629571 0.250000
O O2 0.398335 0.516824 0.583888
O O3 0.421879 0.438661 0.486296
O O4 0.215865 0.474355 0.503745
O O5 0.933819 0.122804 0.750000
O O6 0.850728 0.108885 0.016099
O O7 0.018186 0.165792 0.973852
O O8 0.052530 0.080581 0.940709
O O9 0.638974 0.750000 0.500000
O O10 0.639456 0.794129 0.250000
O O11 0.517283 0.817794 0.467408
O O12 0.763179 0.816420 0.469707
O O13 0.617393 0.295384 0.250000
O O14 0.703623 0.328491 0.003801
O O15 0.613619 0.250000 0.000000
O O16 0.904018 0.750000 0.500000
O O17 0.893627 0.705988 0.750000
O O18 0.674207 0.545806 0.250000
O O19 0.630647 0.406339 0.980360
O O20 0.455250 0.582508 0.750000
O O21 0.895888 0.520371 0.750000
O O22 0.000000 0.500000 0.000000
#
# Coordination Sequence:
#
# PCOD9437532 Si02
#       8
#     8   8   8   8   8   8   8   8
#     4  10  21  38  62  92 122 151 188 235 287 346
#     4  10  23  41  58  80 113 154 198 240 287 349
#     4   8  15  29  52  80 107 138 175 220 275 335
#     4  10  20  36  58  83 113 148 189 236 289 350
#     4   9  18  35  58  83 112 145 184 229 279 337
#     4  12  25  39  57  82 113 150 194 244 296 346
#     4  10  21  39  62  87 118 154 190 231 285 347
#     4  11  23  39  61  87 118 158 199 242 294 348
#
# _framework density 19.748573
#
# number of rings (size 3 to 8) (size 9 to 14) (size 15 to 20)
#    0.000    2.000    0.000    3.375    0.000    8.000 
#    0.000    3.750    0.000    0.000    0.000    0.000 
#    0.000    0.000    0.000    0.000    0.000    0.000 
#
# Total GULP energy -357301.548120 kJ/mol
# GULP energy per Si atom -5582.836689 kJ/mol
# Density = 1.970362 g / cm^3
# Si number density = 19.748573 Si / 1000 Ang^3
#
#
#
# Elastic Constant Matrix: (Units=GPa)
#
#
# Indices 1 2 3 4 5 6 
#
# 1 115.8946 3.8360 57.3997 0.0000 0.0000 0.0000
# 2 3.8360 28.8685 21.1941 0.0000 0.0000 0.0000
# 3 57.3997 21.1941 101.3599 0.0000 0.0000 0.0000
# 4 0.0000 0.0000 0.0000 25.8592 0.0000 0.0000
# 5 0.0000 0.0000 0.0000 0.0000 29.3727 0.0000
# 6 0.0000 0.0000 0.0000 0.0000 0.0000 23.2907
#
#
#
# Elastic Compliance Matrix: (Units=1/GPa)
#
#
# Indices 1 2 3 4 5 6 
#
# 1 0.012398 0.004143 -0.007887 0.000000 0.000000 0.000000
# 2 0.004143 0.042306 -0.011192 0.000000 0.000000 0.000000
# 3 -0.007887 -0.011192 0.016673 0.000000 0.000000 0.000000
# 4 0.000000 0.000000 0.000000 0.038671 0.000000 0.000000
# 5 0.000000 0.000000 0.000000 0.000000 0.034045 0.000000
# 6 0.000000 0.000000 0.000000 0.000000 0.000000 0.042936
#
#
# Mechanical properties :
#
#
# Convention : Reuss Voigt Hill
#
# Bulk Modulus (GPa) = 24.09418 45.66472 34.87945
# Shear Modulus (GPa) = 21.66982 26.61739 24.14361
#
# Velocity S-wave (km/s) = 3.31612 3.67524 3.50029
# Velocity P-wave (km/s) = 5.18548 6.41741 5.83405
#
# Compressibility (1/GPa) = 0.04150379
#
# Stress axis : x y z
#
# Youngs Moduli (GPa) = 80.66040 23.63711 59.97889
#
# Poissons Ratio (x) = -0.09793 0.47306
# Poissons Ratio (y) = -0.33418 0.67130
# Poissons Ratio (z) = 0.63617 0.26455
#
# Static dielectric constant tensor:
#      x y z
#    x 1.704260 0.000000 0.000000 
#    y 0.000000 1.693100 0.000000 
#    z 0.000000 0.000000 1.670410 
# 
# From -- ./inp_files/3827.got.cif
#   From: 2010.05.17/outbox.cif.g08.bks.cpg/sg57_2_cif.got.tgz:3827.got - 2010.06.03 13:58:18.
