data_PCOD9437577
_publ_section_title
;
Structure prediction by ZEFSAII (Michael W. Deem and Ramdas Pophale) SiO2 
 PCOD9437577
Probable space group: P B C M
;
_chemical_formula_sum "Si O2"
_cell_formula_units_Z 48
_cell_length_a 9.291451
_cell_length_b 31.638787
_cell_length_c 8.689081
_cell_angle_alpha 90.000000
_cell_angle_beta 90.000000
_cell_angle_gamma 90.000000
_cell_volume 2554.331219
_symmetry_space_group_name_H-M "P B C M"
_symmetry_group_IT_number 57
_symmetry_cell_setting 'orthorhombic'
loop_
_space_group_symop_operation_xyz
x,y,z
-x,-y,1/2+z
x,1/2-y,-z
-x,1/2+y,1/2-z
-x,-y,-z
x,y,1/2-z
-x,1/2+y,z
x,1/2-y,1/2+z
loop_
_atom_site_type_symbol
_atom_site_label
_atom_site_fract_x
_atom_site_fract_y
_atom_site_fract_z
Si Si1 0.918073 0.959251 0.565023
Si Si2 0.584324 0.959809 0.564307
Si Si3 0.914934 0.378655 0.434353
Si Si4 0.909488 0.795175 0.434594
Si Si5 0.594586 0.123019 0.064098
Si Si6 0.589014 0.704813 0.434825
O O1 0.922858 0.960213 0.750000
O O2 0.750946 0.959798 0.515554
O O3 0.995479 0.917076 0.506187
O O4 0.000000 0.000000 0.500000
O O5 0.582091 0.961639 0.750000
O O6 0.503504 0.916830 0.517499
O O7 0.500000 0.000000 0.500000
O O8 0.918750 0.382374 0.250000
O O9 0.751639 0.380218 0.491931
O O10 0.988191 0.334045 0.477721
O O11 0.959431 0.750000 0.500000
O O12 0.901166 0.792520 0.250000
O O13 0.749432 0.802697 0.500510
O O14 0.607511 0.122283 0.250000
O O15 0.514932 0.166460 0.020769
O O16 0.539780 0.750000 0.500000
O O17 0.596861 0.706912 0.250000
#
# Coordination Sequence:
#
# PCOD9437577 Si02
#       6
#     8   8   8   8   8   8
#     4  11  23  40  62  87 117 151 189 233 282 338
#     4  10  22  39  59  84 112 145 185 228 275 329
#     4  11  24  39  57  85 117 150 191 237 285 337
#     4  10  21  37  58  84 114 149 191 237 285 339
#     4  10  22  39  58  81 112 151 190 229 280 339
#     4  10  20  36  59  85 113 148 191 236 286 342
#
# _framework density 18.791611
#
# number of rings (size 3 to 8) (size 9 to 14) (size 15 to 20)
#    0.000    1.667    0.000    5.000    0.000   10.667 
#    0.000    3.333    0.000    0.000    0.000    0.000 
#    0.000    0.000    0.000    0.000    0.000    0.000 
#
# Total GULP energy -268333.100629 kJ/mol
# GULP energy per Si atom -5590.272930 kJ/mol
# Density = 1.874884 g / cm^3
# Si number density = 18.791611 Si / 1000 Ang^3
#
#
#
# Elastic Constant Matrix: (Units=GPa)
#
#
# Indices 1 2 3 4 5 6 
#
# 1 180.8947 137.0012 50.9982 0.0000 0.0000 0.0000
# 2 137.0012 201.6026 57.2715 0.0000 0.0000 0.0000
# 3 50.9982 57.2715 44.0987 0.0000 0.0000 0.0000
# 4 0.0000 0.0000 0.0000 31.9402 0.0000 0.0000
# 5 0.0000 0.0000 0.0000 0.0000 30.7857 0.0000
# 6 0.0000 0.0000 0.0000 0.0000 0.0000 41.4562
#
#
#
# Elastic Compliance Matrix: (Units=1/GPa)
#
#
# Indices 1 2 3 4 5 6 
#
# 1 0.012114 -0.006738 -0.005258 0.000000 0.000000 0.000000
# 2 -0.006738 0.011608 -0.007283 0.000000 0.000000 0.000000
# 3 -0.005258 -0.007283 0.038216 0.000000 0.000000 0.000000
# 4 0.000000 0.000000 0.000000 0.031308 0.000000 0.000000
# 5 0.000000 0.000000 0.000000 0.000000 0.032483 0.000000
# 6 0.000000 0.000000 0.000000 0.000000 0.000000 0.024122
#
#
# Mechanical properties :
#
#
# Convention : Reuss Voigt Hill
#
# Bulk Modulus (GPa) = 42.77363 101.90420 72.33892
# Shear Modulus (GPa) = 25.48383 32.92478 29.20430
#
# Velocity S-wave (km/s) = 3.68656 4.19035 3.94650
# Velocity P-wave (km/s) = 6.39785 8.81807 7.70360
#
# Compressibility (1/GPa) = 0.02337889
#
# Stress axis : x y z
#
# Youngs Moduli (GPa) = 82.55135 86.14419 26.16717
#
# Poissons Ratio (x) = 0.58047 0.13758
# Poissons Ratio (y) = 0.55626 0.19059
# Poissons Ratio (z) = 0.43404 0.62742
#
# Static dielectric constant tensor:
#      x y z
#    x 1.615940 0.000000 0.000000 
#    y 0.000000 1.629880 0.000000 
#    z 0.000000 0.000000 1.638580 
# 
# From -- ./inp_files/2075.got.cif
#   From: 2010.05.17/outbox.cif.g08.bks.cpg/sg57_2_cif.got.tgz:2075.got - 2010.06.03 13:58:18.
