data_PCOD9437012
_publ_section_title
;
Structure prediction by ZEFSAII (Michael W. Deem and Ramdas Pophale) SiO2 
 PCOD9437012
Probable space group: P B C M
;
_chemical_formula_sum "Si O2"
_cell_formula_units_Z 60
_cell_length_a 15.199085
_cell_length_b 9.380212
_cell_length_c 21.545527
_cell_angle_alpha 90.000000
_cell_angle_beta 90.000000
_cell_angle_gamma 90.000000
_cell_volume 3071.759563
_symmetry_space_group_name_H-M "P B C M"
_symmetry_group_IT_number 57
_symmetry_cell_setting 'orthorhombic'
loop_
_space_group_symop_operation_xyz
x,y,z
-x,-y,1/2+z
x,1/2-y,-z
-x,1/2+y,1/2-z
-x,-y,-z
x,y,1/2-z
-x,1/2+y,z
x,1/2-y,1/2+z
loop_
_atom_site_type_symbol
_atom_site_label
_atom_site_fract_x
_atom_site_fract_y
_atom_site_fract_z
Si Si1 0.001887 0.465938 0.364603
Si Si2 0.706905 0.208917 0.928913
Si Si3 0.603534 0.750000 0.500000
Si Si4 0.567496 0.624880 0.179435
Si Si5 0.511834 0.364916 0.393598
Si Si6 0.119269 0.216525 0.318862
Si Si7 0.109278 0.788388 0.927282
Si Si8 0.729130 0.608284 0.397602
O O1 0.069179 0.366067 0.327057
O O2 0.055176 0.567895 0.412421
O O3 0.946629 0.581321 0.325350
O O4 0.938222 0.346763 0.394943
O O5 0.610664 0.199698 0.898057
O O6 0.788524 0.304715 0.905723
O O7 0.746636 0.050101 0.921693
O O8 0.690275 0.250000 0.000000
O O9 0.539816 0.651548 0.541761
O O10 0.667557 0.676175 0.450387
O O11 0.545880 0.591774 0.250000
O O12 0.540738 0.782615 0.159856
O O13 0.519622 0.525831 0.128904
O O14 0.669407 0.599634 0.164211
O O15 0.159441 0.212108 0.250000
O O16 0.186215 0.195052 0.376245
O O17 0.111352 0.750000 0.000000
#
# Coordination Sequence:
#
# PCOD9437012 Si02
#       8
#     8   8   4   8   8   8   8   8
#     4  10  22  39  62  90 118 157 206 244 299 361
#     4  10  20  34  58  87 122 153 195 243 301 356
#     4  10  22  38  60  94 118 154 208 248 310 362
#     4  10  21  38  58  84 117 160 203 240 300 358
#     4  10  21  36  62  84 119 158 198 256 295 357
#     4  11  22  42  64  88 120 161 205 251 300 360
#     4  10  20  37  59  90 125 156 192 240 304 361
#     4  10  22  37  60  89 120 160 196 252 303 362
#
# _framework density 19.532779000000001
#
# number of rings (size 3 to 8) (size 9 to 14) (size 15 to 20)
#    0.000    1.867    2.000    1.600    1.867    3.733 
#    7.200    0.000    0.000    0.000    0.000    0.000 
#    0.000    0.000    0.000    0.000    0.000    0.000 
#
# Total GULP energy -334322.443328 kJ/mol
# GULP energy per Si atom -5572.040722 kJ/mol
# Density = 1.948832 g / cm^3
# Si number density = 19.532779 Si / 1000 Ang^3
#
#
#
# Elastic Constant Matrix: (Units=GPa)
#
#
# Indices 1 2 3 4 5 6 
#
# 1 70.1100 19.0001 25.1504 0.0000 0.0000 0.0000
# 2 19.0001 72.6273 15.1909 0.0000 0.0000 0.0000
# 3 25.1504 15.1909 90.2026 0.0000 0.0000 0.0000
# 4 0.0000 0.0000 0.0000 14.6665 0.0000 0.0000
# 5 0.0000 0.0000 0.0000 0.0000 25.2267 0.0000
# 6 0.0000 0.0000 0.0000 0.0000 0.0000 25.7944
#
#
#
# Elastic Compliance Matrix: (Units=1/GPa)
#
#
# Indices 1 2 3 4 5 6 
#
# 1 0.016670 -0.003513 -0.004057 0.000000 0.000000 0.000000
# 2 -0.003513 0.015012 -0.001549 0.000000 0.000000 0.000000
# 3 -0.004057 -0.001549 0.012478 0.000000 0.000000 0.000000
# 4 0.000000 0.000000 0.000000 0.068183 0.000000 0.000000
# 5 0.000000 0.000000 0.000000 0.000000 0.039641 0.000000
# 6 0.000000 0.000000 0.000000 0.000000 0.000000 0.038768
#
#
# Mechanical properties :
#
#
# Convention : Reuss Voigt Hill
#
# Bulk Modulus (GPa) = 38.57363 39.06919 38.82141
# Shear Modulus (GPa) = 22.97490 24.71075 23.84283
#
# Velocity S-wave (km/s) = 3.43333 3.56067 3.49758
# Velocity P-wave (km/s) = 5.95886 6.07863 6.01905
#
# Compressibility (1/GPa) = 0.02592445
#
# Stress axis : x y z
#
# Youngs Moduli (GPa) = 59.98640 66.61423 80.14091
#
# Poissons Ratio (x) = 0.23400 0.32509
# Poissons Ratio (y) = 0.21071 0.12412
# Poissons Ratio (z) = 0.24334 0.10317
#
# Static dielectric constant tensor:
#      x y z
#    x 1.737030 0.000000 0.000000 
#    y 0.000000 1.662310 0.000000 
#    z 0.000000 0.000000 1.667420 
# 
# From -- ./inp_files/27418.got.cif
#   From: 2010.05.17/outbox.cif.g08.bks.cpg/sg57_14_cif.got.tgz:27418.got - 2010.06.03 13:58:18.
