data_PCOD9437536
_publ_section_title
;
Structure prediction by ZEFSAII (Michael W. Deem and Ramdas Pophale) SiO2 
 PCOD9437536
Probable space group: P B C M
;
_chemical_formula_sum "Si O2"
_cell_formula_units_Z 40
_cell_length_a 16.008091
_cell_length_b 14.380447
_cell_length_c 7.577461
_cell_angle_alpha 90.000000
_cell_angle_beta 90.000000
_cell_angle_gamma 90.000000
_cell_volume 1744.358075
_symmetry_space_group_name_H-M "P B C M"
_symmetry_group_IT_number 57
_symmetry_cell_setting 'orthorhombic'
loop_
_space_group_symop_operation_xyz
x,y,z
-x,-y,1/2+z
x,1/2-y,-z
-x,1/2+y,1/2-z
-x,-y,-z
x,y,1/2-z
-x,1/2+y,z
x,1/2-y,1/2+z
loop_
_atom_site_type_symbol
_atom_site_label
_atom_site_fract_x
_atom_site_fract_y
_atom_site_fract_z
Si Si1 0.258722 0.359595 0.962869
Si Si2 0.404918 0.484883 0.947212
Si Si3 0.282651 0.640854 0.460881
Si Si4 0.101239 0.639343 0.461594
Si Si5 0.077338 0.360832 0.961781
O O1 0.255384 0.371154 0.750000
O O2 0.338561 0.414751 0.036976
O O3 0.167456 0.393388 0.030930
O O4 0.266407 0.250000 0.000000
O O5 0.411549 0.448551 0.750000
O O6 0.500000 0.500000 0.000000
O O7 0.356718 0.582471 0.956101
O O8 0.289918 0.750000 0.500000
O O9 0.285735 0.628405 0.250000
O O10 0.191488 0.607060 0.528709
O O11 0.101265 0.750000 0.500000
O O12 0.101539 0.627247 0.250000
O O13 0.012175 0.603375 0.532159
O O14 0.076303 0.373197 0.750000
O O15 0.077429 0.250000 0.000000
#
# Coordination Sequence:
#
# PCOD9437536 Si02
#       5
#     8   8   8   8   8
#     4   9  19  35  57  82 109 141 178 219 268 322
#     4  11  24  41  58  79 107 141 182 232 283 332
#     4  10  20  36  58  84 112 145 182 222 268 321
#     4   8  14  25  46  75 107 140 174 210 253 307
#     4   8  13  25  46  74 106 139 172 209 253 308
#
# _framework density 22.931070999999999
#
# number of rings (size 3 to 8) (size 9 to 14) (size 15 to 20)
#    0.000    2.800    0.000    1.200    0.000    3.200 
#    0.000    3.000    0.000    0.000    0.000    0.000 
#    0.000    0.000    0.000    0.000    0.000    0.000 
#
# Total GULP energy -223048.049074 kJ/mol
# GULP energy per Si atom -5576.201227 kJ/mol
# Density = 2.287888 g / cm^3
# Si number density = 22.931071 Si / 1000 Ang^3
#
#
#
# Elastic Constant Matrix: (Units=GPa)
#
#
# Indices 1 2 3 4 5 6 
#
# 1 296.6605 51.6093 12.0886 0.0000 0.0000 0.0000
# 2 51.6093 76.3366 -24.1044 0.0000 0.0000 0.0000
# 3 12.0886 -24.1044 65.6194 0.0000 0.0000 0.0000
# 4 0.0000 0.0000 0.0000 11.4755 0.0000 0.0000
# 5 0.0000 0.0000 0.0000 0.0000 61.9716 0.0000
# 6 0.0000 0.0000 0.0000 0.0000 0.0000 22.6654
#
#
#
# Elastic Compliance Matrix: (Units=1/GPa)
#
#
# Indices 1 2 3 4 5 6 
#
# 1 0.004034 -0.003351 -0.001974 0.000000 0.000000 0.000000
# 2 -0.003351 0.017602 0.007083 0.000000 0.000000 0.000000
# 3 -0.001974 0.007083 0.018205 0.000000 0.000000 0.000000
# 4 0.000000 0.000000 0.000000 0.087142 0.000000 0.000000
# 5 0.000000 0.000000 0.000000 0.000000 0.016136 0.000000
# 6 0.000000 0.000000 0.000000 0.000000 0.000000 0.044120
#
#
# Mechanical properties :
#
#
# Convention : Reuss Voigt Hill
#
# Bulk Modulus (GPa) = 23.06402 57.53371 40.29887
# Shear Modulus (GPa) = 25.23014 45.82402 35.52708
#
# Velocity S-wave (km/s) = 3.32062 4.47513 3.94038
# Velocity P-wave (km/s) = 4.97813 7.20046 6.18985
#
# Compressibility (1/GPa) = 0.04335757
#
# Stress axis : x y z
#
# Youngs Moduli (GPa) = 247.87908 56.81219 54.93008
#
# Poissons Ratio (x) = 0.19037 0.10844
# Poissons Ratio (y) = 0.83059 -0.38908
# Poissons Ratio (z) = 0.48933 -0.40241
#
# Static dielectric constant tensor:
#      x y z
#    x 1.938350 0.000000 0.000000 
#    y 0.000000 5.501940 0.000000 
#    z 0.000000 0.000000 1.913930 
# 
# From -- ./inp_files/4256.got.cif
#   From: 2010.05.17/outbox.cif.g08.bks.cpg/sg57_3_cif.got.tgz:4256.got - 2010.06.03 13:58:18.
