data_PCOD9437453
_publ_section_title
;
Structure prediction by ZEFSAII (Michael W. Deem and Ramdas Pophale) SiO2 
 PCOD9437453
Probable space group: P B C M
;
_chemical_formula_sum "Si O2"
_cell_formula_units_Z 64
_cell_length_a 15.741655
_cell_length_b 23.632520
_cell_length_c 8.199663
_cell_angle_alpha 90.000000
_cell_angle_beta 90.000000
_cell_angle_gamma 90.000000
_cell_volume 3050.397439
_symmetry_space_group_name_H-M "P B C M"
_symmetry_group_IT_number 57
_symmetry_cell_setting 'orthorhombic'
loop_
_space_group_symop_operation_xyz
x,y,z
-x,-y,1/2+z
x,1/2-y,-z
-x,1/2+y,1/2-z
-x,-y,-z
x,y,1/2-z
-x,1/2+y,z
x,1/2-y,1/2+z
loop_
_atom_site_type_symbol
_atom_site_label
_atom_site_fract_x
_atom_site_fract_y
_atom_site_fract_z
Si Si1 0.770412 0.184598 0.445224
Si Si2 0.039508 0.814699 0.555281
Si Si3 0.279762 0.997875 0.449794
Si Si4 0.531734 0.813256 0.557343
Si Si5 0.904513 0.998021 0.931973
Si Si6 0.879133 0.879571 0.435715
Si Si7 0.618584 0.392031 0.059467
Si Si8 0.704011 0.870263 0.947617
O O1 0.764699 0.250000 0.500000
O O2 0.757777 0.181894 0.250000
O O3 0.699881 0.148201 0.534326
O O4 0.865863 0.163357 0.482086
O O5 0.039209 0.750000 0.500000
O O6 0.026283 0.819118 0.750000
O O7 0.964333 0.845019 0.461527
O O8 0.276260 0.995949 0.250000
O O9 0.184411 0.979853 0.508793
O O10 0.350603 0.953158 0.505023
O O11 0.300518 0.062816 0.494351
O O12 0.509550 0.750000 0.500000
O O13 0.539806 0.809767 0.750000
O O14 0.460246 0.859640 0.518718
O O15 0.622281 0.835804 0.492843
O O16 0.909809 0.021205 0.750000
O O17 0.884204 0.931289 0.938526
O O18 0.000000 0.000000 0.000000
O O19 0.875151 0.901065 0.250000
O O20 0.792103 0.847750 0.477850
O O21 0.599607 0.398284 0.250000
O O22 0.707797 0.867748 0.750000
#
# Coordination Sequence:
#
# PCOD9437453 Si02
#       8
#     8   8   8   8   8   8   8   8
#     4  10  21  37  56  80 112 152 196 244 296 352
#     4  10  21  37  56  81 113 153 197 246 296 354
#     4   8  18  37  59  85 117 156 197 240 296 355
#     4  11  24  42  65  91 118 153 196 247 303 362
#     4  10  20  36  56  83 118 158 203 248 294 346
#     4  11  22  36  57  85 117 155 195 241 295 353
#     4  11  22  37  60  88 120 155 192 242 297 359
#     4   9  20  42  65  84 116 156 198 248 302 356
#
# _framework density 20.980871
#
# number of rings (size 3 to 8) (size 9 to 14) (size 15 to 20)
#    0.000    2.000    0.000    4.125    1.750    3.500 
#    0.000    6.875    0.000    0.000    0.000    0.000 
#    0.000    0.000    0.000    0.000    0.000    0.000 
#
# Total GULP energy -357111.844372 kJ/mol
# GULP energy per Si atom -5579.872568 kJ/mol
# Density = 2.093312 g / cm^3
# Si number density = 20.980871 Si / 1000 Ang^3
#
#
#
# Elastic Constant Matrix: (Units=GPa)
#
#
# Indices 1 2 3 4 5 6 
#
# 1 69.6507 -11.4933 8.9198 0.0000 0.0000 0.0000
# 2 -11.4933 14.5905 -4.8502 0.0000 0.0000 0.0000
# 3 8.9198 -4.8502 36.0369 0.0000 0.0000 0.0000
# 4 0.0000 0.0000 0.0000 14.5498 0.0000 0.0000
# 5 0.0000 0.0000 0.0000 0.0000 -9.2726 0.0000
# 6 0.0000 0.0000 0.0000 0.0000 0.0000 40.5935
#
#
#
# Elastic Compliance Matrix: (Units=1/GPa)
#
#
# Indices 1 2 3 4 5 6 
#
# 1 0.016711 0.012341 -0.002475 0.000000 0.000000 0.000000
# 2 0.012341 0.080861 0.007829 0.000000 0.000000 0.000000
# 3 -0.002475 0.007829 0.029416 0.000000 0.000000 0.000000
# 4 0.000000 0.000000 0.000000 0.068729 0.000000 0.000000
# 5 0.000000 0.000000 0.000000 0.000000 -0.107844 0.000000
# 6 0.000000 0.000000 0.000000 0.000000 0.000000 0.024634
#
#
# Mechanical properties :
#
#
# Convention : Reuss Voigt Hill
#
# Bulk Modulus (GPa) = 6.15857 11.71453 8.93655
# Shear Modulus (GPa) = 38.09693 17.68759 27.89226
#
# Velocity S-wave (km/s) = 4.26584 2.90666 3.65007
# Velocity P-wave (km/s) = 5.21583 4.10614 4.69389
#
# Compressibility (1/GPa) = 0.16237527
#
# Stress axis : x y z
#
# Youngs Moduli (GPa) = 59.84183 12.36689 33.99546
#
# Poissons Ratio (x) = -0.15261 0.08415
# Poissons Ratio (y) = -0.73848 -0.26614
# Poissons Ratio (z) = 0.14813 -0.09682
#
# Static dielectric constant tensor:
#      x y z
#    x 1.798510 0.000000 0.000000 
#    y 0.000000 1.732570 0.000000 
#    z 0.000000 0.000000 1.743960 
# 
# From -- ./inp_files/5549.got.cif
#   From: 2010.05.17/outbox.cif.g08.bks.cpg/sg57_3_cif.got.tgz:5549.got - 2010.06.03 13:58:18.
