data_PCOD9437182
_publ_section_title
;
Structure prediction by ZEFSAII (Michael W. Deem and Ramdas Pophale) SiO2 
 PCOD9437182
Probable space group: P B C M
;
_chemical_formula_sum "Si O2"
_cell_formula_units_Z 64
_cell_length_a 20.784983
_cell_length_b 18.712342
_cell_length_c 7.540993
_cell_angle_alpha 90.000000
_cell_angle_beta 90.000000
_cell_angle_gamma 90.000000
_cell_volume 2932.961469
_symmetry_space_group_name_H-M "P B C M"
_symmetry_group_IT_number 57
_symmetry_cell_setting 'orthorhombic'
loop_
_space_group_symop_operation_xyz
x,y,z
-x,-y,1/2+z
x,1/2-y,-z
-x,1/2+y,1/2-z
-x,-y,-z
x,y,1/2-z
-x,1/2+y,z
x,1/2-y,1/2+z
loop_
_atom_site_type_symbol
_atom_site_label
_atom_site_fract_x
_atom_site_fract_y
_atom_site_fract_z
Si Si1 0.787097 0.831268 0.037671
Si Si2 0.605714 0.333386 0.462271
Si Si3 0.021242 0.832048 0.037183
Si Si4 0.338586 0.402777 0.458536
Si Si5 0.860124 0.413952 0.456529
Si Si6 0.716305 0.440595 0.465665
Si Si7 0.481926 0.082086 0.963260
Si Si8 0.096026 0.430224 0.034468
O O1 0.785103 0.839893 0.250000
O O2 0.716461 0.851035 0.966151
O O3 0.841011 0.886389 0.973778
O O4 0.804943 0.750000 0.000000
O O5 0.611365 0.250000 0.500000
O O6 0.604754 0.342003 0.250000
O O7 0.666302 0.379922 0.525422
O O8 0.539036 0.367260 0.530820
O O9 0.022859 0.840035 0.250000
O O10 0.091421 0.854987 0.967036
O O11 0.966443 0.886608 0.973392
O O12 0.005376 0.750000 0.000000
O O13 0.344629 0.386092 0.250000
O O14 0.310312 0.482668 0.475522
O O15 0.410612 0.400860 0.533976
O O16 0.850093 0.396074 0.250000
O O17 0.788663 0.425485 0.531465
O O18 0.897547 0.489159 0.469430
O O19 0.717394 0.442482 0.250000
O O20 0.479607 0.089400 0.750000
O O21 0.500000 0.000000 0.000000
O O22 0.095717 0.432160 0.250000
#
# Coordination Sequence:
#
# PCOD9437182 Si02
#       8
#     8   8   8   8   8   8   8   8
#     4  10  21  35  52  79 111 142 178 219 266 322
#     4  10  22  38  55  81 114 146 184 228 275 326
#     4  10  22  38  55  80 113 147 184 227 275 329
#     4  10  20  35  56  81 109 141 181 225 270 325
#     4  10  21  36  57  84 111 141 184 231 275 328
#     4  10  20  36  57  81 110 144 183 228 275 326
#     4  10  20  35  57  82 109 142 182 227 272 325
#     4  10  20  36  57  81 110 144 183 227 272 325
#
# _framework density 21.820948999999999
#
# number of rings (size 3 to 8) (size 9 to 14) (size 15 to 20)
#    0.000    2.000    2.500    0.750    0.000    4.000 
#    0.000    0.000    0.000    0.000    0.000    0.000 
#    0.000    0.000    0.000    0.000    0.000    0.000 
#
# Total GULP energy -357591.470843 kJ/mol
# GULP energy per Si atom -5587.366732 kJ/mol
# Density = 2.177128 g / cm^3
# Si number density = 21.820949 Si / 1000 Ang^3
#
#
#
# Elastic Constant Matrix: (Units=GPa)
#
#
# Indices 1 2 3 4 5 6 
#
# 1 123.1056 0.9248 4.2668 0.0000 0.0000 0.0000
# 2 0.9248 43.4528 -16.9933 0.0000 0.0000 0.0000
# 3 4.2668 -16.9933 53.6764 0.0000 0.0000 0.0000
# 4 0.0000 0.0000 0.0000 17.8274 0.0000 0.0000
# 5 0.0000 0.0000 0.0000 0.0000 4.8443 0.0000
# 6 0.0000 0.0000 0.0000 0.0000 0.0000 34.2246
#
#
#
# Elastic Compliance Matrix: (Units=1/GPa)
#
#
# Indices 1 2 3 4 5 6 
#
# 1 0.008155 -0.000487 -0.000803 0.000000 0.000000 0.000000
# 2 -0.000487 0.026295 0.008363 0.000000 0.000000 0.000000
# 3 -0.000803 0.008363 0.021342 0.000000 0.000000 0.000000
# 4 0.000000 0.000000 0.000000 0.056093 0.000000 0.000000
# 5 0.000000 0.000000 0.000000 0.000000 0.206429 0.000000
# 6 0.000000 0.000000 0.000000 0.000000 0.000000 0.029219
#
#
# Mechanical properties :
#
#
# Convention : Reuss Voigt Hill
#
# Bulk Modulus (GPa) = 14.29847 21.84792 18.07319
# Shear Modulus (GPa) = 14.01748 26.84837 20.43292
#
# Velocity S-wave (km/s) = 2.53728 3.51150 3.06337
# Velocity P-wave (km/s) = 3.89238 5.14538 4.56210
#
# Compressibility (1/GPa) = 0.06993756
#
# Stress axis : x y z
#
# Youngs Moduli (GPa) = 122.63046 38.03073 46.85666
#
# Poissons Ratio (x) = 0.01854 0.03760
# Poissons Ratio (y) = 0.05977 -0.39188
# Poissons Ratio (z) = 0.09841 -0.31806
#
# Static dielectric constant tensor:
#      x y z
#    x 1.826690 0.000000 0.000000 
#    y 0.000000 1.730400 0.000000 
#    z 0.000000 0.000000 1.832120 
# 
# From -- ./inp_files/8523.got.cif
#   From: 2010.05.17/outbox.cif.g08.bks.cpg/sg57_5_cif.got.tgz:8523.got - 2010.06.03 13:58:18.
