data_PCOD9437250
_publ_section_title
;
Structure prediction by ZEFSAII (Michael W. Deem and Ramdas Pophale) SiO2 
 PCOD9437250
Probable space group: P B C M
;
_chemical_formula_sum "Si O2"
_cell_formula_units_Z 56
_cell_length_a 21.972990
_cell_length_b 15.864915
_cell_length_c 8.168753
_cell_angle_alpha 90.000000
_cell_angle_beta 90.000000
_cell_angle_gamma 90.000000
_cell_volume 2847.624181
_symmetry_space_group_name_H-M "P B C M"
_symmetry_group_IT_number 57
_symmetry_cell_setting 'orthorhombic'
loop_
_space_group_symop_operation_xyz
x,y,z
-x,-y,1/2+z
x,1/2-y,-z
-x,1/2+y,1/2-z
-x,-y,-z
x,y,1/2-z
-x,1/2+y,z
x,1/2-y,1/2+z
loop_
_atom_site_type_symbol
_atom_site_label
_atom_site_fract_x
_atom_site_fract_y
_atom_site_fract_z
Si Si1 0.425123 0.656270 0.554162
Si Si2 0.872212 0.841954 0.052577
Si Si3 0.435273 0.156227 0.947638
Si Si4 0.865405 0.157194 0.945590
Si Si5 0.650226 0.995266 0.052888
Si Si6 0.211211 0.003319 0.552447
Si Si7 0.997044 0.402733 0.447788
O O1 0.406357 0.750000 0.500000
O O2 0.425384 0.653382 0.750000
O O3 0.494960 0.642900 0.495204
O O4 0.382094 0.582806 0.490183
O O5 0.873072 0.845121 0.250000
O O6 0.941409 0.857604 0.993410
O O7 0.829415 0.917952 0.993571
O O8 0.850815 0.750000 0.000000
O O9 0.436004 0.153756 0.750000
O O10 0.390799 0.082759 0.007893
O O11 0.416294 0.250000 0.000000
O O12 0.866813 0.154495 0.750000
O O13 0.934112 0.138031 0.007812
O O14 0.846248 0.250000 0.000000
O O15 0.821378 0.083457 0.005609
O O16 0.652272 0.988778 0.250000
O O17 0.719510 0.992373 0.991811
O O18 0.212518 0.007644 0.750000
O O19 0.996795 0.399498 0.250000
O O20 0.000000 0.500000 0.500000
#
# Coordination Sequence:
#
# PCOD9437250 Si02
#       7
#     8   8   8   8   8   8   8
#     4  10  20  35  57  84 113 145 181 227 277 327
#     4  10  21  37  57  82 111 144 181 223 274 327
#     4   9  19  35  56  84 115 145 181 225 275 328
#     4  11  23  38  59  85 111 145 186 230 280 332
#     4  10  21  37  57  81 111 148 187 227 275 326
#     4  10  22  40  58  78 111 151 187 229 275 324
#     4  10  20  35  58  85 112 142 179 227 279 328
#
# _framework density 19.665516
#
# number of rings (size 3 to 8) (size 9 to 14) (size 15 to 20)
#    0.000    2.000    1.429    1.714    0.000    4.571 
#    0.000    0.000    0.000    0.000    0.000    0.000 
#    0.000    0.000    0.000    0.000    0.000    0.000 
#
# Total GULP energy -312818.794984 kJ/mol
# GULP energy per Si atom -5586.049910 kJ/mol
# Density = 1.962076 g / cm^3
# Si number density = 19.665516 Si / 1000 Ang^3
#
#
#
# Elastic Constant Matrix: (Units=GPa)
#
#
# Indices 1 2 3 4 5 6 
#
# 1 121.1807 77.8564 8.7396 0.0000 0.0000 0.0000
# 2 77.8564 151.3293 -4.0056 0.0000 0.0000 0.0000
# 3 8.7396 -4.0056 5.8054 0.0000 0.0000 0.0000
# 4 0.0000 0.0000 0.0000 32.6853 0.0000 0.0000
# 5 0.0000 0.0000 0.0000 0.0000 15.2813 0.0000
# 6 0.0000 0.0000 0.0000 0.0000 0.0000 -6.7756
#
#
#
# Elastic Compliance Matrix: (Units=1/GPa)
#
#
# Indices 1 2 3 4 5 6 
#
# 1 0.016486 -0.009309 -0.031241 0.000000 0.000000 0.000000
# 2 -0.009309 0.011987 0.022284 0.000000 0.000000 0.000000
# 3 -0.031241 0.022284 0.234661 0.000000 0.000000 0.000000
# 4 0.000000 0.000000 0.000000 0.030595 0.000000 0.000000
# 5 0.000000 0.000000 0.000000 0.000000 0.065439 0.000000
# 6 0.000000 0.000000 0.000000 0.000000 0.000000 -0.147588
#
#
# Mechanical properties :
#
#
# Convention : Reuss Voigt Hill
#
# Bulk Modulus (GPa) = 4.41299 49.27735 26.84517
# Shear Modulus (GPa) = 15.44896 21.28653 18.36774
#
# Velocity S-wave (km/s) = 2.80587 3.29360 3.05947
# Velocity P-wave (km/s) = 3.57017 6.29093 5.11478
#
# Compressibility (1/GPa) = 0.22660354
#
# Stress axis : x y z
#
# Youngs Moduli (GPa) = 60.65787 83.42290 4.26146
#
# Poissons Ratio (x) = 0.77656 0.13313
# Poissons Ratio (y) = 0.56464 -0.09496
# Poissons Ratio (z) = 1.89502 -1.85903
#
# Static dielectric constant tensor:
#      x y z
#    x 1.698180 0.000000 0.000000 
#    y 0.000000 1.652540 0.000000 
#    z 0.000000 0.000000 1.693640 
# 
# From -- ./inp_files/8029.got.cif
#   From: 2010.05.17/outbox.cif.g08.bks.cpg/sg57_5_cif.got.tgz:8029.got - 2010.06.03 13:58:18.
