data_PCOD9437270
_publ_section_title
;
Structure prediction by ZEFSAII (Michael W. Deem and Ramdas Pophale) SiO2 
 PCOD9437270
Probable space group: P B C M
;
_chemical_formula_sum "Si O2"
_cell_formula_units_Z 40
_cell_length_a 24.796635
_cell_length_b 8.568910
_cell_length_c 9.391985
_cell_angle_alpha 90.000000
_cell_angle_beta 90.000000
_cell_angle_gamma 90.000000
_cell_volume 1995.610228
_symmetry_space_group_name_H-M "P B C M"
_symmetry_group_IT_number 57
_symmetry_cell_setting 'orthorhombic'
loop_
_space_group_symop_operation_xyz
x,y,z
-x,-y,1/2+z
x,1/2-y,-z
-x,1/2+y,1/2-z
-x,-y,-z
x,y,1/2-z
-x,1/2+y,z
x,1/2-y,1/2+z
loop_
_atom_site_type_symbol
_atom_site_label
_atom_site_fract_x
_atom_site_fract_y
_atom_site_fract_z
Si Si1 0.768689 0.911803 0.914458
Si Si2 0.548709 0.915453 0.421004
Si Si3 0.879815 0.065718 0.975667
Si Si4 0.039781 0.064582 0.250000
Si Si5 0.668172 0.919255 0.420749
Si Si6 0.924063 0.922965 0.250000
O O1 0.753475 0.880556 0.750000
O O2 0.779434 0.750000 0.000000
O O3 0.719640 0.993654 0.000572
O O4 0.822934 0.012464 0.912705
O O5 0.551516 0.750000 0.500000
O O6 0.539947 0.900857 0.250000
O O7 0.608426 0.990218 0.440946
O O8 0.500000 0.000000 0.500000
O O9 0.887965 0.965165 0.116558
O O10 0.880392 0.250000 0.000000
O O11 0.931087 0.017618 0.881876
O O12 0.054946 0.246483 0.250000
O O13 0.976469 0.034426 0.250000
O O14 0.666310 0.750000 0.500000
O O15 0.676211 0.905835 0.250000
#
# Coordination Sequence:
#
# PCOD9437270 Si02
#       6
#     8   8   8   4   8   4
#     4  11  22  38  62  90 120 156 205 253 306 371
#     4  10  20  35  57  86 122 163 209 261 314 376
#     4  12  26  43  63  93 128 164 203 252 311 371
#     4  12  24  48  64 100 122 160 209 248 309 372
#     4   9  18  33  56  87 119 157 206 255 307 366
#     4  12  26  42  74  90 128 164 201 256 303 368
#
# _framework density 20.043994999999999
#
# number of rings (size 3 to 8) (size 9 to 14) (size 15 to 20)
#    0.000    1.200    1.000    7.200    2.800    2.400 
#    0.000    1.000    0.000    2.400    0.000    0.000 
#    0.000    0.000    0.000    0.000    0.000    0.000 
#
# Total GULP energy -223218.076101 kJ/mol
# GULP energy per Si atom -5580.451903 kJ/mol
# Density = 1.999837 g / cm^3
# Si number density = 20.043995 Si / 1000 Ang^3
#
#
#
# Elastic Constant Matrix: (Units=GPa)
#
#
# Indices 1 2 3 4 5 6 
#
# 1 129.9930 17.3170 43.7089 0.0000 0.0000 0.0000
# 2 17.3170 77.0931 10.8884 0.0000 0.0000 0.0000
# 3 43.7089 10.8884 146.5432 0.0000 0.0000 0.0000
# 4 0.0000 0.0000 0.0000 17.0408 0.0000 0.0000
# 5 0.0000 0.0000 0.0000 0.0000 41.6438 0.0000
# 6 0.0000 0.0000 0.0000 0.0000 0.0000 17.4082
#
#
#
# Elastic Compliance Matrix: (Units=1/GPa)
#
#
# Indices 1 2 3 4 5 6 
#
# 1 0.008744 -0.001613 -0.002488 0.000000 0.000000 0.000000
# 2 -0.001613 0.013406 -0.000515 0.000000 0.000000 0.000000
# 3 -0.002488 -0.000515 0.007604 0.000000 0.000000 0.000000
# 4 0.000000 0.000000 0.000000 0.058683 0.000000 0.000000
# 5 0.000000 0.000000 0.000000 0.000000 0.024013 0.000000
# 6 0.000000 0.000000 0.000000 0.000000 0.000000 0.057444
#
#
# Mechanical properties :
#
#
# Convention : Reuss Voigt Hill
#
# Bulk Modulus (GPa) = 48.72646 55.27312 51.99979
# Shear Modulus (GPa) = 26.88630 33.99955 30.44293
#
# Velocity S-wave (km/s) = 3.66644 4.12302 3.90141
# Velocity P-wave (km/s) = 6.50279 7.09235 6.80396
#
# Compressibility (1/GPa) = 0.02052273
#
# Stress axis : x y z
#
# Youngs Moduli (GPa) = 114.36125 74.59155 131.50338
#
# Poissons Ratio (x) = 0.12030 0.32722
# Poissons Ratio (y) = 0.18443 0.06774
# Poissons Ratio (z) = 0.28456 0.03842
#
# Static dielectric constant tensor:
#      x y z
#    x 1.741020 0.000000 0.000000 
#    y 0.000000 1.460240 0.000000 
#    z 0.000000 0.000000 1.717710 
# 
# From -- ./inp_files/9006.got.cif
#   From: 2010.05.17/outbox.cif.g08.bks.cpg/sg57_5_cif.got.tgz:9006.got - 2010.06.03 13:58:18.
