data_PCOD9437675
_publ_section_title
;
Structure prediction by ZEFSAII (Michael W. Deem and Ramdas Pophale) SiO2 
 PCOD9437675
Probable space group: P B C M
;
_chemical_formula_sum "Si O2"
_cell_formula_units_Z 64
_cell_length_a 24.401339
_cell_length_b 15.421489
_cell_length_c 8.686910
_cell_angle_alpha 90.000000
_cell_angle_beta 90.000000
_cell_angle_gamma 90.000000
_cell_volume 3268.927502
_symmetry_space_group_name_H-M "P B C M"
_symmetry_group_IT_number 57
_symmetry_cell_setting 'orthorhombic'
loop_
_space_group_symop_operation_xyz
x,y,z
-x,-y,1/2+z
x,1/2-y,-z
-x,1/2+y,1/2-z
-x,-y,-z
x,y,1/2-z
-x,1/2+y,z
x,1/2-y,1/2+z
loop_
_atom_site_type_symbol
_atom_site_label
_atom_site_fract_x
_atom_site_fract_y
_atom_site_fract_z
Si Si1 0.500163 0.340982 0.934786
Si Si2 0.078843 0.480952 0.935577
Si Si3 0.602375 0.917889 0.072574
Si Si4 0.378962 0.620704 0.070759
Si Si5 0.205272 0.490763 0.935718
Si Si6 0.740909 0.338490 0.934586
Si Si7 0.010210 0.849215 0.434885
Si Si8 0.710333 0.841587 0.566399
O O1 0.501202 0.342390 0.750000
O O2 0.562260 0.352309 0.996053
O O3 0.479175 0.250000 0.000000
O O4 0.456607 0.410446 0.993556
O O5 0.072966 0.474328 0.750000
O O6 0.142492 0.472137 0.977000
O O7 0.056815 0.578098 0.978259
O O8 0.043520 0.403009 0.009450
O O9 0.597111 0.891052 0.250000
O O10 0.621855 0.016972 0.067434
O O11 0.649198 0.862530 0.991108
O O12 0.379863 0.648529 0.250000
O O13 0.321854 0.653059 0.002927
O O14 0.208045 0.497808 0.750000
O O15 0.247606 0.416123 0.984660
O O16 0.225367 0.579754 0.008754
O O17 0.739206 0.337477 0.750000
O O18 0.764773 0.250000 0.000000
O O19 0.014691 0.750000 0.500000
O O20 0.010018 0.841773 0.250000
O O21 0.728116 0.750000 0.500000
O O22 0.710014 0.838981 0.750000
#
# Coordination Sequence:
#
# PCOD9437675 Si02
#       8
#     8   8   8   8   8   8   8   8
#     4  11  22  37  54  79 109 141 183 232 290 353
#     4   9  20  39  61  88 124 161 202 250 295 346
#     4  11  21  38  59  81 109 143 186 237 294 354
#     4   9  20  37  58  81 109 143 186 237 291 352
#     4  10  22  41  62  88 121 157 200 249 296 346
#     4  11  22  39  61  87 118 156 198 245 297 354
#     4  10  20  36  61  91 125 164 203 244 294 346
#     4  11  23  39  60  85 114 152 196 242 295 354
#
# _framework density 19.578285999999999
#
# number of rings (size 3 to 8) (size 9 to 14) (size 15 to 20)
#    0.000    1.750    1.250    3.000    0.000    2.500 
#    0.000    6.250    0.000    0.000    0.000    0.000 
#    0.000    0.000    0.000    0.000    0.000    0.000 
#
# Total GULP energy -357241.366824 kJ/mol
# GULP energy per Si atom -5581.896357 kJ/mol
# Density = 1.953373 g / cm^3
# Si number density = 19.578286 Si / 1000 Ang^3
#
#
#
# Elastic Constant Matrix: (Units=GPa)
#
#
# Indices 1 2 3 4 5 6 
#
# 1 78.4596 21.8060 21.1242 0.0000 0.0000 0.0000
# 2 21.8060 102.2446 25.8955 0.0000 0.0000 0.0000
# 3 21.1242 25.8955 38.5544 0.0000 0.0000 0.0000
# 4 0.0000 0.0000 0.0000 29.2883 0.0000 0.0000
# 5 0.0000 0.0000 0.0000 0.0000 -54.0299 0.0000
# 6 0.0000 0.0000 0.0000 0.0000 0.0000 -18.0477
#
#
#
# Elastic Compliance Matrix: (Units=1/GPa)
#
#
# Indices 1 2 3 4 5 6 
#
# 1 0.015105 -0.001356 -0.007365 0.000000 0.000000 0.000000
# 2 -0.001356 0.011907 -0.007254 0.000000 0.000000 0.000000
# 3 -0.007365 -0.007254 0.034846 0.000000 0.000000 0.000000
# 4 0.000000 0.000000 0.000000 0.034143 0.000000 0.000000
# 5 0.000000 0.000000 0.000000 0.000000 -0.018508 0.000000
# 6 0.000000 0.000000 0.000000 0.000000 0.000000 -0.055409
#
#
# Mechanical properties :
#
#
# Convention : Reuss Voigt Hill
#
# Bulk Modulus (GPa) = 33.43831 39.65666 36.54748
# Shear Modulus (GPa) = 78.11910 1.47101 39.79506
#
# Velocity S-wave (km/s) = 6.32357 0.86774 4.51334
# Velocity P-wave (km/s) = 8.39244 4.61556 6.77261
#
# Compressibility (1/GPa) = 0.02990582
#
# Stress axis : x y z
#
# Youngs Moduli (GPa) = 66.20168 83.98401 28.69809
#
# Poissons Ratio (x) = 0.11389 0.21137
# Poissons Ratio (y) = 0.08978 0.20819
# Poissons Ratio (z) = 0.48761 0.60926
#
# Static dielectric constant tensor:
#      x y z
#    x 1.692860 0.000000 0.000000 
#    y 0.000000 1.683150 0.000000 
#    z 0.000000 0.000000 1.669410 
# 
# From -- ./inp_files/9364.got.cif
#   From: 2010.05.17/outbox.cif.g08.bks.cpg/sg57_5_cif.got.tgz:9364.got - 2010.06.03 13:58:18.
