data_PCOD9437431
_publ_section_title
;
Structure prediction by ZEFSAII (Michael W. Deem and Ramdas Pophale) SiO2 
 PCOD9437431
Probable space group: P B C M
;
_chemical_formula_sum "Si O2"
_cell_formula_units_Z 52
_cell_length_a 13.599974
_cell_length_b 23.112056
_cell_length_c 7.977122
_cell_angle_alpha 90.000000
_cell_angle_beta 90.000000
_cell_angle_gamma 90.000000
_cell_volume 2507.395796
_symmetry_space_group_name_H-M "P B C M"
_symmetry_group_IT_number 57
_symmetry_cell_setting 'orthorhombic'
loop_
_space_group_symop_operation_xyz
x,y,z
-x,-y,1/2+z
x,1/2-y,-z
-x,1/2+y,1/2-z
-x,-y,-z
x,y,1/2-z
-x,1/2+y,z
x,1/2-y,1/2+z
loop_
_atom_site_type_symbol
_atom_site_label
_atom_site_fract_x
_atom_site_fract_y
_atom_site_fract_z
Si Si1 0.923238 0.174202 0.939039
Si Si2 0.399629 0.929943 0.547858
Si Si3 0.009616 0.434863 0.945990
Si Si4 0.297536 0.811289 0.950853
Si Si5 0.090877 0.250000 0.000000
Si Si6 0.375677 0.056793 0.048125
Si Si7 0.201994 0.139538 0.452738
O O1 0.952852 0.190428 0.750000
O O2 0.004508 0.204154 0.058945
O O3 0.812216 0.189886 0.975274
O O4 0.934100 0.106062 0.958657
O O5 0.401474 0.928099 0.750000
O O6 0.349873 0.870240 0.490240
O O7 0.512744 0.933238 0.486987
O O8 0.348723 0.990685 0.499275
O O9 0.989163 0.429688 0.750000
O O10 0.117013 0.408199 0.978801
O O11 0.000000 0.500000 0.000000
O O12 0.290168 0.813494 0.750000
O O13 0.346149 0.750000 0.000000
O O14 0.168247 0.301423 0.044823
O O15 0.375611 0.059182 0.250000
O O16 0.301566 0.107342 0.992880
O O17 0.205989 0.152704 0.250000
#
# Coordination Sequence:
#
# PCOD9437431 Si02
#       7
#     8   8   8   8   4   8   8
#     4  11  22  36  57  80 109 151 193 232 284 342
#     4   9  20  38  59  85 116 147 184 235 287 338
#     4  10  21  36  53  80 115 147 185 235 285 338
#     4  11  23  38  57  84 116 151 190 237 284 339
#     4  10  20  36  56  80 114 150 190 240 280 340
#     4   9  18  37  63  86 112 148 186 230 287 346
#     4   9  19  35  56  81 109 146 190 233 280 337
#
# _framework density 20.73865
#
# number of rings (size 3 to 8) (size 9 to 14) (size 15 to 20)
#    0.000    2.154    0.769    1.846    2.154    2.462 
#    1.385    3.846    0.000    0.000    0.000    0.000 
#    0.000    0.000    0.000    0.000    0.000    0.000 
#
# Total GULP energy -289477.444797 kJ/mol
# GULP energy per Si atom -5566.873938 kJ/mol
# Density = 2.069145 g / cm^3
# Si number density = 20.738650 Si / 1000 Ang^3
#
#
#
# Elastic Constant Matrix: (Units=GPa)
#
#
# Indices 1 2 3 4 5 6 
#
# 1 72.2061 67.7030 13.4460 0.0000 0.0000 0.0000
# 2 67.7030 208.2463 24.2295 0.0000 0.0000 0.0000
# 3 13.4460 24.2295 51.1778 0.0000 0.0000 0.0000
# 4 0.0000 0.0000 0.0000 18.1345 0.0000 0.0000
# 5 0.0000 0.0000 0.0000 0.0000 11.9849 0.0000
# 6 0.0000 0.0000 0.0000 0.0000 0.0000 36.2870
#
#
#
# Elastic Compliance Matrix: (Units=1/GPa)
#
#
# Indices 1 2 3 4 5 6 
#
# 1 0.020180 -0.006290 -0.002324 0.000000 0.000000 0.000000
# 2 -0.006290 0.007043 -0.001682 0.000000 0.000000 0.000000
# 3 -0.002324 -0.001682 0.020946 0.000000 0.000000 0.000000
# 4 0.000000 0.000000 0.000000 0.055144 0.000000 0.000000
# 5 0.000000 0.000000 0.000000 0.000000 0.083438 0.000000
# 6 0.000000 0.000000 0.000000 0.000000 0.000000 0.027558
#
#
# Mechanical properties :
#
#
# Convention : Reuss Voigt Hill
#
# Bulk Modulus (GPa) = 36.26138 60.26526 48.26332
# Shear Modulus (GPa) = 20.48395 28.36471 24.42433
#
# Velocity S-wave (km/s) = 3.14621 3.70228 3.43552
# Velocity P-wave (km/s) = 5.54266 6.88465 6.24978
#
# Compressibility (1/GPa) = 0.02757755
#
# Stress axis : x y z
#
# Youngs Moduli (GPa) = 49.55389 141.99045 47.74085
#
# Poissons Ratio (x) = 0.89317 0.11094
# Poissons Ratio (y) = 0.31171 0.08028
# Poissons Ratio (z) = 0.11516 0.23877
#
# Static dielectric constant tensor:
#      x y z
#    x 1.370640 0.000000 0.000000 
#    y 0.000000 1.760510 0.000000 
#    z 0.000000 0.000000 1.838990 
# 
# From -- ./inp_files/5039.got.cif
#   From: 2010.05.17/outbox.cif.g08.bks.cpg/sg57_3_cif.got.tgz:5039.got - 2010.06.03 13:58:18.
