data_PCOD9437850
_publ_section_title
;
Structure prediction by ZEFSAII (Michael W. Deem and Ramdas Pophale) SiO2 
 PCOD9437850
Probable space group: P B C M
;
_chemical_formula_sum "Si O2"
_cell_formula_units_Z 64
_cell_length_a 12.272269
_cell_length_b 31.746567
_cell_length_c 8.714600
_cell_angle_alpha 90.000000
_cell_angle_beta 90.000000
_cell_angle_gamma 90.000000
_cell_volume 3395.229163
_symmetry_space_group_name_H-M "P B C M"
_symmetry_group_IT_number 57
_symmetry_cell_setting 'orthorhombic'
loop_
_space_group_symop_operation_xyz
x,y,z
-x,-y,1/2+z
x,1/2-y,-z
-x,1/2+y,1/2-z
-x,-y,-z
x,y,1/2-z
-x,1/2+y,z
x,1/2-y,1/2+z
loop_
_atom_site_type_symbol
_atom_site_label
_atom_site_fract_x
_atom_site_fract_y
_atom_site_fract_z
Si Si1 0.991394 0.204443 0.065838
Si Si2 0.757577 0.444005 0.568739
Si Si3 0.375025 0.113443 0.071221
Si Si4 0.129441 0.123063 0.063907
Si Si5 0.395147 0.627091 0.930818
Si Si6 0.615844 0.987244 0.571354
Si Si7 0.989918 0.047228 0.932554
Si Si8 0.736530 0.204404 0.434263
O O1 0.999314 0.206797 0.250000
O O2 0.864183 0.197311 0.027210
O O3 0.061232 0.164189 0.014867
O O4 0.024333 0.250000 0.000000
O O5 0.775330 0.441352 0.750000
O O6 0.664822 0.411196 0.517917
O O7 0.710887 0.489350 0.520265
O O8 0.870782 0.436122 0.482864
O O9 0.391784 0.125362 0.250000
O O10 0.255846 0.128314 0.020580
O O11 0.372571 0.062726 0.064245
O O12 0.478052 0.128245 0.974696
O O13 0.124861 0.119846 0.250000
O O14 0.077668 0.080326 0.997507
O O15 0.381721 0.621167 0.750000
O O16 0.335971 0.668964 0.988227
O O17 0.620170 0.000365 0.750000
O O18 0.500000 0.000000 0.500000
O O19 0.998445 0.044920 0.750000
O O20 0.000000 0.000000 0.000000
O O21 0.706996 0.250000 0.500000
O O22 0.725412 0.203150 0.250000
#
# Coordination Sequence:
#
# PCOD9437850 Si02
#       8
#     8   8   8   8   8   8   8   8
#     4   9  19  36  62  92 120 152 190 241 298 359
#     4  12  24  39  60  86 118 155 199 249 300 352
#     4  10  22  39  59  82 116 160 203 246 297 356
#     4  10  21  40  63  88 120 161 206 251 304 362
#     4  12  24  38  59  87 118 152 197 245 297 357
#     4  11  21  35  56  83 115 155 201 250 300 352
#     4  12  25  41  61  88 122 160 202 249 305 366
#     4  10  20  37  61  89 121 152 188 236 298 361
#
# _framework density 18.849978
#
# number of rings (size 3 to 8) (size 9 to 14) (size 15 to 20)
#    0.000    1.250    1.250    5.625    0.000    4.000 
#    0.000    0.625    0.000    1.500    0.000    0.000 
#    0.000    0.000    0.000    0.000    0.000    0.000 
#
# Total GULP energy -357871.052411 kJ/mol
# GULP energy per Si atom -5591.735194 kJ/mol
# Density = 1.880707 g / cm^3
# Si number density = 18.849978 Si / 1000 Ang^3
#
#
#
# Elastic Constant Matrix: (Units=GPa)
#
#
# Indices 1 2 3 4 5 6 
#
# 1 92.0392 44.2439 29.2030 0.0000 0.0000 0.0000
# 2 44.2439 103.4182 33.3624 0.0000 0.0000 0.0000
# 3 29.2030 33.3624 73.7583 0.0000 0.0000 0.0000
# 4 0.0000 0.0000 0.0000 29.4781 0.0000 0.0000
# 5 0.0000 0.0000 0.0000 0.0000 28.6634 0.0000
# 6 0.0000 0.0000 0.0000 0.0000 0.0000 34.0015
#
#
#
# Elastic Compliance Matrix: (Units=1/GPa)
#
#
# Indices 1 2 3 4 5 6 
#
# 1 0.014373 -0.005050 -0.003407 0.000000 0.000000 0.000000
# 2 -0.005050 0.013096 -0.003924 0.000000 0.000000 0.000000
# 3 -0.003407 -0.003924 0.016681 0.000000 0.000000 0.000000
# 4 0.000000 0.000000 0.000000 0.033923 0.000000 0.000000
# 5 0.000000 0.000000 0.000000 0.000000 0.034888 0.000000
# 6 0.000000 0.000000 0.000000 0.000000 0.000000 0.029410
#
#
# Mechanical properties :
#
#
# Convention : Reuss Voigt Hill
#
# Bulk Modulus (GPa) = 51.57499 53.64827 52.61163
# Shear Modulus (GPa) = 28.80230 29.25569 29.02899
#
# Velocity S-wave (km/s) = 3.91317 3.94385 3.92854
# Velocity P-wave (km/s) = 6.91646 7.01862 6.96773
#
# Compressibility (1/GPa) = 0.01938924
#
# Stress axis : x y z
#
# Youngs Moduli (GPa) = 69.57253 76.35957 59.94682
#
# Poissons Ratio (x) = 0.38564 0.20421
# Poissons Ratio (y) = 0.35136 0.23523
# Poissons Ratio (z) = 0.23700 0.29964
#
# Static dielectric constant tensor:
#      x y z
#    x 1.649380 0.000000 0.000000 
#    y 0.000000 1.668070 0.000000 
#    z 0.000000 0.000000 1.639630 
# 
# From -- ./inp_files/3884.got.cif
#   From: 2010.05.17/outbox.cif.g08.bks.cpg/sg57_2_cif.got.tgz:3884.got - 2010.06.03 13:58:18.
