data_PCOD9437318
_publ_section_title
;
Structure prediction by ZEFSAII (Michael W. Deem and Ramdas Pophale) SiO2 
 PCOD9437318
Probable space group: P B C M
;
_chemical_formula_sum "Si O2"
_cell_formula_units_Z 64
_cell_length_a 14.012447
_cell_length_b 9.700095
_cell_length_c 23.674493
_cell_angle_alpha 90.000000
_cell_angle_beta 90.000000
_cell_angle_gamma 90.000000
_cell_volume 3217.886026
_symmetry_space_group_name_H-M "P B C M"
_symmetry_group_IT_number 57
_symmetry_cell_setting 'orthorhombic'
loop_
_space_group_symop_operation_xyz
x,y,z
-x,-y,1/2+z
x,1/2-y,-z
-x,1/2+y,1/2-z
-x,-y,-z
x,y,1/2-z
-x,1/2+y,z
x,1/2-y,1/2+z
loop_
_atom_site_type_symbol
_atom_site_label
_atom_site_fract_x
_atom_site_fract_y
_atom_site_fract_z
Si Si1 0.856340 0.178279 0.906699
Si Si2 0.711806 0.808471 0.315528
Si Si3 0.406188 0.574043 0.633600
Si Si4 0.226243 0.519377 0.406072
Si Si5 0.499675 0.175914 0.316249
Si Si6 0.793130 0.520711 0.316279
Si Si7 0.048921 0.376097 0.035923
Si Si8 0.681568 0.403101 0.483079
O O1 0.805441 0.323423 0.893166
O O2 0.786577 0.113461 0.954421
O O3 0.961423 0.194488 0.930801
O O4 0.860451 0.070771 0.855322
O O5 0.727057 0.841691 0.250000
O O6 0.605614 0.745026 0.320413
O O7 0.783167 0.682161 0.331277
O O8 0.728947 0.938955 0.354176
O O9 0.487291 0.476430 0.659276
O O10 0.432045 0.731351 0.645738
O O11 0.311260 0.540808 0.669272
O O12 0.383956 0.543528 0.567993
O O13 0.130396 0.442064 0.425879
O O14 0.299751 0.517615 0.458985
O O15 0.526898 0.174759 0.250000
O O16 0.812902 0.509240 0.250000
O O17 0.091991 0.250000 0.000000
O O18 0.000000 0.500000 0.000000
O O19 0.648496 0.250000 0.500000
#
# Coordination Sequence:
#
# PCOD9437318 Si02
#       8
#     8   8   8   8   8   8   8   8
#     4  10  20  36  55  85 115 143 189 235 283 342
#     4   9  21  39  58  83 113 148 194 242 287 345
#     4  10  20  35  59  84 115 148 194 242 287 342
#     4  11  22  37  61  85 115 150 191 243 290 348
#     4  10  20  37  58  83 113 147 194 240 283 338
#     4   9  19  37  59  82 114 152 189 237 297 350
#     4  12  22  36  58  86 116 148 192 236 282 339
#     4   9  19  37  55  80 116 150 185 234 290 345
#
# _framework density 19.888833999999999
#
# number of rings (size 3 to 8) (size 9 to 14) (size 15 to 20)
#    0.000    2.000    2.500    2.250    1.750    4.500 
#    0.000    4.375    0.000    0.000    0.000    0.000 
#    0.000    0.000    0.000    0.000    0.000    0.000 
#
# Total GULP energy -357297.705720 kJ/mol
# GULP energy per Si atom -5582.776652 kJ/mol
# Density = 1.984357 g / cm^3
# Si number density = 19.888834 Si / 1000 Ang^3
#
#
#
# Elastic Constant Matrix: (Units=GPa)
#
#
# Indices 1 2 3 4 5 6 
#
# 1 22.1078 5.1317 9.6704 0.0000 0.0000 0.0000
# 2 5.1317 52.8266 35.4964 0.0000 0.0000 0.0000
# 3 9.6704 35.4964 87.1113 0.0000 0.0000 0.0000
# 4 0.0000 0.0000 0.0000 43.4934 0.0000 0.0000
# 5 0.0000 0.0000 0.0000 0.0000 14.6450 0.0000
# 6 0.0000 0.0000 0.0000 0.0000 0.0000 21.9464
#
#
#
# Elastic Compliance Matrix: (Units=1/GPa)
#
#
# Indices 1 2 3 4 5 6 
#
# 1 0.047625 -0.001479 -0.004684 0.000000 0.000000 0.000000
# 2 -0.001479 0.026113 -0.010476 0.000000 0.000000 0.000000
# 3 -0.004684 -0.010476 0.016269 0.000000 0.000000 0.000000
# 4 0.000000 0.000000 0.000000 0.022992 0.000000 0.000000
# 5 0.000000 0.000000 0.000000 0.000000 0.068283 0.000000
# 6 0.000000 0.000000 0.000000 0.000000 0.000000 0.045565
#
#
# Mechanical properties :
#
#
# Convention : Reuss Voigt Hill
#
# Bulk Modulus (GPa) = 17.62810 29.18253 23.40531
# Shear Modulus (GPa) = 17.91883 23.46676 20.69280
#
# Velocity S-wave (km/s) = 3.00484 3.43869 3.22906
# Velocity P-wave (km/s) = 4.57398 5.52003 5.06913
#
# Compressibility (1/GPa) = 0.05672761
#
# Stress axis : x y z
#
# Youngs Moduli (GPa) = 20.99723 38.29491 61.46814
#
# Poissons Ratio (x) = 0.05663 0.28794
# Poissons Ratio (y) = 0.03105 0.64397
# Poissons Ratio (z) = 0.09836 0.40120
#
# Static dielectric constant tensor:
#      x y z
#    x 1.711670 0.000000 0.000000 
#    y 0.000000 1.709710 0.000000 
#    z 0.000000 0.000000 1.717050 
# 
# From -- ./inp_files/27502.got.cif
#   From: 2010.05.17/outbox.cif.g08.bks.cpg/sg57_14_cif.got.tgz:27502.got - 2010.06.03 13:58:18.
