data_PCOD9437417
_publ_section_title
;
Structure prediction by ZEFSAII (Michael W. Deem and Ramdas Pophale) SiO2 
 PCOD9437417
Probable space group: P B C M
;
_chemical_formula_sum "Si O2"
_cell_formula_units_Z 56
_cell_length_a 24.341517
_cell_length_b 14.668814
_cell_length_c 8.732294
_cell_angle_alpha 90.000000
_cell_angle_beta 90.000000
_cell_angle_gamma 90.000000
_cell_volume 3117.963246
_symmetry_space_group_name_H-M "P B C M"
_symmetry_group_IT_number 57
_symmetry_cell_setting 'orthorhombic'
loop_
_space_group_symop_operation_xyz
x,y,z
-x,-y,1/2+z
x,1/2-y,-z
-x,1/2+y,1/2-z
-x,-y,-z
x,y,1/2-z
-x,1/2+y,z
x,1/2-y,1/2+z
loop_
_atom_site_type_symbol
_atom_site_label
_atom_site_fract_x
_atom_site_fract_y
_atom_site_fract_z
Si Si1 0.148962 0.148371 0.933574
Si Si2 0.766929 0.505190 0.066619
Si Si3 0.558410 0.149391 0.065941
Si Si4 0.855006 0.351438 0.433535
Si Si5 0.939148 0.494456 0.933607
Si Si6 0.645236 0.999054 0.066047
Si Si7 0.435367 0.148599 0.065927
O O1 0.152517 0.153058 0.750000
O O2 0.096492 0.084709 0.974229
O O3 0.145428 0.250000 0.000000
O O4 0.200964 0.092055 0.997734
O O5 0.766075 0.513404 0.250000
O O6 0.802501 0.414974 0.026751
O O7 0.705839 0.498049 0.002452
O O8 0.559537 0.154157 0.250000
O O9 0.497118 0.115593 0.023278
O O10 0.607347 0.083994 0.015434
O O11 0.565112 0.250000 0.000000
O O12 0.851176 0.250000 0.500000
O O13 0.859163 0.346966 0.250000
O O14 0.906685 0.407523 0.499654
O O15 0.940687 0.487883 0.750000
O O16 0.000000 0.500000 0.000000
O O17 0.648361 0.998463 0.250000
O O18 0.611698 0.912077 0.007502
O O19 0.430769 0.148738 0.250000
O O20 0.431146 0.250000 0.000000
#
# Coordination Sequence:
#
# PCOD9437417 Si02
#       7
#     8   8   8   8   8   8   8
#     4  10  21  38  60  84 111 147 185 226 274 323
#     4  10  22  39  57  80 109 143 184 229 273 323
#     4   9  20  36  55  79 108 141 177 220 270 325
#     4  10  21  38  60  83 111 148 188 229 277 327
#     4  10  21  37  58  86 120 152 187 229 272 320
#     4  11  22  36  55  81 110 141 179 224 273 325
#     4  10  20  36  56  79 107 140 178 221 271 327
#
# _framework density 17.960443000000001
#
# number of rings (size 3 to 8) (size 9 to 14) (size 15 to 20)
#    0.000    2.000    0.000    3.000    0.000    6.857 
#    0.000    7.143    0.000    0.000    0.000    0.000 
#    0.000    0.000    0.000    0.000    0.000    0.000 
#
# Total GULP energy -312719.202316 kJ/mol
# GULP energy per Si atom -5584.271470 kJ/mol
# Density = 1.791956 g / cm^3
# Si number density = 17.960443 Si / 1000 Ang^3
#
#
#
# Elastic Constant Matrix: (Units=GPa)
#
#
# Indices 1 2 3 4 5 6 
#
# 1 188.0515 92.9825 57.2933 0.0000 0.0000 0.0000
# 2 92.9825 154.7483 51.1129 0.0000 0.0000 0.0000
# 3 57.2933 51.1129 55.6253 0.0000 0.0000 0.0000
# 4 0.0000 0.0000 0.0000 33.0091 0.0000 0.0000
# 5 0.0000 0.0000 0.0000 0.0000 38.6177 0.0000
# 6 0.0000 0.0000 0.0000 0.0000 0.0000 16.1798
#
#
#
# Elastic Compliance Matrix: (Units=1/GPa)
#
#
# Indices 1 2 3 4 5 6 
#
# 1 0.008776 -0.003284 -0.006021 0.000000 0.000000 0.000000
# 2 -0.003284 0.010507 -0.006272 0.000000 0.000000 0.000000
# 3 -0.006021 -0.006272 0.029942 0.000000 0.000000 0.000000
# 4 0.000000 0.000000 0.000000 0.030295 0.000000 0.000000
# 5 0.000000 0.000000 0.000000 0.000000 0.025895 0.000000
# 6 0.000000 0.000000 0.000000 0.000000 0.000000 0.061805
#
#
# Mechanical properties :
#
#
# Convention : Reuss Voigt Hill
#
# Bulk Modulus (GPa) = 55.33900 89.02249 72.18075
# Shear Modulus (GPa) = 24.46189 30.69708 27.57949
#
# Velocity S-wave (km/s) = 3.69451 4.13867 3.92288
# Velocity P-wave (km/s) = 7.00555 8.51537 7.79709
#
# Compressibility (1/GPa) = 0.01807044
#
# Stress axis : x y z
#
# Youngs Moduli (GPa) = 113.94424 95.17288 33.39743
#
# Poissons Ratio (x) = 0.31259 0.20110
# Poissons Ratio (y) = 0.37425 0.20946
# Poissons Ratio (z) = 0.68610 0.59691
#
# Static dielectric constant tensor:
#      x y z
#    x 1.595120 0.000000 0.000000 
#    y 0.000000 1.555190 0.000000 
#    z 0.000000 0.000000 1.613070 
# 
# From -- ./inp_files/8095.got.cif
#   From: 2010.05.17/outbox.cif.g08.bks.cpg/sg57_5_cif.got.tgz:8095.got - 2010.06.03 13:58:18.
