data_PCOD9437748
_publ_section_title
;
Structure prediction by ZEFSAII (Michael W. Deem and Ramdas Pophale) SiO2 
 PCOD9437748
Probable space group: P B C M
;
_chemical_formula_sum "Si O2"
_cell_formula_units_Z 40
_cell_length_a 8.420804
_cell_length_b 11.277592
_cell_length_c 20.856011
_cell_angle_alpha 90.000000
_cell_angle_beta 90.000000
_cell_angle_gamma 90.000000
_cell_volume 1980.620113
_symmetry_space_group_name_H-M "P B C M"
_symmetry_group_IT_number 57
_symmetry_cell_setting 'orthorhombic'
loop_
_space_group_symop_operation_xyz
x,y,z
-x,-y,1/2+z
x,1/2-y,-z
-x,1/2+y,1/2-z
-x,-y,-z
x,y,1/2-z
-x,1/2+y,z
x,1/2-y,1/2+z
loop_
_atom_site_type_symbol
_atom_site_label
_atom_site_fract_x
_atom_site_fract_y
_atom_site_fract_z
Si Si1 0.317943 0.931489 0.118016
Si Si2 0.119203 0.099838 0.471582
Si Si3 0.139437 0.547217 0.750000
Si Si4 0.625450 0.533966 0.943818
Si Si5 0.938159 0.306969 0.750000
Si Si6 0.168669 0.812431 0.896628
O O1 0.250332 0.939182 0.188714
O O2 0.507301 0.928123 0.112393
O O3 0.252726 0.810577 0.087466
O O4 0.233672 0.038500 0.080530
O O5 0.244509 0.126225 0.528843
O O6 0.000534 0.185297 0.433224
O O7 0.000000 0.000000 0.500000
O O8 0.022533 0.664002 0.750000
O O9 0.060367 0.417375 0.750000
O O10 0.724393 0.419928 0.921774
O O11 0.500000 0.500000 0.000000
O O12 0.852119 0.322321 0.680634
#
# Coordination Sequence:
#
# PCOD9437748 Si02
#       6
#     8   8   4   8   4   8
#     4  10  20  37  58  84 121 157 197 256 313 366
#     4   9  18  34  56  84 113 153 200 246 296 368
#     4  10  20  37  64  90 122 164 205 260 315 364
#     4   9  20  36  54  84 119 154 199 248 302 372
#     4  10  20  37  64  90 122 160 209 260 311 368
#     4  10  20  37  60  85 119 161 202 255 308 367
#
# _framework density 20.195695000000001
#
# number of rings (size 3 to 8) (size 9 to 14) (size 15 to 20)
#    0.000    2.400    2.000    0.000    0.000    8.000 
#    0.000   16.000    0.000    0.000    0.000    0.000 
#    0.000    0.000    0.000    0.000    0.000    0.000 
#
# Total GULP energy -222797.728893 kJ/mol
# GULP energy per Si atom -5569.943222 kJ/mol
# Density = 2.014973 g / cm^3
# Si number density = 20.195695 Si / 1000 Ang^3
#
#
#
# Elastic Constant Matrix: (Units=GPa)
#
#
# Indices 1 2 3 4 5 6 
#
# 1 140.3248 55.2256 29.4470 0.0000 0.0000 0.0000
# 2 55.2256 84.7797 22.0462 0.0000 0.0000 0.0000
# 3 29.4470 22.0462 69.2654 0.0000 0.0000 0.0000
# 4 0.0000 0.0000 0.0000 28.5571 0.0000 0.0000
# 5 0.0000 0.0000 0.0000 0.0000 29.7625 0.0000
# 6 0.0000 0.0000 0.0000 0.0000 0.0000 32.5344
#
#
#
# Elastic Compliance Matrix: (Units=1/GPa)
#
#
# Indices 1 2 3 4 5 6 
#
# 1 0.009924 -0.005852 -0.002356 0.000000 0.000000 0.000000
# 2 -0.005852 0.016310 -0.002704 0.000000 0.000000 0.000000
# 3 -0.002356 -0.002704 0.016300 0.000000 0.000000 0.000000
# 4 0.000000 0.000000 0.000000 0.035018 0.000000 0.000000
# 5 0.000000 0.000000 0.000000 0.000000 0.033599 0.000000
# 6 0.000000 0.000000 0.000000 0.000000 0.000000 0.030737
#
#
# Mechanical properties :
#
#
# Convention : Reuss Voigt Hill
#
# Bulk Modulus (GPa) = 48.28546 56.42306 52.35426
# Shear Modulus (GPa) = 29.30602 30.68087 29.99345
#
# Velocity S-wave (km/s) = 3.81347 3.90189 3.85793
# Velocity P-wave (km/s) = 6.58413 6.94971 6.76939
#
# Compressibility (1/GPa) = 0.02071017
#
# Stress axis : x y z
#
# Youngs Moduli (GPa) = 100.76849 61.31196 61.35151
#
# Poissons Ratio (x) = 0.35877 0.14457
# Poissons Ratio (y) = 0.58965 0.16587
# Poissons Ratio (z) = 0.23745 0.16576
#
# Static dielectric constant tensor:
#      x y z
#    x 1.722500 0.000000 0.000000 
#    y 0.000000 1.775660 0.000000 
#    z 0.000000 0.000000 1.647730 
# 
# From -- ./inp_files/24154.got.cif
#   From: 2010.05.17/outbox.cif.g08.bks.cpg/sg57_13_cif.got.tgz:24154.got - 2010.06.03 13:58:18.
