data_PCOD9437255
_publ_section_title
;
Structure prediction by ZEFSAII (Michael W. Deem and Ramdas Pophale) SiO2 
 PCOD9437255
Probable space group: P B C M
;
_chemical_formula_sum "Si O2"
_cell_formula_units_Z 40
_cell_length_a 24.671416
_cell_length_b 9.193859
_cell_length_c 9.378779
_cell_angle_alpha 90.000000
_cell_angle_beta 90.000000
_cell_angle_gamma 90.000000
_cell_volume 2127.346424
_symmetry_space_group_name_H-M "P B C M"
_symmetry_group_IT_number 57
_symmetry_cell_setting 'orthorhombic'
loop_
_space_group_symop_operation_xyz
x,y,z
-x,-y,1/2+z
x,1/2-y,-z
-x,1/2+y,1/2-z
-x,-y,-z
x,y,1/2-z
-x,1/2+y,z
x,1/2-y,1/2+z
loop_
_atom_site_type_symbol
_atom_site_label
_atom_site_fract_x
_atom_site_fract_y
_atom_site_fract_z
Si Si1 0.954820 0.405710 0.078625
Si Si2 0.732471 0.399972 0.585961
Si Si3 0.371800 0.082078 0.973989
Si Si4 0.833483 0.407172 0.420598
Si Si5 0.539126 0.841696 0.250000
Si Si6 0.429044 0.494739 0.750000
O O1 0.963904 0.391856 0.250000
O O2 0.893867 0.469875 0.059422
O O3 0.955439 0.250000 0.000000
O O4 0.000000 0.500000 0.000000
O O5 0.721445 0.250000 0.500000
O O6 0.748273 0.370555 0.750000
O O7 0.678716 0.496762 0.588244
O O8 0.781808 0.476690 0.499638
O O9 0.426446 0.095713 0.881457
O O10 0.355584 0.250000 0.000000
O O11 0.390430 0.999676 0.114860
O O12 0.835554 0.250000 0.500000
O O13 0.824936 0.395715 0.250000
O O14 0.544764 0.667547 0.250000
O O15 0.477568 0.891645 0.250000
#
# Coordination Sequence:
#
# PCOD9437255 Si02
#       6
#     8   8   8   8   4   4
#     4  10  20  35  57  84 116 154 192 238 286 340
#     4  11  22  36  57  84 112 142 186 233 274 327
#     4  10  22  39  57  80 111 148 181 221 277 332
#     4   9  18  33  54  81 112 146 187 230 280 329
#     4  10  20  40  54  84 108 140 179 224 269 334
#     4  10  22  34  62  78 110 142 177 220 277 326
#
# _framework density 18.802765999999998
#
# number of rings (size 3 to 8) (size 9 to 14) (size 15 to 20)
#    0.000    2.000    1.000    3.600    2.800    4.000 
#    0.000    1.000    0.000    2.400    0.000    0.000 
#    0.000    0.000    0.000    0.000    0.000    0.000 
#
# Total GULP energy -222909.040352 kJ/mol
# GULP energy per Si atom -5572.726009 kJ/mol
# Density = 1.875997 g / cm^3
# Si number density = 18.802766 Si / 1000 Ang^3
#
#
#
# Elastic Constant Matrix: (Units=GPa)
#
#
# Indices 1 2 3 4 5 6 
#
# 1 120.1819 34.9338 43.6537 0.0000 0.0000 0.0000
# 2 34.9338 24.1022 14.6268 0.0000 0.0000 0.0000
# 3 43.6537 14.6268 134.6518 0.0000 0.0000 0.0000
# 4 0.0000 0.0000 0.0000 25.8698 0.0000 0.0000
# 5 0.0000 0.0000 0.0000 0.0000 42.2378 0.0000
# 6 0.0000 0.0000 0.0000 0.0000 0.0000 31.4229
#
#
#
# Elastic Compliance Matrix: (Units=1/GPa)
#
#
# Indices 1 2 3 4 5 6 
#
# 1 0.015258 -0.020462 -0.002724 0.000000 0.000000 0.000000
# 2 -0.020462 0.071859 -0.001172 0.000000 0.000000 0.000000
# 3 -0.002724 -0.001172 0.008437 0.000000 0.000000 0.000000
# 4 0.000000 0.000000 0.000000 0.038655 0.000000 0.000000
# 5 0.000000 0.000000 0.000000 0.000000 0.023675 0.000000
# 6 0.000000 0.000000 0.000000 0.000000 0.000000 0.031824
#
#
# Mechanical properties :
#
#
# Convention : Reuss Voigt Hill
#
# Bulk Modulus (GPa) = 21.35016 51.70714 36.52865
# Shear Modulus (GPa) = 19.68224 32.28754 25.98489
#
# Velocity S-wave (km/s) = 3.23890 4.14837 3.72152
# Velocity P-wave (km/s) = 5.03654 7.10667 6.15920
#
# Compressibility (1/GPa) = 0.04683805
#
# Stress axis : x y z
#
# Youngs Moduli (GPa) = 65.54025 13.91619 118.52627
#
# Poissons Ratio (x) = 0.28475 0.32285
# Poissons Ratio (y) = 1.34107 0.13893
# Poissons Ratio (z) = 0.17852 0.01631
#
# Static dielectric constant tensor:
#      x y z
#    x 1.663330 0.000000 0.000000 
#    y 0.000000 1.633840 0.000000 
#    z 0.000000 0.000000 1.711570 
# 
# From -- ./inp_files/9656.got.cif
#   From: 2010.05.17/outbox.cif.g08.bks.cpg/sg57_5_cif.got.tgz:9656.got - 2010.06.03 13:58:18.
