data_PCOD9437741
_publ_section_title
;
Structure prediction by ZEFSAII (Michael W. Deem and Ramdas Pophale) SiO2 
 PCOD9437741
Probable space group: P B C M
;
_chemical_formula_sum "Si O2"
_cell_formula_units_Z 48
_cell_length_a 15.929505
_cell_length_b 18.365957
_cell_length_c 8.420598
_cell_angle_alpha 90.000000
_cell_angle_beta 90.000000
_cell_angle_gamma 90.000000
_cell_volume 2463.535236
_symmetry_space_group_name_H-M "P B C M"
_symmetry_group_IT_number 57
_symmetry_cell_setting 'orthorhombic'
loop_
_space_group_symop_operation_xyz
x,y,z
-x,-y,1/2+z
x,1/2-y,-z
-x,1/2+y,1/2-z
-x,-y,-z
x,y,1/2-z
-x,1/2+y,z
x,1/2-y,1/2+z
loop_
_atom_site_type_symbol
_atom_site_label
_atom_site_fract_x
_atom_site_fract_y
_atom_site_fract_z
Si Si1 0.166316 0.917682 0.056295
Si Si2 0.000705 0.167345 0.559442
Si Si3 0.499393 0.082666 0.941944
Si Si4 0.332167 0.332659 0.440511
Si Si5 0.833566 0.585659 0.059409
Si Si6 0.666676 0.167320 0.557922
O O1 0.166510 0.917773 0.250000
O O2 0.250004 0.875499 0.004315
O O3 0.082524 0.875667 0.004594
O O4 0.166326 0.001616 0.004571
O O5 0.999101 0.250000 0.500000
O O6 0.001237 0.167637 0.750000
O O7 0.083738 0.126748 0.500013
O O8 0.499662 0.082293 0.750000
O O9 0.415537 0.124576 0.995339
O O10 0.582765 0.125413 0.995422
O O11 0.500000 0.000000 0.000000
O O12 0.333483 0.250000 0.500000
O O13 0.331536 0.332239 0.250000
O O14 0.249313 0.373451 0.500272
O O15 0.833556 0.586191 0.250000
O O16 0.667276 0.250000 0.500000
O O17 0.666781 0.167579 0.750000
#
# Coordination Sequence:
#
# PCOD9437741 Si02
#       6
#     8   8   8   8   8   8
#     4   9  20  37  59  84 113 147 186 229 279 333
#     4  11  22  38  58  84 115 148 186 231 278 335
#     4  10  22  38  59  85 116 150 189 232 279 332
#     4  11  23  39  58  85 116 151 192 236 282 335
#     4  11  22  39  61  84 111 149 189 234 287 336
#     4  10  20  37  58  84 114 147 185 228 275 331
#
# _framework density 19.484195
#
# number of rings (size 3 to 8) (size 9 to 14) (size 15 to 20)
#    0.000    1.667    0.000    4.500    0.000    3.333 
#    0.000    5.000    0.000    0.000    0.000    0.000 
#    0.000    0.000    0.000    0.000    0.000    0.000 
#
# Total GULP energy -268394.523338 kJ/mol
# GULP energy per Si atom -5591.552570 kJ/mol
# Density = 1.943985 g / cm^3
# Si number density = 19.484195 Si / 1000 Ang^3
#
#
#
# Elastic Constant Matrix: (Units=GPa)
#
#
# Indices 1 2 3 4 5 6 
#
# 1 247.8770 151.7590 36.9448 0.0000 0.0000 0.0000
# 2 151.7590 244.4415 32.9590 0.0000 0.0000 0.0000
# 3 36.9448 32.9590 33.7581 0.0000 0.0000 0.0000
# 4 0.0000 0.0000 0.0000 25.8797 0.0000 0.0000
# 5 0.0000 0.0000 0.0000 0.0000 -5.9519 0.0000
# 6 0.0000 0.0000 0.0000 0.0000 0.0000 47.5372
#
#
#
# Elastic Compliance Matrix: (Units=1/GPa)
#
#
# Indices 1 2 3 4 5 6 
#
# 1 0.006926 -0.003775 -0.003894 0.000000 0.000000 0.000000
# 2 -0.003775 0.006768 -0.002477 0.000000 0.000000 0.000000
# 3 -0.003894 -0.002477 0.036303 0.000000 0.000000 0.000000
# 4 0.000000 0.000000 0.000000 0.038640 0.000000 0.000000
# 5 0.000000 0.000000 0.000000 0.000000 -0.168014 0.000000
# 6 0.000000 0.000000 0.000000 0.000000 0.000000 0.021036
#
#
# Mechanical properties :
#
#
# Convention : Reuss Voigt Hill
#
# Bulk Modulus (GPa) = 33.66448 107.71135 70.68791
# Shear Modulus (GPa) = -177.64118 33.78725 -71.92697
#
# Velocity S-wave (km/s) = -9.55876 4.16875 -6.08241
# Velocity P-wave (km/s) = 10.22307 8.86413 3.60128
#
# Compressibility (1/GPa) = 0.02970490
#
# Stress axis : x y z
#
# Youngs Moduli (GPa) = 144.39120 147.74483 27.54607
#
# Poissons Ratio (x) = 0.55768 0.10727
# Poissons Ratio (y) = 0.54503 0.06824
# Poissons Ratio (z) = 0.56227 0.36600
#
# Static dielectric constant tensor:
#      x y z
#    x 1.658630 0.000000 0.000000 
#    y 0.000000 1.633860 0.000000 
#    z 0.000000 0.000000 1.673600 
# 
# From -- ./inp_files/4574.got.cif
#   From: 2010.05.17/outbox.cif.g08.bks.cpg/sg57_3_cif.got.tgz:4574.got - 2010.06.03 13:58:18.
