data_PCOD9437777
_publ_section_title
;
Structure prediction by ZEFSAII (Michael W. Deem and Ramdas Pophale) SiO2 
 PCOD9437777
Probable space group: P B C M
;
_chemical_formula_sum "Si O2"
_cell_formula_units_Z 48
_cell_length_a 15.164970
_cell_length_b 17.339155
_cell_length_c 10.145276
_cell_angle_alpha 90.000000
_cell_angle_beta 90.000000
_cell_angle_gamma 90.000000
_cell_volume 2667.677654
_symmetry_space_group_name_H-M "P B C M"
_symmetry_group_IT_number 57
_symmetry_cell_setting 'orthorhombic'
loop_
_space_group_symop_operation_xyz
x,y,z
-x,-y,1/2+z
x,1/2-y,-z
-x,1/2+y,1/2-z
-x,-y,-z
x,y,1/2-z
-x,1/2+y,z
x,1/2-y,1/2+z
loop_
_atom_site_type_symbol
_atom_site_label
_atom_site_fract_x
_atom_site_fract_y
_atom_site_fract_z
Si Si1 0.183605 0.849230 0.250000
Si Si2 0.205182 0.040862 0.524643
Si Si3 0.508242 0.074769 0.906406
Si Si4 0.908593 0.028000 0.250000
Si Si5 0.887142 0.511540 0.250000
Si Si6 0.667468 0.677505 0.596665
Si Si7 0.788243 0.320684 0.750000
Si Si8 0.696123 0.116308 0.498455
O O1 0.112433 0.917545 0.250000
O O2 0.159899 0.759680 0.250000
O O3 0.243109 0.863053 0.121967
O O4 0.252502 0.119840 0.562158
O O5 0.126593 0.018333 0.623337
O O6 0.166278 0.038724 0.378141
O O7 0.277319 0.971921 0.538413
O O8 0.518393 0.054712 0.750000
O O9 0.422276 0.128061 0.919207
O O10 0.595391 0.118722 0.957171
O O11 0.500000 0.000000 0.000000
O O12 0.857364 0.109302 0.250000
O O13 0.012650 0.038820 0.250000
O O14 0.667081 0.750000 0.500000
O O15 0.673684 0.700976 0.750000
O O16 0.725591 0.330891 0.623070
#
# Coordination Sequence:
#
# PCOD9437777 Si02
#       8
#     4   8   8   4   4   8   4   8
#     4  10  20  38  54  88 121 151 196 253 302 353
#     4  10  20  38  63  86 117 158 202 244 302 367
#     4  11  23  38  62  88 121 158 205 250 292 353
#     4  10  20  40  61  91 120 156 202 250 300 376
#     4  10  22  36  65  91 120 156 202 248 306 372
#     4  11  25  42  60  87 125 165 208 256 300 350
#     4  10  22  34  62  86 121 155 200 249 306 357
#     4  10  20  37  59  85 116 160 198 241 297 361
#
# _framework density 17.993179000000001
#
# number of rings (size 3 to 8) (size 9 to 14) (size 15 to 20)
#    0.000    1.667    3.333    1.000    2.333    2.000 
#    0.000    1.667    0.000    0.000    0.000    0.000 
#    0.000    0.000    0.000    0.000    0.000    0.000 
#
# Total GULP energy -267965.992376 kJ/mol
# GULP energy per Si atom -5582.624841 kJ/mol
# Density = 1.795223 g / cm^3
# Si number density = 17.993179 Si / 1000 Ang^3
#
#
#
# Elastic Constant Matrix: (Units=GPa)
#
#
# Indices 1 2 3 4 5 6 
#
# 1 75.2310 19.1680 13.5983 0.0000 0.0000 0.0000
# 2 19.1680 96.0294 44.4808 0.0000 0.0000 0.0000
# 3 13.5983 44.4808 123.0113 0.0000 0.0000 0.0000
# 4 0.0000 0.0000 0.0000 24.7685 0.0000 0.0000
# 5 0.0000 0.0000 0.0000 0.0000 -87.8645 0.0000
# 6 0.0000 0.0000 0.0000 0.0000 0.0000 14.3751
#
#
#
# Elastic Compliance Matrix: (Units=1/GPa)
#
#
# Indices 1 2 3 4 5 6 
#
# 1 0.014047 -0.002504 -0.000647 0.000000 0.000000 0.000000
# 2 -0.002504 0.012955 -0.004408 0.000000 0.000000 0.000000
# 3 -0.000647 -0.004408 0.009795 0.000000 0.000000 0.000000
# 4 0.000000 0.000000 0.000000 0.040374 0.000000 0.000000
# 5 0.000000 0.000000 0.000000 0.000000 -0.011381 0.000000
# 6 0.000000 0.000000 0.000000 0.000000 0.000000 0.069565
#
#
# Mechanical properties :
#
#
# Convention : Reuss Voigt Hill
#
# Bulk Modulus (GPa) = 46.12810 49.86289 47.99549
# Shear Modulus (GPa) = 31.70595 4.72413 18.21504
#
# Velocity S-wave (km/s) = 4.20230 1.62210 3.18517
# Velocity P-wave (km/s) = 7.01697 5.59290 6.34502
#
# Compressibility (1/GPa) = 0.02167876
#
# Stress axis : x y z
#
# Youngs Moduli (GPa) = 71.18746 77.19063 102.09585
#
# Poissons Ratio (x) = 0.19329 0.06610
# Poissons Ratio (y) = 0.17826 0.45001
# Poissons Ratio (z) = 0.04609 0.34023
#
# Static dielectric constant tensor:
#      x y z
#    x 1.581620 0.000000 0.000000 
#    y 0.000000 1.621450 0.000000 
#    z 0.000000 0.000000 1.614970 
# 
# From -- ./inp_files/4778.got.cif
#   From: 2010.05.17/outbox.cif.g08.bks.cpg/sg57_3_cif.got.tgz:4778.got - 2010.06.03 13:58:18.
