data_PCOD9437222
_publ_section_title
;
Structure prediction by ZEFSAII (Michael W. Deem and Ramdas Pophale) SiO2 
 PCOD9437222
Probable space group: P B C M
;
_chemical_formula_sum "Si O2"
_cell_formula_units_Z 56
_cell_length_a 7.727010
_cell_length_b 19.822497
_cell_length_c 18.694696
_cell_angle_alpha 90.000000
_cell_angle_beta 90.000000
_cell_angle_gamma 90.000000
_cell_volume 2863.441022
_symmetry_space_group_name_H-M "P B C M"
_symmetry_group_IT_number 57
_symmetry_cell_setting 'orthorhombic'
loop_
_space_group_symop_operation_xyz
x,y,z
-x,-y,1/2+z
x,1/2-y,-z
-x,1/2+y,1/2-z
-x,-y,-z
x,y,1/2-z
-x,1/2+y,z
x,1/2-y,1/2+z
loop_
_atom_site_type_symbol
_atom_site_label
_atom_site_fract_x
_atom_site_fract_y
_atom_site_fract_z
Si Si1 0.845682 0.285945 0.663252
Si Si2 0.498825 0.563031 0.395388
Si Si3 0.076741 0.061368 0.573350
Si Si4 0.448489 0.297026 0.836060
Si Si5 0.154528 0.188242 0.835990
Si Si6 0.279205 0.966873 0.469736
Si Si7 0.128540 0.564103 0.167593
O O1 0.846838 0.288563 0.750000
O O2 0.645205 0.277813 0.642404
O O3 0.907838 0.360422 0.639841
O O4 0.978756 0.227908 0.643456
O O5 0.592824 0.631661 0.373261
O O6 0.408360 0.567166 0.473652
O O7 0.618511 0.497288 0.402492
O O8 0.336521 0.555367 0.341792
O O9 0.161794 0.119858 0.619359
O O10 0.197982 0.032368 0.510742
O O11 0.046518 0.995501 0.622708
O O12 0.885294 0.079377 0.546374
O O13 0.445845 0.307433 0.750000
O O14 0.312961 0.238384 0.851874
O O15 0.152372 0.175405 0.750000
O O16 0.079242 0.559566 0.250000
#
# Coordination Sequence:
#
# PCOD9437222 Si02
#       7
#     8   8   8   8   8   8   8
#     4   8  16  32  52  79 112 142 175 219 277 339
#     4   9  17  35  58  78 105 140 191 233 274 328
#     4  10  20  36  55  77 114 148 184 231 286 337
#     4   9  18  34  59  84 110 142 180 231 288 337
#     4  10  20  35  56  85 116 146 178 229 299 351
#     4   9  20  36  56  76 107 153 189 229 276 325
#     4   9  17  32  57  84 108 139 183 237 285 334
#
# _framework density 19.556889000000002
#
# number of rings (size 3 to 8) (size 9 to 14) (size 15 to 20)
#    0.000    2.857    0.000    1.714    2.000    0.000 
#    7.714    2.857    3.143    0.000    0.000    0.000 
#    0.000    0.000    0.000    0.000    0.000    0.000 
#
# Total GULP energy -312156.569449 kJ/mol
# GULP energy per Si atom -5574.224454 kJ/mol
# Density = 1.951238 g / cm^3
# Si number density = 19.556889 Si / 1000 Ang^3
#
#
#
# Elastic Constant Matrix: (Units=GPa)
#
#
# Indices 1 2 3 4 5 6 
#
# 1 47.5704 17.4313 10.3560 0.0000 0.0000 0.0000
# 2 17.4313 71.4755 30.0133 0.0000 0.0000 0.0000
# 3 10.3560 30.0133 30.3000 0.0000 0.0000 0.0000
# 4 0.0000 0.0000 0.0000 25.1927 0.0000 0.0000
# 5 0.0000 0.0000 0.0000 0.0000 18.8084 0.0000
# 6 0.0000 0.0000 0.0000 0.0000 0.0000 24.1805
#
#
#
# Elastic Compliance Matrix: (Units=1/GPa)
#
#
# Indices 1 2 3 4 5 6 
#
# 1 0.023365 -0.004015 -0.004009 0.000000 0.000000 0.000000
# 2 -0.004015 0.024644 -0.023039 0.000000 0.000000 0.000000
# 3 -0.004009 -0.023039 0.057194 0.000000 0.000000 0.000000
# 4 0.000000 0.000000 0.000000 0.039694 0.000000 0.000000
# 5 0.000000 0.000000 0.000000 0.000000 0.053168 0.000000
# 6 0.000000 0.000000 0.000000 0.000000 0.000000 0.041356
#
#
# Mechanical properties :
#
#
# Convention : Reuss Voigt Hill
#
# Bulk Modulus (GPa) = 23.21342 29.43856 26.32599
# Shear Modulus (GPa) = 15.82750 19.73933 17.78342
#
# Velocity S-wave (km/s) = 2.84792 3.18044 3.01876
# Velocity P-wave (km/s) = 4.76546 5.34532 5.06370
#
# Compressibility (1/GPa) = 0.04307853
#
# Stress axis : x y z
#
# Youngs Moduli (GPa) = 42.79828 40.57762 17.48431
#
# Poissons Ratio (x) = 0.16291 0.07009
# Poissons Ratio (y) = 0.17183 0.40282
# Poissons Ratio (z) = 0.17158 0.93486
#
# Static dielectric constant tensor:
#      x y z
#    x 1.731350 0.000000 0.000000 
#    y 0.000000 1.679890 0.000000 
#    z 0.000000 0.000000 1.676560 
# 
# From -- ./inp_files/26918.got.cif
#   From: 2010.05.17/outbox.cif.g08.bks.cpg/sg57_14_cif.got.tgz:26918.got - 2010.06.03 13:58:18.
