data_PCOD9437799
_publ_section_title
;
Structure prediction by ZEFSAII (Michael W. Deem and Ramdas Pophale) SiO2 
 PCOD9437799
Probable space group: P B C M
;
_chemical_formula_sum "Si O2"
_cell_formula_units_Z 48
_cell_length_a 9.277380
_cell_length_b 31.653881
_cell_length_c 8.649792
_cell_angle_alpha 90.000000
_cell_angle_beta 90.000000
_cell_angle_gamma 90.000000
_cell_volume 2540.141881
_symmetry_space_group_name_H-M "P B C M"
_symmetry_group_IT_number 57
_symmetry_cell_setting 'orthorhombic'
loop_
_space_group_symop_operation_xyz
x,y,z
-x,-y,1/2+z
x,1/2-y,-z
-x,1/2+y,1/2-z
-x,-y,-z
x,y,1/2-z
-x,1/2+y,z
x,1/2-y,1/2+z
loop_
_atom_site_type_symbol
_atom_site_label
_atom_site_fract_x
_atom_site_fract_y
_atom_site_fract_z
Si Si1 0.913908 0.795366 0.935806
Si Si2 0.421371 0.204188 0.435665
Si Si3 0.912382 0.121698 0.436187
Si Si4 0.590195 0.375926 0.435818
Si Si5 0.918689 0.541001 0.563896
Si Si6 0.584058 0.540401 0.563623
O O1 0.917450 0.793455 0.750000
O O2 0.746690 0.802284 0.981823
O O3 0.012068 0.834445 0.985764
O O4 0.960825 0.750000 0.000000
O O5 0.465434 0.250000 0.500000
O O6 0.429785 0.204341 0.250000
O O7 0.516762 0.166623 0.502488
O O8 0.911307 0.120122 0.250000
O O9 0.750497 0.119626 0.498515
O O10 0.003898 0.082631 0.500140
O O11 0.594988 0.374929 0.250000
O O12 0.495065 0.416428 0.484559
O O13 0.924934 0.541003 0.750000
O O14 0.751094 0.540199 0.515414
O O15 0.000000 0.500000 0.500000
O O16 0.500000 0.500000 0.500000
O O17 0.580731 0.538704 0.750000
#
# Coordination Sequence:
#
# PCOD9437799 Si02
#       6
#     8   8   8   8   8   8
#     4   9  20  37  59  85 114 148 190 236 286 339
#     4  10  20  37  60  86 114 149 190 236 286 340
#     4  11  23  39  58  85 118 153 192 238 288 342
#     4  11  23  39  58  84 116 153 193 236 284 339
#     4  11  23  40  61  87 116 150 190 236 287 343
#     4  10  23  40  60  85 115 149 189 234 284 339
#
# _framework density 18.896581999999999
#
# number of rings (size 3 to 8) (size 9 to 14) (size 15 to 20)
#    0.000    1.667    0.000    4.000    0.000    8.000 
#    0.000    1.667    0.000    0.000    0.000    0.000 
#    0.000    0.000    0.000    0.000    0.000    0.000 
#
# Total GULP energy -268355.973518 kJ/mol
# GULP energy per Si atom -5590.749448 kJ/mol
# Density = 1.885357 g / cm^3
# Si number density = 18.896582 Si / 1000 Ang^3
#
#
#
# Elastic Constant Matrix: (Units=GPa)
#
#
# Indices 1 2 3 4 5 6 
#
# 1 182.7728 136.0022 49.9580 0.0000 0.0000 0.0000
# 2 136.0022 209.3580 52.1873 0.0000 0.0000 0.0000
# 3 49.9580 52.1873 51.1270 0.0000 0.0000 0.0000
# 4 0.0000 0.0000 0.0000 39.2750 0.0000 0.0000
# 5 0.0000 0.0000 0.0000 0.0000 31.2300 0.0000
# 6 0.0000 0.0000 0.0000 0.0000 0.0000 43.5207
#
#
#
# Elastic Compliance Matrix: (Units=1/GPa)
#
#
# Indices 1 2 3 4 5 6 
#
# 1 0.011408 -0.006213 -0.004805 0.000000 0.000000 0.000000
# 2 -0.006213 0.009790 -0.003923 0.000000 0.000000 0.000000
# 3 -0.004805 -0.003923 0.028258 0.000000 0.000000 0.000000
# 4 0.000000 0.000000 0.000000 0.025462 0.000000 0.000000
# 5 0.000000 0.000000 0.000000 0.000000 0.032021 0.000000
# 6 0.000000 0.000000 0.000000 0.000000 0.000000 0.022978
#
#
# Mechanical properties :
#
#
# Convention : Reuss Voigt Hill
#
# Bulk Modulus (GPa) = 51.08499 102.17251 76.62875
# Shear Modulus (GPa) = 30.06219 36.47915 33.27067
#
# Velocity S-wave (km/s) = 3.99291 4.39847 4.20059
# Velocity P-wave (km/s) = 6.95345 8.94327 8.01038
#
# Compressibility (1/GPa) = 0.01957522
#
# Stress axis : x y z
#
# Youngs Moduli (GPa) = 87.66039 102.14290 35.38777
#
# Poissons Ratio (x) = 0.63459 0.17005
# Poissons Ratio (y) = 0.54462 0.13881
# Poissons Ratio (z) = 0.42123 0.40066
#
# Static dielectric constant tensor:
#      x y z
#    x 1.633810 0.000000 0.000000 
#    y 0.000000 1.620500 0.000000 
#    z 0.000000 0.000000 1.640100 
# 
# From -- ./inp_files/1969.got.cif
#   From: 2010.05.17/outbox.cif.g08.bks.cpg/sg57_1_cif.got.tgz:1969.got - 2010.06.03 13:58:18.
