data_PCOD9437636
_publ_section_title
;
Structure prediction by ZEFSAII (Michael W. Deem and Ramdas Pophale) SiO2 
 PCOD9437636
Probable space group: P B C M
;
_chemical_formula_sum "Si O2"
_cell_formula_units_Z 56
_cell_length_a 22.687371
_cell_length_b 15.128146
_cell_length_c 7.595803
_cell_angle_alpha 90.000000
_cell_angle_beta 90.000000
_cell_angle_gamma 90.000000
_cell_volume 2607.015257
_symmetry_space_group_name_H-M "P B C M"
_symmetry_group_IT_number 57
_symmetry_cell_setting 'orthorhombic'
loop_
_space_group_symop_operation_xyz
x,y,z
-x,-y,1/2+z
x,1/2-y,-z
-x,1/2+y,1/2-z
-x,-y,-z
x,y,1/2-z
-x,1/2+y,z
x,1/2-y,1/2+z
loop_
_atom_site_type_symbol
_atom_site_label
_atom_site_fract_x
_atom_site_fract_y
_atom_site_fract_z
Si Si1 0.566433 0.591225 0.035274
Si Si2 0.440530 0.615742 0.454412
Si Si3 0.775685 0.008784 0.453839
Si Si4 0.906656 0.505582 0.958666
Si Si5 0.695062 0.849422 0.541039
Si Si6 0.313023 0.845833 0.538793
Si Si7 0.002337 0.854842 0.040190
O O1 0.564795 0.588442 0.250000
O O2 0.505546 0.636398 0.972347
O O3 0.627827 0.634071 0.978753
O O4 0.565279 0.490613 0.967646
O O5 0.441772 0.642816 0.250000
O O6 0.379723 0.650166 0.535240
O O7 0.784142 0.035988 0.250000
O O8 0.840724 0.000723 0.533072
O O9 0.740807 0.917201 0.459095
O O10 0.730346 0.079649 0.533230
O O11 0.901068 0.522439 0.750000
O O12 0.946628 0.586962 0.029077
O O13 0.941459 0.413107 0.980649
O O14 0.711913 0.750000 0.500000
O O15 0.695416 0.864367 0.750000
O O16 0.287957 0.750000 0.500000
O O17 0.318389 0.859289 0.750000
O O18 0.001635 0.861301 0.250000
O O19 0.002384 0.750000 0.000000
#
# Coordination Sequence:
#
# PCOD9437636 Si02
#       7
#     8   8   8   8   8   8   8
#     4   9  18  32  52  77 103 134 178 230 282 338
#     4   9  17  32  53  76 102 136 178 227 285 337
#     4  10  21  40  60  81 113 150 188 231 277 325
#     4   9  20  38  60  86 116 151 190 230 275 326
#     4  11  23  37  55  80 110 146 188 234 283 337
#     4  10  21  35  54  78 107 143 182 227 277 332
#     4  10  20  36  60  89 120 151 184 228 274 324
#
# _framework density 21.480502000000001
#
# number of rings (size 3 to 8) (size 9 to 14) (size 15 to 20)
#    0.000    2.286    1.429    0.857    0.000    4.571 
#    0.000    2.857    0.000    0.000    0.000    0.000 
#    0.000    0.000    0.000    0.000    0.000    0.000 
#
# Total GULP energy -312485.393495 kJ/mol
# GULP energy per Si atom -5580.096312 kJ/mol
# Density = 2.143161 g / cm^3
# Si number density = 21.480502 Si / 1000 Ang^3
#
#
#
# Elastic Constant Matrix: (Units=GPa)
#
#
# Indices 1 2 3 4 5 6 
#
# 1 189.1375 71.7300 3.3136 0.0000 0.0000 0.0000
# 2 71.7300 127.1802 -25.4249 0.0000 0.0000 0.0000
# 3 3.3136 -25.4249 49.8474 0.0000 0.0000 0.0000
# 4 0.0000 0.0000 0.0000 16.2256 0.0000 0.0000
# 5 0.0000 0.0000 0.0000 0.0000 -13.2140 0.0000
# 6 0.0000 0.0000 0.0000 0.0000 0.0000 -45.9796
#
#
#
# Elastic Compliance Matrix: (Units=1/GPa)
#
#
# Indices 1 2 3 4 5 6 
#
# 1 0.007056 -0.004536 -0.002783 0.000000 0.000000 0.000000
# 2 -0.004536 0.011672 0.006255 0.000000 0.000000 0.000000
# 3 -0.002783 0.006255 0.023436 0.000000 0.000000 0.000000
# 4 0.000000 0.000000 0.000000 0.061631 0.000000 0.000000
# 5 0.000000 0.000000 0.000000 0.000000 -0.075677 0.000000
# 6 0.000000 0.000000 0.000000 0.000000 0.000000 -0.021749
#
#
# Mechanical properties :
#
#
# Convention : Reuss Voigt Hill
#
# Bulk Modulus (GPa) = 24.97739 51.71139 38.34439
# Shear Modulus (GPa) = 228.91234 12.50950 120.71092
#
# Velocity S-wave (km/s) = 10.33435 2.41584 7.50450
# Velocity P-wave (km/s) = 12.41175 5.64868 9.64259
#
# Compressibility (1/GPa) = 0.04003621
#
# Stress axis : x y z
#
# Youngs Moduli (GPa) = 141.71977 85.67833 42.66858
#
# Poissons Ratio (x) = 0.38864 0.11873
# Poissons Ratio (y) = 0.64284 -0.26688
# Poissons Ratio (z) = 0.39436 -0.53589
#
# Static dielectric constant tensor:
#      x y z
#    x 1.816160 0.000000 0.000000 
#    y 0.000000 1.743010 0.000000 
#    z 0.000000 0.000000 1.887850 
# 
# From -- ./inp_files/8069.got.cif
#   From: 2010.05.17/outbox.cif.g08.bks.cpg/sg57_5_cif.got.tgz:8069.got - 2010.06.03 13:58:18.
