data_PCOD9437342
_publ_section_title
;
Structure prediction by ZEFSAII (Michael W. Deem and Ramdas Pophale) SiO2 
 PCOD9437342
Probable space group: P B C M
;
_chemical_formula_sum "Si O2"
_cell_formula_units_Z 40
_cell_length_a 9.917049
_cell_length_b 16.154662
_cell_length_c 14.016054
_cell_angle_alpha 90.000000
_cell_angle_beta 90.000000
_cell_angle_gamma 90.000000
_cell_volume 2245.464001
_symmetry_space_group_name_H-M "P B C M"
_symmetry_group_IT_number 57
_symmetry_cell_setting 'orthorhombic'
loop_
_space_group_symop_operation_xyz
x,y,z
-x,-y,1/2+z
x,1/2-y,-z
-x,1/2+y,1/2-z
-x,-y,-z
x,y,1/2-z
-x,1/2+y,z
x,1/2-y,1/2+z
loop_
_atom_site_type_symbol
_atom_site_label
_atom_site_fract_x
_atom_site_fract_y
_atom_site_fract_z
Si Si1 0.341591 0.121243 0.136570
Si Si2 0.695490 0.689147 0.861756
Si Si3 0.918045 0.552607 0.861924
Si Si4 0.556300 0.346411 0.007143
Si Si5 0.802100 0.466040 0.458932
O O1 0.342703 0.109854 0.250000
O O2 0.288253 0.213967 0.113672
O O3 0.252662 0.051057 0.087225
O O4 0.491502 0.120993 0.091623
O O5 0.660061 0.686012 0.750000
O O6 0.828941 0.635224 0.875270
O O7 0.571054 0.652030 0.920881
O O8 0.913501 0.529990 0.750000
O O9 0.070680 0.564041 0.897371
O O10 0.853355 0.485544 0.933889
O O11 0.679742 0.402009 0.039136
O O12 0.595501 0.250000 0.000000
#
# Coordination Sequence:
#
# PCOD9437342 Si02
#       5
#     8   8   8   8   8
#     4  10  20  35  60  88 115 149 193 235 282 342
#     4   9  19  37  60  83 113 154 191 231 285 345
#     4  10  22  39  57  83 116 149 192 236 286 346
#     4  10  21  39  57  86 116 150 188 237 286 339
#     4  11  22  38  58  87 115 152 191 238 292 330
#
# _framework density 17.813689
#
# number of rings (size 3 to 8) (size 9 to 14) (size 15 to 20)
#    0.000    2.000    2.000    1.200    0.000    2.400 
#    7.200    0.000    0.000    0.000    0.000    0.000 
#    0.000    0.000    0.000    0.000    0.000    0.000 
#
# Total GULP energy -223215.458100 kJ/mol
# GULP energy per Si atom -5580.386452 kJ/mol
# Density = 1.777314 g / cm^3
# Si number density = 17.813689 Si / 1000 Ang^3
#
#
#
# Elastic Constant Matrix: (Units=GPa)
#
#
# Indices 1 2 3 4 5 6 
#
# 1 135.6262 81.7704 70.4197 0.0000 0.0000 0.0000
# 2 81.7704 71.3901 57.0203 0.0000 0.0000 0.0000
# 3 70.4197 57.0203 121.7409 0.0000 0.0000 0.0000
# 4 0.0000 0.0000 0.0000 20.0924 0.0000 0.0000
# 5 0.0000 0.0000 0.0000 0.0000 16.5192 0.0000
# 6 0.0000 0.0000 0.0000 0.0000 0.0000 -12.6247
#
#
#
# Elastic Compliance Matrix: (Units=1/GPa)
#
#
# Indices 1 2 3 4 5 6 
#
# 1 0.024025 -0.026232 -0.001611 0.000000 0.000000 0.000000
# 2 -0.026232 0.051021 -0.008723 0.000000 0.000000 0.000000
# 3 -0.001611 -0.008723 0.013232 0.000000 0.000000 0.000000
# 4 0.000000 0.000000 0.000000 0.049770 0.000000 0.000000
# 5 0.000000 0.000000 0.000000 0.000000 0.060536 0.000000
# 6 0.000000 0.000000 0.000000 0.000000 0.000000 -0.079210
#
#
# Mechanical properties :
#
#
# Convention : Reuss Voigt Hill
#
# Bulk Modulus (GPa) = 66.02468 83.01977 74.52223
# Shear Modulus (GPa) = 25.30961 12.76716 19.03839
#
# Velocity S-wave (km/s) = 3.77343 2.68004 3.27272
# Velocity P-wave (km/s) = 7.49197 7.50216 7.49707
#
# Compressibility (1/GPa) = 0.01514585
#
# Stress axis : x y z
#
# Youngs Moduli (GPa) = 41.62369 19.59983 75.57607
#
# Poissons Ratio (x) = 0.51413 0.12173
# Poissons Ratio (y) = 1.09185 0.65929
# Poissons Ratio (z) = 0.06704 0.17098
#
# Static dielectric constant tensor:
#      x y z
#    x 1.572580 0.000000 0.000000 
#    y 0.000000 1.601510 0.000000 
#    z 0.000000 0.000000 1.638730 
# 
# From -- ./inp_files/15880.got.cif
#   From: 2010.05.17/outbox.cif.g08.bks.cpg/sg57_8_cif.got.tgz:15880.got - 2010.06.03 13:58:18.
