data_PCOD9437154
_publ_section_title
;
Structure prediction by ZEFSAII (Michael W. Deem and Ramdas Pophale) SiO2 
 PCOD9437154
Probable space group: P B C M
;
_chemical_formula_sum "Si O2"
_cell_formula_units_Z 64
_cell_length_a 23.388128
_cell_length_b 8.214535
_cell_length_c 15.371553
_cell_angle_alpha 90.000000
_cell_angle_beta 90.000000
_cell_angle_gamma 90.000000
_cell_volume 2953.222668
_symmetry_space_group_name_H-M "P B C M"
_symmetry_group_IT_number 57
_symmetry_cell_setting 'orthorhombic'
loop_
_space_group_symop_operation_xyz
x,y,z
-x,-y,1/2+z
x,1/2-y,-z
-x,1/2+y,1/2-z
-x,-y,-z
x,y,1/2-z
-x,1/2+y,z
x,1/2-y,1/2+z
loop_
_atom_site_type_symbol
_atom_site_label
_atom_site_fract_x
_atom_site_fract_y
_atom_site_fract_z
Si Si1 0.137598 0.442035 0.019242
Si Si2 0.308297 0.435259 0.650698
Si Si3 0.541438 0.698747 0.904973
Si Si4 0.651873 0.942632 0.347673
Si Si5 0.432285 0.951257 0.152861
Si Si6 0.743783 0.438364 0.980967
Si Si7 0.956272 0.860924 0.151136
Si Si8 0.919063 0.481330 0.150878
O O1 0.083424 0.455282 0.083104
O O2 0.143715 0.250000 0.000000
O O3 0.196806 0.501172 0.059650
O O4 0.124889 0.534323 0.928443
O O5 0.288882 0.469423 0.750000
O O6 0.328340 0.247232 0.649176
O O7 0.365214 0.542974 0.632291
O O8 0.265414 0.467770 0.572427
O O9 0.584548 0.562419 0.869346
O O10 0.476558 0.639524 0.908489
O O11 0.548187 0.860343 0.848264
O O12 0.562315 0.750000 0.000000
O O13 0.660925 0.004485 0.250000
O O14 0.690254 0.029983 0.418546
O O15 0.439677 0.884741 0.250000
O O16 0.748043 0.250000 0.000000
O O17 0.947190 0.920989 0.250000
O O18 0.938642 0.671341 0.148512
O O19 0.023328 0.880365 0.132824
O O20 0.899114 0.447023 0.250000
#
# Coordination Sequence:
#
# PCOD9437154 Si02
#       8
#     8   8   8   8   8   8   8   8
#     4  10  21  37  56  78 110 152 195 234 276 338
#     4   9  20  40  63  82 110 155 202 243 288 349
#     4  11  21  35  58  87 116 146 185 234 288 347
#     4  10  21  41  65  84 109 153 200 240 287 352
#     4  10  20  35  55  83 114 145 181 225 283 349
#     4  12  26  40  57  85 118 149 193 251 303 348
#     4   9  18  33  55  83 114 145 182 226 276 333
#     4   9  18  33  55  84 113 145 183 227 279 336
#
# _framework density 21.671240999999998
#
# number of rings (size 3 to 8) (size 9 to 14) (size 15 to 20)
#    0.000    2.000    0.000    5.250    0.000    4.000 
#    0.000    3.750    0.000    0.000    0.000    0.000 
#    0.000    0.000    0.000    0.000    0.000    0.000 
#
# Total GULP energy -357608.059825 kJ/mol
# GULP energy per Si atom -5587.625935 kJ/mol
# Density = 2.162192 g / cm^3
# Si number density = 21.671241 Si / 1000 Ang^3
#
#
#
# Elastic Constant Matrix: (Units=GPa)
#
#
# Indices 1 2 3 4 5 6 
#
# 1 34.1564 3.0940 8.4732 0.0000 0.0000 0.0000
# 2 3.0940 14.3612 5.0089 0.0000 0.0000 0.0000
# 3 8.4732 5.0089 66.9172 0.0000 0.0000 0.0000
# 4 0.0000 0.0000 0.0000 90.8200 0.0000 0.0000
# 5 0.0000 0.0000 0.0000 0.0000 11.9158 0.0000
# 6 0.0000 0.0000 0.0000 0.0000 0.0000 27.6892
#
#
#
# Elastic Compliance Matrix: (Units=1/GPa)
#
#
# Indices 1 2 3 4 5 6 
#
# 1 0.030627 -0.005386 -0.003475 0.000000 0.000000 0.000000
# 2 -0.005386 0.072446 -0.004741 0.000000 0.000000 0.000000
# 3 -0.003475 -0.004741 0.015739 0.000000 0.000000 0.000000
# 4 0.000000 0.000000 0.000000 0.011011 0.000000 0.000000
# 5 0.000000 0.000000 0.000000 0.000000 0.083922 0.000000
# 6 0.000000 0.000000 0.000000 0.000000 0.000000 0.036115
#
#
# Mechanical properties :
#
#
# Convention : Reuss Voigt Hill
#
# Bulk Modulus (GPa) = 10.91610 16.50966 13.71288
# Shear Modulus (GPa) = 16.25491 32.67559 24.46525
#
# Velocity S-wave (km/s) = 2.74171 3.88723 3.36360
# Velocity P-wave (km/s) = 3.88210 5.27088 4.62887
#
# Compressibility (1/GPa) = 0.09160778
#
# Stress axis : x y z
#
# Youngs Moduli (GPa) = 32.65097 13.80341 63.53767
#
# Poissons Ratio (x) = 0.07435 0.22078
# Poissons Ratio (y) = 0.17587 0.30122
# Poissons Ratio (z) = 0.11346 0.06544
#
# Static dielectric constant tensor:
#      x y z
#    x 1.762900 0.000000 0.000000 
#    y 0.000000 1.783430 0.000000 
#    z 0.000000 0.000000 1.818690 
# 
# From -- ./inp_files/19522.got.cif
#   From: 2010.05.17/outbox.cif.g08.bks.cpg/sg57_10_cif.got.tgz:19522.got - 2010.06.03 13:58:18.
