data_PCOD9437958
_publ_section_title
;
Structure prediction by ZEFSAII (Michael W. Deem and Ramdas Pophale) SiO2 
 PCOD9437958
Probable space group: P B C M
;
_chemical_formula_sum "Si O2"
_cell_formula_units_Z 64
_cell_length_a 6.590409
_cell_length_b 19.303742
_cell_length_c 26.388041
_cell_angle_alpha 90.000000
_cell_angle_beta 90.000000
_cell_angle_gamma 90.000000
_cell_volume 3357.074834
_symmetry_space_group_name_H-M "P B C M"
_symmetry_group_IT_number 57
_symmetry_cell_setting 'orthorhombic'
loop_
_space_group_symop_operation_xyz
x,y,z
-x,-y,1/2+z
x,1/2-y,-z
-x,1/2+y,1/2-z
-x,-y,-z
x,y,1/2-z
-x,1/2+y,z
x,1/2-y,1/2+z
loop_
_atom_site_type_symbol
_atom_site_label
_atom_site_fract_x
_atom_site_fract_y
_atom_site_fract_z
Si Si1 0.934047 0.495525 0.593205
Si Si2 0.368271 0.112265 0.553151
Si Si3 0.520547 0.303751 0.695429
Si Si4 0.221081 0.253967 0.387729
Si Si5 0.448221 0.946370 0.851966
Si Si6 0.254173 0.389930 0.560210
Si Si7 0.118779 0.704256 0.692407
Si Si8 0.688619 0.077046 0.862881
O O1 0.785697 0.549256 0.565292
O O2 0.783373 0.453816 0.630266
O O3 0.063898 0.442707 0.558891
O O4 0.100342 0.539624 0.623897
O O5 0.282505 0.183676 0.575651
O O6 0.371341 0.117062 0.492738
O O7 0.574895 0.097798 0.584522
O O8 0.427287 0.285593 0.750000
O O9 0.402178 0.269101 0.649367
O O10 0.524866 0.385888 0.688249
O O11 0.745021 0.273001 0.694422
O O12 0.175600 0.184398 0.419623
O O13 0.049585 0.282061 0.349907
O O14 0.586642 0.921723 0.899551
O O15 0.538315 0.021064 0.837370
O O16 0.046878 0.689559 0.750000
O O17 0.261345 0.642059 0.672310
#
# Coordination Sequence:
#
# PCOD9437958 Si02
#       8
#     8   8   8   8   8   8   8   8
#     4  10  20  38  59  83 122 155 197 240 294 344
#     4  11  21  36  60  84 121 158 197 240 296 348
#     4  10  21  39  62  85 113 151 193 244 300 355
#     4  11  21  39  59  85 120 154 199 247 296 346
#     4   9  21  38  58  86 119 153 194 243 294 350
#     4  10  22  36  58  87 118 158 200 241 293 355
#     4  11  22  38  61  87 113 154 200 245 300 355
#     4  10  21  38  58  86 120 153 191 247 288 351
#
# _framework density 19.064215000000001
#
# number of rings (size 3 to 8) (size 9 to 14) (size 15 to 20)
#    0.000    1.750    2.500    1.875    0.000    6.000 
#    0.000    0.625    0.000    0.000    0.000    0.000 
#    0.000    0.000    0.000    0.000    0.000    0.000 
#
# Total GULP energy -357006.369426 kJ/mol
# GULP energy per Si atom -5578.224522 kJ/mol
# Density = 1.902082 g / cm^3
# Si number density = 19.064215 Si / 1000 Ang^3
#
#
#
# Elastic Constant Matrix: (Units=GPa)
#
#
# Indices 1 2 3 4 5 6 
#
# 1 63.5255 15.1605 4.0334 0.0000 0.0000 0.0000
# 2 15.1605 89.9069 15.2438 0.0000 0.0000 0.0000
# 3 4.0334 15.2438 43.2754 0.0000 0.0000 0.0000
# 4 0.0000 0.0000 0.0000 6.7680 0.0000 0.0000
# 5 0.0000 0.0000 0.0000 0.0000 17.5723 0.0000
# 6 0.0000 0.0000 0.0000 0.0000 0.0000 28.1650
#
#
#
# Elastic Compliance Matrix: (Units=1/GPa)
#
#
# Indices 1 2 3 4 5 6 
#
# 1 0.016416 -0.002668 -0.000590 0.000000 0.000000 0.000000
# 2 -0.002668 0.012263 -0.004071 0.000000 0.000000 0.000000
# 3 -0.000590 -0.004071 0.024597 0.000000 0.000000 0.000000
# 4 0.000000 0.000000 0.000000 0.147754 0.000000 0.000000
# 5 0.000000 0.000000 0.000000 0.000000 0.056908 0.000000
# 6 0.000000 0.000000 0.000000 0.000000 0.000000 0.035505
#
#
# Mechanical properties :
#
#
# Convention : Reuss Voigt Hill
#
# Bulk Modulus (GPa) = 25.89521 29.50925 27.70223
# Shear Modulus (GPa) = 15.57763 21.31908 18.44835
#
# Velocity S-wave (km/s) = 2.86162 3.34769 3.11415
# Velocity P-wave (km/s) = 4.95289 5.51862 5.24339
#
# Compressibility (1/GPa) = 0.03861718
#
# Stress axis : x y z
#
# Youngs Moduli (GPa) = 60.91645 81.54786 40.65570
#
# Poissons Ratio (x) = 0.21757 0.02399
# Poissons Ratio (y) = 0.16253 0.16551
# Poissons Ratio (z) = 0.03595 0.33197
#
# Static dielectric constant tensor:
#      x y z
#    x 1.651870 0.000000 0.000000 
#    y 0.000000 1.672640 0.000000 
#    z 0.000000 0.000000 1.687950 
# 
# From -- ./inp_files/28138.got.cif
#   From: 2010.05.17/outbox.cif.g08.bks.cpg/sg57_15_cif.got.tgz:28138.got - 2010.06.03 13:58:18.
