data_PCOD9437780
_publ_section_title
;
Structure prediction by ZEFSAII (Michael W. Deem and Ramdas Pophale) SiO2 
 PCOD9437780
Probable space group: P B C M
;
_chemical_formula_sum "Si O2"
_cell_formula_units_Z 64
_cell_length_a 18.403046
_cell_length_b 12.268510
_cell_length_c 13.972134
_cell_angle_alpha 90.000000
_cell_angle_beta 90.000000
_cell_angle_gamma 90.000000
_cell_volume 3154.599826
_symmetry_space_group_name_H-M "P B C M"
_symmetry_group_IT_number 57
_symmetry_cell_setting 'orthorhombic'
loop_
_space_group_symop_operation_xyz
x,y,z
-x,-y,1/2+z
x,1/2-y,-z
-x,1/2+y,1/2-z
-x,-y,-z
x,y,1/2-z
-x,1/2+y,z
x,1/2-y,1/2+z
loop_
_atom_site_type_symbol
_atom_site_label
_atom_site_fract_x
_atom_site_fract_y
_atom_site_fract_z
Si Si1 0.217979 0.776350 0.865691
Si Si2 0.202089 0.023353 0.864503
Si Si3 0.159714 0.119223 0.134900
Si Si4 0.304703 0.127257 0.490926
Si Si5 0.616611 0.244735 0.363414
Si Si6 0.931880 0.668859 0.633606
Si Si7 0.423842 0.560037 0.987559
Si Si8 0.907442 0.114091 0.633297
O O1 0.213190 0.780136 0.750000
O O2 0.210143 0.900070 0.899415
O O3 0.298394 0.734222 0.887417
O O4 0.153735 0.698932 0.898443
O O5 0.207929 0.025385 0.750000
O O6 0.124361 0.073381 0.890929
O O7 0.264908 0.095573 0.910281
O O8 0.169544 0.123681 0.250000
O O9 0.237965 0.126690 0.084622
O O10 0.107067 0.218514 0.106173
O O11 0.119881 0.006576 0.110293
O O12 0.334973 0.250000 0.500000
O O13 0.363300 0.033293 0.470757
O O14 0.609026 0.231045 0.250000
O O15 0.574984 0.350315 0.402911
O O16 0.594477 0.135323 0.419928
O O17 0.936434 0.671684 0.750000
O O18 0.012670 0.645832 0.597165
O O19 0.500000 0.500000 0.000000
O O20 0.910394 0.118482 0.750000
#
# Coordination Sequence:
#
# PCOD9437780 Si02
#       8
#     8   8   8   8   8   8   8   8
#     4   9  17  33  61  89 113 154 212 262 305 364
#     4  10  20  37  59  85 119 163 213 256 302 367
#     4  10  21  38  58  85 122 162 211 263 312 376
#     4  12  24  40  66  91 127 167 208 257 316 380
#     4  10  22  45  72  98 132 170 214 266 316 376
#     4   9  18  32  52  80 118 164 206 257 318 368
#     4  11  26  44  70 101 134 166 209 260 324 392
#     4   9  18  31  55  86 116 158 210 261 318 367
#
# _framework density 20.287835999999999
#
# number of rings (size 3 to 8) (size 9 to 14) (size 15 to 20)
#    0.000    2.000    2.500    0.750    3.500    2.000 
#    0.000    0.625    2.750    0.000    0.000    0.000 
#    0.000    0.000    0.000    0.000    0.000    0.000 
#
# Total GULP energy -357693.082485 kJ/mol
# GULP energy per Si atom -5588.954414 kJ/mol
# Density = 2.024166 g / cm^3
# Si number density = 20.287836 Si / 1000 Ang^3
#
#
#
# Elastic Constant Matrix: (Units=GPa)
#
#
# Indices 1 2 3 4 5 6 
#
# 1 112.3558 55.8971 10.1149 0.0000 0.0000 0.0000
# 2 55.8971 133.2700 26.7404 0.0000 0.0000 0.0000
# 3 10.1149 26.7404 84.2276 0.0000 0.0000 0.0000
# 4 0.0000 0.0000 0.0000 20.8228 0.0000 0.0000
# 5 0.0000 0.0000 0.0000 0.0000 19.9681 0.0000
# 6 0.0000 0.0000 0.0000 0.0000 0.0000 18.5180
#
#
#
# Elastic Compliance Matrix: (Units=1/GPa)
#
#
# Indices 1 2 3 4 5 6 
#
# 1 0.011249 -0.004750 0.000157 0.000000 0.000000 0.000000
# 2 -0.004750 0.010020 -0.002611 0.000000 0.000000 0.000000
# 3 0.000157 -0.002611 0.012683 0.000000 0.000000 0.000000
# 4 0.000000 0.000000 0.000000 0.048024 0.000000 0.000000
# 5 0.000000 0.000000 0.000000 0.000000 0.050080 0.000000
# 6 0.000000 0.000000 0.000000 0.000000 0.000000 0.054002
#
#
# Mechanical properties :
#
#
# Convention : Reuss Voigt Hill
#
# Bulk Modulus (GPa) = 51.16485 57.26200 54.21343
# Shear Modulus (GPa) = 24.15711 27.66851 25.91281
#
# Velocity S-wave (km/s) = 3.45442 3.69697 3.57775
# Velocity P-wave (km/s) = 6.41755 6.81979 6.62172
#
# Compressibility (1/GPa) = 0.01954467
#
# Stress axis : x y z
#
# Youngs Moduli (GPa) = 88.89567 99.80507 78.84859
#
# Poissons Ratio (x) = 0.47404 -0.01238
# Poissons Ratio (y) = 0.42223 0.20584
# Poissons Ratio (z) = -0.01396 0.26055
#
# Static dielectric constant tensor:
#      x y z
#    x 1.679710 0.000000 0.000000 
#    y 0.000000 1.715830 0.000000 
#    z 0.000000 0.000000 1.765330 
# 
# From -- ./inp_files/19114.got.cif
#   From: 2010.05.17/outbox.cif.g08.bks.cpg/sg57_10_cif.got.tgz:19114.got - 2010.06.03 13:58:18.
