data_PCOD9437187
_publ_section_title
;
Structure prediction by ZEFSAII (Michael W. Deem and Ramdas Pophale) SiO2 
 PCOD9437187
Probable space group: P B C M
;
_chemical_formula_sum "Si O2"
_cell_formula_units_Z 56
_cell_length_a 17.693020
_cell_length_b 20.343343
_cell_length_c 8.644036
_cell_angle_alpha 90.000000
_cell_angle_beta 90.000000
_cell_angle_gamma 90.000000
_cell_volume 3111.292607
_symmetry_space_group_name_H-M "P B C M"
_symmetry_group_IT_number 57
_symmetry_cell_setting 'orthorhombic'
loop_
_space_group_symop_operation_xyz
x,y,z
-x,-y,1/2+z
x,1/2-y,-z
-x,1/2+y,1/2-z
-x,-y,-z
x,y,1/2-z
-x,1/2+y,z
x,1/2-y,1/2+z
loop_
_atom_site_type_symbol
_atom_site_label
_atom_site_fract_x
_atom_site_fract_y
_atom_site_fract_z
Si Si1 0.377650 0.178315 0.935537
Si Si2 0.447712 0.821551 0.063322
Si Si3 0.273898 0.062781 0.064218
Si Si4 0.892564 0.549319 0.564918
Si Si5 0.046024 0.595816 0.064931
Si Si6 0.178597 0.678222 0.935467
Si Si7 0.684620 0.083256 0.561765
O O1 0.374405 0.179465 0.750000
O O2 0.465285 0.166329 0.982696
O O3 0.356350 0.250000 0.000000
O O4 0.324037 0.121706 0.999289
O O5 0.444963 0.818749 0.250000
O O6 0.390525 0.878333 0.010740
O O7 0.424814 0.750000 0.000000
O O8 0.275306 0.064217 0.250000
O O9 0.306257 0.991846 0.010609
O O10 0.187618 0.067069 0.007619
O O11 0.888636 0.553483 0.750000
O O12 0.914513 0.474005 0.522416
O O13 0.961897 0.592904 0.503170
O O14 0.042753 0.599872 0.250000
O O15 0.098517 0.652609 0.997598
O O16 0.177603 0.679931 0.750000
O O17 0.242912 0.626364 0.985736
O O18 0.196135 0.750000 0.000000
O O19 0.683944 0.082386 0.750000
#
# Coordination Sequence:
#
# PCOD9437187 Si02
#       7
#     8   8   8   8   8   8   8
#     4  10  21  38  59  82 109 144 187 234 286 340
#     4   9  18  35  56  79 110 149 191 233 278 332
#     4  11  21  36  58  84 115 149 186 230 283 337
#     4  10  20  35  57  83 111 142 183 230 275 327
#     4  10  20  35  56  81 109 145 187 227 274 330
#     4  11  21  35  54  80 116 155 193 234 282 332
#     4   9  19  34  54  81 114 150 188 231 279 331
#
# _framework density 17.998950000000001
#
# number of rings (size 3 to 8) (size 9 to 14) (size 15 to 20)
#    0.000    2.000    1.429    2.571    0.000    2.286 
#    0.000    2.857    0.000    0.000    0.000    0.000 
#    0.000    0.000    0.000    0.000    0.000    0.000 
#
# Total GULP energy -312697.579518 kJ/mol
# GULP energy per Si atom -5583.885349 kJ/mol
# Density = 1.795798 g / cm^3
# Si number density = 17.998950 Si / 1000 Ang^3
#
#
#
# Elastic Constant Matrix: (Units=GPa)
#
#
# Indices 1 2 3 4 5 6 
#
# 1 136.2155 98.0853 34.5908 0.0000 0.0000 0.0000
# 2 98.0853 144.0889 36.0508 0.0000 0.0000 0.0000
# 3 34.5908 36.0508 39.3166 0.0000 0.0000 0.0000
# 4 0.0000 0.0000 0.0000 28.8094 0.0000 0.0000
# 5 0.0000 0.0000 0.0000 0.0000 20.8659 0.0000
# 6 0.0000 0.0000 0.0000 0.0000 0.0000 24.8485
#
#
#
# Elastic Compliance Matrix: (Units=1/GPa)
#
#
# Indices 1 2 3 4 5 6 
#
# 1 0.015126 -0.009041 -0.005018 0.000000 0.000000 0.000000
# 2 -0.009041 0.014411 -0.005259 0.000000 0.000000 0.000000
# 3 -0.005018 -0.005259 0.034671 0.000000 0.000000 0.000000
# 4 0.000000 0.000000 0.000000 0.034711 0.000000 0.000000
# 5 0.000000 0.000000 0.000000 0.000000 0.047925 0.000000
# 6 0.000000 0.000000 0.000000 0.000000 0.000000 0.040244
#
#
# Mechanical properties :
#
#
# Convention : Reuss Voigt Hill
#
# Bulk Modulus (GPa) = 39.10530 73.00832 56.05681
# Shear Modulus (GPa) = 21.34497 24.96435 23.15466
#
# Velocity S-wave (km/s) = 3.44743 3.72827 3.59060
# Velocity P-wave (km/s) = 6.13351 7.69311 6.95715
#
# Compressibility (1/GPa) = 0.02557198
#
# Stress axis : x y z
#
# Youngs Moduli (GPa) = 66.11230 69.39363 28.84230
#
# Poissons Ratio (x) = 0.62740 0.14472
# Poissons Ratio (y) = 0.59773 0.15169
# Poissons Ratio (z) = 0.33172 0.36495
#
# Static dielectric constant tensor:
#      x y z
#    x 1.604000 0.000000 0.000000 
#    y 0.000000 1.597200 0.000000 
#    z 0.000000 0.000000 1.599490 
# 
# From -- ./inp_files/5231.got.cif
#   From: 2010.05.17/outbox.cif.g08.bks.cpg/sg57_3_cif.got.tgz:5231.got - 2010.06.03 13:58:18.
