data_PCOD9437518
_publ_section_title
;
Structure prediction by ZEFSAII (Michael W. Deem and Ramdas Pophale) SiO2 
 PCOD9437518
Probable space group: P B C M
;
_chemical_formula_sum "Si O2"
_cell_formula_units_Z 64
_cell_length_a 26.159712
_cell_length_b 14.838698
_cell_length_c 9.379933
_cell_angle_alpha 90.000000
_cell_angle_beta 90.000000
_cell_angle_gamma 90.000000
_cell_volume 3641.065493
_symmetry_space_group_name_H-M "P B C M"
_symmetry_group_IT_number 57
_symmetry_cell_setting 'orthorhombic'
loop_
_space_group_symop_operation_xyz
x,y,z
-x,-y,1/2+z
x,1/2-y,-z
-x,1/2+y,1/2-z
-x,-y,-z
x,y,1/2-z
-x,1/2+y,z
x,1/2-y,1/2+z
loop_
_atom_site_type_symbol
_atom_site_label
_atom_site_fract_x
_atom_site_fract_y
_atom_site_fract_z
Si Si1 0.635666 0.846084 0.079120
Si Si2 0.111239 0.168627 0.086580
Si Si3 0.823974 0.013063 0.915844
Si Si4 0.996424 0.593953 0.080556
Si Si5 0.634474 0.154301 0.079607
Si Si6 0.889497 0.160101 0.418903
Si Si7 0.282023 0.500918 0.420078
Si Si8 0.553844 0.999485 0.421612
O O1 0.634481 0.831080 0.250000
O O2 0.684222 0.911453 0.049228
O O3 0.587241 0.910339 0.042058
O O4 0.636484 0.750000 0.000000
O O5 0.105219 0.196538 0.250000
O O6 0.146521 0.081624 0.080331
O O7 0.054558 0.144589 0.030199
O O8 0.134438 0.250000 0.000000
O O9 0.820822 0.041728 0.750000
O O10 0.858259 0.080288 0.008443
O O11 0.768656 0.004209 0.986613
O O12 0.990051 0.577624 0.250000
O O13 0.049773 0.644796 0.059709
O O14 0.000000 0.500000 0.000000
O O15 0.632694 0.170055 0.250000
O O16 0.683372 0.089686 0.051599
O O17 0.586642 0.089169 0.041821
O O18 0.635288 0.250000 0.000000
O O19 0.874052 0.250000 0.500000
O O20 0.879954 0.164508 0.250000
O O21 0.270672 0.500297 0.250000
O O22 0.547669 0.999335 0.250000
O O23 0.500000 0.000000 0.500000
#
# Coordination Sequence:
#
# PCOD9437518 Si02
#       8
#     8   8   8   8   8   8   8   8
#     4   9  19  36  57  80 109 146 187 230 275 325
#     4  10  22  38  56  81 111 142 178 220 268 324
#     4  11  23  39  58  82 113 143 180 230 278 330
#     4  10  20  36  58  82 109 143 179 219 269 324
#     4   9  19  36  57  80 108 143 183 226 270 320
#     4  11  23  38  59  84 110 145 183 222 272 329
#     4   9  20  39  58  77 107 144 182 226 277 330
#     4   9  19  35  53  79 115 151 184 222 270 319
#
# _framework density 17.577272000000001
#
# number of rings (size 3 to 8) (size 9 to 14) (size 15 to 20)
#    0.000    2.250    1.250    2.625    0.000    5.500 
#    0.000    8.750    0.000    0.000    0.000    0.000 
#    0.000    0.000    0.000    0.000    0.000    0.000 
#
# Total GULP energy -357020.992107 kJ/mol
# GULP energy per Si atom -5578.453002 kJ/mol
# Density = 1.753727 g / cm^3
# Si number density = 17.577272 Si / 1000 Ang^3
#
#
#
# Elastic Constant Matrix: (Units=GPa)
#
#
# Indices 1 2 3 4 5 6 
#
# 1 110.0554 34.0257 58.4526 0.0000 0.0000 0.0000
# 2 34.0257 125.7898 65.2698 0.0000 0.0000 0.0000
# 3 58.4526 65.2698 72.1234 0.0000 0.0000 0.0000
# 4 0.0000 0.0000 0.0000 39.1787 0.0000 0.0000
# 5 0.0000 0.0000 0.0000 0.0000 31.8718 0.0000
# 6 0.0000 0.0000 0.0000 0.0000 0.0000 25.4442
#
#
#
# Elastic Compliance Matrix: (Units=1/GPa)
#
#
# Indices 1 2 3 4 5 6 
#
# 1 0.017439 0.004933 -0.018597 0.000000 0.000000 0.000000
# 2 0.004933 0.016383 -0.018823 0.000000 0.000000 0.000000
# 3 -0.018597 -0.018823 0.045972 0.000000 0.000000 0.000000
# 4 0.000000 0.000000 0.000000 0.025524 0.000000 0.000000
# 5 0.000000 0.000000 0.000000 0.000000 0.031376 0.000000
# 6 0.000000 0.000000 0.000000 0.000000 0.000000 0.039302
#
#
# Mechanical properties :
#
#
# Convention : Reuss Voigt Hill
#
# Bulk Modulus (GPa) = 67.48878 69.27387 68.38132
# Shear Modulus (GPa) = 20.33270 29.31364 24.82317
#
# Velocity S-wave (km/s) = 3.40481 4.08818 3.76204
# Velocity P-wave (km/s) = 7.34410 7.86008 7.60647
#
# Compressibility (1/GPa) = 0.01481728
#
# Stress axis : x y z
#
# Youngs Moduli (GPa) = 57.34422 61.04016 21.75248
#
# Poissons Ratio (x) = -0.30108 0.40453
# Poissons Ratio (y) = -0.28285 0.40946
# Poissons Ratio (z) = 1.06643 1.14899
#
# Static dielectric constant tensor:
#      x y z
#    x 1.598360 0.000000 0.000000 
#    y 0.000000 1.585380 0.000000 
#    z 0.000000 0.000000 1.588200 
# 
# From -- ./inp_files/9321.got.cif
#   From: 2010.05.17/outbox.cif.g08.bks.cpg/sg57_5_cif.got.tgz:9321.got - 2010.06.03 13:58:18.
