data_PCOD9437476
_publ_section_title
;
Structure prediction by ZEFSAII (Michael W. Deem and Ramdas Pophale) SiO2 
 PCOD9437476
Probable space group: P B C M
;
_chemical_formula_sum "Si O2"
_cell_formula_units_Z 40
_cell_length_a 26.533365
_cell_length_b 9.263603
_cell_length_c 8.601102
_cell_angle_alpha 90.000000
_cell_angle_beta 90.000000
_cell_angle_gamma 90.000000
_cell_volume 2114.104078
_symmetry_space_group_name_H-M "P B C M"
_symmetry_group_IT_number 57
_symmetry_cell_setting 'orthorhombic'
loop_
_space_group_symop_operation_xyz
x,y,z
-x,-y,1/2+z
x,1/2-y,-z
-x,1/2+y,1/2-z
-x,-y,-z
x,y,1/2-z
-x,1/2+y,z
x,1/2-y,1/2+z
loop_
_atom_site_type_symbol
_atom_site_label
_atom_site_fract_x
_atom_site_fract_y
_atom_site_fract_z
Si Si1 0.452154 0.587408 0.563070
Si Si2 0.154203 0.087212 0.437067
Si Si3 0.253490 0.588274 0.937672
Si Si4 0.952744 0.587518 0.564216
Si Si5 0.647820 0.912149 0.937696
O O1 0.452204 0.750000 0.500000
O O2 0.500000 0.500000 0.500000
O O3 0.454081 0.591002 0.750000
O O4 0.401205 0.503879 0.515026
O O5 0.161210 0.250000 0.500000
O O6 0.151319 0.092688 0.250000
O O7 0.101149 0.030597 0.503361
O O8 0.201555 0.989692 0.484299
O O9 0.254451 0.592840 0.750000
O O10 0.301432 0.493723 0.989702
O O11 0.256557 0.750000 0.000000
O O12 0.956378 0.750000 0.500000
O O13 0.952911 0.588449 0.750000
O O14 0.000000 0.500000 0.500000
O O15 0.648380 0.906368 0.750000
O O16 0.645579 0.750000 0.000000
#
# Coordination Sequence:
#
# PCOD9437476 Si02
#       5
#     8   8   8   8   8
#     4  11  23  39  60  86 118 153 194 239 288 341
#     4  10  20  36  57  82 111 145 186 230 277 334
#     4  10  22  38  57  83 114 146 185 230 279 334
#     4  11  22  38  59  84 114 149 189 233 282 336
#     4  10  22  39  59  85 114 149 190 234 282 337
#
# _framework density 18.920544
#
# number of rings (size 3 to 8) (size 9 to 14) (size 15 to 20)
#    0.000    1.600    0.000    6.000    0.000    6.400 
#    0.000    2.000    0.000    0.000    0.000    0.000 
#    0.000    0.000    0.000    0.000    0.000    0.000 
#
# Total GULP energy -223605.967348 kJ/mol
# GULP energy per Si atom -5590.149184 kJ/mol
# Density = 1.887748 g / cm^3
# Si number density = 18.920544 Si / 1000 Ang^3
#
#
#
# Elastic Constant Matrix: (Units=GPa)
#
#
# Indices 1 2 3 4 5 6 
#
# 1 228.5272 123.1943 60.1652 0.0000 0.0000 0.0000
# 2 123.1943 160.3064 40.3122 0.0000 0.0000 0.0000
# 3 60.1652 40.3122 71.4404 0.0000 0.0000 0.0000
# 4 0.0000 0.0000 0.0000 39.4252 0.0000 0.0000
# 5 0.0000 0.0000 0.0000 0.0000 29.5474 0.0000
# 6 0.0000 0.0000 0.0000 0.0000 0.0000 43.3930
#
#
#
# Elastic Compliance Matrix: (Units=1/GPa)
#
#
# Indices 1 2 3 4 5 6 
#
# 1 0.008336 -0.005408 -0.003969 0.000000 0.000000 0.000000
# 2 -0.005408 0.010778 -0.001527 0.000000 0.000000 0.000000
# 3 -0.003969 -0.001527 0.018202 0.000000 0.000000 0.000000
# 4 0.000000 0.000000 0.000000 0.025364 0.000000 0.000000
# 5 0.000000 0.000000 0.000000 0.000000 0.033844 0.000000
# 6 0.000000 0.000000 0.000000 0.000000 0.000000 0.023045
#
#
# Mechanical properties :
#
#
# Convention : Reuss Voigt Hill
#
# Bulk Modulus (GPa) = 64.48369 100.84638 82.66504
# Shear Modulus (GPa) = 34.11853 38.24660 36.18257
#
# Velocity S-wave (km/s) = 4.25108 4.50091 4.37778
# Velocity P-wave (km/s) = 7.63223 8.96809 8.32699
#
# Compressibility (1/GPa) = 0.01550780
#
# Stress axis : x y z
#
# Youngs Moduli (GPa) = 119.95851 92.77861 54.93945
#
# Poissons Ratio (x) = 0.50177 0.21804
# Poissons Ratio (y) = 0.64877 0.08391
# Poissons Ratio (z) = 0.47609 0.14170
#
# Static dielectric constant tensor:
#      x y z
#    x 1.657600 0.000000 0.000000 
#    y 0.000000 1.604650 0.000000 
#    z 0.000000 0.000000 1.642770 
# 
# From -- ./inp_files/8853.got.cif
#   From: 2010.05.17/outbox.cif.g08.bks.cpg/sg57_5_cif.got.tgz:8853.got - 2010.06.03 13:58:18.
