data_PCOD9437787
_publ_section_title
;
Structure prediction by ZEFSAII (Michael W. Deem and Ramdas Pophale) SiO2 
 PCOD9437787
Probable space group: P B C M
;
_chemical_formula_sum "Si O2"
_cell_formula_units_Z 64
_cell_length_a 22.279543
_cell_length_b 18.298685
_cell_length_c 8.538125
_cell_angle_alpha 90.000000
_cell_angle_beta 90.000000
_cell_angle_gamma 90.000000
_cell_volume 3480.876926
_symmetry_space_group_name_H-M "P B C M"
_symmetry_group_IT_number 57
_symmetry_cell_setting 'orthorhombic'
loop_
_space_group_symop_operation_xyz
x,y,z
-x,-y,1/2+z
x,1/2-y,-z
-x,1/2+y,1/2-z
-x,-y,-z
x,y,1/2-z
-x,1/2+y,z
x,1/2-y,1/2+z
loop_
_atom_site_type_symbol
_atom_site_label
_atom_site_fract_x
_atom_site_fract_y
_atom_site_fract_z
Si Si1 0.389765 0.422047 0.439253
Si Si2 0.755880 0.399844 0.939631
Si Si3 0.934673 0.019715 0.061834
Si Si4 0.729178 0.667673 0.561930
Si Si5 0.185020 0.047528 0.436679
Si Si6 0.377266 0.908843 0.559213
Si Si7 0.501614 0.331209 0.937855
Si Si8 0.876929 0.172288 0.061939
O O1 0.392136 0.420898 0.250000
O O2 0.331157 0.375859 0.487535
O O3 0.384572 0.506514 0.488608
O O4 0.449226 0.384581 0.504739
O O5 0.756457 0.401920 0.750000
O O6 0.688527 0.382172 0.992083
O O7 0.808640 0.345347 0.991238
O O8 0.775320 0.480165 0.996981
O O9 0.933348 0.016468 0.250000
O O10 0.916071 0.102239 0.013412
O O11 0.882309 0.967447 0.996623
O O12 0.000000 0.000000 0.000000
O O13 0.727904 0.750000 0.500000
O O14 0.730938 0.668047 0.750000
O O15 0.785423 0.621773 0.498250
O O16 0.186078 0.045823 0.250000
O O17 0.377576 0.907814 0.750000
O O18 0.433754 0.861328 0.506302
O O19 0.501555 0.330050 0.750000
O O20 0.490818 0.250000 0.000000
O O21 0.877039 0.174354 0.250000
O O22 0.897572 0.250000 0.000000
#
# Coordination Sequence:
#
# PCOD9437787 Si02
#       8
#     8   8   8   8   8   8   8   8
#     4  10  20  37  60  80 103 140 186 233 287 344
#     4   9  17  35  57  79 109 147 185 228 283 334
#     4  10  21  39  62  88 117 156 198 239 283 330
#     4  11  22  37  58  83 113 147 185 234 289 344
#     4  11  21  35  57  86 116 147 186 229 275 337
#     4   9  18  35  58  80 104 142 184 230 285 339
#     4  11  23  37  53  75 108 145 185 233 286 343
#     4   9  19  33  55  84 117 151 186 228 277 329
#
# _framework density 18.386171000000001
#
# number of rings (size 3 to 8) (size 9 to 14) (size 15 to 20)
#    0.000    2.000    1.250    3.750    0.000    5.000 
#    0.000    2.500    0.000    1.500    0.000    0.000 
#    0.000    0.000    0.000    0.000    0.000    0.000 
#
# Total GULP energy -357359.821455 kJ/mol
# GULP energy per Si atom -5583.747210 kJ/mol
# Density = 1.834432 g / cm^3
# Si number density = 18.386171 Si / 1000 Ang^3
#
#
#
# Elastic Constant Matrix: (Units=GPa)
#
#
# Indices 1 2 3 4 5 6 
#
# 1 124.8424 15.4393 18.2969 0.0000 0.0000 0.0000
# 2 15.4393 43.2164 5.2951 0.0000 0.0000 0.0000
# 3 18.2969 5.2951 27.5756 0.0000 0.0000 0.0000
# 4 0.0000 0.0000 0.0000 25.2782 0.0000 0.0000
# 5 0.0000 0.0000 0.0000 0.0000 24.1338 0.0000
# 6 0.0000 0.0000 0.0000 0.0000 0.0000 17.8171
#
#
#
# Elastic Compliance Matrix: (Units=1/GPa)
#
#
# Indices 1 2 3 4 5 6 
#
# 1 0.009146 -0.002585 -0.005572 0.000000 0.000000 0.000000
# 2 -0.002585 0.024427 -0.002975 0.000000 0.000000 0.000000
# 3 -0.005572 -0.002975 0.040533 0.000000 0.000000 0.000000
# 4 0.000000 0.000000 0.000000 0.039560 0.000000 0.000000
# 5 0.000000 0.000000 0.000000 0.000000 0.041436 0.000000
# 6 0.000000 0.000000 0.000000 0.000000 0.000000 0.056126
#
#
# Mechanical properties :
#
#
# Convention : Reuss Voigt Hill
#
# Bulk Modulus (GPa) = 19.28976 30.41075 24.85026
# Shear Modulus (GPa) = 19.93826 23.88601 21.91214
#
# Velocity S-wave (km/s) = 3.29662 3.60825 3.45595
# Velocity P-wave (km/s) = 5.00045 5.82540 5.42862
#
# Compressibility (1/GPa) = 0.05184098
#
# Stress axis : x y z
#
# Youngs Moduli (GPa) = 109.33176 40.93765 24.67139
#
# Poissons Ratio (x) = 0.10582 0.13748
# Poissons Ratio (y) = 0.28261 0.07341
# Poissons Ratio (z) = 0.60925 0.12181
#
# Static dielectric constant tensor:
#      x y z
#    x 1.630020 0.000000 0.000000 
#    y 0.000000 1.606630 0.000000 
#    z 0.000000 0.000000 1.621640 
# 
# From -- ./inp_files/8411.got.cif
#   From: 2010.05.17/outbox.cif.g08.bks.cpg/sg57_5_cif.got.tgz:8411.got - 2010.06.03 13:58:18.
