data_PCOD9437976
_publ_section_title
;
Structure prediction by ZEFSAII (Michael W. Deem and Ramdas Pophale) SiO2 
 PCOD9437976
Probable space group: P B C M
;
_chemical_formula_sum "Si O2"
_cell_formula_units_Z 48
_cell_length_a 14.868505
_cell_length_b 21.002475
_cell_length_c 8.532690
_cell_angle_alpha 90.000000
_cell_angle_beta 90.000000
_cell_angle_gamma 90.000000
_cell_volume 2664.549222
_symmetry_space_group_name_H-M "P B C M"
_symmetry_group_IT_number 57
_symmetry_cell_setting 'orthorhombic'
loop_
_space_group_symop_operation_xyz
x,y,z
-x,-y,1/2+z
x,1/2-y,-z
-x,1/2+y,1/2-z
-x,-y,-z
x,y,1/2-z
-x,1/2+y,z
x,1/2-y,1/2+z
loop_
_atom_site_type_symbol
_atom_site_label
_atom_site_fract_x
_atom_site_fract_y
_atom_site_fract_z
Si Si1 0.750883 0.128215 0.559272
Si Si2 0.747562 0.520029 0.439254
Si Si3 0.945361 0.938883 0.561719
Si Si4 0.442990 0.059746 0.937675
Si Si5 0.558596 0.180759 0.939251
Si Si6 0.056026 0.680298 0.938130
O O1 0.750999 0.128596 0.750000
O O2 0.659681 0.162575 0.507001
O O3 0.842669 0.161923 0.507632
O O4 0.749696 0.054217 0.510998
O O5 0.742195 0.520512 0.250000
O O6 0.841263 0.552552 0.485738
O O7 0.658909 0.552859 0.505502
O O8 0.949420 0.939053 0.750000
O O9 0.990163 0.874896 0.497579
O O10 0.000000 0.000000 0.500000
O O11 0.445745 0.058092 0.750000
O O12 0.491349 0.124771 0.990296
O O13 0.500000 0.000000 0.000000
O O14 0.559276 0.181534 0.750000
O O15 0.533341 0.250000 0.000000
O O16 0.055431 0.680389 0.750000
O O17 0.032181 0.750000 0.000000
#
# Coordination Sequence:
#
# PCOD9437976 Si02
#       6
#     8   8   8   8   8   8
#     4   9  17  34  57  83 118 151 180 232 293 341
#     4  10  20  38  60  85 117 150 190 241 292 340
#     4  11  22  38  61  87 117 156 197 242 295 351
#     4  11  22  37  59  86 116 152 193 239 286 343
#     4  10  21  37  56  81 116 150 187 230 282 340
#     4  11  22  38  59  86 121 158 195 241 295 353
#
# _framework density 18.014303000000002
#
# number of rings (size 3 to 8) (size 9 to 14) (size 15 to 20)
#    0.000    1.667    3.333    2.000    0.000    2.667 
#    0.000    1.667    0.000    2.000    0.000    0.000 
#    0.000    0.000    0.000    0.000    0.000    0.000 
#
# Total GULP energy -268134.462180 kJ/mol
# GULP energy per Si atom -5586.134629 kJ/mol
# Density = 1.797330 g / cm^3
# Si number density = 18.014303 Si / 1000 Ang^3
#
#
#
# Elastic Constant Matrix: (Units=GPa)
#
#
# Indices 1 2 3 4 5 6 
#
# 1 161.3475 97.7932 36.8139 0.0000 0.0000 0.0000
# 2 97.7932 185.9135 34.3554 0.0000 0.0000 0.0000
# 3 36.8139 34.3554 30.9484 0.0000 0.0000 0.0000
# 4 0.0000 0.0000 0.0000 29.8336 0.0000 0.0000
# 5 0.0000 0.0000 0.0000 0.0000 28.6580 0.0000
# 6 0.0000 0.0000 0.0000 0.0000 0.0000 24.1259
#
#
#
# Elastic Compliance Matrix: (Units=1/GPa)
#
#
# Indices 1 2 3 4 5 6 
#
# 1 0.010457 -0.004028 -0.007967 0.000000 0.000000 0.000000
# 2 -0.004028 0.008319 -0.004443 0.000000 0.000000 0.000000
# 3 -0.007967 -0.004443 0.046721 0.000000 0.000000 0.000000
# 4 0.000000 0.000000 0.000000 0.033519 0.000000 0.000000
# 5 0.000000 0.000000 0.000000 0.000000 0.034894 0.000000
# 6 0.000000 0.000000 0.000000 0.000000 0.000000 0.041449
#
#
# Mechanical properties :
#
#
# Convention : Reuss Voigt Hill
#
# Bulk Modulus (GPa) = 30.65591 79.57049 55.11320
# Shear Modulus (GPa) = 22.81959 30.47332 26.64645
#
# Velocity S-wave (km/s) = 3.56300 4.11739 3.85019
# Velocity P-wave (km/s) = 5.82933 8.17744 7.10111
#
# Compressibility (1/GPa) = 0.03262014
#
# Stress axis : x y z
#
# Youngs Moduli (GPa) = 95.62719 120.20936 21.40367
#
# Poissons Ratio (x) = 0.48425 0.17053
# Poissons Ratio (y) = 0.38522 0.09509
# Poissons Ratio (z) = 0.76189 0.53406
#
# Static dielectric constant tensor:
#      x y z
#    x 1.607240 0.000000 0.000000 
#    y 0.000000 1.587950 0.000000 
#    z 0.000000 0.000000 1.619580 
# 
# From -- ./inp_files/4925.got.cif
#   From: 2010.05.17/outbox.cif.g08.bks.cpg/sg57_3_cif.got.tgz:4925.got - 2010.06.03 13:58:18.
