data_PCOD9437792
_publ_section_title
;
Structure prediction by ZEFSAII (Michael W. Deem and Ramdas Pophale) SiO2 
 PCOD9437792
Probable space group: P B C M
;
_chemical_formula_sum "Si O2"
_cell_formula_units_Z 48
_cell_length_a 9.518034
_cell_length_b 15.127088
_cell_length_c 16.315562
_cell_angle_alpha 90.000000
_cell_angle_beta 90.000000
_cell_angle_gamma 90.000000
_cell_volume 2349.116867
_symmetry_space_group_name_H-M "P B C M"
_symmetry_group_IT_number 57
_symmetry_cell_setting 'orthorhombic'
loop_
_space_group_symop_operation_xyz
x,y,z
-x,-y,1/2+z
x,1/2-y,-z
-x,1/2+y,1/2-z
-x,-y,-z
x,y,1/2-z
-x,1/2+y,z
x,1/2-y,1/2+z
loop_
_atom_site_type_symbol
_atom_site_label
_atom_site_fract_x
_atom_site_fract_y
_atom_site_fract_z
Si Si1 0.843328 0.780889 0.094857
Si Si2 0.818799 0.973702 0.155846
Si Si3 0.319972 0.378251 0.654393
Si Si4 0.639729 0.139717 0.347942
Si Si5 0.899632 0.009865 0.919109
Si Si6 0.160838 0.787643 0.091095
O O1 0.803565 0.883260 0.105502
O O2 0.743074 0.719510 0.147339
O O3 0.004295 0.769498 0.125677
O O4 0.837302 0.750000 0.000000
O O5 0.777636 0.957193 0.250000
O O6 0.983101 0.997894 0.151567
O O7 0.733017 0.057125 0.121717
O O8 0.317258 0.407866 0.750000
O O9 0.480152 0.372483 0.623705
O O10 0.219906 0.438559 0.598054
O O11 0.636519 0.133303 0.250000
O O12 0.715479 0.232317 0.367411
O O13 0.830437 0.106689 0.914093
O O14 0.000000 0.000000 0.000000
O O15 0.157382 0.750000 0.000000
#
# Coordination Sequence:
#
# PCOD9437792 Si02
#       6
#     8   8   8   8   8   8
#     4  10  21  38  61  88 116 150 198 254 305 360
#     4  10  20  37  60  85 114 157 205 251 303 367
#     4  11  23  39  59  88 123 161 200 248 309 373
#     4  10  23  39  57  85 124 161 199 247 304 370
#     4  11  22  39  63  89 119 158 207 260 307 361
#     4  10  21  38  61  87 116 153 198 248 301 359
#
# _framework density 20.433209999999999
#
# number of rings (size 3 to 8) (size 9 to 14) (size 15 to 20)
#    0.000    1.667    0.000    6.000    0.000    7.333 
#    0.000    9.167    0.000    0.000    0.000    0.000 
#    0.000    0.000    0.000    0.000    0.000    0.000 
#
# Total GULP energy -267910.639518 kJ/mol
# GULP energy per Si atom -5581.471657 kJ/mol
# Density = 2.038670 g / cm^3
# Si number density = 20.433210 Si / 1000 Ang^3
#
#
#
# Elastic Constant Matrix: (Units=GPa)
#
#
# Indices 1 2 3 4 5 6 
#
# 1 126.3344 96.9083 29.6541 0.0000 0.0000 0.0000
# 2 96.9083 151.1063 23.4607 0.0000 0.0000 0.0000
# 3 29.6541 23.4607 54.9041 0.0000 0.0000 0.0000
# 4 0.0000 0.0000 0.0000 30.7363 0.0000 0.0000
# 5 0.0000 0.0000 0.0000 0.0000 14.8699 0.0000
# 6 0.0000 0.0000 0.0000 0.0000 0.0000 -8.8720
#
#
#
# Elastic Compliance Matrix: (Units=1/GPa)
#
#
# Indices 1 2 3 4 5 6 
#
# 1 0.016661 -0.009948 -0.004748 0.000000 0.000000 0.000000
# 2 -0.009948 0.013028 -0.000194 0.000000 0.000000 0.000000
# 3 -0.004748 -0.000194 0.020861 0.000000 0.000000 0.000000
# 4 0.000000 0.000000 0.000000 0.032535 0.000000 0.000000
# 5 0.000000 0.000000 0.000000 0.000000 0.067250 0.000000
# 6 0.000000 0.000000 0.000000 0.000000 0.000000 -0.112714
#
#
# Mechanical properties :
#
#
# Convention : Reuss Voigt Hill
#
# Bulk Modulus (GPa) = 48.14608 70.26566 59.20587
# Shear Modulus (GPa) = 67.27495 19.50163 43.38829
#
# Velocity S-wave (km/s) = 5.74420 3.09270 4.61306
# Velocity P-wave (km/s) = 8.22242 6.87137 7.57707
#
# Compressibility (1/GPa) = 0.02077012
#
# Stress axis : x y z
#
# Youngs Moduli (GPa) = 60.02167 76.75944 47.93684
#
# Poissons Ratio (x) = 0.76358 0.22760
# Poissons Ratio (y) = 0.59708 0.00930
# Poissons Ratio (z) = 0.28497 0.01489
#
# Static dielectric constant tensor:
#      x y z
#    x 1.735690 0.000000 0.000000 
#    y 0.000000 1.769350 0.000000 
#    z 0.000000 0.000000 1.780740 
# 
# From -- ./inp_files/20951.got.cif
#   From: 2010.05.17/outbox.cif.g08.bks.cpg/sg57_11_cif.got.tgz:20951.got - 2010.06.03 13:58:18.
