data_PCOD9437666
_publ_section_title
;
Structure prediction by ZEFSAII (Michael W. Deem and Ramdas Pophale) SiO2 
 PCOD9437666
Probable space group: P B C M
;
_chemical_formula_sum "Si O2"
_cell_formula_units_Z 64
_cell_length_a 9.884339
_cell_length_b 19.546926
_cell_length_c 14.599378
_cell_angle_alpha 90.000000
_cell_angle_beta 90.000000
_cell_angle_gamma 90.000000
_cell_volume 2820.723092
_symmetry_space_group_name_H-M "P B C M"
_symmetry_group_IT_number 57
_symmetry_cell_setting 'orthorhombic'
loop_
_space_group_symop_operation_xyz
x,y,z
-x,-y,1/2+z
x,1/2-y,-z
-x,1/2+y,1/2-z
-x,-y,-z
x,y,1/2-z
-x,1/2+y,z
x,1/2-y,1/2+z
loop_
_atom_site_type_symbol
_atom_site_label
_atom_site_fract_x
_atom_site_fract_y
_atom_site_fract_z
Si Si1 0.630057 0.599939 0.851419
Si Si2 0.203339 0.961695 0.855937
Si Si3 0.583265 0.354058 0.851466
Si Si4 0.983024 0.617875 0.054552
Si Si5 0.653369 0.479083 0.356115
Si Si6 0.813773 0.261148 0.604611
Si Si7 0.675456 0.878295 0.951045
Si Si8 0.081099 0.886460 0.352513
O O1 0.639670 0.631719 0.750000
O O2 0.735077 0.536616 0.855350
O O3 0.479574 0.568199 0.862088
O O4 0.663124 0.640990 0.942505
O O5 0.183258 0.940306 0.750000
O O6 0.321089 0.912440 0.896995
O O7 0.062383 0.948061 0.906196
O O8 0.551730 0.380008 0.750000
O O9 0.682534 0.290322 0.847108
O O10 0.443825 0.339365 0.900157
O O11 0.069873 0.681228 0.094837
O O12 0.828778 0.628589 0.081736
O O13 0.991163 0.612364 0.944204
O O14 0.658394 0.504417 0.250000
O O15 0.644367 0.541589 0.427181
O O16 0.789683 0.435393 0.369489
O O17 0.770961 0.250000 0.500000
O O18 0.866285 0.191582 0.647263
O O19 0.025270 0.902451 0.250000
#
# Coordination Sequence:
#
# PCOD9437666 Si02
#       8
#     8   8   8   8   8   8   8   8
#     4  10  21  35  54  85 124 164 200 241 297 361
#     4   9  18  35  57  81 117 161 202 241 285 349
#     4  10  20  36  61  90 117 151 201 253 299 349
#     4  10  23  38  56  91 122 156 203 246 299 358
#     4  10  21  36  59  93 125 154 196 248 306 361
#     4   9  20  40  66  86 112 155 209 254 290 352
#     4  12  23  35  60  91 130 160 190 249 313 361
#     4  10  21  39  65  86 116 160 205 247 290 355
#
# _framework density 22.689218
#
# number of rings (size 3 to 8) (size 9 to 14) (size 15 to 20)
#    0.000    2.000    1.250    1.875    5.250    4.000 
#    0.000    4.375    0.000    0.000    0.000    0.000 
#    0.000    0.000    0.000    0.000    0.000    0.000 
#
# Total GULP energy -357613.235824 kJ/mol
# GULP energy per Si atom -5587.706810 kJ/mol
# Density = 2.263758 g / cm^3
# Si number density = 22.689218 Si / 1000 Ang^3
#
#
#
# Elastic Constant Matrix: (Units=GPa)
#
#
# Indices 1 2 3 4 5 6 
#
# 1 156.7223 7.3951 37.8537 0.0000 0.0000 0.0000
# 2 7.3951 18.0147 -11.7174 0.0000 0.0000 0.0000
# 3 37.8537 -11.7174 88.0146 0.0000 0.0000 0.0000
# 4 0.0000 0.0000 0.0000 -4.3562 0.0000 0.0000
# 5 0.0000 0.0000 0.0000 0.0000 2.2709 0.0000
# 6 0.0000 0.0000 0.0000 0.0000 0.0000 9.4957
#
#
#
# Elastic Compliance Matrix: (Units=1/GPa)
#
#
# Indices 1 2 3 4 5 6 
#
# 1 0.007631 -0.005767 -0.004050 0.000000 0.000000 0.000000
# 2 -0.005767 0.065130 0.011151 0.000000 0.000000 0.000000
# 3 -0.004050 0.011151 0.014588 0.000000 0.000000 0.000000
# 4 0.000000 0.000000 0.000000 -0.229560 0.000000 0.000000
# 5 0.000000 0.000000 0.000000 0.000000 0.440351 0.000000
# 6 0.000000 0.000000 0.000000 0.000000 0.000000 0.105311
#
#
# Mechanical properties :
#
#
# Convention : Reuss Voigt Hill
#
# Bulk Modulus (GPa) = 11.10880 36.64605 23.87743
# Shear Modulus (GPa) = 11.60665 16.76345 14.18505
#
# Velocity S-wave (km/s) = 2.26420 2.72109 2.50309
# Velocity P-wave (km/s) = 3.42668 5.10478 4.34747
#
# Compressibility (1/GPa) = 0.09001871
#
# Stress axis : x y z
#
# Youngs Moduli (GPa) = 131.04547 15.35383 68.54963
#
# Poissons Ratio (x) = 0.08854 0.27760
# Poissons Ratio (y) = 0.75568 -0.76439
# Poissons Ratio (z) = 0.53069 -0.17121
#
# Static dielectric constant tensor:
#      x y z
#    x 1.826900 0.000000 0.000000 
#    y 0.000000 1.863820 0.000000 
#    z 0.000000 0.000000 1.899120 
# 
# From -- ./inp_files/16925.got.cif
#   From: 2010.05.17/outbox.cif.g08.bks.cpg/sg57_9_cif.got.tgz:16925.got - 2010.06.03 13:58:18.
