data_PCOD9437621
_publ_section_title
;
Structure prediction by ZEFSAII (Michael W. Deem and Ramdas Pophale) SiO2 
 PCOD9437621
Probable space group: P B C M
;
_chemical_formula_sum "Si O2"
_cell_formula_units_Z 56
_cell_length_a 21.984826
_cell_length_b 15.089401
_cell_length_c 8.847556
_cell_angle_alpha 90.000000
_cell_angle_beta 90.000000
_cell_angle_gamma 90.000000
_cell_volume 2935.069253
_symmetry_space_group_name_H-M "P B C M"
_symmetry_group_IT_number 57
_symmetry_cell_setting 'orthorhombic'
loop_
_space_group_symop_operation_xyz
x,y,z
-x,-y,1/2+z
x,1/2-y,-z
-x,1/2+y,1/2-z
-x,-y,-z
x,y,1/2-z
-x,1/2+y,z
x,1/2-y,1/2+z
loop_
_atom_site_type_symbol
_atom_site_label
_atom_site_fract_x
_atom_site_fract_y
_atom_site_fract_z
Si Si1 0.561007 0.610008 0.923953
Si Si2 0.434666 0.604856 0.424204
Si Si3 0.768113 0.998008 0.431037
Si Si4 0.910718 0.512211 0.931218
Si Si5 0.687903 0.842288 0.570133
Si Si6 0.306927 0.843587 0.430020
Si Si7 0.002983 0.650776 0.068635
O O1 0.565590 0.640065 0.750000
O O2 0.563925 0.502563 0.924012
O O3 0.496779 0.635729 0.997116
O O4 0.618261 0.642819 0.018921
O O5 0.431449 0.634727 0.250000
O O6 0.375018 0.634184 0.513240
O O7 0.760521 0.001020 0.250000
O O8 0.839381 0.989095 0.465718
O O9 0.729236 0.918000 0.498379
O O10 0.739042 0.084493 0.504544
O O11 0.918463 0.522508 0.750000
O O12 0.942023 0.417690 0.972332
O O13 0.944861 0.594153 0.010868
O O14 0.708542 0.750000 0.500000
O O15 0.691919 0.843032 0.750000
O O16 0.289903 0.750000 0.500000
O O17 0.305777 0.842707 0.250000
O O18 0.001244 0.658925 0.250000
O O19 0.007042 0.750000 0.000000
#
# Coordination Sequence:
#
# PCOD9437621 Si02
#       7
#     8   8   8   8   8   8   8
#     4  10  20  36  60  87 118 153 195 249 309 368
#     4  10  20  36  60  87 118 153 196 249 308 368
#     4  11  23  43  65  89 124 161 203 252 303 358
#     4   9  21  40  63  91 124 164 204 246 295 351
#     4  12  25  41  62  88 119 158 205 252 307 366
#     4  12  25  41  62  88 120 159 205 252 306 365
#     4  10  20  37  63  95 129 163 201 246 294 346
#
# _framework density 19.079618
#
# number of rings (size 3 to 8) (size 9 to 14) (size 15 to 20)
#    0.000    1.429    1.429    4.286    0.000    4.571 
#    0.000    4.286    0.000    0.000    0.000    0.000 
#    0.000    0.000    0.000    0.000    0.000    0.000 
#
# Total GULP energy -313106.702798 kJ/mol
# GULP energy per Si atom -5591.191121 kJ/mol
# Density = 1.903619 g / cm^3
# Si number density = 19.079618 Si / 1000 Ang^3
#
#
#
# Elastic Constant Matrix: (Units=GPa)
#
#
# Indices 1 2 3 4 5 6 
#
# 1 73.5673 6.1641 36.5964 0.0000 0.0000 0.0000
# 2 6.1641 71.2948 23.3485 0.0000 0.0000 0.0000
# 3 36.5964 23.3485 117.7626 0.0000 0.0000 0.0000
# 4 0.0000 0.0000 0.0000 27.9090 0.0000 0.0000
# 5 0.0000 0.0000 0.0000 0.0000 29.0493 0.0000
# 6 0.0000 0.0000 0.0000 0.0000 0.0000 305.6315
#
#
#
# Elastic Compliance Matrix: (Units=1/GPa)
#
#
# Indices 1 2 3 4 5 6 
#
# 1 0.016083 0.000263 -0.005050 0.000000 0.000000 0.000000
# 2 0.000263 0.015005 -0.003057 0.000000 0.000000 0.000000
# 3 -0.005050 -0.003057 0.010667 0.000000 0.000000 0.000000
# 4 0.000000 0.000000 0.000000 0.035831 0.000000 0.000000
# 5 0.000000 0.000000 0.000000 0.000000 0.034424 0.000000
# 6 0.000000 0.000000 0.000000 0.000000 0.000000 0.003272
#
#
# Mechanical properties :
#
#
# Convention : Reuss Voigt Hill
#
# Bulk Modulus (GPa) = 38.36184 43.87143 41.11663
# Shear Modulus (GPa) = 35.80164 85.61901 60.71032
#
# Velocity S-wave (km/s) = 4.33648 6.70612 5.64699
# Velocity P-wave (km/s) = 6.72482 9.11079 8.00718
#
# Compressibility (1/GPa) = 0.02606757
#
# Stress axis : x y z
#
# Youngs Moduli (GPa) = 62.17660 66.64640 93.74549
#
# Poissons Ratio (x) = -0.01755 0.47344
# Poissons Ratio (y) = -0.01638 0.28656
# Poissons Ratio (z) = 0.31401 0.20372
#
# Static dielectric constant tensor:
#      x y z
#    x 1.633660 0.000000 0.000000 
#    y 0.000000 1.660930 0.000000 
#    z 0.000000 0.000000 1.635900 
# 
# From -- ./inp_files/8070.got.cif
#   From: 2010.05.17/outbox.cif.g08.bks.cpg/sg57_5_cif.got.tgz:8070.got - 2010.06.03 13:58:18.
