data_PCOD9437360
_publ_section_title
;
Structure prediction by ZEFSAII (Michael W. Deem and Ramdas Pophale) SiO2 
 PCOD9437360
Probable space group: P B C M
;
_chemical_formula_sum "Si O2"
_cell_formula_units_Z 64
_cell_length_a 6.078177
_cell_length_b 29.172801
_cell_length_c 17.878145
_cell_angle_alpha 90.000000
_cell_angle_beta 90.000000
_cell_angle_gamma 90.000000
_cell_volume 3170.107048
_symmetry_space_group_name_H-M "P B C M"
_symmetry_group_IT_number 57
_symmetry_cell_setting 'orthorhombic'
loop_
_space_group_symop_operation_xyz
x,y,z
-x,-y,1/2+z
x,1/2-y,-z
-x,1/2+y,1/2-z
-x,-y,-z
x,y,1/2-z
-x,1/2+y,z
x,1/2-y,1/2+z
loop_
_atom_site_type_symbol
_atom_site_label
_atom_site_fract_x
_atom_site_fract_y
_atom_site_fract_z
Si Si1 0.708673 0.884132 0.420163
Si Si2 0.622912 0.821782 0.661463
Si Si3 0.060198 0.842190 0.332077
Si Si4 0.691521 0.243816 0.834256
Si Si5 0.664600 0.131661 0.458952
Si Si6 0.011683 0.207696 0.449200
Si Si7 0.342353 0.933204 0.167347
Si Si8 0.091062 0.951506 0.474966
O O1 0.856540 0.842913 0.388057
O O2 0.534213 0.868155 0.481645
O O3 0.572040 0.909498 0.354837
O O4 0.879546 0.920764 0.453521
O O5 0.660226 0.832404 0.750000
O O6 0.538964 0.768923 0.657263
O O7 0.435551 0.853381 0.621585
O O8 0.823689 0.821050 0.603494
O O9 0.971542 0.830278 0.250000
O O10 0.270817 0.809772 0.344157
O O11 0.161889 0.892622 0.330181
O O12 0.762907 0.255889 0.750000
O O13 0.855351 0.265305 0.892638
O O14 0.845669 0.169608 0.483561
O O15 0.773747 0.081308 0.467532
O O16 0.102601 0.250000 0.500000
O O17 0.352675 0.954584 0.250000
O O18 0.253786 0.960697 0.095781
O O19 0.000000 0.000000 0.500000
#
# Coordination Sequence:
#
# PCOD9437360 Si02
#       8
#     8   8   8   8   8   8   8   8
#     4  10  20  35  62  85 123 157 197 242 308 369
#     4  10  22  42  62  82 117 165 210 257 303 351
#     4   9  18  33  54  84 121 159 197 239 292 355
#     4   9  20  36  53  79 115 154 203 248 291 345
#     4  10  23  41  59  89 119 155 209 256 306 372
#     4  11  24  37  59  86 120 164 206 255 298 354
#     4   9  19  34  56  87 122 157 194 241 301 377
#     4  10  22  41  65  90 122 156 200 261 322 380
#
# _framework density 20.188593999999998
#
# number of rings (size 3 to 8) (size 9 to 14) (size 15 to 20)
#    0.000    2.250    0.000    1.500    7.000    6.000 
#    0.000    3.125    0.000    3.750    0.000    0.000 
#    0.000    0.000    0.000    0.000    0.000    0.000 
#
# Total GULP energy -356473.696906 kJ/mol
# GULP energy per Si atom -5569.901514 kJ/mol
# Density = 2.014264 g / cm^3
# Si number density = 20.188594 Si / 1000 Ang^3
#
#
#
# Elastic Constant Matrix: (Units=GPa)
#
#
# Indices 1 2 3 4 5 6 
#
# 1 77.7919 15.4609 37.3380 0.0000 0.0000 0.0000
# 2 15.4609 59.4318 24.4190 0.0000 0.0000 0.0000
# 3 37.3380 24.4190 92.5850 0.0000 0.0000 0.0000
# 4 0.0000 0.0000 0.0000 18.9229 0.0000 0.0000
# 5 0.0000 0.0000 0.0000 0.0000 14.5398 0.0000
# 6 0.0000 0.0000 0.0000 0.0000 0.0000 23.0480
#
#
#
# Elastic Compliance Matrix: (Units=1/GPa)
#
#
# Indices 1 2 3 4 5 6 
#
# 1 0.016093 -0.001705 -0.006040 0.000000 0.000000 0.000000
# 2 -0.001705 0.019052 -0.004337 0.000000 0.000000 0.000000
# 3 -0.006040 -0.004337 0.014381 0.000000 0.000000 0.000000
# 4 0.000000 0.000000 0.000000 0.052846 0.000000 0.000000
# 5 0.000000 0.000000 0.000000 0.000000 0.068777 0.000000
# 6 0.000000 0.000000 0.000000 0.000000 0.000000 0.043388
#
#
# Mechanical properties :
#
#
# Convention : Reuss Voigt Hill
#
# Bulk Modulus (GPa) = 39.43140 42.69385 41.06262
# Shear Modulus (GPa) = 20.23032 21.47487 20.85260
#
# Velocity S-wave (km/s) = 3.16898 3.26500 3.21735
# Velocity P-wave (km/s) = 5.74141 5.95038 5.84683
#
# Compressibility (1/GPa) = 0.02536050
#
# Stress axis : x y z
#
# Youngs Moduli (GPa) = 62.13954 52.48917 69.53707
#
# Poissons Ratio (x) = 0.08948 0.42003
# Poissons Ratio (y) = 0.10593 0.30160
# Poissons Ratio (z) = 0.37535 0.22766
#
# Static dielectric constant tensor:
#      x y z
#    x 1.747680 0.000000 0.000000 
#    y 0.000000 1.722840 0.000000 
#    z 0.000000 0.000000 1.803480 
# 
# From -- ./inp_files/20334.got.cif
#   From: 2010.05.17/outbox.cif.g08.bks.cpg/sg57_11_cif.got.tgz:20334.got - 2010.06.03 13:58:18.
