data_PCOD9437756
_publ_section_title
;
Structure prediction by ZEFSAII (Michael W. Deem and Ramdas Pophale) SiO2 
 PCOD9437756
Probable space group: P B C M
;
_chemical_formula_sum "Si O2"
_cell_formula_units_Z 56
_cell_length_a 22.290798
_cell_length_b 14.288728
_cell_length_c 9.224861
_cell_angle_alpha 90.000000
_cell_angle_beta 90.000000
_cell_angle_gamma 90.000000
_cell_volume 2938.184182
_symmetry_space_group_name_H-M "P B C M"
_symmetry_group_IT_number 57
_symmetry_cell_setting 'orthorhombic'
loop_
_space_group_symop_operation_xyz
x,y,z
-x,-y,1/2+z
x,1/2-y,-z
-x,1/2+y,1/2-z
-x,-y,-z
x,y,1/2-z
-x,1/2+y,z
x,1/2-y,1/2+z
loop_
_atom_site_type_symbol
_atom_site_label
_atom_site_fract_x
_atom_site_fract_y
_atom_site_fract_z
Si Si1 0.329929 0.150259 0.074309
Si Si2 0.560615 0.976209 0.917016
Si Si3 0.912685 0.537881 0.920734
Si Si4 0.796300 0.948336 0.577224
Si Si5 0.633122 0.332620 0.415153
Si Si6 0.229295 0.839196 0.077668
Si Si7 0.963024 0.147862 0.576948
O O1 0.332071 0.155901 0.250000
O O2 0.392186 0.100915 0.026720
O O3 0.269140 0.092715 0.039201
O O4 0.325269 0.250000 0.000000
O O5 0.545938 0.952979 0.750000
O O6 0.599235 0.070822 0.919526
O O7 0.500000 0.000000 0.000000
O O8 0.904851 0.518522 0.750000
O O9 0.968657 0.609069 0.936537
O O10 0.853466 0.585648 0.988039
O O11 0.927247 0.439313 0.002823
O O12 0.804533 0.934138 0.750000
O O13 0.795782 0.059237 0.547362
O O14 0.601312 0.250000 0.500000
O O15 0.638214 0.301915 0.250000
O O16 0.700894 0.345051 0.470380
O O17 0.227102 0.824884 0.250000
O O18 0.200893 0.750000 0.000000
O O19 0.956023 0.250000 0.500000
O O20 0.948339 0.154533 0.750000
#
# Coordination Sequence:
#
# PCOD9437756 Si02
#       7
#     8   8   8   8   8   8   8
#     4  10  22  41  61  82 113 153 195 240 288 342
#     4  10  21  38  58  80 110 146 186 233 286 342
#     4  10  22  38  58  88 121 153 196 244 290 345
#     4  10  20  37  59  81 114 156 192 232 288 346
#     4   9  17  32  53  76 103 134 171 216 269 328
#     4   9  17  31  52  77 104 138 176 217 270 331
#     4  10  21  39  62  86 117 157 198 243 292 343
#
# _framework density 19.05939
#
# number of rings (size 3 to 8) (size 9 to 14) (size 15 to 20)
#    0.000    2.286    1.429    0.857    0.000    5.714 
#    0.000    7.143    0.000    0.000    0.000    0.000 
#    0.000    0.000    0.000    0.000    0.000    0.000 
#
# Total GULP energy -312120.629311 kJ/mol
# GULP energy per Si atom -5573.582666 kJ/mol
# Density = 1.901601 g / cm^3
# Si number density = 19.059390 Si / 1000 Ang^3
#
#
#
# Elastic Constant Matrix: (Units=GPa)
#
#
# Indices 1 2 3 4 5 6 
#
# 1 124.2292 27.9338 46.3333 0.0000 0.0000 0.0000
# 2 27.9338 83.6069 36.7379 0.0000 0.0000 0.0000
# 3 46.3333 36.7379 43.4295 0.0000 0.0000 0.0000
# 4 0.0000 0.0000 0.0000 33.7404 0.0000 0.0000
# 5 0.0000 0.0000 0.0000 0.0000 26.5214 0.0000
# 6 0.0000 0.0000 0.0000 0.0000 0.0000 -3.6605
#
#
#
# Elastic Compliance Matrix: (Units=1/GPa)
#
#
# Indices 1 2 3 4 5 6 
#
# 1 0.013815 0.002962 -0.017244 0.000000 0.000000 0.000000
# 2 0.002962 0.019672 -0.019800 0.000000 0.000000 0.000000
# 3 -0.017244 -0.019800 0.058172 0.000000 0.000000 0.000000
# 4 0.000000 0.000000 0.000000 0.029638 0.000000 0.000000
# 5 0.000000 0.000000 0.000000 0.000000 0.037705 0.000000
# 6 0.000000 0.000000 0.000000 0.000000 0.000000 -0.273184
#
#
# Mechanical properties :
#
#
# Convention : Reuss Voigt Hill
#
# Bulk Modulus (GPa) = 42.56480 52.58617 47.57549
# Shear Modulus (GPa) = -130.94447 20.67097 -55.13675
#
# Velocity S-wave (km/s) = -8.29774 3.29683 -5.38440
# Velocity P-wave (km/s) = 8.33200 6.49174 3.69320
#
# Compressibility (1/GPa) = 0.02349359
#
# Stress axis : x y z
#
# Youngs Moduli (GPa) = 72.38410 50.83426 17.19027
#
# Poissons Ratio (x) = -0.15055 0.29643
# Poissons Ratio (y) = -0.21437 0.34037
# Poissons Ratio (z) = 1.24820 1.00653
#
# Static dielectric constant tensor:
#      x y z
#    x 1.701880 0.000000 0.000000 
#    y 0.000000 1.718970 0.000000 
#    z 0.000000 0.000000 1.654090 
# 
# From -- ./inp_files/8119.got.cif
#   From: 2010.05.17/outbox.cif.g08.bks.cpg/sg57_5_cif.got.tgz:8119.got - 2010.06.03 13:58:18.
