data_PCOD9437530
_publ_section_title
;
Structure prediction by ZEFSAII (Michael W. Deem and Ramdas Pophale) SiO2 
 PCOD9437530
Probable space group: P B C M
;
_chemical_formula_sum "Si O2"
_cell_formula_units_Z 48
_cell_length_a 12.500133
_cell_length_b 21.673975
_cell_length_c 9.733973
_cell_angle_alpha 90.000000
_cell_angle_beta 90.000000
_cell_angle_gamma 90.000000
_cell_volume 2637.201653
_symmetry_space_group_name_H-M "P B C M"
_symmetry_group_IT_number 57
_symmetry_cell_setting 'orthorhombic'
loop_
_space_group_symop_operation_xyz
x,y,z
-x,-y,1/2+z
x,1/2-y,-z
-x,1/2+y,1/2-z
-x,-y,-z
x,y,1/2-z
-x,1/2+y,z
x,1/2-y,1/2+z
loop_
_atom_site_type_symbol
_atom_site_label
_atom_site_fract_x
_atom_site_fract_y
_atom_site_fract_z
Si Si1 0.437757 0.477130 0.250000
Si Si2 0.376154 0.080776 0.250000
Si Si3 0.325823 0.817080 0.525531
Si Si4 0.259470 0.467461 0.018311
Si Si5 0.029042 0.062452 0.587480
Si Si6 0.503611 0.707240 0.250000
Si Si7 0.851983 0.090564 0.408814
Si Si8 0.557394 0.153480 0.750000
O O1 0.517903 0.535967 0.250000
O O2 0.358397 0.476422 0.120758
O O3 0.497467 0.411516 0.250000
O O4 0.306540 0.061916 0.381755
O O5 0.406247 0.153733 0.250000
O O6 0.278535 0.750000 0.500000
O O7 0.429844 0.807631 0.619246
O O8 0.236784 0.857473 0.596087
O O9 0.367953 0.843956 0.383186
O O10 0.156855 0.429038 0.073657
O O11 0.208271 0.535468 0.010047
O O12 0.002180 0.059120 0.750000
O O13 0.954658 0.108755 0.500189
O O14 0.000000 0.000000 0.500000
O O15 0.514943 0.782682 0.250000
O O16 0.878048 0.071659 0.250000
#
# Coordination Sequence:
#
# PCOD9437530 Si02
#       8
#     4   4   8   8   8   4   8   4
#     4  12  20  38  52  85 112 151 188 244 282 323
#     4  12  24  32  60  83 118 149 194 236 282 337
#     4  10  20  36  58  83 113 147 186 232 282 339
#     4  11  22  36  54  83 118 147 185 234 287 330
#     4  10  21  36  56  81 112 148 184 225 284 351
#     4  10  20  40  53  83 115 159 188 228 278 345
#     4  11  21  36  59  83 116 147 181 234 294 343
#     4  10  22  34  59  81 115 151 198 224 276 349
#
# _framework density 18.201111999999998
#
# number of rings (size 3 to 8) (size 9 to 14) (size 15 to 20)
#    0.000    1.333    2.500    5.000    7.000    0.000 
#    0.000    0.000    0.000    2.000    0.000    0.000 
#    0.000    0.000    0.000    0.000    0.000    0.000 
#
# Total GULP energy -267338.779970 kJ/mol
# GULP energy per Si atom -5569.557916 kJ/mol
# Density = 1.815969 g / cm^3
# Si number density = 18.201112 Si / 1000 Ang^3
#
#
#
# Elastic Constant Matrix: (Units=GPa)
#
#
# Indices 1 2 3 4 5 6 
#
# 1 72.3431 25.8475 18.6348 0.0000 0.0000 0.0000
# 2 25.8475 59.1264 -2.9917 0.0000 0.0000 0.0000
# 3 18.6348 -2.9917 97.6060 0.0000 0.0000 0.0000
# 4 0.0000 0.0000 0.0000 -38.7826 0.0000 0.0000
# 5 0.0000 0.0000 0.0000 0.0000 44.0961 0.0000
# 6 0.0000 0.0000 0.0000 0.0000 0.0000 15.8755
#
#
#
# Elastic Compliance Matrix: (Units=1/GPa)
#
#
# Indices 1 2 3 4 5 6 
#
# 1 0.017555 -0.007856 -0.003592 0.000000 0.000000 0.000000
# 2 -0.007856 0.020455 0.002127 0.000000 0.000000 0.000000
# 3 -0.003592 0.002127 0.010996 0.000000 0.000000 0.000000
# 4 0.000000 0.000000 0.000000 -0.025785 0.000000 0.000000
# 5 0.000000 0.000000 0.000000 0.000000 0.022678 0.000000
# 6 0.000000 0.000000 0.000000 0.000000 0.000000 0.062990
#
#
# Mechanical properties :
#
#
# Convention : Reuss Voigt Hill
#
# Bulk Modulus (GPa) = 32.93482 34.67298 33.80390
# Shear Modulus (GPa) = 36.32289 16.74345 26.53317
#
# Velocity S-wave (km/s) = 4.47211 3.03630 3.82223
# Velocity P-wave (km/s) = 6.69332 5.60209 6.17187
#
# Compressibility (1/GPa) = 0.03036300
#
# Stress axis : x y z
#
# Youngs Moduli (GPa) = 56.96267 48.88796 90.93941
#
# Poissons Ratio (x) = 0.38407 0.32670
# Poissons Ratio (y) = 0.44751 -0.19342
# Poissons Ratio (z) = 0.20464 -0.10398
#
# Static dielectric constant tensor:
#      x y z
#    x 1.677260 0.000000 0.000000 
#    y 0.000000 1.691230 0.000000 
#    z 0.000000 0.000000 1.730050 
# 
# From -- ./inp_files/3235.got.cif
#   From: 2010.05.17/outbox.cif.g08.bks.cpg/sg57_2_cif.got.tgz:3235.got - 2010.06.03 13:58:18.
