data_PCOD9437987
_publ_section_title
;
Structure prediction by ZEFSAII (Michael W. Deem and Ramdas Pophale) SiO2 
 PCOD9437987
Probable space group: P B C M
;
_chemical_formula_sum "Si O2"
_cell_formula_units_Z 48
_cell_length_a 15.701859
_cell_length_b 9.863467
_cell_length_c 15.427751
_cell_angle_alpha 90.000000
_cell_angle_beta 90.000000
_cell_angle_gamma 90.000000
_cell_volume 2389.369358
_symmetry_space_group_name_H-M "P B C M"
_symmetry_group_IT_number 57
_symmetry_cell_setting 'orthorhombic'
loop_
_space_group_symop_operation_xyz
x,y,z
-x,-y,1/2+z
x,1/2-y,-z
-x,1/2+y,1/2-z
-x,-y,-z
x,y,1/2-z
-x,1/2+y,z
x,1/2-y,1/2+z
loop_
_atom_site_type_symbol
_atom_site_label
_atom_site_fract_x
_atom_site_fract_y
_atom_site_fract_z
Si Si1 0.893142 0.696781 0.750000
Si Si2 0.631695 0.952339 0.347849
Si Si3 0.967478 0.092950 0.250000
Si Si4 0.472507 0.877745 0.439252
Si Si5 0.137623 0.663437 0.078253
Si Si6 0.318080 0.738066 0.647938
Si Si7 0.200605 0.135645 0.929506
O O1 0.959921 0.570098 0.750000
O O2 0.838824 0.677908 0.663006
O O3 0.940381 0.840031 0.750000
O O4 0.662442 0.929094 0.250000
O O5 0.539415 0.888488 0.361083
O O6 0.699074 0.888708 0.413850
O O7 0.634419 0.115420 0.359556
O O8 0.919188 0.145923 0.336082
O O9 0.486350 0.750000 0.500000
O O10 0.376762 0.868544 0.402874
O O11 0.500000 0.000000 0.500000
O O12 0.225540 0.737319 0.106827
O O13 0.161193 0.511277 0.048005
O O14 0.098337 0.750000 0.000000
O O15 0.310593 0.706534 0.750000
O O16 0.184212 0.250000 0.000000
#
# Coordination Sequence:
#
# PCOD9437987 Si02
#       7
#     4   8   4   8   8   8   8
#     4  10  22  42  68  93 130 164 205 252 315 377
#     4  10  20  38  61  83 117 161 207 251 305 363
#     4  10  22  42  66  95 124 166 203 254 311 383
#     4  12  23  37  57  87 121 158 205 254 306 359
#     4  10  21  39  66  92 122 165 209 252 315 375
#     4  10  20  38  61  84 117 159 207 253 300 362
#     4  10  21  40  65  93 123 166 208 256 314 373
#
# _framework density 20.088982999999999
#
# number of rings (size 3 to 8) (size 9 to 14) (size 15 to 20)
#    0.000    1.667    3.333    1.500    2.333    2.000 
#    0.000    3.333    0.000    0.000    0.000    0.000 
#    0.000    0.000    0.000    0.000    0.000    0.000 
#
# Total GULP energy -268058.894301 kJ/mol
# GULP energy per Si atom -5584.560298 kJ/mol
# Density = 2.004326 g / cm^3
# Si number density = 20.088983 Si / 1000 Ang^3
#
#
#
# Elastic Constant Matrix: (Units=GPa)
#
#
# Indices 1 2 3 4 5 6 
#
# 1 21.1401 7.3297 -8.2147 0.0000 0.0000 0.0000
# 2 7.3297 62.8295 53.1956 0.0000 0.0000 0.0000
# 3 -8.2147 53.1956 101.7642 0.0000 0.0000 0.0000
# 4 0.0000 0.0000 0.0000 36.9610 0.0000 0.0000
# 5 0.0000 0.0000 0.0000 0.0000 5.1014 0.0000
# 6 0.0000 0.0000 0.0000 0.0000 0.0000 27.8393
#
#
#
# Elastic Compliance Matrix: (Units=1/GPa)
#
#
# Indices 1 2 3 4 5 6 
#
# 1 0.060172 -0.019971 0.015297 0.000000 0.000000 0.000000
# 2 -0.019971 0.035181 -0.020003 0.000000 0.000000 0.000000
# 3 0.015297 -0.020003 0.021518 0.000000 0.000000 0.000000
# 4 0.000000 0.000000 0.000000 0.027056 0.000000 0.000000
# 5 0.000000 0.000000 0.000000 0.000000 0.196026 0.000000
# 6 0.000000 0.000000 0.000000 0.000000 0.000000 0.035920
#
#
# Mechanical properties :
#
#
# Convention : Reuss Voigt Hill
#
# Bulk Modulus (GPa) = 14.81105 32.26166 23.53636
# Shear Modulus (GPa) = 11.16740 22.87521 17.02130
#
# Velocity S-wave (km/s) = 2.36030 3.37812 2.91399
# Velocity P-wave (km/s) = 3.84926 5.59552 4.80242
#
# Compressibility (1/GPa) = 0.06751716
#
# Stress axis : x y z
#
# Youngs Moduli (GPa) = 16.61909 28.42407 46.47378
#
# Poissons Ratio (x) = 0.56765 -0.71090
# Poissons Ratio (y) = 0.33190 0.92960
# Poissons Ratio (z) = -0.25422 0.56856
#
# Static dielectric constant tensor:
#      x y z
#    x 1.719910 0.000000 0.000000 
#    y 0.000000 1.644100 0.000000 
#    z 0.000000 0.000000 1.735090 
# 
# From -- ./inp_files/18993.got.cif
#   From: 2010.05.17/outbox.cif.g08.bks.cpg/sg57_10_cif.got.tgz:18993.got - 2010.06.03 13:58:18.
