data_PCOD9437942
_publ_section_title
;
Structure prediction by ZEFSAII (Michael W. Deem and Ramdas Pophale) SiO2 
 PCOD9437942
Probable space group: P B C M
;
_chemical_formula_sum "Si O2"
_cell_formula_units_Z 48
_cell_length_a 14.318338
_cell_length_b 11.079839
_cell_length_c 14.527770
_cell_angle_alpha 90.000000
_cell_angle_beta 90.000000
_cell_angle_gamma 90.000000
_cell_volume 2304.756325
_symmetry_space_group_name_H-M "P B C M"
_symmetry_group_IT_number 57
_symmetry_cell_setting 'orthorhombic'
loop_
_space_group_symop_operation_xyz
x,y,z
-x,-y,1/2+z
x,1/2-y,-z
-x,1/2+y,1/2-z
-x,-y,-z
x,y,1/2-z
-x,1/2+y,z
x,1/2-y,1/2+z
loop_
_atom_site_type_symbol
_atom_site_label
_atom_site_fract_x
_atom_site_fract_y
_atom_site_fract_z
Si Si1 0.878996 0.089304 0.996404
Si Si2 0.662651 0.127423 0.955971
Si Si3 0.034600 0.727456 0.147742
Si Si4 0.401035 0.841297 0.250000
Si Si5 0.631230 0.636816 0.430175
Si Si6 0.510843 0.599885 0.250000
Si Si7 0.158138 0.162357 0.084822
O O1 0.769828 0.122414 0.988990
O O2 0.935759 0.168910 0.923044
O O3 0.884933 0.955746 0.960625
O O4 0.917173 0.112778 0.098323
O O5 0.653961 0.136516 0.845311
O O6 0.621896 0.994421 0.980104
O O7 0.620273 0.250000 0.000000
O O8 0.070056 0.748363 0.250000
O O9 0.922946 0.712764 0.148906
O O10 0.426807 0.698267 0.250000
O O11 0.481776 0.950203 0.250000
O O12 0.620135 0.750000 0.500000
O O13 0.562528 0.637451 0.344202
O O14 0.735990 0.638263 0.385126
O O15 0.170586 0.250000 0.000000
#
# Coordination Sequence:
#
# PCOD9437942 Si02
#       7
#     8   8   8   4   8   4   8
#     4  10  21  39  56  80 124 156 198 261 289 347
#     4  10  20  39  63  90 119 159 206 243 303 360
#     4  11  22  33  55  85 115 159 203 250 299 334
#     4  10  24  40  68  95 120 160 194 251 302 378
#     4   9  21  39  64  86 121 165 196 247 306 363
#     4  10  22  44  64  93 126 150 202 245 308 366
#     4  10  20  38  58  80 117 159 207 243 295 352
#
# _framework density 20.826495999999999
#
# number of rings (size 3 to 8) (size 9 to 14) (size 15 to 20)
#    0.000    2.000    3.333    0.500    2.333    2.667 
#    0.000    3.333    9.167    0.000    0.000    0.000 
#    0.000    0.000    0.000    0.000    0.000    0.000 
#
# Total GULP energy -267346.646889 kJ/mol
# GULP energy per Si atom -5569.721810 kJ/mol
# Density = 2.077909 g / cm^3
# Si number density = 20.826496 Si / 1000 Ang^3
#
#
#
# Elastic Constant Matrix: (Units=GPa)
#
#
# Indices 1 2 3 4 5 6 
#
# 1 44.0613 -4.2622 1.0903 0.0000 0.0000 0.0000
# 2 -4.2622 103.9679 14.5501 0.0000 0.0000 0.0000
# 3 1.0903 14.5501 90.7836 0.0000 0.0000 0.0000
# 4 0.0000 0.0000 0.0000 18.5908 0.0000 0.0000
# 5 0.0000 0.0000 0.0000 0.0000 11.8198 0.0000
# 6 0.0000 0.0000 0.0000 0.0000 0.0000 23.2565
#
#
#
# Elastic Compliance Matrix: (Units=1/GPa)
#
#
# Indices 1 2 3 4 5 6 
#
# 1 0.022803 0.000995 -0.000433 0.000000 0.000000 0.000000
# 2 0.000995 0.009882 -0.001596 0.000000 0.000000 0.000000
# 3 -0.000433 -0.001596 0.011276 0.000000 0.000000 0.000000
# 4 0.000000 0.000000 0.000000 0.053790 0.000000 0.000000
# 5 0.000000 0.000000 0.000000 0.000000 0.084604 0.000000
# 6 0.000000 0.000000 0.000000 0.000000 0.000000 0.042999
#
#
# Mechanical properties :
#
#
# Convention : Reuss Voigt Hill
#
# Bulk Modulus (GPa) = 23.86990 29.06324 26.46657
# Shear Modulus (GPa) = 20.71368 25.89573 23.30471
#
# Velocity S-wave (km/s) = 3.15712 3.53002 3.34876
# Velocity P-wave (km/s) = 4.97756 5.53172 5.26194
#
# Compressibility (1/GPa) = 0.04189376
#
# Stress axis : x y z
#
# Youngs Moduli (GPa) = 43.85455 101.18897 88.68256
#
# Poissons Ratio (x) = -0.10073 0.03843
# Poissons Ratio (y) = -0.04366 0.14152
# Poissons Ratio (z) = 0.01901 0.16148
#
# Static dielectric constant tensor:
#      x y z
#    x 1.724200 0.000000 0.000000 
#    y 0.000000 1.963150 0.000000 
#    z 0.000000 0.000000 1.669560 
# 
# From -- ./inp_files/18445.got.cif
#   From: 2010.05.17/outbox.cif.g08.bks.cpg/sg57_10_cif.got.tgz:18445.got - 2010.06.03 13:58:18.
