data_PCOD9437267
_publ_section_title
;
Structure prediction by ZEFSAII (Michael W. Deem and Ramdas Pophale) SiO2 
 PCOD9437267
Probable space group: P B C M
;
_chemical_formula_sum "Si O2"
_cell_formula_units_Z 64
_cell_length_a 15.306204
_cell_length_b 24.647267
_cell_length_c 8.213510
_cell_angle_alpha 90.000000
_cell_angle_beta 90.000000
_cell_angle_gamma 90.000000
_cell_volume 3098.596723
_symmetry_space_group_name_H-M "P B C M"
_symmetry_group_IT_number 57
_symmetry_cell_setting 'orthorhombic'
loop_
_space_group_symop_operation_xyz
x,y,z
-x,-y,1/2+z
x,1/2-y,-z
-x,1/2+y,1/2-z
-x,-y,-z
x,y,1/2-z
-x,1/2+y,z
x,1/2-y,1/2+z
loop_
_atom_site_type_symbol
_atom_site_label
_atom_site_fract_x
_atom_site_fract_y
_atom_site_fract_z
Si Si1 0.899612 0.005790 0.552905
Si Si2 0.001714 0.688493 0.554673
Si Si3 0.845228 0.610882 0.053791
Si Si4 0.351814 0.599822 0.055853
Si Si5 0.545488 0.628218 0.555733
Si Si6 0.598194 0.514570 0.553752
Si Si7 0.301489 0.308615 0.556117
Si Si8 0.167927 0.622999 0.945597
O O1 0.896459 0.006437 0.750000
O O2 0.850858 0.951177 0.494263
O O3 0.861516 0.063143 0.493735
O O4 0.000000 0.000000 0.500000
O O5 0.984476 0.750000 0.500000
O O6 0.998451 0.687022 0.750000
O O7 0.097130 0.667217 0.498924
O O8 0.931328 0.645200 0.490349
O O9 0.839463 0.608610 0.250000
O O10 0.764059 0.645660 0.989443
O O11 0.349513 0.598274 0.250000
O O12 0.346454 0.536862 0.992955
O O13 0.446464 0.622791 0.005877
O O14 0.267810 0.631863 0.994904
O O15 0.541823 0.625538 0.750000
O O16 0.602966 0.576262 0.493584
O O17 0.600474 0.679826 0.502585
O O18 0.500000 0.500000 0.500000
O O19 0.605048 0.515248 0.750000
O O20 0.270522 0.250000 0.500000
O O21 0.300110 0.310592 0.750000
O O22 0.164058 0.621828 0.750000
#
# Coordination Sequence:
#
# PCOD9437267 Si02
#       8
#     8   8   8   8   8   8   8   8
#     4  10  20  37  59  88 124 160 197 243 300 361
#     4  11  23  40  62  86 115 154 199 247 294 348
#     4  10  22  39  62  90 121 156 196 243 299 359
#     4  10  20  35  57  86 118 154 196 241 290 350
#     4  10  20  37  59  83 114 152 193 241 293 347
#     4   8  16  30  49  77 109 142 181 225 277 334
#     4  11  24  41  60  86 117 154 199 248 298 355
#     4  10  22  38  57  86 124 161 198 243 299 357
#
# _framework density 20.654510999999999
#
# number of rings (size 3 to 8) (size 9 to 14) (size 15 to 20)
#    0.000    2.000    1.250    1.875    1.750    4.500 
#    0.000    0.625    0.000    1.500    0.000    0.000 
#    0.000    0.000    0.000    0.000    0.000    0.000 
#
# Total GULP energy -357194.568598 kJ/mol
# GULP energy per Si atom -5581.165134 kJ/mol
# Density = 2.060750 g / cm^3
# Si number density = 20.654511 Si / 1000 Ang^3
#
#
#
# Elastic Constant Matrix: (Units=GPa)
#
#
# Indices 1 2 3 4 5 6 
#
# 1 82.6527 8.3590 -1.0308 0.0000 0.0000 0.0000
# 2 8.3590 69.9011 5.0798 0.0000 0.0000 0.0000
# 3 -1.0308 5.0798 15.3443 0.0000 0.0000 0.0000
# 4 0.0000 0.0000 0.0000 17.7163 0.0000 0.0000
# 5 0.0000 0.0000 0.0000 0.0000 26.3150 0.0000
# 6 0.0000 0.0000 0.0000 0.0000 0.0000 28.4873
#
#
#
# Elastic Compliance Matrix: (Units=1/GPa)
#
#
# Indices 1 2 3 4 5 6 
#
# 1 0.012274 -0.001565 0.001343 0.000000 0.000000 0.000000
# 2 -0.001565 0.014858 -0.005024 0.000000 0.000000 0.000000
# 3 0.001343 -0.005024 0.066924 0.000000 0.000000 0.000000
# 4 0.000000 0.000000 0.000000 0.056445 0.000000 0.000000
# 5 0.000000 0.000000 0.000000 0.000000 0.038001 0.000000
# 6 0.000000 0.000000 0.000000 0.000000 0.000000 0.035103
#
#
# Mechanical properties :
#
#
# Convention : Reuss Voigt Hill
#
# Bulk Modulus (GPa) = 11.96700 21.41268 16.68984
# Shear Modulus (GPa) = 19.08733 24.86972 21.97852
#
# Velocity S-wave (km/s) = 3.04324 3.47375 3.26560
# Velocity P-wave (km/s) = 4.26085 5.14576 4.72407
#
# Compressibility (1/GPa) = 0.08356316
#
# Stress axis : x y z
#
# Youngs Moduli (GPa) = 81.47393 67.30286 14.94224
#
# Poissons Ratio (x) = 0.10535 -0.02006
# Poissons Ratio (y) = 0.12753 0.07507
# Poissons Ratio (z) = -0.10940 0.33813
#
# Static dielectric constant tensor:
#      x y z
#    x 1.718800 0.000000 0.000000 
#    y 0.000000 1.771700 0.000000 
#    z 0.000000 0.000000 1.707890 
# 
# From -- ./inp_files/5571.got.cif
#   From: 2010.05.17/outbox.cif.g08.bks.cpg/sg57_3_cif.got.tgz:5571.got - 2010.06.03 13:58:18.
