data_PCOD9437502
_publ_section_title
;
Structure prediction by ZEFSAII (Michael W. Deem and Ramdas Pophale) SiO2 
 PCOD9437502
Probable space group: P B C M
;
_chemical_formula_sum "Si O2"
_cell_formula_units_Z 60
_cell_length_a 26.864403
_cell_length_b 5.464085
_cell_length_c 20.211614
_cell_angle_alpha 90.000000
_cell_angle_beta 90.000000
_cell_angle_gamma 90.000000
_cell_volume 2966.850317
_symmetry_space_group_name_H-M "P B C M"
_symmetry_group_IT_number 57
_symmetry_cell_setting 'orthorhombic'
loop_
_space_group_symop_operation_xyz
x,y,z
-x,-y,1/2+z
x,1/2-y,-z
-x,1/2+y,1/2-z
-x,-y,-z
x,y,1/2-z
-x,1/2+y,z
x,1/2-y,1/2+z
loop_
_atom_site_type_symbol
_atom_site_label
_atom_site_fract_x
_atom_site_fract_y
_atom_site_fract_z
Si Si1 0.118681 0.513268 0.371669
Si Si2 0.195256 0.362416 0.563829
Si Si3 0.642742 0.493837 0.169136
Si Si4 0.693934 0.509207 0.670744
Si Si5 0.119335 0.750000 0.500000
Si Si6 0.789188 0.280951 0.324994
Si Si7 0.979645 0.779001 0.172921
Si Si8 0.527079 0.535060 0.330547
O O1 0.160309 0.332393 0.400097
O O2 0.093014 0.635248 0.436327
O O3 0.152774 0.705571 0.331764
O O4 0.077113 0.367340 0.332452
O O5 0.223310 0.250000 0.500000
O O6 0.155982 0.548495 0.530566
O O7 0.222482 0.517346 0.619943
O O8 0.645368 0.490079 0.250000
O O9 0.664644 0.232746 0.146669
O O10 0.584986 0.521812 0.150853
O O11 0.673103 0.733137 0.145647
O O12 0.686508 0.518023 0.750000
O O13 0.752074 0.445817 0.661328
O O14 0.779175 0.366263 0.250000
O O15 0.994246 0.753113 0.250000
O O16 0.988868 0.508218 0.144328
O O17 0.525375 0.536021 0.250000
O O18 0.498404 0.289040 0.352273
#
# Coordination Sequence:
#
# PCOD9437502 Si02
#       8
#     8   8   8   8   4   8   8   8
#     4  10  20  36  58  77 103 138 176 225 269 321
#     4   9  19  36  58  78 108 143 180 224 274 327
#     4   9  16  27  39  54  88 130 162 213 277 318
#     4   9  18  29  41  62  96 131 165 209 272 330
#     4   8  18  36  56  80 104 132 172 220 266 324
#     4  10  21  32  51  82 108 137 185 234 269 324
#     4  10  23  40  57  80 111 143 174 214 275 336
#     4   9  15  22  35  54  74 109 171 224 254 303
#
# _framework density 20.223465000000001
#
# number of rings (size 3 to 8) (size 9 to 14) (size 15 to 20)
#    0.000    2.667    0.000    1.200    5.600    4.267 
#    0.000    0.667    0.000    0.000    0.000    0.000 
#    0.000    0.000    0.000    0.000    0.000   13.333 
#
# Total GULP energy -334281.876567 kJ/mol
# GULP energy per Si atom -5571.364609 kJ/mol
# Density = 2.017744 g / cm^3
# Si number density = 20.223465 Si / 1000 Ang^3
#
#
#
# Elastic Constant Matrix: (Units=GPa)
#
#
# Indices 1 2 3 4 5 6 
#
# 1 71.6359 27.1373 15.4367 0.0000 0.0000 0.0000
# 2 27.1373 105.8241 26.1886 0.0000 0.0000 0.0000
# 3 15.4367 26.1886 33.8015 0.0000 0.0000 0.0000
# 4 0.0000 0.0000 0.0000 9.6750 0.0000 0.0000
# 5 0.0000 0.0000 0.0000 0.0000 1.3308 0.0000
# 6 0.0000 0.0000 0.0000 0.0000 0.0000 -6.3177
#
#
#
# Elastic Compliance Matrix: (Units=1/GPa)
#
#
# Indices 1 2 3 4 5 6 
#
# 1 0.016157 -0.002867 -0.005157 0.000000 0.000000 0.000000
# 2 -0.002867 0.012200 -0.008143 0.000000 0.000000 0.000000
# 3 -0.005157 -0.008143 0.038249 0.000000 0.000000 0.000000
# 4 0.000000 0.000000 0.000000 0.103359 0.000000 0.000000
# 5 0.000000 0.000000 0.000000 0.000000 0.751404 0.000000
# 6 0.000000 0.000000 0.000000 0.000000 0.000000 -0.158286
#
#
# Mechanical properties :
#
#
# Convention : Reuss Voigt Hill
#
# Bulk Modulus (GPa) = 29.17913 38.75407 33.96660
# Shear Modulus (GPa) = 6.19701 10.43756 8.31729
#
# Velocity S-wave (km/s) = 1.75240 2.27427 2.03018
# Velocity P-wave (km/s) = 4.30746 5.10891 4.72521
#
# Compressibility (1/GPa) = 0.03427108
#
# Stress axis : x y z
#
# Youngs Moduli (GPa) = 61.89310 81.96719 26.14459
#
# Poissons Ratio (x) = 0.23499 0.13484
# Poissons Ratio (y) = 0.17744 0.21290
# Poissons Ratio (z) = 0.31921 0.66746
#
# Static dielectric constant tensor:
#      x y z
#    x 1.708550 0.000000 0.000000 
#    y 0.000000 1.834970 0.000000 
#    z 0.000000 0.000000 1.730310 
# 
# From -- ./inp_files/23153.got.cif
#   From: 2010.05.17/outbox.cif.g08.bks.cpg/sg57_12_cif.got.tgz:23153.got - 2010.06.03 13:58:18.
