data_PCOD9437726
_publ_section_title
;
Structure prediction by ZEFSAII (Michael W. Deem and Ramdas Pophale) SiO2 
 PCOD9437726
Probable space group: P B C M
;
_chemical_formula_sum "Si O2"
_cell_formula_units_Z 40
_cell_length_a 6.906502
_cell_length_b 13.558515
_cell_length_c 22.455200
_cell_angle_alpha 90.000000
_cell_angle_beta 90.000000
_cell_angle_gamma 90.000000
_cell_volume 2102.747839
_symmetry_space_group_name_H-M "P B C M"
_symmetry_group_IT_number 57
_symmetry_cell_setting 'orthorhombic'
loop_
_space_group_symop_operation_xyz
x,y,z
-x,-y,1/2+z
x,1/2-y,-z
-x,1/2+y,1/2-z
-x,-y,-z
x,y,1/2-z
-x,1/2+y,z
x,1/2-y,1/2+z
loop_
_atom_site_type_symbol
_atom_site_label
_atom_site_fract_x
_atom_site_fract_y
_atom_site_fract_z
Si Si1 0.127894 0.031988 0.818128
Si Si2 0.819261 0.377634 0.398809
Si Si3 0.127545 0.364696 0.995373
Si Si4 0.170365 0.645007 0.391372
Si Si5 0.408650 0.029213 0.576411
O O1 0.166302 0.055660 0.750000
O O2 0.286597 0.070103 0.866018
O O3 0.927039 0.075741 0.842119
O O4 0.132565 0.913983 0.830344
O O5 0.623143 0.433934 0.413607
O O6 0.962250 0.386429 0.455410
O O7 0.793286 0.260539 0.388931
O O8 0.309612 0.428091 0.016889
O O9 0.181839 0.250000 0.000000
O O10 0.017711 0.377515 0.932788
O O11 0.353277 0.586408 0.419645
#
# Coordination Sequence:
#
# PCOD9437726 Si02
#       5
#     8   8   8   8   8
#     4   9  21  40  57  79 111 146 196 244 280 333
#     4  10  20  37  57  85 114 151 185 236 287 337
#     4   9  18  35  56  87 120 148 182 228 287 343
#     4   9  20  38  58  84 119 147 190 230 288 341
#     4   9  20  36  57  83 116 148 188 232 279 344
#
# _framework density 19.022727
#
# number of rings (size 3 to 8) (size 9 to 14) (size 15 to 20)
#    1.200    1.600    0.000    0.600    0.000    4.800 
#   10.800    0.000    0.000    0.000    0.000    0.000 
#    0.000    0.000    0.000    0.000    0.000    0.000 
#
# Total GULP energy -222846.867052 kJ/mol
# GULP energy per Si atom -5571.171676 kJ/mol
# Density = 1.897943 g / cm^3
# Si number density = 19.022727 Si / 1000 Ang^3
#
#
#
# Elastic Constant Matrix: (Units=GPa)
#
#
# Indices 1 2 3 4 5 6 
#
# 1 78.3061 29.8171 19.4351 0.0000 0.0000 0.0000
# 2 29.8171 86.4450 8.9107 0.0000 0.0000 0.0000
# 3 19.4351 8.9107 88.5800 0.0000 0.0000 0.0000
# 4 0.0000 0.0000 0.0000 15.8233 0.0000 0.0000
# 5 0.0000 0.0000 0.0000 0.0000 14.9857 0.0000
# 6 0.0000 0.0000 0.0000 0.0000 0.0000 18.7991
#
#
#
# Elastic Compliance Matrix: (Units=1/GPa)
#
#
# Indices 1 2 3 4 5 6 
#
# 1 0.015392 -0.005013 -0.002873 0.000000 0.000000 0.000000
# 2 -0.005013 0.013322 -0.000240 0.000000 0.000000 0.000000
# 3 -0.002873 -0.000240 0.011944 0.000000 0.000000 0.000000
# 4 0.000000 0.000000 0.000000 0.063198 0.000000 0.000000
# 5 0.000000 0.000000 0.000000 0.000000 0.066730 0.000000
# 6 0.000000 0.000000 0.000000 0.000000 0.000000 0.053194
#
#
# Mechanical properties :
#
#
# Convention : Reuss Voigt Hill
#
# Bulk Modulus (GPa) = 40.97415 41.07297 41.02356
# Shear Modulus (GPa) = 20.14768 22.93284 21.54026
#
# Velocity S-wave (km/s) = 3.25797 3.47587 3.36868
# Velocity P-wave (km/s) = 5.97820 6.14388 6.06161
#
# Compressibility (1/GPa) = 0.02440563
#
# Stress axis : x y z
#
# Youngs Moduli (GPa) = 64.96762 75.06411 83.72599
#
# Poissons Ratio (x) = 0.37630 0.24054
# Poissons Ratio (y) = 0.32569 0.02011
# Poissons Ratio (z) = 0.18664 0.01803
#
# Static dielectric constant tensor:
#      x y z
#    x 1.663750 0.000000 0.000000 
#    y 0.000000 1.686560 0.000000 
#    z 0.000000 0.000000 1.665650 
# 
# From -- ./inp_files/26105.got.cif
#   From: 2010.05.17/outbox.cif.g08.bks.cpg/sg57_14_cif.got.tgz:26105.got - 2010.06.03 13:58:18.
