data_PCOD9437952
_publ_section_title
;
Structure prediction by ZEFSAII (Michael W. Deem and Ramdas Pophale) SiO2 
 PCOD9437952
Probable space group: P B C M
;
_chemical_formula_sum "Si O2"
_cell_formula_units_Z 36
_cell_length_a 21.990604
_cell_length_b 9.515353
_cell_length_c 8.344448
_cell_angle_alpha 90.000000
_cell_angle_beta 90.000000
_cell_angle_gamma 90.000000
_cell_volume 1746.062057
_symmetry_space_group_name_H-M "P B C M"
_symmetry_group_IT_number 57
_symmetry_cell_setting 'orthorhombic'
loop_
_space_group_symop_operation_xyz
x,y,z
-x,-y,1/2+z
x,1/2-y,-z
-x,1/2+y,1/2-z
-x,-y,-z
x,y,1/2-z
-x,1/2+y,z
x,1/2-y,1/2+z
loop_
_atom_site_type_symbol
_atom_site_label
_atom_site_fract_x
_atom_site_fract_y
_atom_site_fract_z
Si Si1 0.222600 0.906329 0.559957
Si Si2 0.669805 0.590824 0.438540
Si Si3 0.918434 0.024715 0.448490
Si Si4 0.015376 0.250000 0.500000
Si Si5 0.442958 0.590145 0.060992
O O1 0.237740 0.750000 0.500000
O O2 0.232377 0.912898 0.750000
O O3 0.151451 0.935780 0.528900
O O4 0.265477 0.021247 0.479248
O O5 0.665846 0.750000 0.500000
O O6 0.660458 0.592429 0.250000
O O7 0.618153 0.491496 0.512732
O O8 0.930463 0.026784 0.250000
O O9 0.962444 0.133806 0.540329
O O10 0.934701 0.874093 0.523557
O O11 0.446665 0.596129 0.250000
O O12 0.443530 0.750000 0.000000
O O13 0.500000 0.500000 0.000000
#
# Coordination Sequence:
#
# PCOD9437952 Si02
#       5
#     8   8   8   4   8
#     4  11  23  42  63  92 127 171 219 272 330 397
#     4  12  26  46  69  99 133 176 222 276 331 392
#     4  10  21  37  59  86 121 160 210 263 326 394
#     4  10  20  38  58  88 118 160 208 262 328 392
#     4  12  25  45  72 106 144 186 227 276 325 386
#
# _framework density 20.617826000000001
#
# number of rings (size 3 to 8) (size 9 to 14) (size 15 to 20)
#    0.000    0.889    1.111    6.667    1.556    0.000 
#    0.000    2.222    0.000    0.000    0.000    0.000 
#    0.000    0.000    0.000    0.000    0.000    0.000 
#
# Total GULP energy -200469.604341 kJ/mol
# GULP energy per Si atom -5568.600121 kJ/mol
# Density = 2.057090 g / cm^3
# Si number density = 20.617826 Si / 1000 Ang^3
#
#
#
# Elastic Constant Matrix: (Units=GPa)
#
#
# Indices 1 2 3 4 5 6 
#
# 1 87.8348 45.0113 36.8888 0.0000 0.0000 0.0000
# 2 45.0113 207.9186 38.3120 0.0000 0.0000 0.0000
# 3 36.8888 38.3120 113.2451 0.0000 0.0000 0.0000
# 4 0.0000 0.0000 0.0000 28.6989 0.0000 0.0000
# 5 0.0000 0.0000 0.0000 0.0000 -51.4280 0.0000
# 6 0.0000 0.0000 0.0000 0.0000 0.0000 52.4747
#
#
#
# Elastic Compliance Matrix: (Units=1/GPa)
#
#
# Indices 1 2 3 4 5 6 
#
# 1 0.014207 -0.002371 -0.003826 0.000000 0.000000 0.000000
# 2 -0.002371 0.005525 -0.001097 0.000000 0.000000 0.000000
# 3 -0.003826 -0.001097 0.010448 0.000000 0.000000 0.000000
# 4 0.000000 0.000000 0.000000 0.034845 0.000000 0.000000
# 5 0.000000 0.000000 0.000000 0.000000 -0.019445 0.000000
# 6 0.000000 0.000000 0.000000 0.000000 0.000000 0.019057
#
#
# Mechanical properties :
#
#
# Convention : Reuss Voigt Hill
#
# Bulk Modulus (GPa) = 64.13242 72.15808 68.14525
# Shear Modulus (GPa) = 59.22785 25.20155 42.21470
#
# Velocity S-wave (km/s) = 5.36553 3.49996 4.52982
# Velocity P-wave (km/s) = 8.34015 7.16986 7.77705
#
# Compressibility (1/GPa) = 0.01559274
#
# Stress axis : x y z
#
# Youngs Moduli (GPa) = 70.39018 180.99898 95.71479
#
# Poissons Ratio (x) = 0.42907 0.36618
# Poissons Ratio (y) = 0.16686 0.10499
# Poissons Ratio (z) = 0.26929 0.19854
#
# Static dielectric constant tensor:
#      x y z
#    x 1.751400 0.000000 0.000000 
#    y 0.000000 1.669220 0.000000 
#    z 0.000000 0.000000 1.786670 
# 
# From -- ./inp_files/7620.got.cif
#   From: 2010.05.17/outbox.cif.g08.bks.cpg/sg57_4_cif.got.tgz:7620.got - 2010.06.03 13:58:18.
