data_PCOD9437669
_publ_section_title
;
Structure prediction by ZEFSAII (Michael W. Deem and Ramdas Pophale) SiO2 
 PCOD9437669
Probable space group: P B C M
;
_chemical_formula_sum "Si O2"
_cell_formula_units_Z 64
_cell_length_a 14.854980
_cell_length_b 25.590924
_cell_length_c 8.634020
_cell_angle_alpha 90.000000
_cell_angle_beta 90.000000
_cell_angle_gamma 90.000000
_cell_volume 3282.245706
_symmetry_space_group_name_H-M "P B C M"
_symmetry_group_IT_number 57
_symmetry_cell_setting 'orthorhombic'
loop_
_space_group_symop_operation_xyz
x,y,z
-x,-y,1/2+z
x,1/2-y,-z
-x,1/2+y,1/2-z
-x,-y,-z
x,y,1/2-z
-x,1/2+y,z
x,1/2-y,1/2+z
loop_
_atom_site_type_symbol
_atom_site_label
_atom_site_fract_x
_atom_site_fract_y
_atom_site_fract_z
Si Si1 0.707620 0.520340 0.928666
Si Si2 0.708405 0.806723 0.566385
Si Si3 0.682714 0.195762 0.936727
Si Si4 0.533416 0.554178 0.430218
Si Si5 0.153403 0.109317 0.930836
Si Si6 0.771938 0.413972 0.062922
Si Si7 0.512820 0.836463 0.066537
Si Si8 0.022872 0.942358 0.437187
O O1 0.675708 0.523638 0.750000
O O2 0.800261 0.552092 0.937633
O O3 0.640030 0.550654 0.040994
O O4 0.718172 0.460909 0.981410
O O5 0.732795 0.750000 0.500000
O O6 0.706364 0.804989 0.750000
O O7 0.781153 0.849580 0.512384
O O8 0.607014 0.819800 0.508832
O O9 0.682566 0.197136 0.750000
O O10 0.735551 0.143086 0.982503
O O11 0.578387 0.191062 0.989496
O O12 0.721005 0.250000 0.000000
O O13 0.500000 0.500000 0.500000
O O14 0.512018 0.559820 0.250000
O O15 0.498081 0.602751 0.527417
O O16 0.149922 0.124663 0.750000
O O17 0.052840 0.099160 0.990935
O O18 0.761738 0.419140 0.250000
O O19 0.876634 0.423657 0.023484
O O20 0.521543 0.828875 0.250000
O O21 0.016998 0.944816 0.250000
O O22 0.000000 0.000000 0.500000
#
# Coordination Sequence:
#
# PCOD9437669 Si02
#       8
#     8   8   8   8   8   8   8   8
#     4  11  21  35  58  87 123 159 196 244 299 355
#     4  12  25  41  63  89 119 160 206 253 306 363
#     4  10  23  41  61  85 115 155 199 245 295 346
#     4  12  24  37  55  83 120 162 204 245 302 362
#     4  10  21  38  59  87 124 159 196 247 301 356
#     4  10  21  38  61  90 123 159 199 246 303 364
#     4  11  22  39  61  87 120 156 201 251 297 358
#     4  10  20  36  61  90 123 158 196 245 299 359
#
# _framework density 19.498843999999998
#
# number of rings (size 3 to 8) (size 9 to 14) (size 15 to 20)
#    0.000    1.250    2.500    4.125    0.000    4.500 
#    0.000    0.625    0.000    1.500    0.000    0.000 
#    0.000    0.000    0.000    0.000    0.000    0.000 
#
# Total GULP energy -357588.694251 kJ/mol
# GULP energy per Si atom -5587.323348 kJ/mol
# Density = 1.945446 g / cm^3
# Si number density = 19.498844 Si / 1000 Ang^3
#
#
#
# Elastic Constant Matrix: (Units=GPa)
#
#
# Indices 1 2 3 4 5 6 
#
# 1 82.4756 37.5015 20.6891 0.0000 0.0000 0.0000
# 2 37.5015 140.1657 20.7131 0.0000 0.0000 0.0000
# 3 20.6891 20.7131 48.9398 0.0000 0.0000 0.0000
# 4 0.0000 0.0000 0.0000 34.4060 0.0000 0.0000
# 5 0.0000 0.0000 0.0000 0.0000 14.7699 0.0000
# 6 0.0000 0.0000 0.0000 0.0000 0.0000 17.0479
#
#
#
# Elastic Compliance Matrix: (Units=1/GPa)
#
#
# Indices 1 2 3 4 5 6 
#
# 1 0.014828 -0.003244 -0.004896 0.000000 0.000000 0.000000
# 2 -0.003244 0.008320 -0.002150 0.000000 0.000000 0.000000
# 3 -0.004896 -0.002150 0.023413 0.000000 0.000000 0.000000
# 4 0.000000 0.000000 0.000000 0.029065 0.000000 0.000000
# 5 0.000000 0.000000 0.000000 0.000000 0.067705 0.000000
# 6 0.000000 0.000000 0.000000 0.000000 0.000000 0.058658
#
#
# Mechanical properties :
#
#
# Convention : Reuss Voigt Hill
#
# Bulk Modulus (GPa) = 38.48821 47.70982 43.09902
# Shear Modulus (GPa) = 21.62367 26.08991 23.85679
#
# Velocity S-wave (km/s) = 3.33374 3.66187 3.50165
# Velocity P-wave (km/s) = 5.88217 6.51154 6.20484
#
# Compressibility (1/GPa) = 0.02598198
#
# Stress axis : x y z
#
# Youngs Moduli (GPa) = 67.44100 120.19223 42.71162
#
# Poissons Ratio (x) = 0.38987 0.20910
# Poissons Ratio (y) = 0.21876 0.09183
# Poissons Ratio (z) = 0.33016 0.25842
#
# Static dielectric constant tensor:
#      x y z
#    x 1.740230 0.000000 0.000000 
#    y 0.000000 1.705800 0.000000 
#    z 0.000000 0.000000 1.661440 
# 
# From -- ./inp_files/5561.got.cif
#   From: 2010.05.17/outbox.cif.g08.bks.cpg/sg57_3_cif.got.tgz:5561.got - 2010.06.03 13:58:18.
