data_PCOD9437373
_publ_section_title
;
Structure prediction by ZEFSAII (Michael W. Deem and Ramdas Pophale) SiO2 
 PCOD9437373
Probable space group: P B C M
;
_chemical_formula_sum "Si O2"
_cell_formula_units_Z 28
_cell_length_a 13.090049
_cell_length_b 5.302785
_cell_length_c 20.325609
_cell_angle_alpha 90.000000
_cell_angle_beta 90.000000
_cell_angle_gamma 90.000000
_cell_volume 1410.876040
_symmetry_space_group_name_H-M "P B C M"
_symmetry_group_IT_number 57
_symmetry_cell_setting 'orthorhombic'
loop_
_space_group_symop_operation_xyz
x,y,z
-x,-y,1/2+z
x,1/2-y,-z
-x,1/2+y,1/2-z
-x,-y,-z
x,y,1/2-z
-x,1/2+y,z
x,1/2-y,1/2+z
loop_
_atom_site_type_symbol
_atom_site_label
_atom_site_fract_x
_atom_site_fract_y
_atom_site_fract_z
Si Si1 0.284544 0.913835 0.933109
Si Si2 0.571593 0.750000 0.500000
Si Si3 0.567438 0.210518 0.826701
Si Si4 0.044496 0.503373 0.075335
O O1 0.338126 0.759973 0.874854
O O2 0.165814 0.972812 0.924668
O O3 0.293335 0.750000 0.000000
O O4 0.349042 0.171500 0.942865
O O5 0.500000 0.500000 0.500000
O O6 0.597456 0.219720 0.750000
O O7 0.489520 0.444981 0.838144
O O8 0.993525 0.746774 0.106992
O O9 0.000000 0.500000 0.000000
#
# Coordination Sequence:
#
# PCOD9437373 Si02
#       4
#     8   4   8   8
#     4  12  24  36  64  90 119 157 202 246 302 357
#     4  12  24  34  48  86 122 142 182 246 294 338
#     4  10  24  43  59  82 121 164 199 238 294 361
#     4  10  20  36  53  82 119 151 185 239 303 354
#
# _framework density 19.845824
#
# number of rings (size 3 to 8) (size 9 to 14) (size 15 to 20)
#    0.000    1.143    4.286    3.429    4.000    0.000 
#    0.000    0.000    0.000    1.714    0.000    0.000 
#    0.000    0.000    0.000    0.000    0.000    0.000 
#
# Total GULP energy -156290.246859 kJ/mol
# GULP energy per Si atom -5581.794531 kJ/mol
# Density = 1.980065 g / cm^3
# Si number density = 19.845824 Si / 1000 Ang^3
#
#
#
# Elastic Constant Matrix: (Units=GPa)
#
#
# Indices 1 2 3 4 5 6 
#
# 1 196.0798 69.5131 56.4481 0.0000 0.0000 0.0000
# 2 69.5131 176.8362 24.0382 0.0000 0.0000 0.0000
# 3 56.4481 24.0382 79.3276 0.0000 0.0000 0.0000
# 4 0.0000 0.0000 0.0000 21.9878 0.0000 0.0000
# 5 0.0000 0.0000 0.0000 0.0000 15.0727 0.0000
# 6 0.0000 0.0000 0.0000 0.0000 0.0000 29.1885
#
#
#
# Elastic Compliance Matrix: (Units=1/GPa)
#
#
# Indices 1 2 3 4 5 6 
#
# 1 0.007158 -0.002212 -0.004423 0.000000 0.000000 0.000000
# 2 -0.002212 0.006582 -0.000420 0.000000 0.000000 0.000000
# 3 -0.004423 -0.000420 0.015880 0.000000 0.000000 0.000000
# 4 0.000000 0.000000 0.000000 0.045480 0.000000 0.000000
# 5 0.000000 0.000000 0.000000 0.000000 0.066345 0.000000
# 6 0.000000 0.000000 0.000000 0.000000 0.000000 0.034260
#
#
# Mechanical properties :
#
#
# Convention : Reuss Voigt Hill
#
# Bulk Modulus (GPa) = 64.47818 83.58250 74.03034
# Shear Modulus (GPa) = 25.64300 33.39941 29.52121
#
# Velocity S-wave (km/s) = 3.59849 4.10682 3.86103
# Velocity P-wave (km/s) = 7.05873 8.04334 7.56706
#
# Compressibility (1/GPa) = 0.01550912
#
# Stress axis : x y z
#
# Youngs Moduli (GPa) = 139.71329 151.93581 62.97061
#
# Poissons Ratio (x) = 0.33614 0.27850
# Poissons Ratio (y) = 0.30910 0.02646
# Poissons Ratio (z) = 0.61792 0.06384
#
# Static dielectric constant tensor:
#      x y z
#    x 1.692130 0.000000 0.000000 
#    y 0.000000 1.701310 0.000000 
#    z 0.000000 0.000000 1.673680 
# 
# From -- ./inp_files/24772.got.cif
#   From: 2010.05.17/outbox.cif.g08.bks.cpg/sg57_13_cif.got.tgz:24772.got - 2010.06.03 13:58:18.
