data_PCOD9437407
_publ_section_title
;
Structure prediction by ZEFSAII (Michael W. Deem and Ramdas Pophale) SiO2 
 PCOD9437407
Probable space group: P B C M
;
_chemical_formula_sum "Si O2"
_cell_formula_units_Z 64
_cell_length_a 8.513558
_cell_length_b 12.143391
_cell_length_c 31.351403
_cell_angle_alpha 90.000000
_cell_angle_beta 90.000000
_cell_angle_gamma 90.000000
_cell_volume 3241.216631
_symmetry_space_group_name_H-M "P B C M"
_symmetry_group_IT_number 57
_symmetry_cell_setting 'orthorhombic'
loop_
_space_group_symop_operation_xyz
x,y,z
-x,-y,1/2+z
x,1/2-y,-z
-x,1/2+y,1/2-z
-x,-y,-z
x,y,1/2-z
-x,1/2+y,z
x,1/2-y,1/2+z
loop_
_atom_site_type_symbol
_atom_site_label
_atom_site_fract_x
_atom_site_fract_y
_atom_site_fract_z
Si Si1 0.597615 0.418542 0.345851
Si Si2 0.825576 0.934762 0.701711
Si Si3 0.403970 0.373538 0.588440
Si Si4 0.711313 0.783873 0.160096
Si Si5 0.058609 0.464395 0.365471
Si Si6 0.192555 0.833785 0.415993
Si Si7 0.680259 0.009596 0.514994
Si Si8 0.762463 0.398335 0.929969
O O1 0.697996 0.469805 0.307608
O O2 0.582741 0.521217 0.379299
O O3 0.437823 0.361918 0.331118
O O4 0.699239 0.331477 0.373418
O O5 0.882623 0.938293 0.750000
O O6 0.960626 0.960249 0.667012
O O7 0.744845 0.817602 0.691486
O O8 0.330162 0.273889 0.614722
O O9 0.299526 0.408680 0.547797
O O10 0.581963 0.356579 0.572598
O O11 0.863979 0.860026 0.157388
O O12 0.194562 0.531339 0.388852
O O13 0.943368 0.417552 0.401951
O O14 0.288475 0.884711 0.455319
O O15 0.136393 0.712743 0.428528
O O16 0.778718 0.027830 0.472200
O O17 0.500000 0.000000 0.500000
#
# Coordination Sequence:
#
# PCOD9437407 Si02
#       8
#     8   8   8   8   8   8   8   8
#     4   9  18  36  63  87 116 153 200 250 299 364
#     4  10  24  43  61  92 129 152 195 262 318 382
#     4   9  18  34  58  90 119 150 206 257 297 354
#     4  11  20  39  69  90 114 166 210 244 310 379
#     4  11  24  39  62  87 124 168 205 246 317 386
#     4  10  20  36  55  86 124 164 204 253 309 365
#     4   9  20  34  55  87 123 161 208 265 307 344
#     4  11  19  35  60  82 121 163 209 256 302 358
#
# _framework density 19.74567
#
# number of rings (size 3 to 8) (size 9 to 14) (size 15 to 20)
#    0.000    2.000    2.500    1.875    0.000    1.500 
#    0.000    1.875    0.000    0.000    0.000    0.000 
#    0.000    0.000    0.000    0.000    0.000    0.000 
#
# Total GULP energy -356835.192436 kJ/mol
# GULP energy per Si atom -5575.549882 kJ/mol
# Density = 1.970073 g / cm^3
# Si number density = 19.745670 Si / 1000 Ang^3
#
#
#
# Elastic Constant Matrix: (Units=GPa)
#
#
# Indices 1 2 3 4 5 6 
#
# 1 51.7137 13.0707 13.3328 0.0000 0.0000 0.0000
# 2 13.0707 56.0545 16.8373 0.0000 0.0000 0.0000
# 3 13.3328 16.8373 76.5371 0.0000 0.0000 0.0000
# 4 0.0000 0.0000 0.0000 14.2317 0.0000 0.0000
# 5 0.0000 0.0000 0.0000 0.0000 16.2038 0.0000
# 6 0.0000 0.0000 0.0000 0.0000 0.0000 21.8518
#
#
#
# Elastic Compliance Matrix: (Units=1/GPa)
#
#
# Indices 1 2 3 4 5 6 
#
# 1 0.021085 -0.004083 -0.002775 0.000000 0.000000 0.000000
# 2 -0.004083 0.019893 -0.003665 0.000000 0.000000 0.000000
# 3 -0.002775 -0.003665 0.014355 0.000000 0.000000 0.000000
# 4 0.000000 0.000000 0.000000 0.070266 0.000000 0.000000
# 5 0.000000 0.000000 0.000000 0.000000 0.061714 0.000000
# 6 0.000000 0.000000 0.000000 0.000000 0.000000 0.045763
#
#
# Mechanical properties :
#
#
# Convention : Reuss Voigt Hill
#
# Bulk Modulus (GPa) = 29.16546 30.08744 29.62645
# Shear Modulus (GPa) = 18.82888 19.86174 19.34531
#
# Velocity S-wave (km/s) = 3.09134 3.17500 3.13345
# Velocity P-wave (km/s) = 5.24828 5.35830 5.30358
#
# Compressibility (1/GPa) = 0.03428714
#
# Stress axis : x y z
#
# Youngs Moduli (GPa) = 47.42796 50.26963 69.66140
#
# Poissons Ratio (x) = 0.20525 0.19329
# Poissons Ratio (y) = 0.19365 0.25530
# Poissons Ratio (z) = 0.13160 0.18423
#
# Static dielectric constant tensor:
#      x y z
#    x 1.728630 0.000000 0.000000 
#    y 0.000000 1.726230 0.000000 
#    z 0.000000 0.000000 1.686610 
# 
# From -- ./inp_files/29627.got.cif
#   From: 2010.05.17/outbox.cif.g08.bks.cpg/sg57_15_cif.got.tgz:29627.got - 2010.06.03 13:58:18.
