data_PCOD9437084
_publ_section_title
;
Structure prediction by ZEFSAII (Michael W. Deem and Ramdas Pophale) SiO2 
 PCOD9437084
Probable space group: P B C M
;
_chemical_formula_sum "Si O2"
_cell_formula_units_Z 48
_cell_length_a 31.891591
_cell_length_b 9.409728
_cell_length_c 8.547790
_cell_angle_alpha 90.000000
_cell_angle_beta 90.000000
_cell_angle_gamma 90.000000
_cell_volume 2565.116531
_symmetry_space_group_name_H-M "P B C M"
_symmetry_group_IT_number 57
_symmetry_cell_setting 'orthorhombic'
loop_
_space_group_symop_operation_xyz
x,y,z
-x,-y,1/2+z
x,1/2-y,-z
-x,1/2+y,1/2-z
-x,-y,-z
x,y,1/2-z
-x,1/2+y,z
x,1/2-y,1/2+z
loop_
_atom_site_type_symbol
_atom_site_label
_atom_site_fract_x
_atom_site_fract_y
_atom_site_fract_z
Si Si1 0.707432 0.591124 0.061231
Si Si2 0.538932 0.410892 0.936741
Si Si3 0.039596 0.411192 0.062685
Si Si4 0.627620 0.089883 0.561796
Si Si5 0.801338 0.909788 0.561253
Si Si6 0.881685 0.089617 0.561463
O O1 0.707050 0.592203 0.250000
O O2 0.668729 0.495057 0.008973
O O3 0.754342 0.545341 0.011217
O O4 0.701544 0.750000 0.000000
O O5 0.538899 0.408917 0.750000
O O6 0.535666 0.250000 0.000000
O O7 0.500000 0.500000 0.000000
O O8 0.583659 0.469415 0.997089
O O9 0.038783 0.408610 0.250000
O O10 0.038527 0.250000 0.000000
O O11 0.081037 0.492043 0.003715
O O12 0.000000 0.500000 0.000000
O O13 0.630899 0.250000 0.500000
O O14 0.625756 0.090547 0.750000
O O15 0.809035 0.750000 0.500000
O O16 0.801900 0.903760 0.750000
O O17 0.837699 0.017472 0.511978
O O18 0.885320 0.250000 0.500000
O O19 0.883837 0.090777 0.750000
#
# Coordination Sequence:
#
# PCOD9437084 Si02
#       6
#     8   8   8   8   8   8
#     4   9  19  35  55  80 110 144 184 229 275 328
#     4  11  22  38  58  81 109 142 182 226 276 331
#     4  12  25  43  65  90 120 154 193 236 286 339
#     4  10  20  35  54  78 109 143 181 224 273 328
#     4   9  19  36  57  81 111 147 187 231 279 331
#     4  11  23  39  59  86 119 154 194 238 285 337
#
# _framework density 18.712599999999998
#
# number of rings (size 3 to 8) (size 9 to 14) (size 15 to 20)
#    0.000    1.667    0.000    6.000    0.000    5.333 
#    0.000    1.667    0.000    0.000    0.000    0.000 
#    0.000    0.000    0.000    0.000    0.000    0.000 
#
# Total GULP energy -268166.256446 kJ/mol
# GULP energy per Si atom -5586.797009 kJ/mol
# Density = 1.867001 g / cm^3
# Si number density = 18.712600 Si / 1000 Ang^3
#
#
#
# Elastic Constant Matrix: (Units=GPa)
#
#
# Indices 1 2 3 4 5 6 
#
# 1 207.2736 112.8297 60.0811 0.0000 0.0000 0.0000
# 2 112.8297 123.1502 42.1141 0.0000 0.0000 0.0000
# 3 60.0811 42.1141 97.1394 0.0000 0.0000 0.0000
# 4 0.0000 0.0000 0.0000 35.1518 0.0000 0.0000
# 5 0.0000 0.0000 0.0000 0.0000 27.5536 0.0000
# 6 0.0000 0.0000 0.0000 0.0000 0.0000 42.5944
#
#
#
# Elastic Compliance Matrix: (Units=1/GPa)
#
#
# Indices 1 2 3 4 5 6 
#
# 1 0.010171 -0.008415 -0.002643 0.000000 0.000000 0.000000
# 2 -0.008415 0.016496 -0.001947 0.000000 0.000000 0.000000
# 3 -0.002643 -0.001947 0.012773 0.000000 0.000000 0.000000
# 4 0.000000 0.000000 0.000000 0.028448 0.000000 0.000000
# 5 0.000000 0.000000 0.000000 0.000000 0.036293 0.000000
# 6 0.000000 0.000000 0.000000 0.000000 0.000000 0.023477
#
#
# Mechanical properties :
#
#
# Convention : Reuss Voigt Hill
#
# Bulk Modulus (GPa) = 74.45545 95.29032 84.87289
# Shear Modulus (GPa) = 31.61650 35.22917 33.42283
#
# Velocity S-wave (km/s) = 4.11491 4.34365 4.23083
# Velocity P-wave (km/s) = 7.90266 8.72869 8.32592
#
# Compressibility (1/GPa) = 0.01343085
#
# Stress axis : x y z
#
# Youngs Moduli (GPa) = 98.31437 60.62076 78.28997
#
# Poissons Ratio (x) = 0.51014 0.20690
# Poissons Ratio (y) = 0.82735 0.15242
# Poissons Ratio (z) = 0.25981 0.11802
#
# Static dielectric constant tensor:
#      x y z
#    x 1.664730 0.000000 0.000000 
#    y 0.000000 1.602690 0.000000 
#    z 0.000000 0.000000 1.634290 
# 
# From -- ./inp_files/10063.got.cif
#   From: 2010.05.17/outbox.cif.g08.bks.cpg/sg57_6_cif.got.tgz:10063.got - 2010.06.03 13:58:18.
