data_PCOD9437426
_publ_section_title
;
Structure prediction by ZEFSAII (Michael W. Deem and Ramdas Pophale) SiO2 
 PCOD9437426
Probable space group: P B C M
;
_chemical_formula_sum "Si O2"
_cell_formula_units_Z 64
_cell_length_a 24.453076
_cell_length_b 15.623310
_cell_length_c 7.941764
_cell_angle_alpha 90.000000
_cell_angle_beta 90.000000
_cell_angle_gamma 90.000000
_cell_volume 3034.055530
_symmetry_space_group_name_H-M "P B C M"
_symmetry_group_IT_number 57
_symmetry_cell_setting 'orthorhombic'
loop_
_space_group_symop_operation_xyz
x,y,z
-x,-y,1/2+z
x,1/2-y,-z
-x,1/2+y,1/2-z
-x,-y,-z
x,y,1/2-z
-x,1/2+y,z
x,1/2-y,1/2+z
loop_
_atom_site_type_symbol
_atom_site_label
_atom_site_fract_x
_atom_site_fract_y
_atom_site_fract_z
Si Si1 0.213569 0.845322 0.951880
Si Si2 0.121541 0.374734 0.946289
Si Si3 0.576803 0.495973 0.447727
Si Si4 0.505128 0.850283 0.052926
Si Si5 0.700422 0.014278 0.448888
Si Si6 0.998778 0.843016 0.952450
Si Si7 0.894940 0.065092 0.044879
Si Si8 0.758896 0.841109 0.548188
O O1 0.213487 0.852317 0.750000
O O2 0.256545 0.915572 0.016323
O O3 0.151522 0.867042 0.005198
O O4 0.229188 0.750000 0.000000
O O5 0.120617 0.348979 0.750000
O O6 0.178550 0.342666 0.020858
O O7 0.062808 0.349631 0.022846
O O8 0.122707 0.476419 0.964419
O O9 0.564109 0.502437 0.250000
O O10 0.543036 0.413485 0.518288
O O11 0.557409 0.587305 0.523601
O O12 0.640840 0.481519 0.471120
O O13 0.494820 0.844257 0.250000
O O14 0.509079 0.750000 0.000000
O O15 0.693659 0.028564 0.250000
O O16 0.726549 0.921348 0.477194
O O17 0.995627 0.851306 0.750000
O O18 0.044047 0.910230 0.011537
O O19 0.020430 0.750000 0.000000
O O20 0.895108 0.057320 0.250000
O O21 0.734034 0.750000 0.500000
O O22 0.760800 0.849784 0.750000
#
# Coordination Sequence:
#
# PCOD9437426 Si02
#       8
#     8   8   8   8   8   8   8   8
#     4  10  22  38  58  84 114 153 198 245 299 356
#     4  10  21  36  55  81 109 143 188 238 296 361
#     4  10  22  40  63  93 128 165 207 251 297 347
#     4  10  21  39  65  96 131 169 206 247 294 346
#     4  11  23  41  62  87 122 160 204 252 300 352
#     4  10  21  35  52  78 109 141 184 235 292 359
#     4  10  20  36  56  79 109 145 188 238 295 358
#     4  11  23  39  60  85 115 153 198 248 303 363
#
# _framework density 21.093879000000001
#
# number of rings (size 3 to 8) (size 9 to 14) (size 15 to 20)
#    0.000    1.750    1.250    2.625    0.000    5.500 
#    0.000    5.000    0.000    0.000    0.000    0.000 
#    0.000    0.000    0.000    0.000    0.000    0.000 
#
# Total GULP energy -357219.242538 kJ/mol
# GULP energy per Si atom -5581.550665 kJ/mol
# Density = 2.104587 g / cm^3
# Si number density = 21.093879 Si / 1000 Ang^3
#
#
#
# Elastic Constant Matrix: (Units=GPa)
#
#
# Indices 1 2 3 4 5 6 
#
# 1 98.7624 27.5560 1.8483 0.0000 0.0000 0.0000
# 2 27.5560 132.9073 -1.9179 0.0000 0.0000 0.0000
# 3 1.8483 -1.9179 19.0645 0.0000 0.0000 0.0000
# 4 0.0000 0.0000 0.0000 25.4947 0.0000 0.0000
# 5 0.0000 0.0000 0.0000 0.0000 36.0386 0.0000
# 6 0.0000 0.0000 0.0000 0.0000 0.0000 2.8063
#
#
#
# Elastic Compliance Matrix: (Units=1/GPa)
#
#
# Indices 1 2 3 4 5 6 
#
# 1 0.010778 -0.002253 -0.001272 0.000000 0.000000 0.000000
# 2 -0.002253 0.008006 0.001024 0.000000 0.000000 0.000000
# 3 -0.001272 0.001024 0.052680 0.000000 0.000000 0.000000
# 4 0.000000 0.000000 0.000000 0.039224 0.000000 0.000000
# 5 0.000000 0.000000 0.000000 0.000000 0.027748 0.000000
# 6 0.000000 0.000000 0.000000 0.000000 0.000000 0.356337
#
#
# Mechanical properties :
#
#
# Convention : Reuss Voigt Hill
#
# Bulk Modulus (GPa) = 15.04617 33.96745 24.50681
# Shear Modulus (GPa) = 9.57988 27.75111 18.66550
#
# Velocity S-wave (km/s) = 2.13340 3.63106 2.97792
# Velocity P-wave (km/s) = 3.63552 5.80667 4.84429
#
# Compressibility (1/GPa) = 0.06646208
#
# Stress axis : x y z
#
# Youngs Moduli (GPa) = 92.78411 124.90761 18.98263
#
# Poissons Ratio (x) = 0.28141 0.02414
# Poissons Ratio (y) = 0.20904 -0.01944
# Poissons Ratio (z) = 0.11798 -0.12788
#
# Static dielectric constant tensor:
#      x y z
#    x 1.767830 0.000000 0.000000 
#    y 0.000000 1.782640 0.000000 
#    z 0.000000 0.000000 1.763970 
# 
# From -- ./inp_files/9298.got.cif
#   From: 2010.05.17/outbox.cif.g08.bks.cpg/sg57_5_cif.got.tgz:9298.got - 2010.06.03 13:58:18.
