data_PCOD9437854
_publ_section_title
;
Structure prediction by ZEFSAII (Michael W. Deem and Ramdas Pophale) SiO2 
 PCOD9437854
Probable space group: P B C M
;
_chemical_formula_sum "Si O2"
_cell_formula_units_Z 40
_cell_length_a 8.252988
_cell_length_b 9.094654
_cell_length_c 24.910157
_cell_angle_alpha 90.000000
_cell_angle_beta 90.000000
_cell_angle_gamma 90.000000
_cell_volume 1869.708316
_symmetry_space_group_name_H-M "P B C M"
_symmetry_group_IT_number 57
_symmetry_cell_setting 'orthorhombic'
loop_
_space_group_symop_operation_xyz
x,y,z
-x,-y,1/2+z
x,1/2-y,-z
-x,1/2+y,1/2-z
-x,-y,-z
x,y,1/2-z
-x,1/2+y,z
x,1/2-y,1/2+z
loop_
_atom_site_type_symbol
_atom_site_label
_atom_site_fract_x
_atom_site_fract_y
_atom_site_fract_z
Si Si1 0.828882 0.495497 0.687508
Si Si2 0.483997 0.839506 0.550602
Si Si3 0.218853 0.479047 0.918373
Si Si4 0.464810 0.432251 0.373761
Si Si5 0.969314 0.263947 0.379559
O O1 0.867563 0.486574 0.750000
O O2 0.644760 0.548844 0.677544
O O3 0.860666 0.339220 0.658688
O O4 0.937901 0.617100 0.657289
O O5 0.423629 0.750000 0.500000
O O6 0.524704 0.724478 0.598006
O O7 0.652946 0.924467 0.536846
O O8 0.381639 0.963724 0.580397
O O9 0.350375 0.510051 0.870410
O O10 0.127708 0.634461 0.922081
O O11 0.095676 0.348280 0.906595
#
# Coordination Sequence:
#
# PCOD9437854 Si02
#       5
#     8   8   8   8   8
#     4  11  21  37  61  87 119 156 199 240 297 355
#     4  10  20  37  61  90 115 154 199 245 303 347
#     4   9  21  36  62  81 120 156 193 240 292 347
#     4  10  20  38  59  89 116 151 198 251 284 342
#     4  10  20  39  57  84 122 163 185 240 301 351
#
# _framework density 21.393712000000001
#
# number of rings (size 3 to 8) (size 9 to 14) (size 15 to 20)
#    1.200    0.800    2.000    2.400    0.000    0.000 
#    0.000   14.000    0.000    0.000    0.000    0.000 
#    0.000    0.000    0.000    0.000    0.000    0.000 
#
# Total GULP energy -222694.626793 kJ/mol
# GULP energy per Si atom -5567.365670 kJ/mol
# Density = 2.134502 g / cm^3
# Si number density = 21.393712 Si / 1000 Ang^3
#
#
#
# Elastic Constant Matrix: (Units=GPa)
#
#
# Indices 1 2 3 4 5 6 
#
# 1 68.2369 13.7788 1.3820 0.0000 0.0000 0.0000
# 2 13.7788 137.0101 12.6579 0.0000 0.0000 0.0000
# 3 1.3820 12.6579 37.5935 0.0000 0.0000 0.0000
# 4 0.0000 0.0000 0.0000 10.1208 0.0000 0.0000
# 5 0.0000 0.0000 0.0000 0.0000 17.6326 0.0000
# 6 0.0000 0.0000 0.0000 0.0000 0.0000 36.3742
#
#
#
# Elastic Compliance Matrix: (Units=1/GPa)
#
#
# Indices 1 2 3 4 5 6 
#
# 1 0.014959 -0.001500 -0.000045 0.000000 0.000000 0.000000
# 2 -0.001500 0.007684 -0.002532 0.000000 0.000000 0.000000
# 3 -0.000045 -0.002532 0.027455 0.000000 0.000000 0.000000
# 4 0.000000 0.000000 0.000000 0.098807 0.000000 0.000000
# 5 0.000000 0.000000 0.000000 0.000000 0.056713 0.000000
# 6 0.000000 0.000000 0.000000 0.000000 0.000000 0.027492
#
#
# Mechanical properties :
#
#
# Convention : Reuss Voigt Hill
#
# Bulk Modulus (GPa) = 23.84198 33.16421 28.50310
# Shear Modulus (GPa) = 19.58914 27.16029 23.37472
#
# Velocity S-wave (km/s) = 3.02925 3.56693 3.30903
# Velocity P-wave (km/s) = 4.83774 5.70084 5.28693
#
# Compressibility (1/GPa) = 0.04194282
#
# Stress axis : x y z
#
# Youngs Moduli (GPa) = 66.85088 130.14860 36.42389
#
# Poissons Ratio (x) = 0.19525 0.00163
# Poissons Ratio (y) = 0.10029 0.09222
# Poissons Ratio (z) = 0.00299 0.32953
#
# Static dielectric constant tensor:
#      x y z
#    x 1.846310 0.000000 0.000000 
#    y 0.000000 1.817630 0.000000 
#    z 0.000000 0.000000 1.771740 
# 
# From -- ./inp_files/28256.got.cif
#   From: 2010.05.17/outbox.cif.g08.bks.cpg/sg57_15_cif.got.tgz:28256.got - 2010.06.03 13:58:18.
