data_PCOD9437842
_publ_section_title
;
Structure prediction by ZEFSAII (Michael W. Deem and Ramdas Pophale) SiO2 
 PCOD9437842
Probable space group: P B C M
;
_chemical_formula_sum "Si O2"
_cell_formula_units_Z 64
_cell_length_a 19.128441
_cell_length_b 10.522771
_cell_length_c 14.474270
_cell_angle_alpha 90.000000
_cell_angle_beta 90.000000
_cell_angle_gamma 90.000000
_cell_volume 2913.441919
_symmetry_space_group_name_H-M "P B C M"
_symmetry_group_IT_number 57
_symmetry_cell_setting 'orthorhombic'
loop_
_space_group_symop_operation_xyz
x,y,z
-x,-y,1/2+z
x,1/2-y,-z
-x,1/2+y,1/2-z
-x,-y,-z
x,y,1/2-z
-x,1/2+y,z
x,1/2-y,1/2+z
loop_
_atom_site_type_symbol
_atom_site_label
_atom_site_fract_x
_atom_site_fract_y
_atom_site_fract_z
Si Si1 0.041370 0.515640 0.597526
Si Si2 0.054766 0.265853 0.389752
Si Si3 0.563963 0.871542 0.932382
Si Si4 0.288628 0.167511 0.357734
Si Si5 0.260274 0.843972 0.639169
Si Si6 0.198239 0.926258 0.363814
Si Si7 0.411494 0.619554 0.442344
Si Si8 0.796360 0.602907 0.639883
O O1 0.043014 0.377182 0.644800
O O2 0.121886 0.557135 0.592376
O O3 0.000000 0.500000 0.500000
O O4 0.000068 0.630540 0.644834
O O5 0.047436 0.250000 0.500000
O O6 0.131052 0.324527 0.374326
O O7 0.629281 0.851010 0.866653
O O8 0.486288 0.881549 0.889606
O O9 0.562463 0.750000 0.000000
O O10 0.581443 0.998613 0.990245
O O11 0.270275 0.172645 0.250000
O O12 0.262904 0.301856 0.397999
O O13 0.245679 0.046170 0.392887
O O14 0.256189 0.836455 0.750000
O O15 0.235464 0.704968 0.607370
O O16 0.339621 0.880524 0.613494
O O17 0.211363 0.959481 0.604379
O O18 0.191073 0.926849 0.250000
O O19 0.409246 0.750000 0.500000
O O20 0.787132 0.589524 0.750000
#
# Coordination Sequence:
#
# PCOD9437842 Si02
#       8
#     8   8   8   8   8   8   8   8
#     4  10  22  41  58  85 120 151 191 246 294 358
#     4  10  22  39  58  83 116 149 187 237 291 346
#     4  10  21  37  59  87 124 159 200 247 299 356
#     4  10  20  37  61  88 116 156 204 245 296 356
#     4  10  22  39  60  89 120 156 203 250 298 357
#     4  10  21  40  62  84 118 157 199 249 301 359
#     4  10  21  39  57  87 124 160 199 246 300 357
#     4  10  21  38  58  83 115 147 190 242 287 345
#
# _framework density 21.967143
#
# number of rings (size 3 to 8) (size 9 to 14) (size 15 to 20)
#    0.000    2.000    1.250    1.500    1.750    2.500 
#    4.500    0.000    0.000    9.000    0.000    0.000 
#    0.000    0.000    0.000    0.000    0.000    0.000 
#
# Total GULP energy -357350.760911 kJ/mol
# GULP energy per Si atom -5583.605639 kJ/mol
# Density = 2.191715 g / cm^3
# Si number density = 21.967143 Si / 1000 Ang^3
#
#
#
# Elastic Constant Matrix: (Units=GPa)
#
#
# Indices 1 2 3 4 5 6 
#
# 1 129.8166 55.0142 -1.7742 0.0000 0.0000 0.0000
# 2 55.0142 189.9871 7.4406 0.0000 0.0000 0.0000
# 3 -1.7742 7.4406 49.3961 0.0000 0.0000 0.0000
# 4 0.0000 0.0000 0.0000 9.1623 0.0000 0.0000
# 5 0.0000 0.0000 0.0000 0.0000 54.9104 0.0000
# 6 0.0000 0.0000 0.0000 0.0000 0.0000 42.7724
#
#
#
# Elastic Compliance Matrix: (Units=1/GPa)
#
#
# Indices 1 2 3 4 5 6 
#
# 1 0.008805 -0.002577 0.000704 0.000000 0.000000 0.000000
# 2 -0.002577 0.006049 -0.001004 0.000000 0.000000 0.000000
# 3 0.000704 -0.001004 0.020421 0.000000 0.000000 0.000000
# 4 0.000000 0.000000 0.000000 0.109143 0.000000 0.000000
# 5 0.000000 0.000000 0.000000 0.000000 0.018211 0.000000
# 6 0.000000 0.000000 0.000000 0.000000 0.000000 0.023380
#
#
# Mechanical properties :
#
#
# Convention : Reuss Voigt Hill
#
# Bulk Modulus (GPa) = 33.87295 54.50678 44.18986
# Shear Modulus (GPa) = 24.80119 41.93696 33.36908
#
# Velocity S-wave (km/s) = 3.36372 4.37404 3.90172
# Velocity P-wave (km/s) = 5.52625 7.09763 6.36065
#
# Compressibility (1/GPa) = 0.02952208
#
# Stress axis : x y z
#
# Youngs Moduli (GPa) = 113.57190 165.31359 48.96914
#
# Poissons Ratio (x) = 0.42605 -0.03450
# Poissons Ratio (y) = 0.29270 0.04915
# Poissons Ratio (z) = -0.08001 0.16593
#
# Static dielectric constant tensor:
#      x y z
#    x 1.722110 0.000000 0.000000 
#    y 0.000000 1.835810 0.000000 
#    z 0.000000 0.000000 1.815910 
# 
# From -- ./inp_files/22660.got.cif
#   From: 2010.05.17/outbox.cif.g08.bks.cpg/sg57_12_cif.got.tgz:22660.got - 2010.06.03 13:58:18.
