data_PCOD9437283
_publ_section_title
;
Structure prediction by ZEFSAII (Michael W. Deem and Ramdas Pophale) SiO2 
 PCOD9437283
Probable space group: P B C M
;
_chemical_formula_sum "Si O2"
_cell_formula_units_Z 40
_cell_length_a 26.753185
_cell_length_b 9.215385
_cell_length_c 8.701836
_cell_angle_alpha 90.000000
_cell_angle_beta 90.000000
_cell_angle_gamma 90.000000
_cell_volume 2145.358477
_symmetry_space_group_name_H-M "P B C M"
_symmetry_group_IT_number 57
_symmetry_cell_setting 'orthorhombic'
loop_
_space_group_symop_operation_xyz
x,y,z
-x,-y,1/2+z
x,1/2-y,-z
-x,1/2+y,1/2-z
-x,-y,-z
x,y,1/2-z
-x,1/2+y,z
x,1/2-y,1/2+z
loop_
_atom_site_type_symbol
_atom_site_label
_atom_site_fract_x
_atom_site_fract_y
_atom_site_fract_z
Si Si1 0.046853 0.913485 0.066223
Si Si2 0.739600 0.086609 0.434129
Si Si3 0.353317 0.088849 0.065863
Si Si4 0.453081 0.588023 0.934486
Si Si5 0.850647 0.413650 0.934107
O O1 0.045783 0.909526 0.250000
O O2 0.044483 0.750000 0.000000
O O3 0.099792 0.979975 0.009298
O O4 0.000000 0.000000 0.000000
O O5 0.735383 0.250000 0.500000
O O6 0.735250 0.094374 0.250000
O O7 0.795423 0.026651 0.470152
O O8 0.696133 0.988313 0.502172
O O9 0.350815 0.095032 0.250000
O O10 0.401907 0.994324 0.022544
O O11 0.358058 0.250000 0.000000
O O12 0.456320 0.592993 0.750000
O O13 0.452879 0.750000 0.000000
O O14 0.500000 0.500000 0.000000
O O15 0.856760 0.409444 0.750000
O O16 0.848857 0.250000 0.000000
#
# Coordination Sequence:
#
# PCOD9437283 Si02
#       5
#     8   8   8   8   8
#     4  11  21  35  55  80 110 145 184 229 279 333
#     4  10  20  35  58  85 113 145 185 231 278 330
#     4  11  24  40  59  84 116 152 190 232 281 334
#     4  11  24  41  63  90 119 153 191 235 282 333
#     4   9  17  31  52  79 108 141 182 227 275 330
#
# _framework density 18.644901000000001
#
# number of rings (size 3 to 8) (size 9 to 14) (size 15 to 20)
#    0.000    1.600    0.000    6.600    0.000    8.800 
#    0.000    1.000    0.000    4.800    0.000    0.000 
#    0.000    0.000    0.000    0.000    0.000    0.000 
#
# Total GULP energy -223430.892440 kJ/mol
# GULP energy per Si atom -5585.772311 kJ/mol
# Density = 1.860246 g / cm^3
# Si number density = 18.644901 Si / 1000 Ang^3
#
#
#
# Elastic Constant Matrix: (Units=GPa)
#
#
# Indices 1 2 3 4 5 6 
#
# 1 224.4340 93.2196 88.9555 0.0000 0.0000 0.0000
# 2 93.2196 111.8668 47.6923 0.0000 0.0000 0.0000
# 3 88.9555 47.6923 108.0315 0.0000 0.0000 0.0000
# 4 0.0000 0.0000 0.0000 32.2229 0.0000 0.0000
# 5 0.0000 0.0000 0.0000 0.0000 34.7031 0.0000
# 6 0.0000 0.0000 0.0000 0.0000 0.0000 35.9452
#
#
#
# Elastic Compliance Matrix: (Units=1/GPa)
#
#
# Indices 1 2 3 4 5 6 
#
# 1 0.008394 -0.004986 -0.004710 0.000000 0.000000 0.000000
# 2 -0.004986 0.013974 -0.002063 0.000000 0.000000 0.000000
# 3 -0.004710 -0.002063 0.014046 0.000000 0.000000 0.000000
# 4 0.000000 0.000000 0.000000 0.031034 0.000000 0.000000
# 5 0.000000 0.000000 0.000000 0.000000 0.028816 0.000000
# 6 0.000000 0.000000 0.000000 0.000000 0.000000 0.027820
#
#
# Mechanical properties :
#
#
# Convention : Reuss Voigt Hill
#
# Bulk Modulus (GPa) = 77.55530 100.45192 89.00361
# Shear Modulus (GPa) = 32.91618 34.87189 33.89404
#
# Velocity S-wave (km/s) = 4.20625 4.32941 4.26828
# Velocity P-wave (km/s) = 8.07938 8.88735 8.49298
#
# Compressibility (1/GPa) = 0.01289402
#
# Stress axis : x y z
#
# Youngs Moduli (GPa) = 119.13685 71.56140 71.19535
#
# Poissons Ratio (x) = 0.35684 0.33535
# Poissons Ratio (y) = 0.59407 0.14688
# Poissons Ratio (z) = 0.56116 0.14764
#
# Static dielectric constant tensor:
#      x y z
#    x 1.673310 0.000000 0.000000 
#    y 0.000000 1.608750 0.000000 
#    z 0.000000 0.000000 1.621790 
# 
# From -- ./inp_files/8881.got.cif
#   From: 2010.05.17/outbox.cif.g08.bks.cpg/sg57_5_cif.got.tgz:8881.got - 2010.06.03 13:58:18.
