data_PCOD9437266
_publ_section_title
;
Structure prediction by ZEFSAII (Michael W. Deem and Ramdas Pophale) SiO2 
 PCOD9437266
Probable space group: P B C M
;
_chemical_formula_sum "Si O2"
_cell_formula_units_Z 56
_cell_length_a 21.707236
_cell_length_b 15.781441
_cell_length_c 8.669238
_cell_angle_alpha 90.000000
_cell_angle_beta 90.000000
_cell_angle_gamma 90.000000
_cell_volume 2969.833555
_symmetry_space_group_name_H-M "P B C M"
_symmetry_group_IT_number 57
_symmetry_cell_setting 'orthorhombic'
loop_
_space_group_symop_operation_xyz
x,y,z
-x,-y,1/2+z
x,1/2-y,-z
-x,1/2+y,1/2-z
-x,-y,-z
x,y,1/2-z
-x,1/2+y,z
x,1/2-y,1/2+z
loop_
_atom_site_type_symbol
_atom_site_label
_atom_site_fract_x
_atom_site_fract_y
_atom_site_fract_z
Si Si1 0.426552 0.157958 0.934779
Si Si2 0.870094 0.660114 0.566227
Si Si3 0.873154 0.160749 0.565073
Si Si4 0.207040 0.495688 0.564038
Si Si5 0.001264 0.095582 0.434742
Si Si6 0.569175 0.341704 0.435844
Si Si7 0.350195 0.001617 0.436365
O O1 0.423954 0.159854 0.750000
O O2 0.497969 0.142117 0.981798
O O3 0.409034 0.250000 0.000000
O O4 0.383569 0.084193 0.998125
O O5 0.848264 0.750000 0.500000
O O6 0.874065 0.663854 0.750000
O O7 0.826132 0.583698 0.514271
O O8 0.937502 0.640473 0.496975
O O9 0.849969 0.250000 0.500000
O O10 0.878317 0.164939 0.750000
O O11 0.940082 0.141993 0.493606
O O12 0.829128 0.081962 0.524865
O O13 0.202946 0.485228 0.750000
O O14 0.278542 0.501367 0.520125
O O15 0.002509 0.093307 0.250000
O O16 0.000000 0.000000 0.500000
O O17 0.587363 0.250000 0.500000
O O18 0.570989 0.338166 0.250000
O O19 0.613015 0.417771 0.487952
O O20 0.353334 0.004535 0.250000
#
# Coordination Sequence:
#
# PCOD9437266 Si02
#       7
#     8   8   8   8   8   8   8
#     4  10  20  35  57  86 117 152 192 241 293 348
#     4  12  25  42  65  90 119 155 197 245 297 353
#     4  11  23  40  62  88 120 156 197 244 294 350
#     4  10  23  42  61  83 117 158 199 243 292 348
#     4  12  23  39  64  93 123 154 193 242 298 352
#     4   9  19  35  57  86 119 152 192 239 292 346
#     4  10  21  38  59  84 116 155 196 242 293 346
#
# _framework density 18.856276999999999
#
# number of rings (size 3 to 8) (size 9 to 14) (size 15 to 20)
#    0.000    1.429    1.429    4.286    0.000    3.429 
#    0.000    0.000    0.000    0.000    0.000    0.000 
#    0.000    0.000    0.000    0.000    0.000    0.000 
#
# Total GULP energy -313132.900771 kJ/mol
# GULP energy per Si atom -5591.658942 kJ/mol
# Density = 1.881336 g / cm^3
# Si number density = 18.856277 Si / 1000 Ang^3
#
#
#
# Elastic Constant Matrix: (Units=GPa)
#
#
# Indices 1 2 3 4 5 6 
#
# 1 134.1601 99.7217 51.7086 0.0000 0.0000 0.0000
# 2 99.7217 184.2555 63.6159 0.0000 0.0000 0.0000
# 3 51.7086 63.6159 73.0594 0.0000 0.0000 0.0000
# 4 0.0000 0.0000 0.0000 36.3616 0.0000 0.0000
# 5 0.0000 0.0000 0.0000 0.0000 20.0443 0.0000
# 6 0.0000 0.0000 0.0000 0.0000 0.0000 -11.2513
#
#
#
# Elastic Compliance Matrix: (Units=1/GPa)
#
#
# Indices 1 2 3 4 5 6 
#
# 1 0.013451 -0.005709 -0.004549 0.000000 0.000000 0.000000
# 2 -0.005709 0.010184 -0.004826 0.000000 0.000000 0.000000
# 3 -0.004549 -0.004826 0.021109 0.000000 0.000000 0.000000
# 4 0.000000 0.000000 0.000000 0.027502 0.000000 0.000000
# 5 0.000000 0.000000 0.000000 0.000000 0.049889 0.000000
# 6 0.000000 0.000000 0.000000 0.000000 0.000000 -0.088879
#
#
# Mechanical properties :
#
#
# Convention : Reuss Voigt Hill
#
# Bulk Modulus (GPa) = 68.61043 91.28525 79.94784
# Shear Modulus (GPa) = 73.22518 20.79285 47.00902
#
# Velocity S-wave (km/s) = 6.23840 3.32430 4.99843
# Velocity P-wave (km/s) = 9.39974 7.95304 8.70649
#
# Compressibility (1/GPa) = 0.01457504
#
# Stress axis : x y z
#
# Youngs Moduli (GPa) = 74.34619 98.19765 47.37227
#
# Poissons Ratio (x) = 0.56063 0.21547
# Poissons Ratio (y) = 0.42446 0.22864
# Poissons Ratio (z) = 0.33817 0.47395
#
# Static dielectric constant tensor:
#      x y z
#    x 1.634140 0.000000 0.000000 
#    y 0.000000 1.637200 0.000000 
#    z 0.000000 0.000000 1.623780 
# 
# From -- ./inp_files/8016.got.cif
#   From: 2010.05.17/outbox.cif.g08.bks.cpg/sg57_5_cif.got.tgz:8016.got - 2010.06.03 13:58:18.
