data_PCOD9437768
_publ_section_title
;
Structure prediction by ZEFSAII (Michael W. Deem and Ramdas Pophale) SiO2 
 PCOD9437768
Probable space group: P B C M
;
_chemical_formula_sum "Si O2"
_cell_formula_units_Z 56
_cell_length_a 6.766047
_cell_length_b 20.626850
_cell_length_c 21.002875
_cell_angle_alpha 90.000000
_cell_angle_beta 90.000000
_cell_angle_gamma 90.000000
_cell_volume 2931.208209
_symmetry_space_group_name_H-M "P B C M"
_symmetry_group_IT_number 57
_symmetry_cell_setting 'orthorhombic'
loop_
_space_group_symop_operation_xyz
x,y,z
-x,-y,1/2+z
x,1/2-y,-z
-x,1/2+y,1/2-z
-x,-y,-z
x,y,1/2-z
-x,1/2+y,z
x,1/2-y,1/2+z
loop_
_atom_site_type_symbol
_atom_site_label
_atom_site_fract_x
_atom_site_fract_y
_atom_site_fract_z
Si Si1 0.776493 0.975691 0.431599
Si Si2 0.029195 0.647116 0.530670
Si Si3 0.038689 0.457121 0.676366
Si Si4 0.247473 0.834963 0.680188
Si Si5 0.417242 0.914738 0.480016
Si Si6 0.368599 0.122341 0.391905
Si Si7 0.953880 0.775810 0.903090
O O1 0.556805 0.944609 0.425480
O O2 0.914620 0.919824 0.460603
O O3 0.895300 0.000454 0.369538
O O4 0.719509 0.032698 0.481856
O O5 0.260009 0.636490 0.545664
O O6 0.928330 0.703599 0.571731
O O7 0.022557 0.675506 0.459560
O O8 0.072273 0.480472 0.750000
O O9 0.920570 0.389902 0.682995
O O10 0.237156 0.436152 0.637670
O O11 0.314333 0.816421 0.750000
O O12 0.427089 0.867596 0.643905
O O13 0.134604 0.777027 0.645710
O O14 0.565894 0.888514 0.534860
O O15 0.245471 0.188659 0.381946
#
# Coordination Sequence:
#
# PCOD9437768 Si02
#       7
#     8   8   8   8   8   8   8
#     4  11  23  36  59  88 120 156 190 241 299 353
#     4  11  22  38  56  84 121 156 189 240 302 352
#     4  10  22  37  57  86 120 154 195 244 291 350
#     4  10  20  37  59  84 113 151 198 244 289 342
#     4  11  22  34  60  90 118 150 192 246 298 356
#     4  11  19  37  60  90 116 151 195 245 299 338
#     4  10  22  38  56  84 119 151 193 247 290 351
#
# _framework density 19.104749999999999
#
# number of rings (size 3 to 8) (size 9 to 14) (size 15 to 20)
#    0.000    1.429    4.286    1.714    4.000    1.714 
#    0.000    0.714    0.000    2.571    0.000    0.000 
#    0.000    0.000    0.000    0.000    0.000    0.000 
#
# Total GULP energy -311963.502249 kJ/mol
# GULP energy per Si atom -5570.776826 kJ/mol
# Density = 1.906127 g / cm^3
# Si number density = 19.104750 Si / 1000 Ang^3
#
#
#
# Elastic Constant Matrix: (Units=GPa)
#
#
# Indices 1 2 3 4 5 6 
#
# 1 95.0804 21.9993 23.7016 0.0000 0.0000 0.0000
# 2 21.9993 17.9369 11.0248 0.0000 0.0000 0.0000
# 3 23.7016 11.0248 52.8969 0.0000 0.0000 0.0000
# 4 0.0000 0.0000 0.0000 15.9887 0.0000 0.0000
# 5 0.0000 0.0000 0.0000 0.0000 4.1541 0.0000
# 6 0.0000 0.0000 0.0000 0.0000 0.0000 22.4721
#
#
#
# Elastic Compliance Matrix: (Units=1/GPa)
#
#
# Indices 1 2 3 4 5 6 
#
# 1 0.015186 -0.016565 -0.003352 0.000000 0.000000 0.000000
# 2 -0.016565 0.082011 -0.009671 0.000000 0.000000 0.000000
# 3 -0.003352 -0.009671 0.022422 0.000000 0.000000 0.000000
# 4 0.000000 0.000000 0.000000 0.062544 0.000000 0.000000
# 5 0.000000 0.000000 0.000000 0.000000 0.240726 0.000000
# 6 0.000000 0.000000 0.000000 0.000000 0.000000 0.044500
#
#
# Mechanical properties :
#
#
# Convention : Reuss Voigt Hill
#
# Bulk Modulus (GPa) = 16.54405 31.04061 23.79233
# Shear Modulus (GPa) = 9.14560 15.80220 12.47390
#
# Velocity S-wave (km/s) = 2.19031 2.87911 2.55800
# Velocity P-wave (km/s) = 3.88266 5.22831 4.60491
#
# Compressibility (1/GPa) = 0.06044470
#
# Stress axis : x y z
#
# Youngs Moduli (GPa) = 65.85176 12.19345 44.59881
#
# Poissons Ratio (x) = 0.20198 0.14949
# Poissons Ratio (y) = 1.09082 0.43130
# Poissons Ratio (z) = 0.22072 0.11792
#
# Static dielectric constant tensor:
#      x y z
#    x 1.701200 0.000000 0.000000 
#    y 0.000000 1.698780 0.000000 
#    z 0.000000 0.000000 1.734420 
# 
# From -- ./inp_files/26313.got.cif
#   From: 2010.05.17/outbox.cif.g08.bks.cpg/sg57_14_cif.got.tgz:26313.got - 2010.06.03 13:58:18.
