data_PCOD9437888
_publ_section_title
;
Structure prediction by ZEFSAII (Michael W. Deem and Ramdas Pophale) SiO2 
 PCOD9437888
Probable space group: P B C M
;
_chemical_formula_sum "Si O2"
_cell_formula_units_Z 56
_cell_length_a 12.391744
_cell_length_b 16.586052
_cell_length_c 13.839902
_cell_angle_alpha 90.000000
_cell_angle_beta 90.000000
_cell_angle_gamma 90.000000
_cell_volume 2844.516585
_symmetry_space_group_name_H-M "P B C M"
_symmetry_group_IT_number 57
_symmetry_cell_setting 'orthorhombic'
loop_
_space_group_symop_operation_xyz
x,y,z
-x,-y,1/2+z
x,1/2-y,-z
-x,1/2+y,1/2-z
-x,-y,-z
x,y,1/2-z
-x,1/2+y,z
x,1/2-y,1/2+z
loop_
_atom_site_type_symbol
_atom_site_label
_atom_site_fract_x
_atom_site_fract_y
_atom_site_fract_z
Si Si1 0.765640 0.698592 0.632796
Si Si2 0.541489 0.882755 0.134180
Si Si3 0.276630 0.379441 0.633427
Si Si4 0.477914 0.928541 0.864857
Si Si5 0.074614 0.444051 0.134698
Si Si6 0.158008 0.531987 0.956098
Si Si7 0.661798 0.339319 0.483092
O O1 0.761221 0.702280 0.750000
O O2 0.655320 0.654128 0.602200
O O3 0.762902 0.791287 0.600267
O O4 0.866276 0.640745 0.611179
O O5 0.536520 0.877375 0.250000
O O6 0.440099 0.837169 0.089159
O O7 0.531623 0.977127 0.108105
O O8 0.267301 0.383469 0.750000
O O9 0.402808 0.395304 0.611372
O O10 0.206389 0.450412 0.588593
O O11 0.463733 0.922775 0.750000
O O12 0.388742 0.878038 0.920598
O O13 0.083522 0.458150 0.250000
O O14 0.951483 0.444653 0.099054
O O15 0.131990 0.511786 0.068276
O O16 0.246451 0.601136 0.946014
O O17 0.703673 0.250000 0.500000
#
# Coordination Sequence:
#
# PCOD9437888 Si02
#       7
#     8   8   8   8   8   8   8
#     4   9  19  36  61  93 122 156 203 255 308 359
#     4  10  20  37  63  92 127 166 204 254 312 365
#     4  10  20  37  62  94 126 158 205 254 302 366
#     4  10  21  38  61  89 127 168 207 252 306 369
#     4  10  23  45  66  88 120 157 207 262 314 368
#     4  11  24  42  65  90 118 167 208 253 314 370
#     4  12  25  39  59  91 132 164 207 249 306 381
#
# _framework density 19.687000000000001
#
# number of rings (size 3 to 8) (size 9 to 14) (size 15 to 20)
#    0.000    1.714    1.429    2.571    2.000    4.571 
#    5.143    0.000    0.000    0.000    0.000    0.000 
#    0.000    0.000    0.000    0.000    0.000    0.000 
#
# Total GULP energy -313162.070931 kJ/mol
# GULP energy per Si atom -5592.179838 kJ/mol
# Density = 1.964219 g / cm^3
# Si number density = 19.687000 Si / 1000 Ang^3
#
#
#
# Elastic Constant Matrix: (Units=GPa)
#
#
# Indices 1 2 3 4 5 6 
#
# 1 94.8986 36.5248 9.6750 0.0000 0.0000 0.0000
# 2 36.5248 109.6440 18.6712 0.0000 0.0000 0.0000
# 3 9.6750 18.6712 69.7643 0.0000 0.0000 0.0000
# 4 0.0000 0.0000 0.0000 24.3103 0.0000 0.0000
# 5 0.0000 0.0000 0.0000 0.0000 17.9840 0.0000
# 6 0.0000 0.0000 0.0000 0.0000 0.0000 2.4845
#
#
#
# Elastic Compliance Matrix: (Units=1/GPa)
#
#
# Indices 1 2 3 4 5 6 
#
# 1 0.012114 -0.003928 -0.000629 0.000000 0.000000 0.000000
# 2 -0.003928 0.010830 -0.002354 0.000000 0.000000 0.000000
# 3 -0.000629 -0.002354 0.015051 0.000000 0.000000 0.000000
# 4 0.000000 0.000000 0.000000 0.041135 0.000000 0.000000
# 5 0.000000 0.000000 0.000000 0.000000 0.055605 0.000000
# 6 0.000000 0.000000 0.000000 0.000000 0.000000 0.402488
#
#
# Mechanical properties :
#
#
# Convention : Reuss Voigt Hill
#
# Bulk Modulus (GPa) = 41.36765 44.89432 43.13099
# Shear Modulus (GPa) = 8.94293 22.91817 15.93055
#
# Velocity S-wave (km/s) = 2.13364 3.41563 2.84771
# Velocity P-wave (km/s) = 5.20847 6.19749 5.72438
#
# Compressibility (1/GPa) = 0.02417348
#
# Stress axis : x y z
#
# Youngs Moduli (GPa) = 82.55205 92.33771 66.44053
#
# Poissons Ratio (x) = 0.36273 0.04176
# Poissons Ratio (y) = 0.32429 0.15638
# Poissons Ratio (z) = 0.05189 0.21733
#
# Static dielectric constant tensor:
#      x y z
#    x 1.647880 0.000000 0.000000 
#    y 0.000000 1.595650 0.000000 
#    z 0.000000 0.000000 1.740310 
# 
# From -- ./inp_files/17708.got.cif
#   From: 2010.05.17/outbox.cif.g08.bks.cpg/sg57_9_cif.got.tgz:17708.got - 2010.06.03 13:58:18.
