data_PCOD9437247
_publ_section_title
;
Structure prediction by ZEFSAII (Michael W. Deem and Ramdas Pophale) SiO2 
 PCOD9437247
Probable space group: P B C M
;
_chemical_formula_sum "Si O2"
_cell_formula_units_Z 64
_cell_length_a 14.253025
_cell_length_b 9.051263
_cell_length_c 22.905314
_cell_angle_alpha 90.000000
_cell_angle_beta 90.000000
_cell_angle_gamma 90.000000
_cell_volume 2954.965950
_symmetry_space_group_name_H-M "P B C M"
_symmetry_group_IT_number 57
_symmetry_cell_setting 'orthorhombic'
loop_
_space_group_symop_operation_xyz
x,y,z
-x,-y,1/2+z
x,1/2-y,-z
-x,1/2+y,1/2-z
-x,-y,-z
x,y,1/2-z
-x,1/2+y,z
x,1/2-y,1/2+z
loop_
_atom_site_type_symbol
_atom_site_label
_atom_site_fract_x
_atom_site_fract_y
_atom_site_fract_z
Si Si1 0.591133 0.902864 0.380908
Si Si2 0.604842 0.944591 0.890665
Si Si3 0.711386 0.930593 0.006771
Si Si4 0.908145 0.595026 0.467080
Si Si5 0.771181 0.924296 0.313728
Si Si6 0.801044 0.591203 0.342075
Si Si7 0.942184 0.343875 0.185577
Si Si8 0.925601 0.449473 0.884276
O O1 0.581565 0.728720 0.392274
O O2 0.649606 0.962522 0.436584
O O3 0.660157 0.926830 0.326387
O O4 0.488951 0.970557 0.375604
O O5 0.693470 0.956524 0.848087
O O6 0.650312 0.988697 0.952663
O O7 0.718195 0.750000 0.000000
O O8 0.820582 0.982467 0.001913
O O9 0.927023 0.750000 0.500000
O O10 0.852408 0.618013 0.404975
O O11 0.008620 0.531825 0.442287
O O12 0.792669 0.990525 0.250000
O O13 0.801860 0.752482 0.313947
O O14 0.820300 0.000560 0.369657
O O15 0.855509 0.456113 0.313973
O O16 0.958311 0.280765 0.250000
O O17 0.932464 0.219179 0.136502
O O18 0.024771 0.449344 0.164570
#
# Coordination Sequence:
#
# PCOD9437247 Si02
#       8
#     8   8   8   8   8   8   8   8
#     4  10  20  35  57  84 111 147 189 231 281 338
#     4   9  18  34  57  84 114 144 181 229 283 340
#     4   8  15  31  56  83 110 143 179 222 278 339
#     4   9  17  34  56  81 111 144 180 225 281 340
#     4  11  22  39  57  79 112 154 197 240 282 333
#     4   9  20  37  58  82 110 147 188 231 282 341
#     4  11  21  36  56  81 108 144 189 236 281 331
#     4  11  23  36  55  82 111 145 188 234 283 338
#
# _framework density 21.658456999999999
#
# number of rings (size 3 to 8) (size 9 to 14) (size 15 to 20)
#    0.000    2.250    0.000    5.625    0.000    1.000 
#    0.000   14.375    0.000    2.250    0.000    3.500 
#    0.000    0.000    0.000    0.000    0.000    0.000 
#
# Total GULP energy -356833.288434 kJ/mol
# GULP energy per Si atom -5575.520132 kJ/mol
# Density = 2.160916 g / cm^3
# Si number density = 21.658457 Si / 1000 Ang^3
#
#
#
# Elastic Constant Matrix: (Units=GPa)
#
#
# Indices 1 2 3 4 5 6 
#
# 1 153.8001 28.6274 -6.0323 0.0000 0.0000 0.0000
# 2 28.6274 28.4865 -14.3687 0.0000 0.0000 0.0000
# 3 -6.0323 -14.3687 52.3579 0.0000 0.0000 0.0000
# 4 0.0000 0.0000 0.0000 -67.3215 0.0000 0.0000
# 5 0.0000 0.0000 0.0000 0.0000 -2.8129 0.0000
# 6 0.0000 0.0000 0.0000 0.0000 0.0000 39.5397
#
#
#
# Elastic Compliance Matrix: (Units=1/GPa)
#
#
# Indices 1 2 3 4 5 6 
#
# 1 0.008100 -0.008901 -0.001510 0.000000 0.000000 0.000000
# 2 -0.008901 0.050526 0.012840 0.000000 0.000000 0.000000
# 3 -0.001510 0.012840 0.022449 0.000000 0.000000 0.000000
# 4 0.000000 0.000000 0.000000 -0.014854 0.000000 0.000000
# 5 0.000000 0.000000 0.000000 0.000000 -0.355508 0.000000
# 6 0.000000 0.000000 0.000000 0.000000 0.000000 0.025291
#
#
# Mechanical properties :
#
#
# Convention : Reuss Voigt Hill
#
# Bulk Modulus (GPa) = 11.63675 27.89973 19.76824
# Shear Modulus (GPa) = -20.81506 8.97560 -5.91973
#
# Velocity S-wave (km/s) = -3.10346 2.03793 -1.65504
# Velocity P-wave (km/s) = 2.73083 4.29502 2.34411
#
# Compressibility (1/GPa) = 0.08593463
#
# Stress axis : x y z
#
# Youngs Moduli (GPa) = 123.46406 19.79174 44.54500
#
# Poissons Ratio (x) = 0.17617 0.06724
# Poissons Ratio (y) = 1.09896 -0.57198
# Poissons Ratio (z) = 0.18638 -0.25413
#
# Static dielectric constant tensor:
#      x y z
#    x 1.834130 0.000000 0.000000 
#    y 0.000000 1.634940 0.000000 
#    z 0.000000 0.000000 1.840240 
# 
# From -- ./inp_files/27512.got.cif
#   From: 2010.05.17/outbox.cif.g08.bks.cpg/sg57_14_cif.got.tgz:27512.got - 2010.06.03 13:58:18.
