data_PCOD9437791
_publ_section_title
;
Structure prediction by ZEFSAII (Michael W. Deem and Ramdas Pophale) SiO2 
 PCOD9437791
Probable space group: P B C M
;
_chemical_formula_sum "Si O2"
_cell_formula_units_Z 48
_cell_length_a 9.590905
_cell_length_b 31.150869
_cell_length_c 8.723934
_cell_angle_alpha 90.000000
_cell_angle_beta 90.000000
_cell_angle_gamma 90.000000
_cell_volume 2606.406362
_symmetry_space_group_name_H-M "P B C M"
_symmetry_group_IT_number 57
_symmetry_cell_setting 'orthorhombic'
loop_
_space_group_symop_operation_xyz
x,y,z
-x,-y,1/2+z
x,1/2-y,-z
-x,1/2+y,1/2-z
-x,-y,-z
x,y,1/2-z
-x,1/2+y,z
x,1/2-y,1/2+z
loop_
_atom_site_type_symbol
_atom_site_label
_atom_site_fract_x
_atom_site_fract_y
_atom_site_fract_z
Si Si1 0.661640 0.048770 0.067208
Si Si2 0.653612 0.203429 0.432986
Si Si3 0.336316 0.044410 0.067192
Si Si4 0.165358 0.873041 0.066691
Si Si5 0.653264 0.796372 0.065994
Si Si6 0.159330 0.377945 0.065588
O O1 0.677699 0.052607 0.250000
O O2 0.497733 0.055411 0.029192
O O3 0.755128 0.084023 0.984595
O O4 0.697564 0.000701 0.013439
O O5 0.692699 0.250000 0.500000
O O6 0.647456 0.205497 0.250000
O O7 0.759165 0.167057 0.487712
O O8 0.499197 0.193476 0.497825
O O9 0.327574 0.038855 0.250000
O O10 0.236708 0.082232 0.012022
O O11 0.174814 0.868138 0.250000
O O12 0.002880 0.875613 0.023507
O O13 0.642309 0.793517 0.250000
O O14 0.760583 0.833972 0.025658
O O15 0.695255 0.750000 0.000000
O O16 0.168512 0.383098 0.250000
#
# Coordination Sequence:
#
# PCOD9437791 Si02
#       6
#     8   8   8   8   8   8
#     4  10  21  38  60  86 113 145 187 232 279 332
#     4  11  22  38  60  86 113 146 188 232 279 330
#     4  10  21  37  60  86 111 144 187 234 281 330
#     4  11  23  39  57  82 116 152 188 228 278 333
#     4  10  20  37  60  85 112 145 186 232 279 327
#     4  10  23  39  56  81 115 152 187 227 278 335
#
# _framework density 18.416162
#
# number of rings (size 3 to 8) (size 9 to 14) (size 15 to 20)
#    0.000    1.667    0.000    5.500    0.000    8.667 
#    0.000    1.667    0.000    0.000    0.000    0.000 
#    0.000    0.000    0.000    0.000    0.000    0.000 
#
# Total GULP energy -268330.534413 kJ/mol
# GULP energy per Si atom -5590.219467 kJ/mol
# Density = 1.837425 g / cm^3
# Si number density = 18.416162 Si / 1000 Ang^3
#
#
#
# Elastic Constant Matrix: (Units=GPa)
#
#
# Indices 1 2 3 4 5 6 
#
# 1 112.7955 105.6859 57.8042 0.0000 0.0000 0.0000
# 2 105.6859 134.1653 59.4855 0.0000 0.0000 0.0000
# 3 57.8042 59.4855 79.5715 0.0000 0.0000 0.0000
# 4 0.0000 0.0000 0.0000 39.0803 0.0000 0.0000
# 5 0.0000 0.0000 0.0000 0.0000 25.9531 0.0000
# 6 0.0000 0.0000 0.0000 0.0000 0.0000 -27.9475
#
#
#
# Elastic Compliance Matrix: (Units=1/GPa)
#
#
# Indices 1 2 3 4 5 6 
#
# 1 0.036642 -0.025521 -0.007539 0.000000 0.000000 0.000000
# 2 -0.025521 0.028924 -0.003083 0.000000 0.000000 0.000000
# 3 -0.007539 -0.003083 0.020349 0.000000 0.000000 0.000000
# 4 0.000000 0.000000 0.000000 0.025588 0.000000 0.000000
# 5 0.000000 0.000000 0.000000 0.000000 0.038531 0.000000
# 6 0.000000 0.000000 0.000000 0.000000 0.000000 -0.035781
#
#
# Mechanical properties :
#
#
# Convention : Reuss Voigt Hill
#
# Bulk Modulus (GPa) = 73.37968 85.83150 79.60559
# Shear Modulus (GPa) = 26.16670 14.32097 20.24384
#
# Velocity S-wave (km/s) = 3.77351 2.79163 3.31908
# Velocity P-wave (km/s) = 7.67578 7.55637 7.61631
#
# Compressibility (1/GPa) = 0.01362775
#
# Stress axis : x y z
#
# Youngs Moduli (GPa) = 27.29145 34.57325 49.14181
#
# Poissons Ratio (x) = 0.88234 0.37050
# Poissons Ratio (y) = 0.69650 0.15152
# Poissons Ratio (z) = 0.20576 0.10660
#
# Static dielectric constant tensor:
#      x y z
#    x 1.610260 0.000000 0.000000 
#    y 0.000000 1.603870 0.000000 
#    z 0.000000 0.000000 1.617520 
# 
# From -- ./inp_files/1975.got.cif
#   From: 2010.05.17/outbox.cif.g08.bks.cpg/sg57_1_cif.got.tgz:1975.got - 2010.06.03 13:58:18.
