data_PCOD9437847
_publ_section_title
;
Structure prediction by ZEFSAII (Michael W. Deem and Ramdas Pophale) SiO2 
 PCOD9437847
Probable space group: P B C M
;
_chemical_formula_sum "Si O2"
_cell_formula_units_Z 48
_cell_length_a 11.972051
_cell_length_b 26.017991
_cell_length_c 8.712813
_cell_angle_alpha 90.000000
_cell_angle_beta 90.000000
_cell_angle_gamma 90.000000
_cell_volume 2713.942927
_symmetry_space_group_name_H-M "P B C M"
_symmetry_group_IT_number 57
_symmetry_cell_setting 'orthorhombic'
loop_
_space_group_symop_operation_xyz
x,y,z
-x,-y,1/2+z
x,1/2-y,-z
-x,1/2+y,1/2-z
-x,-y,-z
x,y,1/2-z
-x,1/2+y,z
x,1/2-y,1/2+z
loop_
_atom_site_type_symbol
_atom_site_label
_atom_site_fract_x
_atom_site_fract_y
_atom_site_fract_z
Si Si1 0.874584 0.694087 0.565572
Si Si2 0.735057 0.594968 0.565171
Si Si3 0.866734 0.193594 0.934475
Si Si4 0.124375 0.500164 0.566580
Si Si5 0.504798 0.557768 0.433607
Si Si6 0.257959 0.596631 0.433576
O O1 0.846034 0.750000 0.500000
O O2 0.871233 0.696978 0.750000
O O3 0.792185 0.648567 0.516781
O O4 0.003511 0.682050 0.522679
O O5 0.736271 0.592144 0.750000
O O6 0.808167 0.548328 0.498984
O O7 0.609986 0.587086 0.505071
O O8 0.858972 0.193704 0.750000
O O9 0.841247 0.250000 0.000000
O O10 0.786951 0.150552 0.004266
O O11 0.121537 0.498170 0.750000
O O12 0.186940 0.551456 0.511704
O O13 0.000000 0.500000 0.500000
O O14 0.500000 0.500000 0.500000
O O15 0.517999 0.554550 0.250000
O O16 0.387921 0.585849 0.467629
O O17 0.243222 0.593895 0.250000
#
# Coordination Sequence:
#
# PCOD9437847 Si02
#       6
#     8   8   8   8   8   8
#     4   9  20  37  59  86 116 151 189 236 290 347
#     4  11  22  38  59  86 119 153 196 243 291 352
#     4  10  20  37  61  88 119 155 195 241 297 356
#     4  12  24  37  57  85 118 153 191 239 298 355
#     4  11  23  39  60  84 115 157 200 243 294 351
#     4  11  23  39  59  85 117 153 198 246 292 352
#
# _framework density 17.686444000000002
#
# number of rings (size 3 to 8) (size 9 to 14) (size 15 to 20)
#    0.000    1.333    1.667    4.500    0.000    5.333 
#    0.000    0.833    0.000    2.000    0.000    0.000 
#    0.000    0.000    0.000    0.000    0.000    0.000 
#
# Total GULP energy -268331.081086 kJ/mol
# GULP energy per Si atom -5590.230856 kJ/mol
# Density = 1.764619 g / cm^3
# Si number density = 17.686444 Si / 1000 Ang^3
#
#
#
# Elastic Constant Matrix: (Units=GPa)
#
#
# Indices 1 2 3 4 5 6 
#
# 1 163.5077 108.2190 79.0611 0.0000 0.0000 0.0000
# 2 108.2190 161.9475 64.0558 0.0000 0.0000 0.0000
# 3 79.0611 64.0558 89.5496 0.0000 0.0000 0.0000
# 4 0.0000 0.0000 0.0000 34.0267 0.0000 0.0000
# 5 0.0000 0.0000 0.0000 0.0000 49.8295 0.0000
# 6 0.0000 0.0000 0.0000 0.0000 0.0000 -17.3450
#
#
#
# Elastic Compliance Matrix: (Units=1/GPa)
#
#
# Indices 1 2 3 4 5 6 
#
# 1 0.014140 -0.006291 -0.007984 0.000000 0.000000 0.000000
# 2 -0.006291 0.011410 -0.002608 0.000000 0.000000 0.000000
# 3 -0.007984 -0.002608 0.020081 0.000000 0.000000 0.000000
# 4 0.000000 0.000000 0.000000 0.029389 0.000000 0.000000
# 5 0.000000 0.000000 0.000000 0.000000 0.020068 0.000000
# 6 0.000000 0.000000 0.000000 0.000000 0.000000 -0.057654
#
#
# Mechanical properties :
#
#
# Convention : Reuss Voigt Hill
#
# Bulk Modulus (GPa) = 84.27298 101.96408 93.11853
# Shear Modulus (GPa) = 66.52854 24.21348 45.37101
#
# Velocity S-wave (km/s) = 6.13981 3.70407 5.07037
# Velocity P-wave (km/s) = 9.90024 8.72179 9.32964
#
# Compressibility (1/GPa) = 0.01186620
#
# Stress axis : x y z
#
# Youngs Moduli (GPa) = 70.72033 87.64142 49.79809
#
# Poissons Ratio (x) = 0.55136 0.39759
# Poissons Ratio (y) = 0.44490 0.12985
# Poissons Ratio (z) = 0.56463 0.22853
#
# Static dielectric constant tensor:
#      x y z
#    x 1.589860 0.000000 0.000000 
#    y 0.000000 1.574840 0.000000 
#    z 0.000000 0.000000 1.592750 
# 
# From -- ./inp_files/3141.got.cif
#   From: 2010.05.17/outbox.cif.g08.bks.cpg/sg57_2_cif.got.tgz:3141.got - 2010.06.03 13:58:18.
