data_PCOD9437691
_publ_section_title
;
Structure prediction by ZEFSAII (Michael W. Deem and Ramdas Pophale) SiO2 
 PCOD9437691
Probable space group: P B C M
;
_chemical_formula_sum "Si O2"
_cell_formula_units_Z 64
_cell_length_a 17.395126
_cell_length_b 14.129830
_cell_length_c 11.685833
_cell_angle_alpha 90.000000
_cell_angle_beta 90.000000
_cell_angle_gamma 90.000000
_cell_volume 2872.262917
_symmetry_space_group_name_H-M "P B C M"
_symmetry_group_IT_number 57
_symmetry_cell_setting 'orthorhombic'
loop_
_space_group_symop_operation_xyz
x,y,z
-x,-y,1/2+z
x,1/2-y,-z
-x,1/2+y,1/2-z
-x,-y,-z
x,y,1/2-z
-x,1/2+y,z
x,1/2-y,1/2+z
loop_
_atom_site_type_symbol
_atom_site_label
_atom_site_fract_x
_atom_site_fract_y
_atom_site_fract_z
Si Si1 0.785809 0.204235 0.127753
Si Si2 0.645211 0.990531 0.622711
Si Si3 0.827571 0.969199 0.873948
Si Si4 0.078445 0.580835 0.438151
Si Si5 0.375472 0.648485 0.437940
Si Si6 0.183697 0.247180 0.376318
Si Si7 0.967207 0.876507 0.373951
Si Si8 0.457552 0.304956 0.877337
O O1 0.780489 0.260062 0.250000
O O2 0.707044 0.142867 0.123870
O O3 0.789462 0.250000 0.000000
O O4 0.863854 0.144887 0.131596
O O5 0.631148 0.030300 0.750000
O O6 0.736009 0.972936 0.611325
O O7 0.601400 0.891722 0.614508
O O8 0.619435 0.064795 0.528902
O O9 0.847325 0.008893 0.750000
O O10 0.849697 0.858994 0.874203
O O11 0.867928 0.028981 0.969132
O O12 0.041648 0.491117 0.374422
O O13 0.017415 0.639447 0.512943
O O14 0.371411 0.750000 0.500000
O O15 0.455760 0.653888 0.372912
O O16 0.226735 0.250000 0.500000
O O17 0.222766 0.259333 0.250000
O O18 0.115090 0.323813 0.381427
O O19 0.000130 0.846970 0.250000
O O20 0.444571 0.257985 0.750000
O O21 0.451615 0.250000 0.000000
#
# Coordination Sequence:
#
# PCOD9437691 Si02
#       8
#     8   8   8   8   8   8   8   8
#     4  11  25  43  64  92 124 163 209 262 321 384
#     4  10  21  39  65  99 135 177 225 277 335 400
#     4  10  20  36  62  90 125 171 216 260 322 393
#     4  11  21  40  61  85 124 160 211 265 325 381
#     4  10  21  39  64  94 128 174 219 273 329 395
#     4  10  20  37  58  86 119 158 206 252 308 379
#     4  10  22  38  60  88 121 162 210 264 322 384
#     4  10  22  41  66  99 140 180 226 275 330 397
#
# _framework density 22.282083
#
# number of rings (size 3 to 8) (size 9 to 14) (size 15 to 20)
#    0.000    1.750    2.500    1.500    0.000    6.000 
#    0.000    3.125    0.000    0.000    0.000    0.000 
#    0.000    0.000    0.000    0.000    0.000    0.000 
#
# Total GULP energy -356810.294905 kJ/mol
# GULP energy per Si atom -5575.160858 kJ/mol
# Density = 2.223137 g / cm^3
# Si number density = 22.282083 Si / 1000 Ang^3
#
#
#
# Elastic Constant Matrix: (Units=GPa)
#
#
# Indices 1 2 3 4 5 6 
#
# 1 51.9772 -5.7243 24.0317 0.0000 0.0000 0.0000
# 2 -5.7243 47.3667 36.0395 0.0000 0.0000 0.0000
# 3 24.0317 36.0395 208.9739 0.0000 0.0000 0.0000
# 4 0.0000 0.0000 0.0000 32.2525 0.0000 0.0000
# 5 0.0000 0.0000 0.0000 0.0000 84.3063 0.0000
# 6 0.0000 0.0000 0.0000 0.0000 0.0000 24.8088
#
#
#
# Elastic Compliance Matrix: (Units=1/GPa)
#
#
# Indices 1 2 3 4 5 6 
#
# 1 0.021346 0.005119 -0.003338 0.000000 0.000000 0.000000
# 2 0.005119 0.025528 -0.004991 0.000000 0.000000 0.000000
# 3 -0.003338 -0.004991 0.006030 0.000000 0.000000 0.000000
# 4 0.000000 0.000000 0.000000 0.031005 0.000000 0.000000
# 5 0.000000 0.000000 0.000000 0.000000 0.011862 0.000000
# 6 0.000000 0.000000 0.000000 0.000000 0.000000 0.040308
#
#
# Mechanical properties :
#
#
# Convention : Reuss Voigt Hill
#
# Bulk Modulus (GPa) = 21.51243 46.33463 33.92353
# Shear Modulus (GPa) = 31.64683 45.20492 38.42587
#
# Velocity S-wave (km/s) = 3.77275 4.50906 4.15724
# Velocity P-wave (km/s) = 5.35292 6.92449 6.18879
#
# Compressibility (1/GPa) = 0.04648475
#
# Stress axis : x y z
#
# Youngs Moduli (GPa) = 46.84690 39.17240 165.84029
#
# Poissons Ratio (x) = -0.20053 0.55351
# Poissons Ratio (y) = -0.23982 0.82775
# Poissons Ratio (z) = 0.15636 0.19552
#
# Static dielectric constant tensor:
#      x y z
#    x 1.831170 0.000000 0.000000 
#    y 0.000000 1.802680 0.000000 
#    z 0.000000 0.000000 1.939300 
# 
# From -- ./inp_files/14212.got.cif
#   From: 2010.05.17/outbox.cif.g08.bks.cpg/sg57_8_cif.got.tgz:14212.got - 2010.06.03 13:58:18.
