data_PCOD9437393
_publ_section_title
;
Structure prediction by ZEFSAII (Michael W. Deem and Ramdas Pophale) SiO2 
 PCOD9437393
Probable space group: P B C M
;
_chemical_formula_sum "Si O2"
_cell_formula_units_Z 48
_cell_length_a 31.881990
_cell_length_b 9.395638
_cell_length_c 8.641729
_cell_angle_alpha 90.000000
_cell_angle_beta 90.000000
_cell_angle_gamma 90.000000
_cell_volume 2588.644066
_symmetry_space_group_name_H-M "P B C M"
_symmetry_group_IT_number 57
_symmetry_cell_setting 'orthorhombic'
loop_
_space_group_symop_operation_xyz
x,y,z
-x,-y,1/2+z
x,1/2-y,-z
-x,1/2+y,1/2-z
-x,-y,-z
x,y,1/2-z
-x,1/2+y,z
x,1/2-y,1/2+z
loop_
_atom_site_type_symbol
_atom_site_label
_atom_site_fract_x
_atom_site_fract_y
_atom_site_fract_z
Si Si1 0.631115 0.091021 0.063628
Si Si2 0.800757 0.589401 0.064848
Si Si3 0.711172 0.590988 0.936528
Si Si4 0.877981 0.409685 0.564030
Si Si5 0.461747 0.590395 0.064489
Si Si6 0.039015 0.410322 0.435545
O O1 0.631925 0.096161 0.250000
O O2 0.584795 0.035019 0.018474
O O3 0.670842 0.999158 0.013118
O O4 0.634802 0.250000 0.000000
O O5 0.800536 0.595497 0.250000
O O6 0.807058 0.750000 0.000000
O O7 0.755467 0.537955 0.003491
O O8 0.837277 0.487218 0.004851
O O9 0.713531 0.592804 0.750000
O O10 0.706201 0.750000 0.000000
O O11 0.882307 0.250000 0.500000
O O12 0.874812 0.404663 0.750000
O O13 0.918508 0.505050 0.522756
O O14 0.463848 0.593158 0.250000
O O15 0.464768 0.750000 0.000000
O O16 0.500000 0.500000 0.000000
O O17 0.039322 0.250000 0.500000
O O18 0.036217 0.403924 0.250000
O O19 0.000000 0.500000 0.500000
#
# Coordination Sequence:
#
# PCOD9437393 Si02
#       6
#     8   8   8   8   8   8
#     4   9  20  36  55  78 107 141 180 223 272 329
#     4  11  22  38  60  85 114 150 189 234 283 335
#     4  10  20  36  56  81 111 144 184 230 276 331
#     4  11  24  41  61  88 119 154 194 238 284 337
#     4  10  20  36  55  79 108 142 182 226 275 329
#     4  11  24  41  64  91 122 157 196 239 287 339
#
# _framework density 18.542527
#
# number of rings (size 3 to 8) (size 9 to 14) (size 15 to 20)
#    0.000    1.667    0.000    5.500    0.000    8.667 
#    0.000    3.333    0.000    0.000    0.000    0.000 
#    0.000    0.000    0.000    0.000    0.000    0.000 
#
# Total GULP energy -268173.498038 kJ/mol
# GULP energy per Si atom -5586.947876 kJ/mol
# Density = 1.850032 g / cm^3
# Si number density = 18.542527 Si / 1000 Ang^3
#
#
#
# Elastic Constant Matrix: (Units=GPa)
#
#
# Indices 1 2 3 4 5 6 
#
# 1 225.8006 115.6331 71.9804 0.0000 0.0000 0.0000
# 2 115.6331 118.5219 46.3661 0.0000 0.0000 0.0000
# 3 71.9804 46.3661 78.6734 0.0000 0.0000 0.0000
# 4 0.0000 0.0000 0.0000 35.6209 0.0000 0.0000
# 5 0.0000 0.0000 0.0000 0.0000 27.7298 0.0000
# 6 0.0000 0.0000 0.0000 0.0000 0.0000 42.4021
#
#
#
# Elastic Compliance Matrix: (Units=1/GPa)
#
#
# Indices 1 2 3 4 5 6 
#
# 1 0.009884 -0.007935 -0.004367 0.000000 0.000000 0.000000
# 2 -0.007935 0.017336 -0.002957 0.000000 0.000000 0.000000
# 3 -0.004367 -0.002957 0.018449 0.000000 0.000000 0.000000
# 4 0.000000 0.000000 0.000000 0.028073 0.000000 0.000000
# 5 0.000000 0.000000 0.000000 0.000000 0.036062 0.000000
# 6 0.000000 0.000000 0.000000 0.000000 0.000000 0.023584
#
#
# Mechanical properties :
#
#
# Convention : Reuss Voigt Hill
#
# Bulk Modulus (GPa) = 66.00113 98.99501 82.49807
# Shear Modulus (GPa) = 29.59351 33.75163 31.67257
#
# Velocity S-wave (km/s) = 3.99931 4.27104 4.13741
# Velocity P-wave (km/s) = 7.54968 8.82193 8.21048
#
# Compressibility (1/GPa) = 0.01515125
#
# Stress axis : x y z
#
# Youngs Moduli (GPa) = 101.17018 57.68475 54.20427
#
# Poissons Ratio (x) = 0.45773 0.23671
# Poissons Ratio (y) = 0.80279 0.16027
# Poissons Ratio (z) = 0.44180 0.17056
#
# Static dielectric constant tensor:
#      x y z
#    x 1.649430 0.000000 0.000000 
#    y 0.000000 1.597370 0.000000 
#    z 0.000000 0.000000 1.625890 
# 
# From -- ./inp_files/9897.got.cif
#   From: 2010.05.17/outbox.cif.g08.bks.cpg/sg57_5_cif.got.tgz:9897.got - 2010.06.03 13:58:18.
