data_PCOD9437325
_publ_section_title
;
Structure prediction by ZEFSAII (Michael W. Deem and Ramdas Pophale) SiO2 
 PCOD9437325
Probable space group: P B C M
;
_chemical_formula_sum "Si O2"
_cell_formula_units_Z 56
_cell_length_a 21.542320
_cell_length_b 15.749711
_cell_length_c 8.759300
_cell_angle_alpha 90.000000
_cell_angle_beta 90.000000
_cell_angle_gamma 90.000000
_cell_volume 2971.901853
_symmetry_space_group_name_H-M "P B C M"
_symmetry_group_IT_number 57
_symmetry_cell_setting 'orthorhombic'
loop_
_space_group_symop_operation_xyz
x,y,z
-x,-y,1/2+z
x,1/2-y,-z
-x,1/2+y,1/2-z
-x,-y,-z
x,y,1/2-z
-x,1/2+y,z
x,1/2-y,1/2+z
loop_
_atom_site_type_symbol
_atom_site_label
_atom_site_fract_x
_atom_site_fract_y
_atom_site_fract_z
Si Si1 0.861254 0.341695 0.932370
Si Si2 0.999867 0.905010 0.567310
Si Si3 0.420715 0.841478 0.932685
Si Si4 0.564685 0.658703 0.066175
Si Si5 0.205475 0.494273 0.932991
Si Si6 0.649591 0.998469 0.933890
Si Si7 0.873311 0.660765 0.567865
O O1 0.852736 0.342226 0.750000
O O2 0.933723 0.362354 0.964179
O O3 0.845353 0.250000 0.000000
O O4 0.821630 0.416997 0.006657
O O5 0.991072 0.908593 0.750000
O O6 0.943119 0.855303 0.491734
O O7 0.000000 0.000000 0.500000
O O8 0.417766 0.838269 0.750000
O O9 0.492837 0.857442 0.978049
O O10 0.402855 0.750000 0.000000
O O11 0.378385 0.916564 0.994795
O O12 0.567010 0.663225 0.250000
O O13 0.608959 0.582443 0.015340
O O14 0.583063 0.750000 0.000000
O O15 0.198222 0.490066 0.750000
O O16 0.278162 0.487678 0.971431
O O17 0.167455 0.417593 0.008169
O O18 0.644458 0.004475 0.750000
O O19 0.850668 0.750000 0.500000
O O20 0.872866 0.663195 0.750000
#
# Coordination Sequence:
#
# PCOD9437325 Si02
#       7
#     8   8   8   8   8   8   8
#     4  11  24  41  63  90 119 155 197 244 297 354
#     4  11  22  38  64  94 124 155 193 244 301 355
#     4  10  20  35  59  88 118 154 192 239 292 347
#     4   9  19  36  58  87 120 151 191 239 292 348
#     4  11  24  42  62  85 118 159 201 248 298 352
#     4  10  22  39  59  85 118 155 196 243 293 348
#     4  12  25  42  64  90 121 158 201 248 299 356
#
# _framework density 18.843152
#
# number of rings (size 3 to 8) (size 9 to 14) (size 15 to 20)
#    0.000    1.429    1.429    3.857    0.000    6.286 
#    0.000    1.429    0.000    0.000    0.000    0.000 
#    0.000    0.000    0.000    0.000    0.000    0.000 
#
# Total GULP energy -313149.563170 kJ/mol
# GULP energy per Si atom -5591.956485 kJ/mol
# Density = 1.880026 g / cm^3
# Si number density = 18.843152 Si / 1000 Ang^3
#
#
#
# Elastic Constant Matrix: (Units=GPa)
#
#
# Indices 1 2 3 4 5 6 
#
# 1 56.1369 24.2512 30.3189 0.0000 0.0000 0.0000
# 2 24.2512 107.2949 27.6545 0.0000 0.0000 0.0000
# 3 30.3189 27.6545 51.9910 0.0000 0.0000 0.0000
# 4 0.0000 0.0000 0.0000 36.5095 0.0000 0.0000
# 5 0.0000 0.0000 0.0000 0.0000 22.4605 0.0000
# 6 0.0000 0.0000 0.0000 0.0000 0.0000 -11.4261
#
#
#
# Elastic Compliance Matrix: (Units=1/GPa)
#
#
# Indices 1 2 3 4 5 6 
#
# 1 0.026495 -0.002325 -0.014214 0.000000 0.000000 0.000000
# 2 -0.002325 0.011005 -0.004498 0.000000 0.000000 0.000000
# 3 -0.014214 -0.004498 0.029916 0.000000 0.000000 0.000000
# 4 0.000000 0.000000 0.000000 0.027390 0.000000 0.000000
# 5 0.000000 0.000000 0.000000 0.000000 0.044523 0.000000
# 6 0.000000 0.000000 0.000000 0.000000 0.000000 -0.087519
#
#
# Mechanical properties :
#
#
# Convention : Reuss Voigt Hill
#
# Bulk Modulus (GPa) = 39.46054 42.20801 40.83427
# Shear Modulus (GPa) = 48.86165 18.38865 33.62515
#
# Velocity S-wave (km/s) = 5.09775 3.12730 4.22889
# Velocity P-wave (km/s) = 7.45898 5.95720 6.74999
#
# Compressibility (1/GPa) = 0.02534177
#
# Stress axis : x y z
#
# Youngs Moduli (GPa) = 37.74335 90.86885 33.42743
#
# Poissons Ratio (x) = 0.21126 0.47514
# Poissons Ratio (y) = 0.08775 0.15035
# Poissons Ratio (z) = 0.53648 0.40871
#
# Static dielectric constant tensor:
#      x y z
#    x 1.639850 0.000000 0.000000 
#    y 0.000000 1.623520 0.000000 
#    z 0.000000 0.000000 1.631530 
# 
# From -- ./inp_files/8056.got.cif
#   From: 2010.05.17/outbox.cif.g08.bks.cpg/sg57_5_cif.got.tgz:8056.got - 2010.06.03 13:58:18.
