data_PCOD9437389
_publ_section_title
;
Structure prediction by ZEFSAII (Michael W. Deem and Ramdas Pophale) SiO2 
 PCOD9437389
Probable space group: P B C M
;
_chemical_formula_sum "Si O2"
_cell_formula_units_Z 48
_cell_length_a 13.406496
_cell_length_b 23.838510
_cell_length_c 7.756645
_cell_angle_alpha 90.000000
_cell_angle_beta 90.000000
_cell_angle_gamma 90.000000
_cell_volume 2478.953071
_symmetry_space_group_name_H-M "P B C M"
_symmetry_group_IT_number 57
_symmetry_cell_setting 'orthorhombic'
loop_
_space_group_symop_operation_xyz
x,y,z
-x,-y,1/2+z
x,1/2-y,-z
-x,1/2+y,1/2-z
-x,-y,-z
x,y,1/2-z
-x,1/2+y,z
x,1/2-y,1/2+z
loop_
_atom_site_type_symbol
_atom_site_label
_atom_site_fract_x
_atom_site_fract_y
_atom_site_fract_z
Si Si1 0.384876 0.064103 0.041925
Si Si2 0.196428 0.621029 0.949204
Si Si3 0.194960 0.118364 0.445296
Si Si4 0.884287 0.001313 0.457011
Si Si5 0.003847 0.685096 0.547120
Si Si6 0.613537 0.064717 0.957911
O O1 0.374437 0.062569 0.250000
O O2 0.305412 0.110094 0.974123
O O3 0.366682 0.999609 0.978723
O O4 0.499156 0.077603 0.000373
O O5 0.209229 0.639157 0.750000
O O6 0.105587 0.657284 0.029326
O O7 0.307346 0.610910 0.024773
O O8 0.157272 0.557421 0.959059
O O9 0.208681 0.137654 0.250000
O O10 0.160163 0.054004 0.458196
O O11 0.100839 0.154025 0.510076
O O12 0.868811 0.001052 0.250000
O O13 0.000000 0.000000 0.500000
O O14 0.997178 0.750000 0.500000
O O15 0.016215 0.679603 0.750000
O O16 0.623495 0.063079 0.750000
#
# Coordination Sequence:
#
# PCOD9437389 Si02
#       6
#     8   8   8   8   8   8
#     4   9  18  31  49  77 113 148 178 217 264 316
#     4  10  20  36  55  78 109 145 182 223 271 324
#     4  11  21  36  56  79 112 146 183 227 272 322
#     4  12  22  31  49  79 112 145 179 217 271 331
#     4  11  24  40  59  80 106 141 184 230 281 331
#     4   9  17  31  50  76 112 147 180 219 262 316
#
# _framework density 19.363012999999999
#
# number of rings (size 3 to 8) (size 9 to 14) (size 15 to 20)
#    0.000    1.667    3.333    2.500    0.000    2.667 
#    0.000    0.000    0.000    1.000    0.000    4.667 
#    0.000    0.000    0.000    0.000    0.000    0.000 
#
# Total GULP energy -267362.191483 kJ/mol
# GULP energy per Si atom -5570.045656 kJ/mol
# Density = 1.931894 g / cm^3
# Si number density = 19.363013 Si / 1000 Ang^3
#
#
#
# Elastic Constant Matrix: (Units=GPa)
#
#
# Indices 1 2 3 4 5 6 
#
# 1 188.5279 61.8247 5.7662 0.0000 0.0000 0.0000
# 2 61.8247 85.5777 -6.7331 0.0000 0.0000 0.0000
# 3 5.7662 -6.7331 47.0814 0.0000 0.0000 0.0000
# 4 0.0000 0.0000 0.0000 9.8399 0.0000 0.0000
# 5 0.0000 0.0000 0.0000 0.0000 24.7341 0.0000
# 6 0.0000 0.0000 0.0000 0.0000 0.0000 15.1197
#
#
#
# Elastic Compliance Matrix: (Units=1/GPa)
#
#
# Indices 1 2 3 4 5 6 
#
# 1 0.007070 -0.005235 -0.001615 0.000000 0.000000 0.000000
# 2 -0.005235 0.015694 0.002886 0.000000 0.000000 0.000000
# 3 -0.001615 0.002886 0.021850 0.000000 0.000000 0.000000
# 4 0.000000 0.000000 0.000000 0.101627 0.000000 0.000000
# 5 0.000000 0.000000 0.000000 0.000000 0.040430 0.000000
# 6 0.000000 0.000000 0.000000 0.000000 0.000000 0.066139
#
#
# Mechanical properties :
#
#
# Convention : Reuss Voigt Hill
#
# Bulk Modulus (GPa) = 27.25770 49.21141 38.23455
# Shear Modulus (GPa) = 18.31721 27.29402 22.80561
#
# Velocity S-wave (km/s) = 3.07903 3.75853 3.43562
# Velocity P-wave (km/s) = 5.17188 6.65626 5.96046
#
# Compressibility (1/GPa) = 0.03668688
#
# Stress axis : x y z
#
# Youngs Moduli (GPa) = 141.43575 63.71767 45.76619
#
# Poissons Ratio (x) = 0.33356 0.07389
# Poissons Ratio (y) = 0.74041 -0.13206
# Poissons Ratio (z) = 0.22836 -0.18386
#
# Static dielectric constant tensor:
#      x y z
#    x 1.824240 0.000000 0.000000 
#    y 0.000000 1.736490 0.000000 
#    z 0.000000 0.000000 1.724630 
# 
# From -- ./inp_files/3187.got.cif
#   From: 2010.05.17/outbox.cif.g08.bks.cpg/sg57_2_cif.got.tgz:3187.got - 2010.06.03 13:58:18.
