data_PCOD9437089
_publ_section_title
;
Structure prediction by ZEFSAII (Michael W. Deem and Ramdas Pophale) SiO2 
 PCOD9437089
Probable space group: P B C M
;
_chemical_formula_sum "Si O2"
_cell_formula_units_Z 60
_cell_length_a 11.816853
_cell_length_b 25.916361
_cell_length_c 10.503786
_cell_angle_alpha 90.000000
_cell_angle_beta 90.000000
_cell_angle_gamma 90.000000
_cell_volume 3216.782658
_symmetry_space_group_name_H-M "P B C M"
_symmetry_group_IT_number 57
_symmetry_cell_setting 'orthorhombic'
loop_
_space_group_symop_operation_xyz
x,y,z
-x,-y,1/2+z
x,1/2-y,-z
-x,1/2+y,1/2-z
-x,-y,-z
x,y,1/2-z
-x,1/2+y,z
x,1/2-y,1/2+z
loop_
_atom_site_type_symbol
_atom_site_label
_atom_site_fract_x
_atom_site_fract_y
_atom_site_fract_z
Si Si1 0.770825 0.832048 0.104190
Si Si2 0.518133 0.710322 0.608784
Si Si3 0.951870 0.435084 0.888292
Si Si4 0.143846 0.681321 0.111048
Si Si5 0.785929 0.032589 0.899049
Si Si6 0.951868 0.750000 0.000000
Si Si7 0.694462 0.354600 0.396269
Si Si8 0.779322 0.579433 0.394899
O O1 0.790083 0.849902 0.250000
O O2 0.649836 0.803710 0.100512
O O3 0.870401 0.792275 0.065611
O O4 0.761345 0.877915 0.001923
O O5 0.488238 0.750000 0.500000
O O6 0.496898 0.731987 0.750000
O O7 0.436137 0.661284 0.594477
O O8 0.920607 0.458128 0.750000
O O9 0.908037 0.376218 0.889451
O O10 0.086270 0.431736 0.895881
O O11 0.891251 0.462211 0.005694
O O12 0.196734 0.690892 0.250000
O O13 0.232060 0.679382 0.994603
O O14 0.038785 0.719674 0.091116
O O15 0.820401 0.033095 0.750000
O O16 0.713659 0.084565 0.920951
O O17 0.726854 0.977236 0.920363
O O18 0.731873 0.344742 0.250000
O O19 0.749453 0.596333 0.250000
#
# Coordination Sequence:
#
# PCOD9437089 Si02
#       8
#     8   8   8   8   8   4   8   8
#     4  11  24  39  59  84 111 150 195 236 284 338
#     4  10  22  41  62  84 110 147 192 240 282 329
#     4   9  17  31  50  76 109 147 184 228 275 326
#     4  10  21  35  54  81 114 147 180 225 278 333
#     4   9  18  33  55  81 110 149 188 230 283 339
#     4  12  22  38  56  80 118 148 186 230 286 336
#     4   9  20  39  60  84 115 148 189 234 279 334
#     4  10  20  35  54  79 114 150 187 231 285 339
#
# _framework density 18.652176000000001
#
# number of rings (size 3 to 8) (size 9 to 14) (size 15 to 20)
#    0.000    2.133    2.000    0.800    0.933    3.733 
#    0.000    0.667    0.000    0.000    0.000    0.000 
#    0.000    0.000    0.000    0.000    0.000    0.000 
#
# Total GULP energy -334439.261368 kJ/mol
# GULP energy per Si atom -5573.987689 kJ/mol
# Density = 1.860972 g / cm^3
# Si number density = 18.652176 Si / 1000 Ang^3
#
#
#
# Elastic Constant Matrix: (Units=GPa)
#
#
# Indices 1 2 3 4 5 6 
#
# 1 27.0808 11.2718 13.4067 0.0000 0.0000 0.0000
# 2 11.2718 78.4127 67.3723 0.0000 0.0000 0.0000
# 3 13.4067 67.3723 117.0991 0.0000 0.0000 0.0000
# 4 0.0000 0.0000 0.0000 20.3036 0.0000 0.0000
# 5 0.0000 0.0000 0.0000 0.0000 18.0497 0.0000
# 6 0.0000 0.0000 0.0000 0.0000 0.0000 14.2492
#
#
#
# Elastic Compliance Matrix: (Units=1/GPa)
#
#
# Indices 1 2 3 4 5 6 
#
# 1 0.039641 -0.003557 -0.002492 0.000000 0.000000 0.000000
# 2 -0.003557 0.025540 -0.014287 0.000000 0.000000 0.000000
# 3 -0.002492 -0.014287 0.017045 0.000000 0.000000 0.000000
# 4 0.000000 0.000000 0.000000 0.049252 0.000000 0.000000
# 5 0.000000 0.000000 0.000000 0.000000 0.055403 0.000000
# 6 0.000000 0.000000 0.000000 0.000000 0.000000 0.070180
#
#
# Mechanical properties :
#
#
# Convention : Reuss Voigt Hill
#
# Bulk Modulus (GPa) = 24.06544 45.18825 34.62685
# Shear Modulus (GPa) = 16.04709 19.22327 17.63518
#
# Velocity S-wave (km/s) = 2.93633 3.21381 3.07819
# Velocity P-wave (km/s) = 4.94229 6.16853 5.58914
#
# Compressibility (1/GPa) = 0.04155336
#
# Stress axis : x y z
#
# Youngs Moduli (GPa) = 25.22654 39.15481 58.66863
#
# Poissons Ratio (x) = 0.13929 0.14619
# Poissons Ratio (y) = 0.08974 0.83819
# Poissons Ratio (z) = 0.06286 0.55940
#
# Static dielectric constant tensor:
#      x y z
#    x 1.610590 0.000000 0.000000 
#    y 0.000000 1.679920 0.000000 
#    z 0.000000 0.000000 1.677100 
# 
# From -- ./inp_files/3500.got.cif
#   From: 2010.05.17/outbox.cif.g08.bks.cpg/sg57_2_cif.got.tgz:3500.got - 2010.06.03 13:58:18.
