data_PCOD9437834
_publ_section_title
;
Structure prediction by ZEFSAII (Michael W. Deem and Ramdas Pophale) SiO2 
 PCOD9437834
Probable space group: P B C M
;
_chemical_formula_sum "Si O2"
_cell_formula_units_Z 48
_cell_length_a 9.243258
_cell_length_b 31.524835
_cell_length_c 8.803275
_cell_angle_alpha 90.000000
_cell_angle_beta 90.000000
_cell_angle_gamma 90.000000
_cell_volume 2565.205523
_symmetry_space_group_name_H-M "P B C M"
_symmetry_group_IT_number 57
_symmetry_cell_setting 'orthorhombic'
loop_
_space_group_symop_operation_xyz
x,y,z
-x,-y,1/2+z
x,1/2-y,-z
-x,1/2+y,1/2-z
-x,-y,-z
x,y,1/2-z
-x,1/2+y,z
x,1/2-y,1/2+z
loop_
_atom_site_type_symbol
_atom_site_label
_atom_site_fract_x
_atom_site_fract_y
_atom_site_fract_z
Si Si1 0.594527 0.877402 0.067031
Si Si2 0.590509 0.461130 0.067839
Si Si3 0.088598 0.539360 0.432407
Si Si4 0.912467 0.624380 0.068345
Si Si5 0.922902 0.204425 0.932155
Si Si6 0.585597 0.204825 0.932651
O O1 0.612967 0.876033 0.250000
O O2 0.493407 0.917547 0.031894
O O3 0.514023 0.834225 0.018559
O O4 0.749913 0.881515 0.990544
O O5 0.599553 0.465153 0.250000
O O6 0.500000 0.500000 0.000000
O O7 0.750253 0.460571 0.998482
O O8 0.093340 0.535850 0.250000
O O9 0.000000 0.500000 0.500000
O O10 0.007435 0.583137 0.472826
O O11 0.912916 0.628388 0.250000
O O12 0.981997 0.666272 0.995776
O O13 0.932593 0.205735 0.750000
O O14 0.753845 0.197412 0.975097
O O15 0.966180 0.250000 0.000000
O O16 0.580328 0.207241 0.750000
O O17 0.540149 0.250000 0.000000
#
# Coordination Sequence:
#
# PCOD9437834 Si02
#       6
#     8   8   8   8   8   8
#     4  10  22  39  58  82 115 154 192 233 287 348
#     4  11  23  40  63  89 118 153 194 240 293 352
#     4  11  24  41  62  88 119 155 197 245 296 352
#     4  11  24  39  57  85 118 153 195 241 289 343
#     4  10  20  37  61  86 115 151 192 239 291 348
#     4   9  19  36  58  84 111 144 187 232 281 337
#
# _framework density 18.711950999999999
#
# number of rings (size 3 to 8) (size 9 to 14) (size 15 to 20)
#    0.000    1.667    0.000    4.000    0.000   10.000 
#    0.000    1.667    0.000    0.000    0.000    0.000 
#    0.000    0.000    0.000    0.000    0.000    0.000 
#
# Total GULP energy -268366.194719 kJ/mol
# GULP energy per Si atom -5590.962390 kJ/mol
# Density = 1.866936 g / cm^3
# Si number density = 18.711951 Si / 1000 Ang^3
#
#
#
# Elastic Constant Matrix: (Units=GPa)
#
#
# Indices 1 2 3 4 5 6 
#
# 1 173.5594 123.0831 65.9559 0.0000 0.0000 0.0000
# 2 123.0831 188.7131 74.0088 0.0000 0.0000 0.0000
# 3 65.9559 74.0088 53.7787 0.0000 0.0000 0.0000
# 4 0.0000 0.0000 0.0000 32.7851 0.0000 0.0000
# 5 0.0000 0.0000 0.0000 0.0000 35.5956 0.0000
# 6 0.0000 0.0000 0.0000 0.0000 0.0000 40.9356
#
#
#
# Elastic Compliance Matrix: (Units=1/GPa)
#
#
# Indices 1 2 3 4 5 6 
#
# 1 0.012400 -0.004613 -0.008859 0.000000 0.000000 0.000000
# 2 -0.004613 0.013228 -0.012547 0.000000 0.000000 0.000000
# 3 -0.008859 -0.012547 0.046726 0.000000 0.000000 0.000000
# 4 0.000000 0.000000 0.000000 0.030502 0.000000 0.000000
# 5 0.000000 0.000000 0.000000 0.000000 0.028093 0.000000
# 6 0.000000 0.000000 0.000000 0.000000 0.000000 0.024429
#
#
# Mechanical properties :
#
#
# Convention : Reuss Voigt Hill
#
# Bulk Modulus (GPa) = 49.22105 104.68297 76.95201
# Shear Modulus (GPa) = 23.34388 32.06348 27.70368
#
# Velocity S-wave (km/s) = 3.53588 4.14397 3.85195
# Velocity P-wave (km/s) = 6.55985 8.88609 7.81006
#
# Compressibility (1/GPa) = 0.02031651
#
# Stress axis : x y z
#
# Youngs Moduli (GPa) = 80.64616 75.59459 21.40113
#
# Poissons Ratio (x) = 0.34873 0.18959
# Poissons Ratio (y) = 0.37203 0.26852
# Poissons Ratio (z) = 0.71445 0.94848
#
# Static dielectric constant tensor:
#      x y z
#    x 1.615040 0.000000 0.000000 
#    y 0.000000 1.619080 0.000000 
#    z 0.000000 0.000000 1.628550 
# 
# From -- ./inp_files/2023.got.cif
#   From: 2010.05.17/outbox.cif.g08.bks.cpg/sg57_2_cif.got.tgz:2023.got - 2010.06.03 13:58:18.
