data_PCOD9437798
_publ_section_title
;
Structure prediction by ZEFSAII (Michael W. Deem and Ramdas Pophale) SiO2 
 PCOD9437798
Probable space group: P B C M
;
_chemical_formula_sum "Si O2"
_cell_formula_units_Z 56
_cell_length_a 12.396187
_cell_length_b 14.639768
_cell_length_c 14.843525
_cell_angle_alpha 90.000000
_cell_angle_beta 90.000000
_cell_angle_gamma 90.000000
_cell_volume 2693.762866
_symmetry_space_group_name_H-M "P B C M"
_symmetry_group_IT_number 57
_symmetry_cell_setting 'orthorhombic'
loop_
_space_group_symop_operation_xyz
x,y,z
-x,-y,1/2+z
x,1/2-y,-z
-x,1/2+y,1/2-z
-x,-y,-z
x,y,1/2-z
-x,1/2+y,z
x,1/2-y,1/2+z
loop_
_atom_site_type_symbol
_atom_site_label
_atom_site_fract_x
_atom_site_fract_y
_atom_site_fract_z
Si Si1 0.635015 0.965832 0.539136
Si Si2 0.008897 0.714516 0.401422
Si Si3 0.728674 0.933858 0.146934
Si Si4 0.239292 0.651051 0.351493
Si Si5 0.553697 0.153602 0.463671
Si Si6 0.859093 0.548022 0.356328
Si Si7 0.967202 0.592363 0.649564
O O1 0.647628 0.924361 0.437035
O O2 0.541677 0.904304 0.583890
O O3 0.748007 0.957523 0.589838
O O4 0.601337 0.072671 0.528852
O O5 0.980521 0.750000 0.500000
O O6 0.126933 0.669913 0.400643
O O7 0.920219 0.644320 0.366094
O O8 0.014770 0.807303 0.345759
O O9 0.703228 0.900883 0.250000
O O10 0.845695 0.898270 0.114427
O O11 0.744646 0.042501 0.153194
O O12 0.232085 0.687408 0.250000
O O13 0.345068 0.684245 0.402770
O O14 0.510346 0.250000 0.500000
O O15 0.839412 0.529758 0.250000
O O16 0.945760 0.474234 0.394316
O O17 0.950158 0.552901 0.750000
#
# Coordination Sequence:
#
# PCOD9437798 Si02
#       7
#     8   8   8   8   8   8   8
#     4  10  23  41  64  88 121 162 214 261 311 385
#     4  12  24  35  60  94 128 168 206 255 317 388
#     4   9  18  36  61  87 123 165 200 248 310 376
#     4  10  20  37  60  85 119 160 204 255 319 376
#     4  10  23  43  61  86 119 157 210 270 317 365
#     4  11  24  42  63  93 133 167 205 261 318 379
#     4  10  21  36  57  90 128 162 203 248 303 380
#
# _framework density 20.788764
#
# number of rings (size 3 to 8) (size 9 to 14) (size 15 to 20)
#    0.000    1.714    1.429    2.571    6.000    3.429 
#    0.000    2.857    0.000    0.000    0.000    0.000 
#    0.000    0.000    0.000    0.000    0.000    0.000 
#
# Total GULP energy -312173.279528 kJ/mol
# GULP energy per Si atom -5574.522849 kJ/mol
# Density = 2.074145 g / cm^3
# Si number density = 20.788764 Si / 1000 Ang^3
#
#
#
# Elastic Constant Matrix: (Units=GPa)
#
#
# Indices 1 2 3 4 5 6 
#
# 1 93.2092 18.9856 16.7660 0.0000 0.0000 0.0000
# 2 18.9856 71.4402 9.8101 0.0000 0.0000 0.0000
# 3 16.7660 9.8101 64.6167 0.0000 0.0000 0.0000
# 4 0.0000 0.0000 0.0000 14.8823 0.0000 0.0000
# 5 0.0000 0.0000 0.0000 0.0000 -7.6083 0.0000
# 6 0.0000 0.0000 0.0000 0.0000 0.0000 15.1373
#
#
#
# Elastic Compliance Matrix: (Units=1/GPa)
#
#
# Indices 1 2 3 4 5 6 
#
# 1 0.011765 -0.002765 -0.002633 0.000000 0.000000 0.000000
# 2 -0.002765 0.014946 -0.001552 0.000000 0.000000 0.000000
# 3 -0.002633 -0.001552 0.016395 0.000000 0.000000 0.000000
# 4 0.000000 0.000000 0.000000 0.067194 0.000000 0.000000
# 5 0.000000 0.000000 0.000000 0.000000 -0.131436 0.000000
# 6 0.000000 0.000000 0.000000 0.000000 0.000000 0.066062
#
#
# Mechanical properties :
#
#
# Convention : Reuss Voigt Hill
#
# Bulk Modulus (GPa) = 34.23921 35.59882 34.91901
# Shear Modulus (GPa) = 72.92809 16.72922 44.82865
#
# Velocity S-wave (km/s) = 5.92931 2.83984 4.64873
# Velocity P-wave (km/s) = 7.96124 5.28339 6.75631
#
# Compressibility (1/GPa) = 0.02920629
#
# Stress axis : x y z
#
# Youngs Moduli (GPa) = 84.99511 66.90912 60.99576
#
# Poissons Ratio (x) = 0.18501 0.16060
# Poissons Ratio (y) = 0.23503 0.09464
# Poissons Ratio (z) = 0.22379 0.10381
#
# Static dielectric constant tensor:
#      x y z
#    x 1.801760 0.000000 0.000000 
#    y 0.000000 1.738030 0.000000 
#    z 0.000000 0.000000 1.837060 
# 
# From -- ./inp_files/17735.got.cif
#   From: 2010.05.17/outbox.cif.g08.bks.cpg/sg57_9_cif.got.tgz:17735.got - 2010.06.03 13:58:18.
