data_PCOD9437249
_publ_section_title
;
Structure prediction by ZEFSAII (Michael W. Deem and Ramdas Pophale) SiO2 
 PCOD9437249
Probable space group: P B C M
;
_chemical_formula_sum "Si O2"
_cell_formula_units_Z 64
_cell_length_a 20.737258
_cell_length_b 19.055398
_cell_length_c 8.965940
_cell_angle_alpha 90.000000
_cell_angle_beta 90.000000
_cell_angle_gamma 90.000000
_cell_volume 3542.951304
_symmetry_space_group_name_H-M "P B C M"
_symmetry_group_IT_number 57
_symmetry_cell_setting 'orthorhombic'
loop_
_space_group_symop_operation_xyz
x,y,z
-x,-y,1/2+z
x,1/2-y,-z
-x,1/2+y,1/2-z
-x,-y,-z
x,y,1/2-z
-x,1/2+y,z
x,1/2-y,1/2+z
loop_
_atom_site_type_symbol
_atom_site_label
_atom_site_fract_x
_atom_site_fract_y
_atom_site_fract_z
Si Si1 0.805486 0.033628 0.924898
Si Si2 0.495529 0.576055 0.070841
Si Si3 0.383260 0.676850 0.428604
Si Si4 0.232144 0.675842 0.071419
Si Si5 0.120543 0.325943 0.072654
Si Si6 0.057008 0.456638 0.924542
Si Si7 0.618733 0.672794 0.429383
Si Si8 0.742591 0.901726 0.428005
O O1 0.789095 0.039191 0.750000
O O2 0.876763 0.000809 0.937482
O O3 0.803015 0.109033 0.002258
O O4 0.757830 0.978506 0.005451
O O5 0.494198 0.569141 0.250000
O O6 0.430069 0.614903 0.022053
O O7 0.556268 0.625611 0.033409
O O8 0.500000 0.500000 0.000000
O O9 0.404530 0.750000 0.500000
O O10 0.388049 0.682843 0.250000
O O11 0.308254 0.665901 0.465409
O O12 0.225184 0.678161 0.250000
O O13 0.212052 0.750000 0.000000
O O14 0.111882 0.322036 0.250000
O O15 0.192978 0.355408 0.044166
O O16 0.113319 0.250000 0.000000
O O17 0.071760 0.382717 0.003611
O O18 0.043535 0.445628 0.750000
O O19 0.000000 0.500000 0.000000
O O20 0.613247 0.750000 0.500000
O O21 0.623427 0.678549 0.250000
O O22 0.681917 0.634483 0.494020
O O23 0.732819 0.906233 0.250000
#
# Coordination Sequence:
#
# PCOD9437249 Si02
#       8
#     8   8   8   8   8   8   8   8
#     4  10  21  37  58  85 117 149 184 230 279 330
#     4  10  23  39  54  77 107 141 184 230 279 334
#     4   9  19  36  56  78 103 136 180 227 276 333
#     4  10  20  35  57  84 112 145 186 234 285 337
#     4  10  20  35  57  85 116 150 190 232 278 331
#     4  10  21  38  60  85 116 153 190 230 275 327
#     4  11  23  38  56  81 111 146 186 230 282 338
#     4  10  21  36  57  84 114 150 187 230 281 335
#
# _framework density 18.064036999999999
#
# number of rings (size 3 to 8) (size 9 to 14) (size 15 to 20)
#    0.000    2.000    0.000    3.000    1.750    6.000 
#    0.000    0.625    0.000    3.000    0.000    0.000 
#    0.000    0.000    0.000    0.000    0.000    0.000 
#
# Total GULP energy -357489.358155 kJ/mol
# GULP energy per Si atom -5585.771221 kJ/mol
# Density = 1.802292 g / cm^3
# Si number density = 18.064037 Si / 1000 Ang^3
#
#
#
# Elastic Constant Matrix: (Units=GPa)
#
#
# Indices 1 2 3 4 5 6 
#
# 1 31.0890 30.6760 39.8461 0.0000 0.0000 0.0000
# 2 30.6760 153.9633 69.0388 0.0000 0.0000 0.0000
# 3 39.8461 69.0388 79.1044 0.0000 0.0000 0.0000
# 4 0.0000 0.0000 0.0000 41.5646 0.0000 0.0000
# 5 0.0000 0.0000 0.0000 0.0000 26.0606 0.0000
# 6 0.0000 0.0000 0.0000 0.0000 0.0000 28.6024
#
#
#
# Elastic Compliance Matrix: (Units=1/GPa)
#
#
# Indices 1 2 3 4 5 6 
#
# 1 0.092264 0.004037 -0.049998 0.000000 0.000000 0.000000
# 2 0.004037 0.010848 -0.011501 0.000000 0.000000 0.000000
# 3 -0.049998 -0.011501 0.047864 0.000000 0.000000 0.000000
# 4 0.000000 0.000000 0.000000 0.024059 0.000000 0.000000
# 5 0.000000 0.000000 0.000000 0.000000 0.038372 0.000000
# 6 0.000000 0.000000 0.000000 0.000000 0.000000 0.034962
#
#
# Mechanical properties :
#
#
# Convention : Reuss Voigt Hill
#
# Bulk Modulus (GPa) = 27.73819 60.36430 44.05124
# Shear Modulus (GPa) = 13.32235 27.55191 20.43713
#
# Velocity S-wave (km/s) = 2.71865 3.90966 3.36724
# Velocity P-wave (km/s) = 5.02430 7.33962 6.28942
#
# Compressibility (1/GPa) = 0.03605138
#
# Stress axis : x y z
#
# Youngs Moduli (GPa) = 10.83850 92.18362 20.89269
#
# Poissons Ratio (x) = -0.37212 1.04459
# Poissons Ratio (y) = -0.04375 0.24029
# Poissons Ratio (z) = 0.54190 1.06020
#
# Static dielectric constant tensor:
#      x y z
#    x 1.607820 0.000000 0.000000 
#    y 0.000000 1.633650 0.000000 
#    z 0.000000 0.000000 1.600630 
# 
# From -- ./inp_files/8381.got.cif
#   From: 2010.05.17/outbox.cif.g08.bks.cpg/sg57_5_cif.got.tgz:8381.got - 2010.06.03 13:58:18.
