data_PCOD9437239
_publ_section_title
;
Structure prediction by ZEFSAII (Michael W. Deem and Ramdas Pophale) SiO2 
 PCOD9437239
Probable space group: P B C M
;
_chemical_formula_sum "Si O2"
_cell_formula_units_Z 48
_cell_length_a 32.025793
_cell_length_b 9.569072
_cell_length_c 8.674742
_cell_angle_alpha 90.000000
_cell_angle_beta 90.000000
_cell_angle_gamma 90.000000
_cell_volume 2658.436442
_symmetry_space_group_name_H-M "P B C M"
_symmetry_group_IT_number 57
_symmetry_cell_setting 'orthorhombic'
loop_
_space_group_symop_operation_xyz
x,y,z
-x,-y,1/2+z
x,1/2-y,-z
-x,1/2+y,1/2-z
-x,-y,-z
x,y,1/2-z
-x,1/2+y,z
x,1/2-y,1/2+z
loop_
_atom_site_type_symbol
_atom_site_label
_atom_site_fract_x
_atom_site_fract_y
_atom_site_fract_z
Si Si1 0.630707 0.905585 0.064297
Si Si2 0.876218 0.592520 0.065464
Si Si3 0.536626 0.594689 0.565262
Si Si4 0.291481 0.906031 0.564732
Si Si5 0.216842 0.092202 0.065129
Si Si6 0.962451 0.591905 0.565762
O O1 0.631926 0.896936 0.250000
O O2 0.583722 0.950993 0.019782
O O3 0.666593 0.011943 0.014217
O O4 0.638137 0.750000 0.000000
O O5 0.881419 0.595694 0.250000
O O6 0.830008 0.535762 0.029761
O O7 0.874771 0.750000 0.000000
O O8 0.917733 0.530317 0.989647
O O9 0.531503 0.750000 0.500000
O O10 0.500000 0.500000 0.500000
O O11 0.534508 0.596706 0.750000
O O12 0.290767 0.750000 0.500000
O O13 0.290796 0.901818 0.750000
O O14 0.252099 0.994336 0.505310
O O15 0.220911 0.098705 0.250000
O O16 0.220712 0.250000 0.000000
O O17 0.965580 0.750000 0.500000
O O18 0.963651 0.597042 0.750000
O O19 0.000000 0.500000 0.500000
#
# Coordination Sequence:
#
# PCOD9437239 Si02
#       6
#     8   8   8   8   8   8
#     4   9  20  37  57  80 106 139 180 223 265 315
#     4   9  17  31  52  78 106 137 176 219 263 312
#     4  10  20  36  56  81 111 143 180 221 268 318
#     4  11  23  38  55  78 109 143 178 219 269 321
#     4  10  20  35  57  83 109 139 177 220 264 315
#     4  11  21  35  55  80 110 143 180 222 268 317
#
# _framework density 18.055726
#
# number of rings (size 3 to 8) (size 9 to 14) (size 15 to 20)
#    0.000    2.000    0.000    5.000    0.000    6.000 
#    0.000    2.500    0.000    4.000    0.000    0.000 
#    0.000    0.000    0.000    0.000    0.000    0.000 
#
# Total GULP energy -267871.555129 kJ/mol
# GULP energy per Si atom -5580.657399 kJ/mol
# Density = 1.801463 g / cm^3
# Si number density = 18.055726 Si / 1000 Ang^3
#
#
#
# Elastic Constant Matrix: (Units=GPa)
#
#
# Indices 1 2 3 4 5 6 
#
# 1 214.1514 101.2952 75.1137 0.0000 0.0000 0.0000
# 2 101.2952 87.0257 40.6883 0.0000 0.0000 0.0000
# 3 75.1137 40.6883 91.0103 0.0000 0.0000 0.0000
# 4 0.0000 0.0000 0.0000 30.5068 0.0000 0.0000
# 5 0.0000 0.0000 0.0000 0.0000 29.8597 0.0000
# 6 0.0000 0.0000 0.0000 0.0000 0.0000 32.6186
#
#
#
# Elastic Compliance Matrix: (Units=1/GPa)
#
#
# Indices 1 2 3 4 5 6 
#
# 1 0.011690 -0.011499 -0.004507 0.000000 0.000000 0.000000
# 2 -0.011499 0.025839 -0.002061 0.000000 0.000000 0.000000
# 3 -0.004507 -0.002061 0.015629 0.000000 0.000000 0.000000
# 4 0.000000 0.000000 0.000000 0.032780 0.000000 0.000000
# 5 0.000000 0.000000 0.000000 0.000000 0.033490 0.000000
# 6 0.000000 0.000000 0.000000 0.000000 0.000000 0.030657
#
#
# Mechanical properties :
#
#
# Convention : Reuss Voigt Hill
#
# Bulk Modulus (GPa) = 58.74382 91.82020 75.28201
# Shear Modulus (GPa) = 26.05606 30.26969 28.16288
#
# Velocity S-wave (km/s) = 3.80293 4.09890 3.95368
# Velocity P-wave (km/s) = 7.20336 8.56537 7.91372
#
# Compressibility (1/GPa) = 0.01702307
#
# Stress axis : x y z
#
# Youngs Moduli (GPa) = 85.54665 38.70072 63.98362
#
# Poissons Ratio (x) = 0.44502 0.28836
# Poissons Ratio (y) = 0.98371 0.13190
# Poissons Ratio (z) = 0.38554 0.07978
#
# Static dielectric constant tensor:
#      x y z
#    x 1.655870 0.000000 0.000000 
#    y 0.000000 1.568930 0.000000 
#    z 0.000000 0.000000 1.606030 
# 
# From -- ./inp_files/10080.got.cif
#   From: 2010.05.17/outbox.cif.g08.bks.cpg/sg57_6_cif.got.tgz:10080.got - 2010.06.03 13:58:18.
