data_PCOD9437274
_publ_section_title
;
Structure prediction by ZEFSAII (Michael W. Deem and Ramdas Pophale) SiO2 
 PCOD9437274
Probable space group: P B C M
;
_chemical_formula_sum "Si O2"
_cell_formula_units_Z 48
_cell_length_a 10.483980
_cell_length_b 8.416752
_cell_length_c 24.900430
_cell_angle_alpha 90.000000
_cell_angle_beta 90.000000
_cell_angle_gamma 90.000000
_cell_volume 2197.240329
_symmetry_space_group_name_H-M "P B C M"
_symmetry_group_IT_number 57
_symmetry_cell_setting 'orthorhombic'
loop_
_space_group_symop_operation_xyz
x,y,z
-x,-y,1/2+z
x,1/2-y,-z
-x,1/2+y,1/2-z
-x,-y,-z
x,y,1/2-z
-x,1/2+y,z
x,1/2-y,1/2+z
loop_
_atom_site_type_symbol
_atom_site_label
_atom_site_fract_x
_atom_site_fract_y
_atom_site_fract_z
Si Si1 0.571428 0.334628 0.626439
Si Si2 0.615547 0.588681 0.470533
Si Si3 0.120815 0.175752 0.811768
Si Si4 0.809154 0.149474 0.573479
Si Si5 0.025795 0.588857 0.115639
Si Si6 0.605409 0.857291 0.309758
O O1 0.453074 0.354066 0.584744
O O2 0.689911 0.231143 0.605030
O O3 0.607163 0.509903 0.644647
O O4 0.515751 0.248416 0.678468
O O5 0.656975 0.750000 0.500000
O O6 0.500000 0.500000 0.500000
O O7 0.728572 0.458386 0.468268
O O8 0.090680 0.132931 0.750000
O O9 0.021678 0.296006 0.837085
O O10 0.264047 0.242375 0.812785
O O11 0.118445 0.030261 0.853286
O O12 0.905479 0.302437 0.570183
O O13 0.904500 0.014936 0.597119
O O14 0.603019 0.927236 0.250000
#
# Coordination Sequence:
#
# PCOD9437274 Si02
#       6
#     8   8   8   8   8   8
#     4  12  22  42  66  96 134 172 215 280 338 390
#     4  12  24  44  74 104 128 163 224 282 348 408
#     4  10  20  35  57  88 127 171 227 270 310 379
#     4  11  23  43  68  93 131 174 220 269 335 394
#     4  10  22  40  62  88 128 182 220 260 328 390
#     4  11  23  38  60  98 137 174 218 269 331 396
#
# _framework density 21.845586999999998
#
# number of rings (size 3 to 8) (size 9 to 14) (size 15 to 20)
#    0.000    1.000    5.000    2.000    0.000    0.000 
#    0.000    2.500    0.000    0.000    0.000    0.000 
#    0.000    0.000    0.000    0.000    0.000    0.000 
#
# Total GULP energy -267336.220425 kJ/mol
# GULP energy per Si atom -5569.504592 kJ/mol
# Density = 2.179587 g / cm^3
# Si number density = 21.845587 Si / 1000 Ang^3
#
#
#
# Elastic Constant Matrix: (Units=GPa)
#
#
# Indices 1 2 3 4 5 6 
#
# 1 69.4249 21.0988 15.1363 0.0000 0.0000 0.0000
# 2 21.0988 64.7055 6.5148 0.0000 0.0000 0.0000
# 3 15.1363 6.5148 44.1428 0.0000 0.0000 0.0000
# 4 0.0000 0.0000 0.0000 29.9845 0.0000 0.0000
# 5 0.0000 0.0000 0.0000 0.0000 29.8741 0.0000
# 6 0.0000 0.0000 0.0000 0.0000 0.0000 38.7294
#
#
#
# Elastic Compliance Matrix: (Units=1/GPa)
#
#
# Indices 1 2 3 4 5 6 
#
# 1 0.017050 -0.005046 -0.005102 0.000000 0.000000 0.000000
# 2 -0.005046 0.017181 -0.000805 0.000000 0.000000 0.000000
# 3 -0.005102 -0.000805 0.024522 0.000000 0.000000 0.000000
# 4 0.000000 0.000000 0.000000 0.033351 0.000000 0.000000
# 5 0.000000 0.000000 0.000000 0.000000 0.033474 0.000000
# 6 0.000000 0.000000 0.000000 0.000000 0.000000 0.025820
#
#
# Mechanical properties :
#
#
# Convention : Reuss Voigt Hill
#
# Bulk Modulus (GPa) = 27.13929 29.30812 28.22371
# Shear Modulus (GPa) = 26.94175 28.75247 27.84711
#
# Velocity S-wave (km/s) = 3.51562 3.63184 3.57420
# Velocity P-wave (km/s) = 5.37863 5.57065 5.47548
#
# Compressibility (1/GPa) = 0.03684695
#
# Stress axis : x y z
#
# Youngs Moduli (GPa) = 58.65176 58.20364 40.77982
#
# Poissons Ratio (x) = 0.29369 0.20804
# Poissons Ratio (y) = 0.29595 0.03285
# Poissons Ratio (z) = 0.29922 0.04688
#
# Static dielectric constant tensor:
#      x y z
#    x 1.805470 0.000000 0.000000 
#    y 0.000000 1.821340 0.000000 
#    z 0.000000 0.000000 1.869930 
# 
# From -- ./inp_files/29491.got.cif
#   From: 2010.05.17/outbox.cif.g08.bks.cpg/sg57_15_cif.got.tgz:29491.got - 2010.06.03 13:58:18.
