data_PCOD9437072
_publ_section_title
;
Structure prediction by ZEFSAII (Michael W. Deem and Ramdas Pophale) SiO2 
 PCOD9437072
Probable space group: P B C M
;
_chemical_formula_sum "Si O2"
_cell_formula_units_Z 48
_cell_length_a 7.304769
_cell_length_b 26.932564
_cell_length_c 11.885287
_cell_angle_alpha 90.000000
_cell_angle_beta 90.000000
_cell_angle_gamma 90.000000
_cell_volume 2338.265708
_symmetry_space_group_name_H-M "P B C M"
_symmetry_group_IT_number 57
_symmetry_cell_setting 'orthorhombic'
loop_
_space_group_symop_operation_xyz
x,y,z
-x,-y,1/2+z
x,1/2-y,-z
-x,1/2+y,1/2-z
-x,-y,-z
x,y,1/2-z
-x,1/2+y,z
x,1/2-y,1/2+z
loop_
_atom_site_type_symbol
_atom_site_label
_atom_site_fract_x
_atom_site_fract_y
_atom_site_fract_z
Si Si1 0.294101 0.469242 0.376505
Si Si2 0.308541 0.275428 0.622983
Si Si3 0.975835 0.882542 0.376828
Si Si4 0.687024 0.446618 0.450263
Si Si5 0.912347 0.299687 0.944677
Si Si6 0.420829 0.864836 0.872028
O O1 0.233758 0.482870 0.250000
O O2 0.200864 0.416264 0.402454
O O3 0.514414 0.465687 0.379791
O O4 0.240827 0.509148 0.470508
O O5 0.350684 0.250000 0.500000
O O6 0.360735 0.254720 0.750000
O O7 0.090082 0.282117 0.622611
O O8 0.406787 0.328735 0.616368
O O9 0.959549 0.863435 0.250000
O O10 0.011406 0.837625 0.461131
O O11 0.148585 0.919987 0.385943
O O12 0.601002 0.405296 0.532632
O O13 0.756459 0.329170 0.879531
O O14 0.830259 0.250000 0.000000
O O15 0.427094 0.889630 0.750000
#
# Coordination Sequence:
#
# PCOD9437072 Si02
#       6
#     8   8   8   8   8   8
#     4  10  20  35  56  80 108 143 181 225 277 333
#     4  10  21  37  56  80 110 145 187 234 283 338
#     4  10  21  36  55  81 112 145 184 231 281 334
#     4  10  20  35  54  79 109 141 181 225 274 333
#     4  10  21  36  55  79 108 144 184 228 278 332
#     4  10  20  35  54  77 107 142 181 225 274 330
#
# _framework density 20.528034999999999
#
# number of rings (size 3 to 8) (size 9 to 14) (size 15 to 20)
#    0.000    2.000    0.000    3.500    0.000    3.333 
#    0.000    5.833    0.000   16.000    0.000    0.000 
#    0.000    0.000    0.000    0.000    0.000    0.000 
#
# Total GULP energy -267757.217242 kJ/mol
# GULP energy per Si atom -5578.275359 kJ/mol
# Density = 2.048131 g / cm^3
# Si number density = 20.528035 Si / 1000 Ang^3
#
#
#
# Elastic Constant Matrix: (Units=GPa)
#
#
# Indices 1 2 3 4 5 6 
#
# 1 40.4598 -7.8622 -0.9165 0.0000 0.0000 0.0000
# 2 -7.8622 50.8886 29.5357 0.0000 0.0000 0.0000
# 3 -0.9165 29.5357 108.2423 0.0000 0.0000 0.0000
# 4 0.0000 0.0000 0.0000 0.1422 0.0000 0.0000
# 5 0.0000 0.0000 0.0000 0.0000 -2.7933 0.0000
# 6 0.0000 0.0000 0.0000 0.0000 0.0000 25.7963
#
#
#
# Elastic Compliance Matrix: (Units=1/GPa)
#
#
# Indices 1 2 3 4 5 6 
#
# 1 0.025576 0.004546 -0.001024 0.000000 0.000000 0.000000
# 2 0.004546 0.024156 -0.006553 0.000000 0.000000 0.000000
# 3 -0.001024 -0.006553 0.011018 0.000000 0.000000 0.000000
# 4 0.000000 0.000000 0.000000 7.034333 0.000000 0.000000
# 5 0.000000 0.000000 0.000000 0.000000 -0.358002 0.000000
# 6 0.000000 0.000000 0.000000 0.000000 0.000000 0.038765
#
#
# Mechanical properties :
#
#
# Convention : Reuss Voigt Hill
#
# Bulk Modulus (GPa) = 18.28551 26.78941 22.53746
# Shear Modulus (GPa) = 0.73528 16.55128 8.64328
#
# Velocity S-wave (km/s) = 0.59913 2.84258 2.05417
# Velocity P-wave (km/s) = 3.06684 4.88387 4.07785
#
# Compressibility (1/GPa) = 0.05468811
#
# Stress axis : x y z
#
# Youngs Moduli (GPa) = 39.09915 41.39691 90.76095
#
# Poissons Ratio (x) = -0.18818 0.09292
# Poissons Ratio (y) = -0.17773 0.59475
# Poissons Ratio (z) = 0.04003 0.27127
#
# Static dielectric constant tensor:
#      x y z
#    x 1.706840 0.000000 0.000000 
#    y 0.000000 1.701870 0.000000 
#    z 0.000000 0.000000 1.689990 
# 
# From -- ./inp_files/11969.got.cif
#   From: 2010.05.17/outbox.cif.g08.bks.cpg/sg57_6_cif.got.tgz:11969.got - 2010.06.03 13:58:18.
