data_PCOD9437587
_publ_section_title
;
Structure prediction by ZEFSAII (Michael W. Deem and Ramdas Pophale) SiO2 
 PCOD9437587
Probable space group: P B C M
;
_chemical_formula_sum "Si O2"
_cell_formula_units_Z 64
_cell_length_a 12.734582
_cell_length_b 14.657159
_cell_length_c 16.671197
_cell_angle_alpha 90.000000
_cell_angle_beta 90.000000
_cell_angle_gamma 90.000000
_cell_volume 3111.725486
_symmetry_space_group_name_H-M "P B C M"
_symmetry_group_IT_number 57
_symmetry_cell_setting 'orthorhombic'
loop_
_space_group_symop_operation_xyz
x,y,z
-x,-y,1/2+z
x,1/2-y,-z
-x,1/2+y,1/2-z
-x,-y,-z
x,y,1/2-z
-x,1/2+y,z
x,1/2-y,1/2+z
loop_
_atom_site_type_symbol
_atom_site_label
_atom_site_fract_x
_atom_site_fract_y
_atom_site_fract_z
Si Si1 0.406080 0.780592 0.907240
Si Si2 0.827943 0.233467 0.153585
Si Si3 0.081348 0.538584 0.152389
Si Si4 0.670446 0.968329 0.843299
Si Si5 0.733754 0.901662 0.344219
Si Si6 0.640927 0.767341 0.905307
Si Si7 0.542441 0.492449 0.589356
Si Si8 0.121563 0.568998 0.651940
O O1 0.295603 0.755781 0.867082
O O2 0.520582 0.746413 0.876534
O O3 0.417047 0.889734 0.898474
O O4 0.399839 0.750000 0.000000
O O5 0.835289 0.230600 0.250000
O O6 0.886827 0.325564 0.125530
O O7 0.876813 0.137388 0.123498
O O8 0.077190 0.544494 0.250000
O O9 0.163872 0.458556 0.132702
O O10 0.968641 0.500857 0.124877
O O11 0.688342 0.948726 0.750000
O O12 0.663447 0.872867 0.889055
O O13 0.556872 0.013320 0.854649
O O14 0.765025 0.030837 0.872943
O O15 0.716296 0.918222 0.250000
O O16 0.727302 0.794657 0.361833
O O17 0.637376 0.941307 0.394076
O O18 0.643232 0.750000 0.000000
O O19 0.500000 0.500000 0.500000
O O20 0.118470 0.570468 0.750000
#
# Coordination Sequence:
#
# PCOD9437587 Si02
#       8
#     8   8   8   8   8   8   8   8
#     4  10  21  36  54  81 116 156 200 237 288 356
#     4  10  20  36  59  86 115 151 195 248 295 346
#     4   9  19  37  58  87 121 152 196 250 303 351
#     4  10  21  37  58  88 118 151 201 252 293 349
#     4  11  21  35  60  90 116 155 205 249 294 358
#     4  10  22  39  56  84 123 165 196 236 305 367
#     4  11  22  36  56  83 124 164 194 242 308 363
#     4   9  20  36  59  89 118 154 198 250 308 351
#
# _framework density 20.567367000000001
#
# number of rings (size 3 to 8) (size 9 to 14) (size 15 to 20)
#    0.000    2.000    1.250    3.000    3.500    3.500 
#    0.000    3.750    0.000    8.250    0.000    0.000 
#    0.000    0.000    0.000    0.000    0.000    0.000 
#
# Total GULP energy -357192.138733 kJ/mol
# GULP energy per Si atom -5581.127168 kJ/mol
# Density = 2.052055 g / cm^3
# Si number density = 20.567367 Si / 1000 Ang^3
#
#
#
# Elastic Constant Matrix: (Units=GPa)
#
#
# Indices 1 2 3 4 5 6 
#
# 1 84.7066 41.5667 0.3674 0.0000 0.0000 0.0000
# 2 41.5667 87.4894 -1.5787 0.0000 0.0000 0.0000
# 3 0.3674 -1.5787 17.6274 0.0000 0.0000 0.0000
# 4 0.0000 0.0000 0.0000 25.0081 0.0000 0.0000
# 5 0.0000 0.0000 0.0000 0.0000 -6.4315 0.0000
# 6 0.0000 0.0000 0.0000 0.0000 0.0000 29.9397
#
#
#
# Elastic Compliance Matrix: (Units=1/GPa)
#
#
# Indices 1 2 3 4 5 6 
#
# 1 0.015411 -0.007340 -0.000979 0.000000 0.000000 0.000000
# 2 -0.007340 0.014944 0.001491 0.000000 0.000000 0.000000
# 3 -0.000979 0.001491 0.056884 0.000000 0.000000 0.000000
# 4 0.000000 0.000000 0.000000 0.039987 0.000000 0.000000
# 5 0.000000 0.000000 0.000000 0.000000 -0.155486 0.000000
# 6 0.000000 0.000000 0.000000 0.000000 0.000000 0.033400
#
#
# Mechanical properties :
#
#
# Convention : Reuss Voigt Hill
#
# Bulk Modulus (GPa) = 13.58963 30.05935 21.82449
# Shear Modulus (GPa) = 115.41118 19.66780 67.53949
#
# Velocity S-wave (km/s) = 7.49904 3.09570 5.73668
# Velocity P-wave (km/s) = 9.03341 5.23685 7.38333
#
# Compressibility (1/GPa) = 0.07358553
#
# Stress axis : x y z
#
# Youngs Moduli (GPa) = 64.88704 66.91643 17.57967
#
# Poissons Ratio (x) = 0.49115 0.01720
# Poissons Ratio (y) = 0.47625 -0.02622
# Poissons Ratio (z) = 0.06350 -0.09980
#
# Static dielectric constant tensor:
#      x y z
#    x 1.738540 0.000000 0.000000 
#    y 0.000000 1.758200 0.000000 
#    z 0.000000 0.000000 1.707150 
# 
# From -- ./inp_files/22050.got.cif
#   From: 2010.05.17/outbox.cif.g08.bks.cpg/sg57_12_cif.got.tgz:22050.got - 2010.06.03 13:58:18.
