data_PCOD9437198
_publ_section_title
;
Structure prediction by ZEFSAII (Michael W. Deem and Ramdas Pophale) SiO2 
 PCOD9437198
Probable space group: P B C M
;
_chemical_formula_sum "Si O2"
_cell_formula_units_Z 64
_cell_length_a 21.977390
_cell_length_b 18.094958
_cell_length_c 8.899559
_cell_angle_alpha 90.000000
_cell_angle_beta 90.000000
_cell_angle_gamma 90.000000
_cell_volume 3539.176169
_symmetry_space_group_name_H-M "P B C M"
_symmetry_group_IT_number 57
_symmetry_cell_setting 'orthorhombic'
loop_
_space_group_symop_operation_xyz
x,y,z
-x,-y,1/2+z
x,1/2-y,-z
-x,1/2+y,1/2-z
-x,-y,-z
x,y,1/2-z
-x,1/2+y,z
x,1/2-y,1/2+z
loop_
_atom_site_type_symbol
_atom_site_label
_atom_site_fract_x
_atom_site_fract_y
_atom_site_fract_z
Si Si1 0.387616 0.431923 0.930445
Si Si2 0.752181 0.402326 0.071402
Si Si3 0.937258 0.026819 0.070452
Si Si4 0.730087 0.669018 0.429649
Si Si5 0.189432 0.048019 0.570357
Si Si6 0.373617 0.906243 0.570020
Si Si7 0.500688 0.329796 0.930825
Si Si8 0.879815 0.171594 0.928693
O O1 0.388229 0.444616 0.750000
O O2 0.330365 0.379000 0.964156
O O3 0.449013 0.388844 0.974014
O O4 0.381846 0.509930 0.012535
O O5 0.745709 0.412803 0.250000
O O6 0.808740 0.347955 0.043189
O O7 0.771314 0.480394 0.997581
O O8 0.688815 0.377000 0.001343
O O9 0.942340 0.032236 0.250000
O O10 0.880788 0.971693 0.036610
O O11 0.917874 0.105551 0.002479
O O12 0.000000 0.000000 0.000000
O O13 0.725620 0.750000 0.500000
O O14 0.735480 0.674139 0.250000
O O15 0.786158 0.622923 0.497722
O O16 0.197266 0.049682 0.750000
O O17 0.369089 0.905763 0.750000
O O18 0.432850 0.859487 0.524641
O O19 0.499008 0.323886 0.750000
O O20 0.488220 0.250000 0.000000
O O21 0.889276 0.172065 0.750000
O O22 0.894892 0.250000 0.000000
#
# Coordination Sequence:
#
# PCOD9437198 Si02
#       8
#     8   8   8   8   8   8   8   8
#     4  10  21  38  58  80 108 143 189 235 283 344
#     4  10  20  35  56  82 112 148 187 230 283 339
#     4  10  21  38  62  90 120 157 197 237 281 335
#     4  11  22  35  56  84 114 148 187 233 287 341
#     4  10  20  36  58  84 115 147 185 231 277 330
#     4  11  22  35  56  83 110 144 188 235 285 342
#     4  10  23  40  55  77 108 145 188 235 287 344
#     4  10  21  37  59  87 120 156 195 240 289 340
#
# _framework density 18.083303999999998
#
# number of rings (size 3 to 8) (size 9 to 14) (size 15 to 20)
#    0.000    1.750    1.250    3.000    0.000    5.500 
#    0.000    3.125    0.000    3.000    0.000    0.000 
#    0.000    0.000    0.000    0.000    0.000    0.000 
#
# Total GULP energy -357612.261864 kJ/mol
# GULP energy per Si atom -5587.691592 kJ/mol
# Density = 1.804215 g / cm^3
# Si number density = 18.083304 Si / 1000 Ang^3
#
#
#
# Elastic Constant Matrix: (Units=GPa)
#
#
# Indices 1 2 3 4 5 6 
#
# 1 118.2595 18.4134 42.2360 0.0000 0.0000 0.0000
# 2 18.4134 40.9715 20.6440 0.0000 0.0000 0.0000
# 3 42.2360 20.6440 47.8494 0.0000 0.0000 0.0000
# 4 0.0000 0.0000 0.0000 30.6646 0.0000 0.0000
# 5 0.0000 0.0000 0.0000 0.0000 29.9813 0.0000
# 6 0.0000 0.0000 0.0000 0.0000 0.0000 17.1686
#
#
#
# Elastic Compliance Matrix: (Units=1/GPa)
#
#
# Indices 1 2 3 4 5 6 
#
# 1 0.012349 -0.000074 -0.010869 0.000000 0.000000 0.000000
# 2 -0.000074 0.031187 -0.013390 0.000000 0.000000 0.000000
# 3 -0.010869 -0.013390 0.036270 0.000000 0.000000 0.000000
# 4 0.000000 0.000000 0.000000 0.032611 0.000000 0.000000
# 5 0.000000 0.000000 0.000000 0.000000 0.033354 0.000000
# 6 0.000000 0.000000 0.000000 0.000000 0.000000 0.058246
#
#
# Mechanical properties :
#
#
# Convention : Reuss Voigt Hill
#
# Bulk Modulus (GPa) = 32.11227 41.07413 36.59320
# Shear Modulus (GPa) = 19.00690 23.94869 21.47780
#
# Velocity S-wave (km/s) = 3.24554 3.64312 3.45006
# Velocity P-wave (km/s) = 5.64281 6.36078 6.01252
#
# Compressibility (1/GPa) = 0.03114074
#
# Stress axis : x y z
#
# Youngs Moduli (GPa) = 80.97726 32.06444 27.57132
#
# Poissons Ratio (x) = 0.00236 0.29966
# Poissons Ratio (y) = 0.00596 0.36919
# Poissons Ratio (z) = 0.88011 0.42935
#
# Static dielectric constant tensor:
#      x y z
#    x 1.620380 0.000000 0.000000 
#    y 0.000000 1.582810 0.000000 
#    z 0.000000 0.000000 1.600080 
# 
# From -- ./inp_files/8415.got.cif
#   From: 2010.05.17/outbox.cif.g08.bks.cpg/sg57_5_cif.got.tgz:8415.got - 2010.06.03 13:58:18.
