data_PCOD9437093
_publ_section_title
;
Structure prediction by ZEFSAII (Michael W. Deem and Ramdas Pophale) SiO2 
 PCOD9437093
Probable space group: P B C M
;
_chemical_formula_sum "Si O2"
_cell_formula_units_Z 64
_cell_length_a 21.975919
_cell_length_b 19.229348
_cell_length_c 8.797066
_cell_angle_alpha 90.000000
_cell_angle_beta 90.000000
_cell_angle_gamma 90.000000
_cell_volume 3717.486970
_symmetry_space_group_name_H-M "P B C M"
_symmetry_group_IT_number 57
_symmetry_cell_setting 'orthorhombic'
loop_
_space_group_symop_operation_xyz
x,y,z
-x,-y,1/2+z
x,1/2-y,-z
-x,1/2+y,1/2-z
-x,-y,-z
x,y,1/2-z
-x,1/2+y,z
x,1/2-y,1/2+z
loop_
_atom_site_type_symbol
_atom_site_label
_atom_site_fract_x
_atom_site_fract_y
_atom_site_fract_z
Si Si1 0.987958 0.576732 0.433704
Si Si2 0.603736 0.678401 0.565920
Si Si3 0.733562 0.634409 0.576914
Si Si4 0.200175 0.931250 0.067421
Si Si5 0.149729 0.083220 0.431797
Si Si6 0.680313 0.477162 0.576297
Si Si7 0.906460 0.326953 0.432916
Si Si8 0.439129 0.032704 0.068533
O O1 0.991238 0.574321 0.250000
O O2 0.919222 0.598206 0.479138
O O3 0.000000 0.500000 0.500000
O O4 0.037605 0.629200 0.499407
O O5 0.577830 0.750000 0.500000
O O6 0.602754 0.677087 0.750000
O O7 0.674624 0.673450 0.513311
O O8 0.571869 0.609247 0.502602
O O9 0.743368 0.656939 0.750000
O O10 0.797519 0.633525 0.492140
O O11 0.710111 0.554406 0.577878
O O12 0.207167 0.933209 0.250000
O O13 0.155368 0.868571 0.027201
O O14 0.167217 0.003952 0.022025
O O15 0.266652 0.929658 0.992911
O O16 0.151601 0.084803 0.250000
O O17 0.666020 0.458337 0.750000
O O18 0.618954 0.485940 0.480515
O O19 0.905977 0.250000 0.500000
O O20 0.911302 0.325423 0.250000
O O21 0.442268 0.037436 0.250000
O O22 0.500000 0.000000 0.000000
#
# Coordination Sequence:
#
# PCOD9437093 Si02
#       8
#     8   8   8   8   8   8   8   8
#     4  11  21  35  54  78 105 140 183 232 280 335
#     4  10  20  35  54  80 111 146 188 229 273 329
#     4   8  16  29  46  72 103 133 168 211 258 310
#     4   9  17  32  52  75 103 133 170 217 269 322
#     4   9  17  30  49  74 101 129 170 219 267 318
#     4   9  17  30  50  79 108 134 171 215 261 313
#     4  11  23  39  55  77 106 140 181 229 284 344
#     4  11  21  35  56  83 116 153 189 230 276 322
#
# _framework density 17.215931000000001
#
# number of rings (size 3 to 8) (size 9 to 14) (size 15 to 20)
#    0.000    2.250    1.250    3.375    0.000    5.500 
#    0.000    0.625    0.000    2.250    0.000    3.500 
#    0.000    0.000    0.000    0.000    0.000    0.000 
#
# Total GULP energy -356862.893966 kJ/mol
# GULP energy per Si atom -5575.982718 kJ/mol
# Density = 1.717675 g / cm^3
# Si number density = 17.215931 Si / 1000 Ang^3
#
#
#
# Elastic Constant Matrix: (Units=GPa)
#
#
# Indices 1 2 3 4 5 6 
#
# 1 142.5962 60.9680 59.1272 0.0000 0.0000 0.0000
# 2 60.9680 94.8248 40.0014 0.0000 0.0000 0.0000
# 3 59.1272 40.0014 76.8706 0.0000 0.0000 0.0000
# 4 0.0000 0.0000 0.0000 21.5302 0.0000 0.0000
# 5 0.0000 0.0000 0.0000 0.0000 30.9161 0.0000
# 6 0.0000 0.0000 0.0000 0.0000 0.0000 17.6368
#
#
#
# Elastic Compliance Matrix: (Units=1/GPa)
#
#
# Indices 1 2 3 4 5 6 
#
# 1 0.011793 -0.004812 -0.006567 0.000000 0.000000 0.000000
# 2 -0.004812 0.015476 -0.004352 0.000000 0.000000 0.000000
# 3 -0.006567 -0.004352 0.020324 0.000000 0.000000 0.000000
# 4 0.000000 0.000000 0.000000 0.046446 0.000000 0.000000
# 5 0.000000 0.000000 0.000000 0.000000 0.032346 0.000000
# 6 0.000000 0.000000 0.000000 0.000000 0.000000 0.056700
#
#
# Mechanical properties :
#
#
# Convention : Reuss Voigt Hill
#
# Bulk Modulus (GPa) = 61.98973 70.49829 66.24401
# Shear Modulus (GPa) = 22.73514 24.29629 23.51571
#
# Velocity S-wave (km/s) = 3.63793 3.76076 3.69986
# Velocity P-wave (km/s) = 7.33017 7.73926 7.53749
#
# Compressibility (1/GPa) = 0.01613170
#
# Stress axis : x y z
#
# Youngs Moduli (GPa) = 84.79377 64.61810 49.20188
#
# Poissons Ratio (x) = 0.31096 0.32311
# Poissons Ratio (y) = 0.40806 0.21410
# Poissons Ratio (z) = 0.55684 0.28119
#
# Static dielectric constant tensor:
#      x y z
#    x 1.586090 0.000000 0.000000 
#    y 0.000000 1.579150 0.000000 
#    z 0.000000 0.000000 1.590200 
# 
# From -- ./inp_files/8473.got.cif
#   From: 2010.05.17/outbox.cif.g08.bks.cpg/sg57_5_cif.got.tgz:8473.got - 2010.06.03 13:58:18.
