data_PCOD9437321
_publ_section_title
;
Structure prediction by ZEFSAII (Michael W. Deem and Ramdas Pophale) SiO2 
 PCOD9437321
Probable space group: P B C M
;
_chemical_formula_sum "Si O2"
_cell_formula_units_Z 56
_cell_length_a 16.976027
_cell_length_b 8.811485
_cell_length_c 18.561767
_cell_angle_alpha 90.000000
_cell_angle_beta 90.000000
_cell_angle_gamma 90.000000
_cell_volume 2776.543490
_symmetry_space_group_name_H-M "P B C M"
_symmetry_group_IT_number 57
_symmetry_cell_setting 'orthorhombic'
loop_
_space_group_symop_operation_xyz
x,y,z
-x,-y,1/2+z
x,1/2-y,-z
-x,1/2+y,1/2-z
-x,-y,-z
x,y,1/2-z
-x,1/2+y,z
x,1/2-y,1/2+z
loop_
_atom_site_type_symbol
_atom_site_label
_atom_site_fract_x
_atom_site_fract_y
_atom_site_fract_z
Si Si1 0.606288 0.379614 0.836343
Si Si2 0.053173 0.697216 0.584344
Si Si3 0.665393 0.847772 0.568623
Si Si4 0.102883 0.016194 0.616470
Si Si5 0.737717 0.903765 0.169069
Si Si6 0.450142 0.546873 0.662523
Si Si7 0.800641 0.076014 0.977192
O O1 0.607734 0.362551 0.750000
O O2 0.691303 0.444882 0.857819
O O3 0.577985 0.214309 0.861752
O O4 0.541368 0.508313 0.852983
O O5 0.043494 0.750000 0.500000
O O6 0.072696 0.846310 0.629452
O O7 0.131303 0.592808 0.583673
O O8 0.973525 0.618492 0.607851
O O9 0.636301 0.750000 0.500000
O O10 0.714872 0.732190 0.617436
O O11 0.599341 0.923473 0.618428
O O12 0.724863 0.980252 0.543339
O O13 0.152703 0.006019 0.541946
O O14 0.169451 0.070921 0.670098
O O15 0.708738 0.872221 0.250000
O O16 0.439551 0.532117 0.750000
O O17 0.781615 0.250000 0.000000
#
# Coordination Sequence:
#
# PCOD9437321 Si02
#       7
#     8   8   8   8   8   8   8
#     4   9  20  41  67  90 119 165 208 246 290 364
#     4   9  19  32  59  88 116 151 201 253 296 363
#     4  12  24  36  63  92 126 159 200 250 310 359
#     4  10  20  35  59  85 118 157 203 245 306 347
#     4  11  24  41  61  87 125 163 205 248 302 363
#     4  10  21  40  67  91 119 159 208 250 295 357
#     4   9  20  37  58  90 122 156 202 253 302 367
#
# _framework density 20.168960999999999
#
# number of rings (size 3 to 8) (size 9 to 14) (size 15 to 20)
#    0.000    2.286    1.429    3.000    8.000    2.286 
#    0.000    3.571    0.000    0.000    0.000    0.000 
#    0.000    0.000    0.000    0.000    0.000    0.000 
#
# Total GULP energy -312437.529746 kJ/mol
# GULP energy per Si atom -5579.241603 kJ/mol
# Density = 2.012306 g / cm^3
# Si number density = 20.168961 Si / 1000 Ang^3
#
#
#
# Elastic Constant Matrix: (Units=GPa)
#
#
# Indices 1 2 3 4 5 6 
#
# 1 63.1649 13.7579 4.4959 0.0000 0.0000 0.0000
# 2 13.7579 67.8365 17.1113 0.0000 0.0000 0.0000
# 3 4.4959 17.1113 40.7030 0.0000 0.0000 0.0000
# 4 0.0000 0.0000 0.0000 19.9637 0.0000 0.0000
# 5 0.0000 0.0000 0.0000 0.0000 25.1955 0.0000
# 6 0.0000 0.0000 0.0000 0.0000 0.0000 40.8999
#
#
#
# Elastic Compliance Matrix: (Units=1/GPa)
#
#
# Indices 1 2 3 4 5 6 
#
# 1 0.016571 -0.003243 -0.000467 0.000000 0.000000 0.000000
# 2 -0.003243 0.017125 -0.006841 0.000000 0.000000 0.000000
# 3 -0.000467 -0.006841 0.027496 0.000000 0.000000 0.000000
# 4 0.000000 0.000000 0.000000 0.050091 0.000000 0.000000
# 5 0.000000 0.000000 0.000000 0.000000 0.039690 0.000000
# 6 0.000000 0.000000 0.000000 0.000000 0.000000 0.024450
#
#
# Mechanical properties :
#
#
# Convention : Reuss Voigt Hill
#
# Bulk Modulus (GPa) = 24.94412 26.93717 25.94064
# Shear Modulus (GPa) = 23.82233 26.30110 25.06172
#
# Velocity S-wave (km/s) = 3.44050 3.61506 3.52886
# Velocity P-wave (km/s) = 5.30821 5.55065 5.43078
#
# Compressibility (1/GPa) = 0.04008962
#
# Stress axis : x y z
#
# Youngs Moduli (GPa) = 60.34574 58.39554 36.36933
#
# Poissons Ratio (x) = 0.18937 0.01699
# Poissons Ratio (y) = 0.19570 0.24880
# Poissons Ratio (z) = 0.02819 0.39948
#
# Static dielectric constant tensor:
#      x y z
#    x 1.717230 0.000000 0.000000 
#    y 0.000000 1.730100 0.000000 
#    z 0.000000 0.000000 1.733460 
# 
# From -- ./inp_files/25411.got.cif
#   From: 2010.05.17/outbox.cif.g08.bks.cpg/sg57_13_cif.got.tgz:25411.got - 2010.06.03 13:58:18.
