data_PCOD9437495
_publ_section_title
;
Structure prediction by ZEFSAII (Michael W. Deem and Ramdas Pophale) SiO2 
 PCOD9437495
Probable space group: P B C M
;
_chemical_formula_sum "Si O2"
_cell_formula_units_Z 56
_cell_length_a 16.990498
_cell_length_b 10.147218
_cell_length_c 14.958093
_cell_angle_alpha 90.000000
_cell_angle_beta 90.000000
_cell_angle_gamma 90.000000
_cell_volume 2578.869277
_symmetry_space_group_name_H-M "P B C M"
_symmetry_group_IT_number 57
_symmetry_cell_setting 'orthorhombic'
loop_
_space_group_symop_operation_xyz
x,y,z
-x,-y,1/2+z
x,1/2-y,-z
-x,1/2+y,1/2-z
-x,-y,-z
x,y,1/2-z
-x,1/2+y,z
x,1/2-y,1/2+z
loop_
_atom_site_type_symbol
_atom_site_label
_atom_site_fract_x
_atom_site_fract_y
_atom_site_fract_z
Si Si1 0.485562 0.875614 0.563664
Si Si2 0.687446 0.178128 0.404432
Si Si3 0.937293 0.489252 0.359567
Si Si4 0.652719 0.833095 0.856685
Si Si5 0.243906 0.093600 0.640974
Si Si6 0.926029 0.792707 0.359041
Si Si7 0.764199 0.438233 0.148234
O O1 0.483964 0.750000 0.500000
O O2 0.401503 0.872230 0.613722
O O3 0.562344 0.860090 0.623490
O O4 0.500000 0.000000 0.500000
O O5 0.687480 0.250000 0.500000
O O6 0.721621 0.298036 0.347313
O O7 0.742279 0.051073 0.397421
O O8 0.941058 0.485870 0.250000
O O9 0.942414 0.642323 0.386741
O O10 0.851994 0.435350 0.390319
O O11 0.007882 0.395478 0.390109
O O12 0.660900 0.830305 0.750000
O O13 0.687032 0.693656 0.888759
O O14 0.706609 0.952376 0.893524
O O15 0.245566 0.082289 0.750000
O O16 0.160881 0.158481 0.615084
O O17 0.926589 0.791777 0.250000
O O18 0.777084 0.484359 0.250000
#
# Coordination Sequence:
#
# PCOD9437495 Si02
#       7
#     8   8   8   8   8   8   8
#     4  11  23  41  60  82 113 151 197 243 286 347
#     4  11  24  39  55  81 114 151 195 242 285 345
#     4   9  17  30  52  85 119 148 182 227 280 339
#     4  10  20  36  60  86 117 150 188 243 301 352
#     4  10  20  36  58  87 118 149 191 240 290 346
#     4   9  17  30  52  86 119 147 183 229 282 339
#     4  10  20  36  57  85 119 151 185 234 291 342
#
# _framework density 21.714943000000002
#
# number of rings (size 3 to 8) (size 9 to 14) (size 15 to 20)
#    0.000    2.000    1.429    3.000    2.000    1.143 
#    0.000    3.571    0.000    0.857    0.000    0.000 
#    0.000    0.000    0.000    0.000    0.000    0.000 
#
# Total GULP energy -312747.700197 kJ/mol
# GULP energy per Si atom -5584.780361 kJ/mol
# Density = 2.166552 g / cm^3
# Si number density = 21.714943 Si / 1000 Ang^3
#
#
#
# Elastic Constant Matrix: (Units=GPa)
#
#
# Indices 1 2 3 4 5 6 
#
# 1 140.2822 64.9007 15.2699 0.0000 0.0000 0.0000
# 2 64.9007 166.3833 13.7313 0.0000 0.0000 0.0000
# 3 15.2699 13.7313 28.9566 0.0000 0.0000 0.0000
# 4 0.0000 0.0000 0.0000 22.4905 0.0000 0.0000
# 5 0.0000 0.0000 0.0000 0.0000 10.1798 0.0000
# 6 0.0000 0.0000 0.0000 0.0000 0.0000 41.5189
#
#
#
# Elastic Compliance Matrix: (Units=1/GPa)
#
#
# Indices 1 2 3 4 5 6 
#
# 1 0.008974 -0.003237 -0.003197 0.000000 0.000000 0.000000
# 2 -0.003237 0.007422 -0.001813 0.000000 0.000000 0.000000
# 3 -0.003197 -0.001813 0.037080 0.000000 0.000000 0.000000
# 4 0.000000 0.000000 0.000000 0.044463 0.000000 0.000000
# 5 0.000000 0.000000 0.000000 0.000000 0.098233 0.000000
# 6 0.000000 0.000000 0.000000 0.000000 0.000000 0.024085
#
#
# Mechanical properties :
#
#
# Convention : Reuss Voigt Hill
#
# Bulk Modulus (GPa) = 27.03977 58.15843 42.59910
# Shear Modulus (GPa) = 20.07387 30.95252 25.51320
#
# Velocity S-wave (km/s) = 3.04374 3.77955 3.43142
# Velocity P-wave (km/s) = 4.98313 6.77403 5.94639
#
# Compressibility (1/GPa) = 0.03698256
#
# Stress axis : x y z
#
# Youngs Moduli (GPa) = 111.43412 134.72899 26.96851
#
# Poissons Ratio (x) = 0.43606 0.08623
# Poissons Ratio (y) = 0.36066 0.04889
# Poissons Ratio (z) = 0.35631 0.24425
#
# Static dielectric constant tensor:
#      x y z
#    x 1.807630 0.000000 0.000000 
#    y 0.000000 1.778130 0.000000 
#    z 0.000000 0.000000 1.844380 
# 
# From -- ./inp_files/25366.got.cif
#   From: 2010.05.17/outbox.cif.g08.bks.cpg/sg57_13_cif.got.tgz:25366.got - 2010.06.03 13:58:18.
