data_PCOD9437067
_publ_section_title
;
Structure prediction by ZEFSAII (Michael W. Deem and Ramdas Pophale) SiO2 
 PCOD9437067
Probable space group: P B C M
;
_chemical_formula_sum "Si O2"
_cell_formula_units_Z 56
_cell_length_a 21.985143
_cell_length_b 15.046517
_cell_length_c 8.563566
_cell_angle_alpha 90.000000
_cell_angle_beta 90.000000
_cell_angle_gamma 90.000000
_cell_volume 2832.826159
_symmetry_space_group_name_H-M "P B C M"
_symmetry_group_IT_number 57
_symmetry_cell_setting 'orthorhombic'
loop_
_space_group_symop_operation_xyz
x,y,z
-x,-y,1/2+z
x,1/2-y,-z
-x,1/2+y,1/2-z
-x,-y,-z
x,y,1/2-z
-x,1/2+y,z
x,1/2-y,1/2+z
loop_
_atom_site_type_symbol
_atom_site_label
_atom_site_fract_x
_atom_site_fract_y
_atom_site_fract_z
Si Si1 0.984624 0.149307 0.063031
Si Si2 0.461027 0.418505 0.931455
Si Si3 0.228883 0.484002 0.438740
Si Si4 0.910068 0.524679 0.938775
Si Si5 0.334492 0.350122 0.063310
Si Si6 0.574042 0.341032 0.435505
Si Si7 0.703154 0.150484 0.563415
O O1 0.983929 0.154739 0.250000
O O2 0.977143 0.250000 0.000000
O O3 0.046961 0.101515 0.007784
O O4 0.934636 0.073967 0.015258
O O5 0.449806 0.432808 0.750000
O O6 0.500000 0.500000 0.000000
O O7 0.398808 0.392802 0.012734
O O8 0.513120 0.346990 0.964091
O O9 0.230957 0.486412 0.250000
O O10 0.159900 0.463455 0.485901
O O11 0.278037 0.410455 0.491645
O O12 0.248957 0.579912 0.500787
O O13 0.914183 0.529524 0.750000
O O14 0.333395 0.346682 0.250000
O O15 0.331375 0.250000 0.000000
O O16 0.600364 0.250000 0.500000
O O17 0.561064 0.344777 0.250000
O O18 0.635727 0.395799 0.470595
O O19 0.716412 0.250000 0.500000
O O20 0.703683 0.157854 0.750000
#
# Coordination Sequence:
#
# PCOD9437067 Si02
#       7
#     8   8   8   8   8   8   8
#     4  10  20  36  61  90 122 157 193 237 287 341
#     4  12  24  38  57  81 109 142 185 239 298 356
#     4  10  22  40  61  85 118 157 197 244 294 346
#     4   9  20  39  60  87 121 156 197 241 287 342
#     4  11  24  42  62  85 117 158 202 249 300 355
#     4  10  20  35  54  77 104 137 178 226 282 340
#     4  10  21  36  57  84 116 153 195 244 298 360
#
# _framework density 19.768243999999999
#
# number of rings (size 3 to 8) (size 9 to 14) (size 15 to 20)
#    0.000    1.714    0.000    4.286    0.000    7.429 
#    0.000    2.857    0.000    0.000    0.000    0.000 
#    0.000    0.000    0.000    0.000    0.000    0.000 
#
# Total GULP energy -312018.016880 kJ/mol
# GULP energy per Si atom -5571.750301 kJ/mol
# Density = 1.972325 g / cm^3
# Si number density = 19.768244 Si / 1000 Ang^3
#
#
#
# Elastic Constant Matrix: (Units=GPa)
#
#
# Indices 1 2 3 4 5 6 
#
# 1 118.1914 33.5746 24.9207 0.0000 0.0000 0.0000
# 2 33.5746 122.1099 23.8457 0.0000 0.0000 0.0000
# 3 24.9207 23.8457 44.1262 0.0000 0.0000 0.0000
# 4 0.0000 0.0000 0.0000 35.4272 0.0000 0.0000
# 5 0.0000 0.0000 0.0000 0.0000 20.3648 0.0000
# 6 0.0000 0.0000 0.0000 0.0000 0.0000 17.0531
#
#
#
# Elastic Compliance Matrix: (Units=1/GPa)
#
#
# Indices 1 2 3 4 5 6 
#
# 1 0.009959 -0.001833 -0.004633 0.000000 0.000000 0.000000
# 2 -0.001833 0.009493 -0.004095 0.000000 0.000000 0.000000
# 3 -0.004633 -0.004095 0.027492 0.000000 0.000000 0.000000
# 4 0.000000 0.000000 0.000000 0.028227 0.000000 0.000000
# 5 0.000000 0.000000 0.000000 0.000000 0.049104 0.000000
# 6 0.000000 0.000000 0.000000 0.000000 0.000000 0.058640
#
#
# Mechanical properties :
#
#
# Convention : Reuss Voigt Hill
#
# Bulk Modulus (GPa) = 38.72884 49.90105 44.31494
# Shear Modulus (GPa) = 23.51340 28.04145 25.77742
#
# Velocity S-wave (km/s) = 3.45259 3.77040 3.61499
# Velocity P-wave (km/s) = 5.96052 6.65225 6.31586
#
# Compressibility (1/GPa) = 0.02582055
#
# Stress axis : x y z
#
# Youngs Moduli (GPa) = 100.41549 105.34045 36.37451
#
# Poissons Ratio (x) = 0.19312 0.16854
# Poissons Ratio (y) = 0.18410 0.14894
# Poissons Ratio (z) = 0.46527 0.43133
#
# Static dielectric constant tensor:
#      x y z
#    x 1.500640 0.000000 0.000000 
#    y 0.000000 1.657180 0.000000 
#    z 0.000000 0.000000 1.619890 
# 
# From -- ./inp_files/8196.got.cif
#   From: 2010.05.17/outbox.cif.g08.bks.cpg/sg57_5_cif.got.tgz:8196.got - 2010.06.03 13:58:18.
