data_PCOD9437610
_publ_section_title
;
Structure prediction by ZEFSAII (Michael W. Deem and Ramdas Pophale) SiO2 
 PCOD9437610
Probable space group: P B C M
;
_chemical_formula_sum "Si O2"
_cell_formula_units_Z 40
_cell_length_a 7.094838
_cell_length_b 11.900979
_cell_length_c 18.180670
_cell_angle_alpha 90.000000
_cell_angle_beta 90.000000
_cell_angle_gamma 90.000000
_cell_volume 1535.094290
_symmetry_space_group_name_H-M "P B C M"
_symmetry_group_IT_number 57
_symmetry_cell_setting 'orthorhombic'
loop_
_space_group_symop_operation_xyz
x,y,z
-x,-y,1/2+z
x,1/2-y,-z
-x,1/2+y,1/2-z
-x,-y,-z
x,y,1/2-z
-x,1/2+y,z
x,1/2-y,1/2+z
loop_
_atom_site_type_symbol
_atom_site_label
_atom_site_fract_x
_atom_site_fract_y
_atom_site_fract_z
Si Si1 0.340680 0.114265 0.135736
Si Si2 0.671041 0.250000 0.500000
Si Si3 0.105356 0.777646 0.750000
Si Si4 0.643756 0.072345 0.750000
Si Si5 0.645016 0.596727 0.526781
Si Si6 0.728214 0.691649 0.750000
Si Si7 0.214194 0.584605 0.385226
O O1 0.299995 0.225193 0.181356
O O2 0.567177 0.102084 0.136157
O O3 0.287269 0.000343 0.179853
O O4 0.263373 0.124801 0.052385
O O5 0.514985 0.313928 0.448899
O O6 0.799117 0.336176 0.543400
O O7 0.096520 0.860784 0.680020
O O8 0.951891 0.677409 0.750000
O O9 0.291978 0.701614 0.750000
O O10 0.414535 0.088007 0.750000
O O11 0.500000 0.500000 0.500000
O O12 0.786904 0.543986 0.585915
#
# Coordination Sequence:
#
# PCOD9437610 Si02
#       7
#     8   4   4   4   8   4   8
#     4   9  19  39  64  88 121 161 205 259 308 357
#     4   8  16  32  62  88 118 154 210 252 298 376
#     4  12  25  38  59  91 125 167 204 249 303 370
#     4  11  22  39  65  87 122 169 200 252 317 353
#     4   8  17  30  60  93 110 157 206 248 303 371
#     4  11  23  41  60  92 129 154 212 251 290 381
#     4  10  20  36  59  93 118 163 199 254 311 366
#
# _framework density 26.057034000000002
#
# number of rings (size 3 to 8) (size 9 to 14) (size 15 to 20)
#    0.000    2.800    2.000    0.600    8.400    0.000 
#    7.200    1.000    0.000   12.000    0.000    1.400 
#    0.000    0.000    0.000    0.000    0.000    0.000 
#
# Total GULP energy -223116.758946 kJ/mol
# GULP energy per Si atom -5577.918974 kJ/mol
# Density = 2.599773 g / cm^3
# Si number density = 26.057034 Si / 1000 Ang^3
#
#
#
# Elastic Constant Matrix: (Units=GPa)
#
#
# Indices 1 2 3 4 5 6 
#
# 1 63.2806 10.0400 21.4531 0.0000 0.0000 0.0000
# 2 10.0400 88.4709 28.9449 0.0000 0.0000 0.0000
# 3 21.4531 28.9449 113.7075 0.0000 0.0000 0.0000
# 4 0.0000 0.0000 0.0000 42.3463 0.0000 0.0000
# 5 0.0000 0.0000 0.0000 0.0000 -1.7048 0.0000
# 6 0.0000 0.0000 0.0000 0.0000 0.0000 22.9412
#
#
#
# Elastic Compliance Matrix: (Units=1/GPa)
#
#
# Indices 1 2 3 4 5 6 
#
# 1 0.016956 -0.000957 -0.002955 0.000000 0.000000 0.000000
# 2 -0.000957 0.012384 -0.002972 0.000000 0.000000 0.000000
# 3 -0.002955 -0.002972 0.010109 0.000000 0.000000 0.000000
# 4 0.000000 0.000000 0.000000 0.023615 0.000000 0.000000
# 5 0.000000 0.000000 0.000000 0.000000 -0.586572 0.000000
# 6 0.000000 0.000000 0.000000 0.000000 0.000000 0.043590
#
#
# Mechanical properties :
#
#
# Convention : Reuss Voigt Hill
#
# Bulk Modulus (GPa) = 38.94096 42.92609 40.93353
# Shear Modulus (GPa) = -10.92683 26.38460 7.72888
#
# Velocity S-wave (km/s) = -2.05001 3.18554 1.72412
# Velocity P-wave (km/s) = 3.06163 5.48087 4.43923
#
# Compressibility (1/GPa) = 0.02567990
#
# Stress axis : x y z
#
# Youngs Moduli (GPa) = 58.97451 80.74887 98.92570
#
# Poissons Ratio (x) = 0.07730 0.29237
# Poissons Ratio (y) = 0.05646 0.29399
# Poissons Ratio (z) = 0.17430 0.23997
#
# Static dielectric constant tensor:
#      x y z
#    x 2.049030 0.000000 0.000000 
#    y 0.000000 2.133150 0.000000 
#    z 0.000000 0.000000 2.235360 
# 
# From -- ./inp_files/24199.got.cif
#   From: 2010.05.17/outbox.cif.g08.bks.cpg/sg57_13_cif.got.tgz:24199.got - 2010.06.03 13:58:18.
