data_PCOD9437526
_publ_section_title
;
Structure prediction by ZEFSAII (Michael W. Deem and Ramdas Pophale) SiO2 
 PCOD9437526
Probable space group: P B C M
;
_chemical_formula_sum "Si O2"
_cell_formula_units_Z 40
_cell_length_a 9.345276
_cell_length_b 26.228263
_cell_length_c 8.717488
_cell_angle_alpha 90.000000
_cell_angle_beta 90.000000
_cell_angle_gamma 90.000000
_cell_volume 2136.746594
_symmetry_space_group_name_H-M "P B C M"
_symmetry_group_IT_number 57
_symmetry_cell_setting 'orthorhombic'
loop_
_space_group_symop_operation_xyz
x,y,z
-x,-y,1/2+z
x,1/2-y,-z
-x,1/2+y,1/2-z
-x,-y,-z
x,y,1/2-z
-x,1/2+y,z
x,1/2-y,1/2+z
loop_
_atom_site_type_symbol
_atom_site_label
_atom_site_fract_x
_atom_site_fract_y
_atom_site_fract_z
Si Si1 0.659344 0.000363 0.566422
Si Si2 0.655676 0.304620 0.934241
Si Si3 0.834413 0.899050 0.935337
Si Si4 0.833550 0.095346 0.065293
Si Si5 0.338384 0.304912 0.433151
O O1 0.651716 0.001505 0.750000
O O2 0.745865 0.049286 0.508024
O O3 0.500000 0.000000 0.500000
O O4 0.743884 0.949030 0.521015
O O5 0.645254 0.301381 0.750000
O O6 0.760777 0.350751 0.975272
O O7 0.703117 0.250000 0.000000
O O8 0.497837 0.314968 0.001567
O O9 0.827672 0.893634 0.750000
O O10 0.000098 0.905655 0.979220
O O11 0.765177 0.849484 0.010951
O O12 0.825606 0.090221 0.250000
O O13 0.293653 0.250000 0.500000
O O14 0.344226 0.302382 0.250000
#
# Coordination Sequence:
#
# PCOD9437526 Si02
#       5
#     8   8   8   8   8
#     4  11  23  38  60  85 113 149 190 234 281 335
#     4  10  20  36  58  83 111 146 185 230 278 329
#     4  10  22  40  58  82 116 151 186 231 284 336
#     4  10  22  39  59  83 115 149 185 232 285 336
#     4  11  22  37  59  85 113 149 190 233 277 330
#
# _framework density 18.720047999999998
#
# number of rings (size 3 to 8) (size 9 to 14) (size 15 to 20)
#    0.000    1.600    0.000    6.000    0.000    9.600 
#    0.000    2.000    0.000    0.000    0.000    0.000 
#    0.000    0.000    0.000    0.000    0.000    0.000 
#
# Total GULP energy -223641.139441 kJ/mol
# GULP energy per Si atom -5591.028486 kJ/mol
# Density = 1.867744 g / cm^3
# Si number density = 18.720048 Si / 1000 Ang^3
#
#
#
# Elastic Constant Matrix: (Units=GPa)
#
#
# Indices 1 2 3 4 5 6 
#
# 1 174.0708 141.2594 62.6109 0.0000 0.0000 0.0000
# 2 141.2594 187.0071 69.5482 0.0000 0.0000 0.0000
# 3 62.6109 69.5482 63.6786 0.0000 0.0000 0.0000
# 4 0.0000 0.0000 0.0000 36.5576 0.0000 0.0000
# 5 0.0000 0.0000 0.0000 0.0000 26.6900 0.0000
# 6 0.0000 0.0000 0.0000 0.0000 0.0000 -148.6631
#
#
#
# Elastic Compliance Matrix: (Units=1/GPa)
#
#
# Indices 1 2 3 4 5 6 
#
# 1 0.015460 -0.010146 -0.004120 0.000000 0.000000 0.000000
# 2 -0.010146 0.015664 -0.007132 0.000000 0.000000 0.000000
# 3 -0.004120 -0.007132 0.027543 0.000000 0.000000 0.000000
# 4 0.000000 0.000000 0.000000 0.027354 0.000000 0.000000
# 5 0.000000 0.000000 0.000000 0.000000 0.037467 0.000000
# 6 0.000000 0.000000 0.000000 0.000000 0.000000 -0.006727
#
#
# Mechanical properties :
#
#
# Convention : Reuss Voigt Hill
#
# Bulk Modulus (GPa) = 63.00139 107.95484 85.47812
# Shear Modulus (GPa) = 30.33118 -6.99390 11.66864
#
# Velocity S-wave (km/s) = 4.02960 -1.93498 2.49935
# Velocity P-wave (km/s) = 7.44163 7.26643 7.35455
#
# Compressibility (1/GPa) = 0.01587266
#
# Stress axis : x y z
#
# Youngs Moduli (GPa) = 64.68277 63.84255 36.30633
#
# Poissons Ratio (x) = 0.64774 0.14957
# Poissons Ratio (y) = 0.65627 0.25892
# Poissons Ratio (z) = 0.26648 0.45529
#
# Static dielectric constant tensor:
#      x y z
#    x 1.617850 0.000000 0.000000 
#    y 0.000000 1.622410 0.000000 
#    z 0.000000 0.000000 1.632520 
# 
# From -- ./inp_files/1499.got.cif
#   From: 2010.05.17/outbox.cif.g08.bks.cpg/sg57_1_cif.got.tgz:1499.got - 2010.06.03 13:58:18.
