data_PCOD9437827
_publ_section_title
;
Structure prediction by ZEFSAII (Michael W. Deem and Ramdas Pophale) SiO2 
 PCOD9437827
Probable space group: P B C M
;
_chemical_formula_sum "Si O2"
_cell_formula_units_Z 48
_cell_length_a 29.152454
_cell_length_b 8.632413
_cell_length_c 10.067092
_cell_angle_alpha 90.000000
_cell_angle_beta 90.000000
_cell_angle_gamma 90.000000
_cell_volume 2533.444335
_symmetry_space_group_name_H-M "P B C M"
_symmetry_group_IT_number 57
_symmetry_cell_setting 'orthorhombic'
loop_
_space_group_symop_operation_xyz
x,y,z
-x,-y,1/2+z
x,1/2-y,-z
-x,1/2+y,1/2-z
-x,-y,-z
x,y,1/2-z
-x,1/2+y,z
x,1/2-y,1/2+z
loop_
_atom_site_type_symbol
_atom_site_label
_atom_site_fract_x
_atom_site_fract_y
_atom_site_fract_z
Si Si1 0.463613 0.906185 0.588455
Si Si2 0.051649 0.436040 0.501999
Si Si3 0.104167 0.932072 0.750000
Si Si4 0.213759 0.434905 0.750000
Si Si5 0.890494 0.439183 0.250000
Si Si6 0.263951 0.562607 0.007555
Si Si7 0.794190 0.565065 0.750000
Si Si8 0.638682 0.098669 0.093494
O O1 0.460948 0.750000 0.500000
O O2 0.474231 0.887239 0.750000
O O3 0.411853 0.976202 0.584558
O O4 0.500000 0.000000 0.500000
O O5 0.050872 0.250000 0.500000
O O6 0.076792 0.506572 0.375689
O O7 0.081561 0.494882 0.625342
O O8 0.000000 0.500000 0.500000
O O9 0.108091 0.746821 0.750000
O O10 0.153963 0.008257 0.750000
O O11 0.162465 0.506402 0.750000
O O12 0.242820 0.492471 0.624689
O O13 0.208692 0.250149 0.750000
O O14 0.231469 0.504992 0.124024
O O15 0.316118 0.511877 0.041548
O O16 0.263522 0.750000 0.000000
O O17 0.645857 0.138573 0.250000
O O18 0.636678 0.250000 0.000000
#
# Coordination Sequence:
#
# PCOD9437827 Si02
#       8
#     8   8   4   4   4   8   4   8
#     4  10  20  37  60  90 124 166 213 267 325 389
#     4  12  25  44  67  96 130 166 206 256 315 376
#     4  12  25  43  68  94 121 167 211 260 309 368
#     4  12  26  41  61  92 127 167 201 254 322 378
#     4  12  25  45  66  94 127 163 215 260 309 374
#     4  11  22  40  64  91 118 160 212 258 306 371
#     4  12  24  43  63  88 129 161 201 256 316 378
#     4   9  19  35  61  90 121 158 211 266 314 372
#
# _framework density 18.946539000000001
#
# number of rings (size 3 to 8) (size 9 to 14) (size 15 to 20)
#    0.000    1.000    0.833    7.000    3.500    0.667 
#    0.000    1.667    0.000    0.000    0.000    0.000 
#    0.000    0.000    0.000    0.000    0.000    0.000 
#
# Total GULP energy -267908.686513 kJ/mol
# GULP energy per Si atom -5581.430969 kJ/mol
# Density = 1.890342 g / cm^3
# Si number density = 18.946539 Si / 1000 Ang^3
#
#
#
# Elastic Constant Matrix: (Units=GPa)
#
#
# Indices 1 2 3 4 5 6 
#
# 1 214.1185 67.7525 108.4385 0.0000 0.0000 0.0000
# 2 67.7525 142.3319 54.6898 0.0000 0.0000 0.0000
# 3 108.4385 54.6898 207.9787 0.0000 0.0000 0.0000
# 4 0.0000 0.0000 0.0000 36.6963 0.0000 0.0000
# 5 0.0000 0.0000 0.0000 0.0000 42.4054 0.0000
# 6 0.0000 0.0000 0.0000 0.0000 0.0000 29.3997
#
#
#
# Elastic Compliance Matrix: (Units=1/GPa)
#
#
# Indices 1 2 3 4 5 6 
#
# 1 0.006871 -0.002107 -0.003028 0.000000 0.000000 0.000000
# 2 -0.002107 0.008462 -0.001127 0.000000 0.000000 0.000000
# 3 -0.003028 -0.001127 0.006683 0.000000 0.000000 0.000000
# 4 0.000000 0.000000 0.000000 0.027251 0.000000 0.000000
# 5 0.000000 0.000000 0.000000 0.000000 0.023582 0.000000
# 6 0.000000 0.000000 0.000000 0.000000 0.000000 0.034014
#
#
# Mechanical properties :
#
#
# Convention : Reuss Voigt Hill
#
# Bulk Modulus (GPa) = 105.35026 114.02117 109.68572
# Shear Modulus (GPa) = 40.79980 43.93684 42.36832
#
# Velocity S-wave (km/s) = 4.64553 4.82081 4.73398
# Velocity P-wave (km/s) = 9.19235 9.55500 9.37543
#
# Compressibility (1/GPa) = 0.00949215
#
# Stress axis : x y z
#
# Youngs Moduli (GPa) = 145.54686 118.18045 149.62629
#
# Poissons Ratio (x) = 0.24900 0.45311
# Poissons Ratio (y) = 0.30666 0.16856
# Poissons Ratio (z) = 0.44075 0.13313
#
# Static dielectric constant tensor:
#      x y z
#    x 2.751640 0.000000 0.000000 
#    y 0.000000 1.647680 0.000000 
#    z 0.000000 0.000000 1.585150 
# 
# From -- ./inp_files/10198.got.cif
#   From: 2010.05.17/outbox.cif.g08.bks.cpg/sg57_6_cif.got.tgz:10198.got - 2010.06.03 13:58:18.
