data_PCOD9437173
_publ_section_title
;
Structure prediction by ZEFSAII (Michael W. Deem and Ramdas Pophale) SiO2 
 PCOD9437173
Probable space group: P B C M
;
_chemical_formula_sum "Si O2"
_cell_formula_units_Z 40
_cell_length_a 6.854211
_cell_length_b 14.798724
_cell_length_c 16.184236
_cell_angle_alpha 90.000000
_cell_angle_beta 90.000000
_cell_angle_gamma 90.000000
_cell_volume 1641.624946
_symmetry_space_group_name_H-M "P B C M"
_symmetry_group_IT_number 57
_symmetry_cell_setting 'orthorhombic'
loop_
_space_group_symop_operation_xyz
x,y,z
-x,-y,1/2+z
x,1/2-y,-z
-x,1/2+y,1/2-z
-x,-y,-z
x,y,1/2-z
-x,1/2+y,z
x,1/2-y,1/2+z
loop_
_atom_site_type_symbol
_atom_site_label
_atom_site_fract_x
_atom_site_fract_y
_atom_site_fract_z
Si Si1 0.857955 0.621701 0.070886
Si Si2 0.510076 0.666787 0.553767
Si Si3 0.397254 0.984787 0.342346
Si Si4 0.140806 0.994594 0.844300
Si Si5 0.148767 0.203255 0.842778
O O1 0.727544 0.573480 0.141567
O O2 0.047461 0.559524 0.079995
O O3 0.926931 0.721910 0.094628
O O4 0.698807 0.628741 0.997713
O O5 0.431890 0.750000 0.500000
O O6 0.367972 0.588891 0.585084
O O7 0.618943 0.798454 0.363386
O O8 0.360369 0.949583 0.250000
O O9 0.625708 0.008256 0.348952
O O10 0.092091 0.963640 0.750000
O O11 0.079501 0.099975 0.849502
O O12 0.111176 0.232903 0.750000
#
# Coordination Sequence:
#
# PCOD9437173 Si02
#       5
#     8   8   8   8   8
#     4  11  20  35  59  83 110 147 186 225 278 329
#     4   9  19  34  54  81 112 144 181 229 276 322
#     4  10  20  35  56  80 107 144 185 224 272 327
#     4   9  19  35  55  81 110 141 183 228 267 321
#     4   9  18  34  54  78 112 149 184 227 276 325
#
# _framework density 24.366099999999999
#
# number of rings (size 3 to 8) (size 9 to 14) (size 15 to 20)
#    0.000    2.400    0.000    4.200    0.000    3.200 
#    0.000    6.000    0.000   22.800    0.000    0.000 
#    0.000    0.000    0.000    0.000    0.000    0.000 
#
# Total GULP energy -223159.947107 kJ/mol
# GULP energy per Si atom -5578.998678 kJ/mol
# Density = 2.431064 g / cm^3
# Si number density = 24.366100 Si / 1000 Ang^3
#
#
#
# Elastic Constant Matrix: (Units=GPa)
#
#
# Indices 1 2 3 4 5 6 
#
# 1 58.8345 -3.4048 0.0068 0.0000 0.0000 0.0000
# 2 -3.4048 66.2591 4.3861 0.0000 0.0000 0.0000
# 3 0.0068 4.3861 85.3650 0.0000 0.0000 0.0000
# 4 0.0000 0.0000 0.0000 28.4449 0.0000 0.0000
# 5 0.0000 0.0000 0.0000 0.0000 24.1670 0.0000
# 6 0.0000 0.0000 0.0000 0.0000 0.0000 8.2735
#
#
#
# Elastic Compliance Matrix: (Units=1/GPa)
#
#
# Indices 1 2 3 4 5 6 
#
# 1 0.017048 0.000879 -0.000047 0.000000 0.000000 0.000000
# 2 0.000879 0.015189 -0.000780 0.000000 0.000000 0.000000
# 3 -0.000047 -0.000780 0.011755 0.000000 0.000000 0.000000
# 4 0.000000 0.000000 0.000000 0.035156 0.000000 0.000000
# 5 0.000000 0.000000 0.000000 0.000000 0.041379 0.000000
# 6 0.000000 0.000000 0.000000 0.000000 0.000000 0.120868
#
#
# Mechanical properties :
#
#
# Convention : Reuss Voigt Hill
#
# Bulk Modulus (GPa) = 22.67806 23.60386 23.14096
# Shear Modulus (GPa) = 19.53212 26.14175 22.83694
#
# Velocity S-wave (km/s) = 2.83434 3.27903 3.06476
# Velocity P-wave (km/s) = 4.47647 4.90349 4.69484
#
# Compressibility (1/GPa) = 0.04409548
#
# Stress axis : x y z
#
# Youngs Moduli (GPa) = 58.65893 65.83662 85.07374
#
# Poissons Ratio (x) = -0.05788 0.00396
# Poissons Ratio (y) = -0.05157 0.06640
# Poissons Ratio (z) = 0.00273 0.05138
#
# Static dielectric constant tensor:
#      x y z
#    x 1.971190 0.000000 0.000000 
#    y 0.000000 1.966770 0.000000 
#    z 0.000000 0.000000 1.994970 
# 
# From -- ./inp_files/20728.got.cif
#   From: 2010.05.17/outbox.cif.g08.bks.cpg/sg57_11_cif.got.tgz:20728.got - 2010.06.03 13:58:18.
