data_PCOD9437252
_publ_section_title
;
Structure prediction by ZEFSAII (Michael W. Deem and Ramdas Pophale) SiO2 
 PCOD9437252
Probable space group: P B C M
;
_chemical_formula_sum "Si O2"
_cell_formula_units_Z 48
_cell_length_a 15.810574
_cell_length_b 18.009592
_cell_length_c 8.792562
_cell_angle_alpha 90.000000
_cell_angle_beta 90.000000
_cell_angle_gamma 90.000000
_cell_volume 2503.611575
_symmetry_space_group_name_H-M "P B C M"
_symmetry_group_IT_number 57
_symmetry_cell_setting 'orthorhombic'
loop_
_space_group_symop_operation_xyz
x,y,z
-x,-y,1/2+z
x,1/2-y,-z
-x,1/2+y,1/2-z
-x,-y,-z
x,y,1/2-z
-x,1/2+y,z
x,1/2-y,1/2+z
loop_
_atom_site_type_symbol
_atom_site_label
_atom_site_fract_x
_atom_site_fract_y
_atom_site_fract_z
Si Si1 0.996212 0.670615 0.931969
Si Si2 0.179284 0.401221 0.067846
Si Si3 0.858390 0.427629 0.568426
Si Si4 0.482568 0.666833 0.931736
Si Si5 0.654025 0.666907 0.069133
Si Si6 0.294258 0.666877 0.567639
O O1 0.002252 0.672708 0.750000
O O2 0.899672 0.651106 0.974072
O O3 0.021073 0.750000 0.000000
O O4 0.058482 0.607815 0.994663
O O5 0.192941 0.394868 0.250000
O O6 0.152506 0.485532 0.034100
O O7 0.264278 0.378313 0.983102
O O8 0.862782 0.418695 0.750000
O O9 0.777907 0.383463 0.504082
O O10 0.492829 0.670319 0.750000
O O11 0.388993 0.636047 0.965134
O O12 0.480007 0.750000 0.000000
O O13 0.566435 0.632548 0.005191
O O14 0.649282 0.672309 0.250000
O O15 0.661959 0.750000 0.000000
O O16 0.288090 0.750000 0.500000
O O17 0.284620 0.670951 0.750000
#
# Coordination Sequence:
#
# PCOD9437252 Si02
#       6
#     8   8   8   8   8   8
#     4  11  23  40  62  86 112 143 184 230 275 329
#     4  10  23  41  59  82 113 149 187 229 278 330
#     4  11  23  39  59  83 114 149 184 228 281 333
#     4   9  17  31  53  80 111 145 185 233 279 325
#     4  11  21  34  57  85 114 148 187 232 279 330
#     4  10  20  35  57  84 113 148 190 234 279 329
#
# _framework density 19.172301999999998
#
# number of rings (size 3 to 8) (size 9 to 14) (size 15 to 20)
#    0.000    1.667    0.000    6.000    0.000    6.000 
#    0.000    0.833    0.000    0.000    0.000    0.000 
#    0.000    0.000    0.000    0.000    0.000    0.000 
#
# Total GULP energy -268179.007122 kJ/mol
# GULP energy per Si atom -5587.062648 kJ/mol
# Density = 1.912867 g / cm^3
# Si number density = 19.172302 Si / 1000 Ang^3
#
#
#
# Elastic Constant Matrix: (Units=GPa)
#
#
# Indices 1 2 3 4 5 6 
#
# 1 87.4866 0.9038 27.8473 0.0000 0.0000 0.0000
# 2 0.9038 35.9996 16.1181 0.0000 0.0000 0.0000
# 3 27.8473 16.1181 65.0106 0.0000 0.0000 0.0000
# 4 0.0000 0.0000 0.0000 21.9883 0.0000 0.0000
# 5 0.0000 0.0000 0.0000 0.0000 17.5985 0.0000
# 6 0.0000 0.0000 0.0000 0.0000 0.0000 -7.7030
#
#
#
# Elastic Compliance Matrix: (Units=1/GPa)
#
#
# Indices 1 2 3 4 5 6 
#
# 1 0.013435 0.002519 -0.006379 0.000000 0.000000 0.000000
# 2 0.002519 0.031719 -0.008943 0.000000 0.000000 0.000000
# 3 -0.006379 -0.008943 0.020332 0.000000 0.000000 0.000000
# 4 0.000000 0.000000 0.000000 0.045479 0.000000 0.000000
# 5 0.000000 0.000000 0.000000 0.000000 0.056823 0.000000
# 6 0.000000 0.000000 0.000000 0.000000 0.000000 -0.129819
#
#
# Mechanical properties :
#
#
# Convention : Reuss Voigt Hill
#
# Bulk Modulus (GPa) = 25.07600 30.91504 27.99552
# Shear Modulus (GPa) = 65.04627 15.95194 40.49910
#
# Velocity S-wave (km/s) = 5.83103 2.88762 4.60104
# Velocity P-wave (km/s) = 7.64475 5.22280 6.54675
#
# Compressibility (1/GPa) = 0.03987877
#
# Stress axis : x y z
#
# Youngs Moduli (GPa) = 74.43320 31.52693 49.18366
#
# Poissons Ratio (x) = -0.07941 0.31376
# Poissons Ratio (y) = -0.18749 0.43985
# Poissons Ratio (z) = 0.47484 0.28195
#
# Static dielectric constant tensor:
#      x y z
#    x 1.687800 0.000000 0.000000 
#    y 0.000000 1.632860 0.000000 
#    z 0.000000 0.000000 1.635360 
# 
# From -- ./inp_files/4712.got.cif
#   From: 2010.05.17/outbox.cif.g08.bks.cpg/sg57_3_cif.got.tgz:4712.got - 2010.06.03 13:58:18.
