data_PCOD9437906
_publ_section_title
;
Structure prediction by ZEFSAII (Michael W. Deem and Ramdas Pophale) SiO2 
 PCOD9437906
Probable space group: P B C M
;
_chemical_formula_sum "Si O2"
_cell_formula_units_Z 64
_cell_length_a 24.445368
_cell_length_b 15.425374
_cell_length_c 8.591343
_cell_angle_alpha 90.000000
_cell_angle_beta 90.000000
_cell_angle_gamma 90.000000
_cell_volume 3239.614546
_symmetry_space_group_name_H-M "P B C M"
_symmetry_group_IT_number 57
_symmetry_cell_setting 'orthorhombic'
loop_
_space_group_symop_operation_xyz
x,y,z
-x,-y,1/2+z
x,1/2-y,-z
-x,1/2+y,1/2-z
-x,-y,-z
x,y,1/2-z
-x,1/2+y,z
x,1/2-y,1/2+z
loop_
_atom_site_type_symbol
_atom_site_label
_atom_site_fract_x
_atom_site_fract_y
_atom_site_fract_z
Si Si1 0.989701 0.150401 0.063259
Si Si2 0.501297 0.159676 0.935370
Si Si3 0.741436 0.160503 0.937288
Si Si4 0.399519 0.419583 0.569751
Si Si5 0.621328 0.121481 0.931636
Si Si6 0.794344 0.512709 0.936607
Si Si7 0.287526 0.342642 0.936986
Si Si8 0.079204 0.018309 0.562149
O O1 0.989159 0.156989 0.250000
O O2 0.943327 0.078119 0.016735
O O3 0.985513 0.250000 0.000000
O O4 0.043713 0.096966 0.009160
O O5 0.504749 0.160449 0.750000
O O6 0.562819 0.148487 0.000992
O O7 0.479070 0.250000 0.000000
O O8 0.456926 0.089102 0.983921
O O9 0.740393 0.158527 0.750000
O O10 0.678558 0.153336 0.998954
O O11 0.765025 0.250000 0.000000
O O12 0.774510 0.079244 0.999488
O O13 0.409566 0.396461 0.750000
O O14 0.378488 0.517712 0.565038
O O15 0.349540 0.362483 0.506603
O O16 0.620751 0.148842 0.750000
O O17 0.790672 0.513338 0.750000
O O18 0.857417 0.527619 0.980679
O O19 0.753785 0.584555 0.004428
O O20 0.288973 0.344349 0.750000
O O21 0.270020 0.250000 0.000000
O O22 0.073884 0.023439 0.750000
#
# Coordination Sequence:
#
# PCOD9437906 Si02
#       8
#     8   8   8   8   8   8   8   8
#     4  10  20  37  63  93 126 164 203 243 293 346
#     4  11  22  35  53  79 109 142 184 234 292 357
#     4  11  22  40  62  87 119 158 201 248 302 358
#     4  10  20  38  59  80 109 144 186 239 298 357
#     4   9  19  37  58  80 110 145 186 239 295 355
#     4  11  23  41  63  90 123 159 204 253 300 353
#     4  11  23  40  62  86 117 157 200 249 303 361
#     4   9  21  40  61  89 125 162 203 250 295 345
#
# _framework density 19.755434999999999
#
# number of rings (size 3 to 8) (size 9 to 14) (size 15 to 20)
#    0.000    1.750    1.250    3.000    0.000    4.500 
#    0.000    3.750    0.000    0.000    0.000    0.000 
#    0.000    0.000    0.000    0.000    0.000    0.000 
#
# Total GULP energy -357217.241771 kJ/mol
# GULP energy per Si atom -5581.519403 kJ/mol
# Density = 1.971047 g / cm^3
# Si number density = 19.755435 Si / 1000 Ang^3
#
#
#
# Elastic Constant Matrix: (Units=GPa)
#
#
# Indices 1 2 3 4 5 6 
#
# 1 79.6540 20.2648 22.8925 0.0000 0.0000 0.0000
# 2 20.2648 97.3767 15.7437 0.0000 0.0000 0.0000
# 3 22.8925 15.7437 39.0670 0.0000 0.0000 0.0000
# 4 0.0000 0.0000 0.0000 30.3896 0.0000 0.0000
# 5 0.0000 0.0000 0.0000 0.0000 43.0960 0.0000
# 6 0.0000 0.0000 0.0000 0.0000 0.0000 -37.1360
#
#
#
# Elastic Compliance Matrix: (Units=1/GPa)
#
#
# Indices 1 2 3 4 5 6 
#
# 1 0.015408 -0.001869 -0.008276 0.000000 0.000000 0.000000
# 2 -0.001869 0.011212 -0.003423 0.000000 0.000000 0.000000
# 3 -0.008276 -0.003423 0.031826 0.000000 0.000000 0.000000
# 4 0.000000 0.000000 0.000000 0.032906 0.000000 0.000000
# 5 0.000000 0.000000 0.000000 0.000000 0.023204 0.000000
# 6 0.000000 0.000000 0.000000 0.000000 0.000000 -0.026928
#
#
# Mechanical properties :
#
#
# Convention : Reuss Voigt Hill
#
# Bulk Modulus (GPa) = 31.93808 37.09995 34.51902
# Shear Modulus (GPa) = 39.93605 17.74971 28.84288
#
# Velocity S-wave (km/s) = 4.50101 3.00070 3.82514
# Velocity P-wave (km/s) = 6.57373 5.55212 6.08441
#
# Compressibility (1/GPa) = 0.03131058
#
# Stress axis : x y z
#
# Youngs Moduli (GPa) = 64.90077 89.19238 31.42075
#
# Poissons Ratio (x) = 0.16666 0.26003
# Poissons Ratio (y) = 0.12127 0.10756
# Poissons Ratio (z) = 0.53711 0.30533
#
# Static dielectric constant tensor:
#      x y z
#    x 1.707330 0.000000 0.000000 
#    y 0.000000 1.684140 0.000000 
#    z 0.000000 0.000000 1.683010 
# 
# From -- ./inp_files/9499.got.cif
#   From: 2010.05.17/outbox.cif.g08.bks.cpg/sg57_5_cif.got.tgz:9499.got - 2010.06.03 13:58:18.
