data_PCOD9437648
_publ_section_title
;
Structure prediction by ZEFSAII (Michael W. Deem and Ramdas Pophale) SiO2 
 PCOD9437648
Probable space group: P B C M
;
_chemical_formula_sum "Si O2"
_cell_formula_units_Z 56
_cell_length_a 9.775381
_cell_length_b 19.491962
_cell_length_c 14.220186
_cell_angle_alpha 90.000000
_cell_angle_beta 90.000000
_cell_angle_gamma 90.000000
_cell_volume 2709.533509
_symmetry_space_group_name_H-M "P B C M"
_symmetry_group_IT_number 57
_symmetry_cell_setting 'orthorhombic'
loop_
_space_group_symop_operation_xyz
x,y,z
-x,-y,1/2+z
x,1/2-y,-z
-x,1/2+y,1/2-z
-x,-y,-z
x,y,1/2-z
-x,1/2+y,z
x,1/2-y,1/2+z
loop_
_atom_site_type_symbol
_atom_site_label
_atom_site_fract_x
_atom_site_fract_y
_atom_site_fract_z
Si Si1 0.257600 0.316917 0.052811
Si Si2 0.795658 0.957613 0.973320
Si Si3 0.795515 0.303612 0.863758
Si Si4 0.082104 0.952836 0.864053
Si Si5 0.027457 0.826013 0.139242
Si Si6 0.265636 0.919475 0.361457
Si Si7 0.450372 0.715064 0.861591
O O1 0.401040 0.294669 0.096044
O O2 0.131762 0.333353 0.121286
O O3 0.205337 0.250000 0.000000
O O4 0.272251 0.384088 0.988965
O O5 0.928704 0.948749 0.906085
O O6 0.702446 0.013689 0.921333
O O7 0.841795 0.989603 0.073661
O O8 0.790964 0.300839 0.750000
O O9 0.843738 0.380045 0.885238
O O10 0.904712 0.245429 0.894022
O O11 0.646561 0.277276 0.897009
O O12 0.081465 0.964280 0.750000
O O13 0.051786 0.826304 0.250000
O O14 0.117777 0.890202 0.104842
O O15 0.261606 0.935542 0.250000
O O16 0.366105 0.855393 0.374803
O O17 0.466883 0.724814 0.750000
#
# Coordination Sequence:
#
# PCOD9437648 Si02
#       7
#     8   8   8   8   8   8   8
#     4  12  25  37  51  79 118 155 194 241 292 342
#     4  11  23  36  56  88 121 154 194 239 296 358
#     4   8  16  34  61  88 109 141 192 240 288 343
#     4  10  20  36  60  91 124 153 189 244 298 347
#     4   9  17  33  59  84 109 145 189 238 289 344
#     4   9  19  39  65  89 115 151 194 242 295 351
#     4   9  20  40  63  84 113 157 201 238 283 346
#
# _framework density 20.667763000000001
#
# number of rings (size 3 to 8) (size 9 to 14) (size 15 to 20)
#    0.000    2.286    0.000    5.143    0.000    4.000 
#    0.000    5.000    0.000    3.429    0.000    0.000 
#    0.000    0.000    0.000    0.000    0.000    0.000 
#
# Total GULP energy -312672.314487 kJ/mol
# GULP energy per Si atom -5583.434187 kJ/mol
# Density = 2.062072 g / cm^3
# Si number density = 20.667763 Si / 1000 Ang^3
#
#
#
# Elastic Constant Matrix: (Units=GPa)
#
#
# Indices 1 2 3 4 5 6 
#
# 1 74.0185 4.5500 10.4545 0.0000 0.0000 0.0000
# 2 4.5500 115.0049 33.5419 0.0000 0.0000 0.0000
# 3 10.4545 33.5419 96.0931 0.0000 0.0000 0.0000
# 4 0.0000 0.0000 0.0000 31.4301 0.0000 0.0000
# 5 0.0000 0.0000 0.0000 0.0000 -8.6986 0.0000
# 6 0.0000 0.0000 0.0000 0.0000 0.0000 562.3920
#
#
#
# Elastic Compliance Matrix: (Units=1/GPa)
#
#
# Indices 1 2 3 4 5 6 
#
# 1 0.013722 -0.000120 -0.001451 0.000000 0.000000 0.000000
# 2 -0.000120 0.009682 -0.003367 0.000000 0.000000 0.000000
# 3 -0.001451 -0.003367 0.011740 0.000000 0.000000 0.000000
# 4 0.000000 0.000000 0.000000 0.031817 0.000000 0.000000
# 5 0.000000 0.000000 0.000000 0.000000 -0.114961 0.000000
# 6 0.000000 0.000000 0.000000 0.000000 0.000000 0.001778
#
#
# Mechanical properties :
#
#
# Convention : Reuss Voigt Hill
#
# Bulk Modulus (GPa) = 39.57381 42.46767 41.02074
# Shear Modulus (GPa) = -179.05558 132.79603 -23.12978
#
# Velocity S-wave (km/s) = -9.31790 8.02448 -3.34896
# Velocity P-wave (km/s) = 9.82727 10.31740 2.22188
#
# Compressibility (1/GPa) = 0.02526923
#
# Stress axis : x y z
#
# Youngs Moduli (GPa) = 72.87321 103.28573 85.18208
#
# Poissons Ratio (x) = 0.01236 0.12361
# Poissons Ratio (y) = 0.00872 0.28677
# Poissons Ratio (z) = 0.10575 0.34771
#
# Static dielectric constant tensor:
#      x y z
#    x 1.729650 0.000000 0.000000 
#    y 0.000000 1.762740 0.000000 
#    z 0.000000 0.000000 1.768010 
# 
# From -- ./inp_files/16761.got.cif
#   From: 2010.05.17/outbox.cif.g08.bks.cpg/sg57_9_cif.got.tgz:16761.got - 2010.06.03 13:58:18.
