data_PCOD9437042
_publ_section_title
;
Structure prediction by ZEFSAII (Michael W. Deem and Ramdas Pophale) SiO2 
 PCOD9437042
Probable space group: P B C M
;
_chemical_formula_sum "Si O2"
_cell_formula_units_Z 40
_cell_length_a 26.430783
_cell_length_b 9.770130
_cell_length_c 8.483558
_cell_angle_alpha 90.000000
_cell_angle_beta 90.000000
_cell_angle_gamma 90.000000
_cell_volume 2190.727727
_symmetry_space_group_name_H-M "P B C M"
_symmetry_group_IT_number 57
_symmetry_cell_setting 'orthorhombic'
loop_
_space_group_symop_operation_xyz
x,y,z
-x,-y,1/2+z
x,1/2-y,-z
-x,1/2+y,1/2-z
-x,-y,-z
x,y,1/2-z
-x,1/2+y,z
x,1/2-y,1/2+z
loop_
_atom_site_type_symbol
_atom_site_label
_atom_site_fract_x
_atom_site_fract_y
_atom_site_fract_z
Si Si1 0.955606 0.904320 0.561321
Si Si2 0.842608 0.596075 0.440397
Si Si3 0.637720 0.403215 0.440263
Si Si4 0.752538 0.097787 0.559499
Si Si5 0.545767 0.594379 0.439537
O O1 0.962260 0.750000 0.500000
O O2 0.956842 0.902780 0.750000
O O3 0.899034 0.951008 0.510877
O O4 0.000000 0.000000 0.500000
O O5 0.836277 0.750000 0.500000
O O6 0.841630 0.596624 0.250000
O O7 0.796464 0.502909 0.497149
O O8 0.625291 0.250000 0.500000
O O9 0.636888 0.398390 0.250000
O O10 0.695156 0.437418 0.491289
O O11 0.597161 0.516351 0.491138
O O12 0.762953 0.250000 0.500000
O O13 0.752905 0.097165 0.750000
O O14 0.542694 0.750000 0.500000
O O15 0.500000 0.500000 0.500000
O O16 0.544463 0.597477 0.250000
#
# Coordination Sequence:
#
# PCOD9437042 Si02
#       5
#     8   8   8   8   8
#     4  10  20  35  53  75 102 135 172 213 259 309
#     4   9  19  34  52  74 102 133 168 208 253 303
#     4   9  19  35  55  77 104 136 171 211 256 303
#     4   9  18  34  53  76 104 134 169 210 253 302
#     4  11  23  38  56  80 108 140 176 216 260 309
#
# _framework density 18.258772
#
# number of rings (size 3 to 8) (size 9 to 14) (size 15 to 20)
#    0.000    2.400    0.000    1.800    0.000    6.400 
#    0.000    2.000    0.000    0.000    0.000    0.000 
#    0.000    0.000    0.000    0.000    0.000    0.000 
#
# Total GULP energy -223157.010992 kJ/mol
# GULP energy per Si atom -5578.925275 kJ/mol
# Density = 1.821721 g / cm^3
# Si number density = 18.258772 Si / 1000 Ang^3
#
#
#
# Elastic Constant Matrix: (Units=GPa)
#
#
# Indices 1 2 3 4 5 6 
#
# 1 185.0344 131.5476 34.6797 0.0000 0.0000 0.0000
# 2 131.5476 135.1225 25.8859 0.0000 0.0000 0.0000
# 3 34.6797 25.8859 21.0506 0.0000 0.0000 0.0000
# 4 0.0000 0.0000 0.0000 34.2012 0.0000 0.0000
# 5 0.0000 0.0000 0.0000 0.0000 22.1882 0.0000
# 6 0.0000 0.0000 0.0000 0.0000 0.0000 43.6597
#
#
#
# Elastic Compliance Matrix: (Units=1/GPa)
#
#
# Indices 1 2 3 4 5 6 
#
# 1 0.019461 -0.016750 -0.011464 0.000000 0.000000 0.000000
# 2 -0.016750 0.024098 -0.002038 0.000000 0.000000 0.000000
# 3 -0.011464 -0.002038 0.068897 0.000000 0.000000 0.000000
# 4 0.000000 0.000000 0.000000 0.029239 0.000000 0.000000
# 5 0.000000 0.000000 0.000000 0.000000 0.045069 0.000000
# 6 0.000000 0.000000 0.000000 0.000000 0.000000 0.022904
#
#
# Mechanical properties :
#
#
# Convention : Reuss Voigt Hill
#
# Bulk Modulus (GPa) = 19.24857 80.60377 49.92617
# Shear Modulus (GPa) = 17.39181 29.94943 23.67062
#
# Velocity S-wave (km/s) = 3.08964 4.05443 3.60446
# Velocity P-wave (km/s) = 4.82626 8.13381 6.68774
#
# Compressibility (1/GPa) = 0.05195192
#
# Stress axis : x y z
#
# Youngs Moduli (GPa) = 51.38370 41.49646 14.51438
#
# Poissons Ratio (x) = 0.69508 0.16639
# Poissons Ratio (y) = 0.86070 0.02959
# Poissons Ratio (z) = 0.58905 0.08459
#
# Static dielectric constant tensor:
#      x y z
#    x 1.656430 0.000000 0.000000 
#    y 0.000000 1.576600 0.000000 
#    z 0.000000 0.000000 1.625080 
# 
# From -- ./inp_files/8850.got.cif
#   From: 2010.05.17/outbox.cif.g08.bks.cpg/sg57_5_cif.got.tgz:8850.got - 2010.06.03 13:58:18.
