data_PCOD9437867
_publ_section_title
;
Structure prediction by ZEFSAII (Michael W. Deem and Ramdas Pophale) SiO2 
 PCOD9437867
Probable space group: P B C M
;
_chemical_formula_sum "Si O2"
_cell_formula_units_Z 56
_cell_length_a 5.654765
_cell_length_b 31.660476
_cell_length_c 14.320907
_cell_angle_alpha 90.000000
_cell_angle_beta 90.000000
_cell_angle_gamma 90.000000
_cell_volume 2563.908521
_symmetry_space_group_name_H-M "P B C M"
_symmetry_group_IT_number 57
_symmetry_cell_setting 'orthorhombic'
loop_
_space_group_symop_operation_xyz
x,y,z
-x,-y,1/2+z
x,1/2-y,-z
-x,1/2+y,1/2-z
-x,-y,-z
x,y,1/2-z
-x,1/2+y,z
x,1/2-y,1/2+z
loop_
_atom_site_type_symbol
_atom_site_label
_atom_site_fract_x
_atom_site_fract_y
_atom_site_fract_z
Si Si1 0.268610 0.546200 0.032377
Si Si2 0.582557 0.743020 0.860579
Si Si3 0.329059 0.657087 0.645074
Si Si4 0.975207 0.522450 0.854869
Si Si5 0.356194 0.410755 0.067030
Si Si6 0.976782 0.137670 0.027379
Si Si7 0.081458 0.780843 0.861667
O O1 0.197961 0.516081 0.116912
O O2 0.152690 0.592758 0.045483
O O3 0.537561 0.555498 0.005538
O O4 0.165118 0.525791 0.937282
O O5 0.589976 0.752805 0.750000
O O6 0.524149 0.693484 0.868624
O O7 0.841826 0.756911 0.895630
O O8 0.340997 0.765594 0.896821
O O9 0.232475 0.661866 0.750000
O O10 0.447793 0.611505 0.630085
O O11 0.137938 0.659482 0.563808
O O12 0.065487 0.518129 0.750000
O O13 0.830651 0.565921 0.867940
O O14 0.238664 0.375186 0.002761
O O15 0.953770 0.170567 0.110128
O O16 0.089411 0.775246 0.750000
#
# Coordination Sequence:
#
# PCOD9437867 Si02
#       7
#     8   8   8   8   8   8   8
#     4   9  21  39  56  85 126 154 194 262 305 367
#     4   9  21  40  63  88 123 165 212 265 319 372
#     4  10  22  39  58  87 123 161 203 260 318 376
#     4  10  20  37  62  87 114 159 203 245 312 382
#     4  10  21  37  57  86 123 158 199 256 310 375
#     4  10  23  38  59  89 120 163 208 253 315 383
#     4  10  22  42  64  89 126 168 212 266 321 376
#
# _framework density 21.841650999999999
#
# number of rings (size 3 to 8) (size 9 to 14) (size 15 to 20)
#    0.000    2.286    0.000    0.857    6.000    7.429 
#    0.000    0.714    0.000    0.000    0.000    0.000 
#    0.000    0.000    0.000    0.000    0.000    0.000 
#
# Total GULP energy -312564.474096 kJ/mol
# GULP energy per Si atom -5581.508466 kJ/mol
# Density = 2.179194 g / cm^3
# Si number density = 21.841651 Si / 1000 Ang^3
#
#
#
# Elastic Constant Matrix: (Units=GPa)
#
#
# Indices 1 2 3 4 5 6 
#
# 1 75.1772 9.2985 11.1353 0.0000 0.0000 0.0000
# 2 9.2985 66.6756 9.8195 0.0000 0.0000 0.0000
# 3 11.1353 9.8195 61.8903 0.0000 0.0000 0.0000
# 4 0.0000 0.0000 0.0000 29.1046 0.0000 0.0000
# 5 0.0000 0.0000 0.0000 0.0000 6.6824 0.0000
# 6 0.0000 0.0000 0.0000 0.0000 0.0000 47.3878
#
#
#
# Elastic Compliance Matrix: (Units=1/GPa)
#
#
# Indices 1 2 3 4 5 6 
#
# 1 0.013831 -0.001600 -0.002235 0.000000 0.000000 0.000000
# 2 -0.001600 0.015542 -0.002178 0.000000 0.000000 0.000000
# 3 -0.002235 -0.002178 0.016905 0.000000 0.000000 0.000000
# 4 0.000000 0.000000 0.000000 0.034359 0.000000 0.000000
# 5 0.000000 0.000000 0.000000 0.000000 0.149647 0.000000
# 6 0.000000 0.000000 0.000000 0.000000 0.000000 0.021102
#
#
# Mechanical properties :
#
#
# Convention : Reuss Voigt Hill
#
# Bulk Modulus (GPa) = 29.19443 29.36106 29.27774
# Shear Modulus (GPa) = 18.19314 28.20095 23.19704
#
# Velocity S-wave (km/s) = 2.88923 3.59716 3.26245
# Velocity P-wave (km/s) = 4.95233 5.54298 5.25596
#
# Compressibility (1/GPa) = 0.03425311
#
# Stress axis : x y z
#
# Youngs Moduli (GPa) = 72.30258 64.34238 59.15327
#
# Poissons Ratio (x) = 0.10293 0.13218
# Poissons Ratio (y) = 0.11566 0.12884
# Poissons Ratio (z) = 0.16157 0.14014
#
# Static dielectric constant tensor:
#      x y z
#    x 1.867750 0.000000 0.000000 
#    y 0.000000 1.816440 0.000000 
#    z 0.000000 0.000000 1.756420 
# 
# From -- ./inp_files/15236.got.cif
#   From: 2010.05.17/outbox.cif.g08.bks.cpg/sg57_8_cif.got.tgz:15236.got - 2010.06.03 13:58:18.
