data_PCOD9437388
_publ_section_title
;
Structure prediction by ZEFSAII (Michael W. Deem and Ramdas Pophale) SiO2 
 PCOD9437388
Probable space group: P B C M
;
_chemical_formula_sum "Si O2"
_cell_formula_units_Z 48
_cell_length_a 29.795647
_cell_length_b 10.463884
_cell_length_c 8.695196
_cell_angle_alpha 90.000000
_cell_angle_beta 90.000000
_cell_angle_gamma 90.000000
_cell_volume 2710.972505
_symmetry_space_group_name_H-M "P B C M"
_symmetry_group_IT_number 57
_symmetry_cell_setting 'orthorhombic'
loop_
_space_group_symop_operation_xyz
x,y,z
-x,-y,1/2+z
x,1/2-y,-z
-x,1/2+y,1/2-z
-x,-y,-z
x,y,1/2-z
-x,1/2+y,z
x,1/2-y,1/2+z
loop_
_atom_site_type_symbol
_atom_site_label
_atom_site_fract_x
_atom_site_fract_y
_atom_site_fract_z
Si Si1 0.364309 0.610837 0.565467
Si Si2 0.302039 0.388587 0.065878
Si Si3 0.031128 0.611150 0.934702
Si Si4 0.469522 0.611915 0.933535
Si Si5 0.202319 0.387782 0.564482
Si Si6 0.864920 0.387486 0.434909
O O1 0.351441 0.750000 0.500000
O O2 0.359483 0.610383 0.750000
O O3 0.334666 0.499502 0.492475
O O4 0.416978 0.591089 0.527319
O O5 0.301077 0.383419 0.250000
O O6 0.316005 0.250000 0.000000
O O7 0.251902 0.412712 0.001884
O O8 0.028657 0.613144 0.750000
O O9 0.083267 0.589292 0.980726
O O10 0.018007 0.750000 0.000000
O O11 0.000000 0.500000 0.000000
O O12 0.473364 0.614845 0.750000
O O13 0.482694 0.750000 0.000000
O O14 0.500000 0.500000 0.000000
O O15 0.187854 0.250000 0.500000
O O16 0.204689 0.382399 0.750000
O O17 0.167952 0.498728 0.517424
O O18 0.851032 0.250000 0.500000
O O19 0.863862 0.380886 0.250000
#
# Coordination Sequence:
#
# PCOD9437388 Si02
#       6
#     8   8   8   8   8   8
#     4  10  21  38  58  82 110 143 181 223 268 319
#     4  11  22  37  57  81 109 143 180 223 269 318
#     4  10  20  36  55  79 108 141 179 221 267 317
#     4  10  21  37  58  82 111 144 181 223 269 318
#     4  10  20  36  55  78 107 139 176 220 265 317
#     4   9  20  36  55  78 106 138 176 218 263 315
#
# _framework density 17.705824
#
# number of rings (size 3 to 8) (size 9 to 14) (size 15 to 20)
#    0.000    2.000    0.000    4.500    0.000    6.000 
#    0.000    3.333    0.000    0.000    0.000    0.000 
#    0.000    0.000    0.000    0.000    0.000    0.000 
#
# Total GULP energy -268073.803764 kJ/mol
# GULP energy per Si atom -5584.870912 kJ/mol
# Density = 1.766552 g / cm^3
# Si number density = 17.705824 Si / 1000 Ang^3
#
#
#
# Elastic Constant Matrix: (Units=GPa)
#
#
# Indices 1 2 3 4 5 6 
#
# 1 87.2823 122.9111 48.3277 0.0000 0.0000 0.0000
# 2 122.9111 211.7290 71.0643 0.0000 0.0000 0.0000
# 3 48.3277 71.0643 79.4806 0.0000 0.0000 0.0000
# 4 0.0000 0.0000 0.0000 39.0149 0.0000 0.0000
# 5 0.0000 0.0000 0.0000 0.0000 25.5875 0.0000
# 6 0.0000 0.0000 0.0000 0.0000 0.0000 44.3620
#
#
#
# Elastic Compliance Matrix: (Units=1/GPa)
#
#
# Indices 1 2 3 4 5 6 
#
# 1 0.066527 -0.035780 -0.008460 0.000000 0.000000 0.000000
# 2 -0.035780 0.025992 -0.001483 0.000000 0.000000 0.000000
# 3 -0.008460 -0.001483 0.019052 0.000000 0.000000 0.000000
# 4 0.000000 0.000000 0.000000 0.025631 0.000000 0.000000
# 5 0.000000 0.000000 0.000000 0.000000 0.039082 0.000000
# 6 0.000000 0.000000 0.000000 0.000000 0.000000 0.022542
#
#
# Mechanical properties :
#
#
# Convention : Reuss Voigt Hill
#
# Bulk Modulus (GPa) = 49.69297 95.89980 72.79639
# Shear Modulus (GPa) = 16.83607 30.87214 23.85411
#
# Velocity S-wave (km/s) = 3.08698 4.18019 3.67447
# Velocity P-wave (km/s) = 6.39005 8.80790 7.69454
#
# Compressibility (1/GPa) = 0.02012357
#
# Stress axis : x y z
#
# Youngs Moduli (GPa) = 15.03143 38.47366 52.48753
#
# Poissons Ratio (x) = 1.37660 0.44405
# Poissons Ratio (y) = 0.53783 0.07786
# Poissons Ratio (z) = 0.12717 0.05708
#
# Static dielectric constant tensor:
#      x y z
#    x 1.591750 0.000000 0.000000 
#    y 0.000000 1.571190 0.000000 
#    z 0.000000 0.000000 1.593940 
# 
# From -- ./inp_files/10083.got.cif
#   From: 2010.05.17/outbox.cif.g08.bks.cpg/sg57_6_cif.got.tgz:10083.got - 2010.06.03 13:58:18.
