data_PCOD9437803
_publ_section_title
;
Structure prediction by ZEFSAII (Michael W. Deem and Ramdas Pophale) SiO2 
 PCOD9437803
Probable space group: P B C M
;
_chemical_formula_sum "Si O2"
_cell_formula_units_Z 56
_cell_length_a 14.728557
_cell_length_b 8.537516
_cell_length_c 21.657927
_cell_angle_alpha 90.000000
_cell_angle_beta 90.000000
_cell_angle_gamma 90.000000
_cell_volume 2723.382334
_symmetry_space_group_name_H-M "P B C M"
_symmetry_group_IT_number 57
_symmetry_cell_setting 'orthorhombic'
loop_
_space_group_symop_operation_xyz
x,y,z
-x,-y,1/2+z
x,1/2-y,-z
-x,1/2+y,1/2-z
-x,-y,-z
x,y,1/2-z
-x,1/2+y,z
x,1/2-y,1/2+z
loop_
_atom_site_type_symbol
_atom_site_label
_atom_site_fract_x
_atom_site_fract_y
_atom_site_fract_z
Si Si1 0.072201 0.119615 0.581091
Si Si2 0.513904 0.168006 0.250000
Si Si3 0.542171 0.801760 0.930740
Si Si4 0.220907 0.384266 0.324142
Si Si5 0.598653 0.483050 0.871216
Si Si6 0.712372 0.957666 0.872207
Si Si7 0.362895 0.957278 0.250000
Si Si8 0.884258 0.982038 0.949855
O O1 0.123537 0.082973 0.644669
O O2 0.114313 0.018722 0.524285
O O3 0.091057 0.301890 0.566990
O O4 0.965390 0.086305 0.577223
O O5 0.554270 0.087765 0.189648
O O6 0.551570 0.342352 0.250000
O O7 0.406742 0.132545 0.250000
O O8 0.557517 0.652687 0.886989
O O9 0.441447 0.871577 0.924417
O O10 0.617905 0.924772 0.907399
O O11 0.562191 0.750000 0.000000
O O12 0.222366 0.399436 0.250000
O O13 0.295890 0.493836 0.357232
O O14 0.250290 0.207963 0.344660
O O15 0.788189 0.018466 0.919070
O O16 0.692739 0.063153 0.812504
#
# Coordination Sequence:
#
# PCOD9437803 Si02
#       8
#     8   4   8   8   8   8   4   8
#     4   9  19  38  63  84 114 155 196 248 301 371
#     4  12  24  40  62  85 117 172 206 249 293 367
#     4  11  24  39  60  88 122 161 204 258 305 363
#     4  10  20  37  60  86 117 159 202 245 304 369
#     4  11  23  40  60  84 121 160 207 248 303 365
#     4  10  22  36  63  88 117 157 203 249 301 369
#     4  12  24  40  62  87 125 160 214 251 305 359
#     4   9  19  39  63  87 113 152 201 243 305 367
#
# _framework density 20.562667000000001
#
# number of rings (size 3 to 8) (size 9 to 14) (size 15 to 20)
#    0.000    1.714    2.857    1.286    8.000    0.000 
#    3.857    0.000    3.143    0.000    0.000    0.000 
#    0.000    0.000    0.000    0.000    0.000    0.000 
#
# Total GULP energy -312735.858752 kJ/mol
# GULP energy per Si atom -5584.568906 kJ/mol
# Density = 2.051587 g / cm^3
# Si number density = 20.562667 Si / 1000 Ang^3
#
#
#
# Elastic Constant Matrix: (Units=GPa)
#
#
# Indices 1 2 3 4 5 6 
#
# 1 55.2302 12.9926 45.5807 0.0000 0.0000 0.0000
# 2 12.9926 23.4383 10.7096 0.0000 0.0000 0.0000
# 3 45.5807 10.7096 84.8869 0.0000 0.0000 0.0000
# 4 0.0000 0.0000 0.0000 15.0832 0.0000 0.0000
# 5 0.0000 0.0000 0.0000 0.0000 32.7204 0.0000
# 6 0.0000 0.0000 0.0000 0.0000 0.0000 22.2915
#
#
#
# Elastic Compliance Matrix: (Units=1/GPa)
#
#
# Indices 1 2 3 4 5 6 
#
# 1 0.035235 -0.011553 -0.017462 0.000000 0.000000 0.000000
# 2 -0.011553 0.049063 0.000013 0.000000 0.000000 0.000000
# 3 -0.017462 0.000013 0.021155 0.000000 0.000000 0.000000
# 4 0.000000 0.000000 0.000000 0.066299 0.000000 0.000000
# 5 0.000000 0.000000 0.000000 0.000000 0.030562 0.000000
# 6 0.000000 0.000000 0.000000 0.000000 0.000000 0.044860
#
#
# Mechanical properties :
#
#
# Convention : Reuss Voigt Hill
#
# Bulk Modulus (GPa) = 21.07476 33.56903 27.32189
# Shear Modulus (GPa) = 15.57659 20.30386 17.94022
#
# Velocity S-wave (km/s) = 2.75529 3.14572 2.95696
# Velocity P-wave (km/s) = 4.51591 5.43643 4.99741
#
# Compressibility (1/GPa) = 0.04745012
#
# Stress axis : x y z
#
# Youngs Moduli (GPa) = 28.38080 20.38186 47.26981
#
# Poissons Ratio (x) = 0.23547 0.82544
# Poissons Ratio (y) = 0.32788 -0.00063
# Poissons Ratio (z) = 0.49559 -0.00027
#
# Static dielectric constant tensor:
#      x y z
#    x 1.719850 0.000000 0.000000 
#    y 0.000000 1.774790 0.000000 
#    z 0.000000 0.000000 1.743510 
# 
# From -- ./inp_files/25474.got.cif
#   From: 2010.05.17/outbox.cif.g08.bks.cpg/sg57_13_cif.got.tgz:25474.got - 2010.06.03 13:58:18.
