data_PCOD9437690
_publ_section_title
;
Structure prediction by ZEFSAII (Michael W. Deem and Ramdas Pophale) SiO2 
 PCOD9437690
Probable space group: P B C M
;
_chemical_formula_sum "Si O2"
_cell_formula_units_Z 60
_cell_length_a 6.314457
_cell_length_b 22.355154
_cell_length_c 20.946373
_cell_angle_alpha 90.000000
_cell_angle_beta 90.000000
_cell_angle_gamma 90.000000
_cell_volume 2956.803809
_symmetry_space_group_name_H-M "P B C M"
_symmetry_group_IT_number 57
_symmetry_cell_setting 'orthorhombic'
loop_
_space_group_symop_operation_xyz
x,y,z
-x,-y,1/2+z
x,1/2-y,-z
-x,1/2+y,1/2-z
-x,-y,-z
x,y,1/2-z
-x,1/2+y,z
x,1/2-y,1/2+z
loop_
_atom_site_type_symbol
_atom_site_label
_atom_site_fract_x
_atom_site_fract_y
_atom_site_fract_z
Si Si1 0.464850 0.210045 0.370363
Si Si2 0.220202 0.123679 0.455288
Si Si3 0.511593 0.469253 0.619545
Si Si4 0.817389 0.053730 0.678054
Si Si5 0.810848 0.660178 0.250000
Si Si6 0.796466 0.923309 0.094228
Si Si7 0.484104 0.341290 0.324152
Si Si8 0.147565 0.874694 0.860002
O O1 0.326824 0.185039 0.429730
O O2 0.348150 0.185062 0.306931
O O3 0.486927 0.280990 0.364649
O O4 0.697909 0.181376 0.371018
O O5 0.378674 0.073373 0.426816
O O6 0.193674 0.114977 0.530247
O O7 0.992616 0.114306 0.422694
O O8 0.350635 0.500219 0.668788
O O9 0.631013 0.522963 0.584140
O O10 0.692439 0.429409 0.652649
O O11 0.906548 0.050439 0.750000
O O12 0.690588 0.116346 0.671024
O O13 0.986152 0.050365 0.621477
O O14 0.979833 0.637323 0.194982
O O15 0.706358 0.882073 0.150797
O O16 0.456502 0.325667 0.250000
#
# Coordination Sequence:
#
# PCOD9437690 Si02
#       8
#     8   8   8   8   4   8   8   8
#     4  10  21  41  62  93 124 163 204 258 318 377
#     4  10  23  41  62  94 126 164 216 253 319 379
#     4  10  22  41  63  92 125 168 206 266 317 371
#     4  10  23  40  61  94 126 165 219 258 318 379
#     4  10  20  36  62  90 120 158 200 246 306 370
#     4  11  23  42  64  90 125 171 215 263 305 372
#     4  10  22  42  65  89 122 165 210 262 316 375
#     4  10  22  38  61  96 127 161 202 260 316 376
#
# _framework density 20.292179000000001
#
# number of rings (size 3 to 8) (size 9 to 14) (size 15 to 20)
#    0.000    1.867    0.667    2.000    0.933    9.600 
#   14.400    0.000    0.000    0.000    0.000    0.000 
#    0.000    0.000    0.000    0.000    0.000    0.000 
#
# Total GULP energy -334061.368599 kJ/mol
# GULP energy per Si atom -5567.689477 kJ/mol
# Density = 2.024599 g / cm^3
# Si number density = 20.292179 Si / 1000 Ang^3
#
#
#
# Elastic Constant Matrix: (Units=GPa)
#
#
# Indices 1 2 3 4 5 6 
#
# 1 80.6646 19.0872 23.2227 0.0000 0.0000 0.0000
# 2 19.0872 76.6453 -8.8488 0.0000 0.0000 0.0000
# 3 23.2227 -8.8488 44.0675 0.0000 0.0000 0.0000
# 4 0.0000 0.0000 0.0000 12.1074 0.0000 0.0000
# 5 0.0000 0.0000 0.0000 0.0000 5.4418 0.0000
# 6 0.0000 0.0000 0.0000 0.0000 0.0000 9.9002
#
#
#
# Elastic Compliance Matrix: (Units=1/GPa)
#
#
# Indices 1 2 3 4 5 6 
#
# 1 0.016422 -0.005210 -0.009700 0.000000 0.000000 0.000000
# 2 -0.005210 0.015009 0.005759 0.000000 0.000000 0.000000
# 3 -0.009700 0.005759 0.028961 0.000000 0.000000 0.000000
# 4 0.000000 0.000000 0.000000 0.082594 0.000000 0.000000
# 5 0.000000 0.000000 0.000000 0.000000 0.183762 0.000000
# 6 0.000000 0.000000 0.000000 0.000000 0.000000 0.101008
#
#
# Mechanical properties :
#
#
# Convention : Reuss Voigt Hill
#
# Bulk Modulus (GPa) = 23.75798 29.81110 26.78454
# Shear Modulus (GPa) = 10.86748 16.68431 13.77589
#
# Velocity S-wave (km/s) = 2.31671 2.87052 2.60835
# Velocity P-wave (km/s) = 4.34621 5.07044 4.72223
#
# Compressibility (1/GPa) = 0.04209111
#
# Stress axis : x y z
#
# Youngs Moduli (GPa) = 60.89242 66.62494 34.52939
#
# Poissons Ratio (x) = 0.34709 0.33495
# Poissons Ratio (y) = 0.31723 -0.19886
# Poissons Ratio (z) = 0.59068 -0.38371
#
# Static dielectric constant tensor:
#      x y z
#    x 1.712330 0.000000 0.000000 
#    y 0.000000 1.747150 0.000000 
#    z 0.000000 0.000000 1.718260 
# 
# From -- ./inp_files/23821.got.cif
#   From: 2010.05.17/outbox.cif.g08.bks.cpg/sg57_12_cif.got.tgz:23821.got - 2010.06.03 13:58:18.
