data_PCOD9437292
_publ_section_title
;
Structure prediction by ZEFSAII (Michael W. Deem and Ramdas Pophale) SiO2 
 PCOD9437292
Probable space group: P B C M
;
_chemical_formula_sum "Si O2"
_cell_formula_units_Z 48
_cell_length_a 20.707099
_cell_length_b 13.642262
_cell_length_c 9.234837
_cell_angle_alpha 90.000000
_cell_angle_beta 90.000000
_cell_angle_gamma 90.000000
_cell_volume 2608.764525
_symmetry_space_group_name_H-M "P B C M"
_symmetry_group_IT_number 57
_symmetry_cell_setting 'orthorhombic'
loop_
_space_group_symop_operation_xyz
x,y,z
-x,-y,1/2+z
x,1/2-y,-z
-x,1/2+y,1/2-z
-x,-y,-z
x,y,1/2-z
-x,1/2+y,z
x,1/2-y,1/2+z
loop_
_atom_site_type_symbol
_atom_site_label
_atom_site_fract_x
_atom_site_fract_y
_atom_site_fract_z
Si Si1 0.143461 0.068279 0.078093
Si Si2 0.287770 0.353876 0.922358
Si Si3 0.402947 0.049888 0.578826
Si Si4 0.021369 0.402099 0.417312
Si Si5 0.477647 0.848225 0.578921
Si Si6 0.122712 0.844567 0.416895
O O1 0.128353 0.067566 0.250000
O O2 0.213772 0.113085 0.056572
O O3 0.141748 0.953599 0.029208
O O4 0.087091 0.127469 0.996729
O O5 0.300018 0.347328 0.750000
O O6 0.298351 0.250000 0.000000
O O7 0.336234 0.429753 0.997870
O O8 0.398892 0.073009 0.750000
O O9 0.456964 0.116915 0.501011
O O10 0.427847 0.938376 0.564497
O O11 0.036082 0.421999 0.250000
O O12 0.000000 0.500000 0.500000
O O13 0.955732 0.340106 0.420451
O O14 0.454779 0.750000 0.500000
O O15 0.489282 0.832011 0.750000
O O16 0.148321 0.750000 0.500000
O O17 0.142983 0.839468 0.250000
#
# Coordination Sequence:
#
# PCOD9437292 Si02
#       6
#     8   8   8   8   8   8
#     4   9  20  37  53  73 103 137 174 216 262 313
#     4  11  23  39  58  78 106 142 179 222 270 322
#     4  10  21  37  57  83 114 146 183 223 264 315
#     4   9  17  30  49  72  99 130 167 213 261 310
#     4  10  20  35  58  86 115 147 182 222 267 314
#     4   9  18  32  50  74 101 131 169 210 258 312
#
# _framework density 18.399515000000001
#
# number of rings (size 3 to 8) (size 9 to 14) (size 15 to 20)
#    0.000    2.333    0.000    3.500    0.000    7.333 
#    0.000    4.167    0.000    4.000    0.000    0.000 
#    0.000    0.000    0.000    0.000    0.000    0.000 
#
# Total GULP energy -267686.194555 kJ/mol
# GULP energy per Si atom -5576.795720 kJ/mol
# Density = 1.835764 g / cm^3
# Si number density = 18.399515 Si / 1000 Ang^3
#
#
#
# Elastic Constant Matrix: (Units=GPa)
#
#
# Indices 1 2 3 4 5 6 
#
# 1 74.0784 7.4889 48.6151 0.0000 0.0000 0.0000
# 2 7.4889 64.2168 44.0961 0.0000 0.0000 0.0000
# 3 48.6151 44.0961 110.0942 0.0000 0.0000 0.0000
# 4 0.0000 0.0000 0.0000 28.2526 0.0000 0.0000
# 5 0.0000 0.0000 0.0000 0.0000 29.4839 0.0000
# 6 0.0000 0.0000 0.0000 0.0000 0.0000 9.0816
#
#
#
# Elastic Compliance Matrix: (Units=1/GPa)
#
#
# Indices 1 2 3 4 5 6 
#
# 1 0.020191 0.005197 -0.010998 0.000000 0.000000 0.000000
# 2 0.005197 0.022818 -0.011434 0.000000 0.000000 0.000000
# 3 -0.010998 -0.011434 0.018519 0.000000 0.000000 0.000000
# 4 0.000000 0.000000 0.000000 0.035395 0.000000 0.000000
# 5 0.000000 0.000000 0.000000 0.000000 0.033917 0.000000
# 6 0.000000 0.000000 0.000000 0.000000 0.000000 0.110113
#
#
# Mechanical properties :
#
#
# Convention : Reuss Voigt Hill
#
# Bulk Modulus (GPa) = 36.95658 49.86552 43.41105
# Shear Modulus (GPa) = 17.57829 23.24289 20.41059
#
# Velocity S-wave (km/s) = 3.09425 3.55806 3.33423
# Velocity P-wave (km/s) = 5.73543 6.63627 6.20222
#
# Compressibility (1/GPa) = 0.02705878
#
# Stress axis : x y z
#
# Youngs Moduli (GPa) = 49.52677 43.82568 53.99835
#
# Poissons Ratio (x) = -0.22776 0.59385
# Poissons Ratio (y) = -0.25739 0.61742
# Poissons Ratio (z) = 0.54467 0.50111
#
# Static dielectric constant tensor:
#      x y z
#    x 1.634030 0.000000 0.000000 
#    y 0.000000 1.647530 0.000000 
#    z 0.000000 0.000000 1.622460 
# 
# From -- ./inp_files/6563.got.cif
#   From: 2010.05.17/outbox.cif.g08.bks.cpg/sg57_4_cif.got.tgz:6563.got - 2010.06.03 13:58:18.
