data_PCOD9437649
_publ_section_title
;
Structure prediction by ZEFSAII (Michael W. Deem and Ramdas Pophale) SiO2 
 PCOD9437649
Probable space group: P B C M
;
_chemical_formula_sum "Si O2"
_cell_formula_units_Z 64
_cell_length_a 12.183896
_cell_length_b 31.716680
_cell_length_c 8.613891
_cell_angle_alpha 90.000000
_cell_angle_beta 90.000000
_cell_angle_gamma 90.000000
_cell_volume 3328.689420
_symmetry_space_group_name_H-M "P B C M"
_symmetry_group_IT_number 57
_symmetry_cell_setting 'orthorhombic'
loop_
_space_group_symop_operation_xyz
x,y,z
-x,-y,1/2+z
x,1/2-y,-z
-x,1/2+y,1/2-z
-x,-y,-z
x,y,1/2-z
-x,1/2+y,z
x,1/2-y,1/2+z
loop_
_atom_site_type_symbol
_atom_site_label
_atom_site_fract_x
_atom_site_fract_y
_atom_site_fract_z
Si Si1 0.261552 0.204838 0.937138
Si Si2 0.498473 0.327286 0.437503
Si Si3 0.872231 0.373732 0.936243
Si Si4 0.741364 0.546600 0.435886
Si Si5 0.735562 0.204856 0.563958
Si Si6 0.882148 0.624023 0.563559
Si Si7 0.501992 0.577675 0.062626
Si Si8 0.266750 0.543795 0.062685
O O1 0.261297 0.206156 0.750000
O O2 0.386316 0.195051 0.989851
O O3 0.184971 0.165868 0.985747
O O4 0.225332 0.250000 0.000000
O O5 0.497272 0.328444 0.250000
O O6 0.609875 0.304190 0.487578
O O7 0.500224 0.374967 0.498485
O O8 0.870497 0.371479 0.750000
O O9 0.807140 0.416196 0.982752
O O10 0.809743 0.333238 0.003283
O O11 0.996079 0.375247 0.995944
O O12 0.746743 0.548895 0.250000
O O13 0.817130 0.582951 0.506243
O O14 0.615391 0.555773 0.485676
O O15 0.772376 0.500082 0.491951
O O16 0.771591 0.250000 0.500000
O O17 0.738413 0.205367 0.750000
O O18 0.886554 0.623714 0.750000
O O19 0.500235 0.579691 0.250000
O O20 0.392039 0.553488 0.012461
O O21 0.264965 0.540603 0.250000
#
# Coordination Sequence:
#
# PCOD9437649 Si02
#       8
#     8   8   8   8   8   8   8   8
#     4  10  22  39  61  90 121 157 196 242 298 355
#     4  10  20  36  60  91 124 158 196 241 298 360
#     4  11  24  43  65  88 119 158 206 256 303 356
#     4  11  23  38  62  94 123 157 201 248 301 362
#     4  11  23  39  63  93 125 161 201 246 300 359
#     4  11  24  43  64  86 120 161 205 253 304 360
#     4  10  20  36  60  91 124 158 196 242 301 362
#     4  10  22  40  62  89 123 161 197 244 305 364
#
# _framework density 19.226786000000001
#
# number of rings (size 3 to 8) (size 9 to 14) (size 15 to 20)
#    0.000    1.500    2.500    2.250    0.000    5.000 
#    0.000    1.250    0.000    0.000    0.000    0.000 
#    0.000    0.000    0.000    0.000    0.000    0.000 
#
# Total GULP energy -357784.842836 kJ/mol
# GULP energy per Si atom -5590.388169 kJ/mol
# Density = 1.918302 g / cm^3
# Si number density = 19.226786 Si / 1000 Ang^3
#
#
#
# Elastic Constant Matrix: (Units=GPa)
#
#
# Indices 1 2 3 4 5 6 
#
# 1 152.2522 82.7626 38.2432 0.0000 0.0000 0.0000
# 2 82.7626 191.6285 41.7609 0.0000 0.0000 0.0000
# 3 38.2432 41.7609 30.4607 0.0000 0.0000 0.0000
# 4 0.0000 0.0000 0.0000 37.6288 0.0000 0.0000
# 5 0.0000 0.0000 0.0000 0.0000 27.2477 0.0000
# 6 0.0000 0.0000 0.0000 0.0000 0.0000 0.9667
#
#
#
# Elastic Compliance Matrix: (Units=1/GPa)
#
#
# Indices 1 2 3 4 5 6 
#
# 1 0.010268 -0.002318 -0.009714 0.000000 0.000000 0.000000
# 2 -0.002318 0.007965 -0.008010 0.000000 0.000000 0.000000
# 3 -0.009714 -0.008010 0.056006 0.000000 0.000000 0.000000
# 4 0.000000 0.000000 0.000000 0.026575 0.000000 0.000000
# 5 0.000000 0.000000 0.000000 0.000000 0.036700 0.000000
# 6 0.000000 0.000000 0.000000 0.000000 0.000000 1.034478
#
#
# Mechanical properties :
#
#
# Convention : Reuss Voigt Hill
#
# Bulk Modulus (GPa) = 29.27725 77.76387 53.52056
# Shear Modulus (GPa) = 4.08677 27.27362 15.68020
#
# Velocity S-wave (km/s) = 1.45951 3.77041 2.85886
# Velocity P-wave (km/s) = 4.25448 7.71285 6.22851
#
# Compressibility (1/GPa) = 0.03415621
#
# Stress axis : x y z
#
# Youngs Moduli (GPa) = 97.39143 125.54902 17.85522
#
# Poissons Ratio (x) = 0.29099 0.17344
# Poissons Ratio (y) = 0.22573 0.14302
# Poissons Ratio (z) = 0.94603 1.00564
#
# Static dielectric constant tensor:
#      x y z
#    x 1.664960 0.000000 0.000000 
#    y 0.000000 1.636960 0.000000 
#    z 0.000000 0.000000 1.653000 
# 
# From -- ./inp_files/3913.got.cif
#   From: 2010.05.17/outbox.cif.g08.bks.cpg/sg57_2_cif.got.tgz:3913.got - 2010.06.03 13:58:18.
