data_PCOD9437326
_publ_section_title
;
Structure prediction by ZEFSAII (Michael W. Deem and Ramdas Pophale) SiO2 
 PCOD9437326
Probable space group: P B C M
;
_chemical_formula_sum "Si O2"
_cell_formula_units_Z 48
_cell_length_a 14.987123
_cell_length_b 18.837067
_cell_length_c 8.884647
_cell_angle_alpha 90.000000
_cell_angle_beta 90.000000
_cell_angle_gamma 90.000000
_cell_volume 2508.255259
_symmetry_space_group_name_H-M "P B C M"
_symmetry_group_IT_number 57
_symmetry_cell_setting 'orthorhombic'
loop_
_space_group_symop_operation_xyz
x,y,z
-x,-y,1/2+z
x,1/2-y,-z
-x,1/2+y,1/2-z
-x,-y,-z
x,y,1/2-z
-x,1/2+y,z
x,1/2-y,1/2+z
loop_
_atom_site_type_symbol
_atom_site_label
_atom_site_fract_x
_atom_site_fract_y
_atom_site_fract_z
Si Si1 0.432156 0.401817 0.428629
Si Si2 0.372476 0.551718 0.929458
Si Si3 0.863569 0.925717 0.070423
Si Si4 0.184312 0.913907 0.569960
Si Si5 0.030108 0.826014 0.070018
Si Si6 0.721297 0.823053 0.928067
O O1 0.415543 0.399988 0.250000
O O2 0.538348 0.401713 0.454073
O O3 0.394940 0.476064 0.494553
O O4 0.376764 0.340626 0.509148
O O5 0.361207 0.541797 0.750000
O O6 0.283348 0.583088 0.001448
O O7 0.847844 0.918093 0.250000
O O8 0.954844 0.884913 0.033599
O O9 0.860384 0.009154 0.035920
O O10 0.785058 0.886178 0.982714
O O11 0.188320 0.905884 0.750000
O O12 0.122899 0.853766 0.497671
O O13 0.035649 0.819933 0.250000
O O14 0.006038 0.750000 0.000000
O O15 0.720866 0.817978 0.750000
O O16 0.754488 0.750000 0.000000
#
# Coordination Sequence:
#
# PCOD9437326 Si02
#       6
#     8   8   8   8   8   8
#     4  10  20  36  57  84 120 155 196 244 292 352
#     4  10  20  35  59  89 118 154 197 243 294 347
#     4  10  22  40  62  90 121 156 199 250 302 358
#     4  11  22  38  63  92 123 158 199 250 301 355
#     4  11  24  42  62  86 120 159 203 249 302 363
#     4  12  24  37  58  86 122 163 203 249 306 364
#
# _framework density 19.136807000000001
#
# number of rings (size 3 to 8) (size 9 to 14) (size 15 to 20)
#    0.000    1.333    1.667    4.500    0.000    5.333 
#    0.000    0.833    0.000    4.000    0.000    0.000 
#    0.000    0.000    0.000    0.000    0.000    0.000 
#
# Total GULP energy -268351.393504 kJ/mol
# GULP energy per Si atom -5590.654031 kJ/mol
# Density = 1.909325 g / cm^3
# Si number density = 19.136807 Si / 1000 Ang^3
#
#
#
# Elastic Constant Matrix: (Units=GPa)
#
#
# Indices 1 2 3 4 5 6 
#
# 1 104.1214 8.8186 41.4011 0.0000 0.0000 0.0000
# 2 8.8186 34.0928 22.3560 0.0000 0.0000 0.0000
# 3 41.4011 22.3560 60.8290 0.0000 0.0000 0.0000
# 4 0.0000 0.0000 0.0000 29.4004 0.0000 0.0000
# 5 0.0000 0.0000 0.0000 0.0000 29.1377 0.0000
# 6 0.0000 0.0000 0.0000 0.0000 0.0000 4.6627
#
#
#
# Elastic Compliance Matrix: (Units=1/GPa)
#
#
# Indices 1 2 3 4 5 6 
#
# 1 0.013448 0.003325 -0.010375 0.000000 0.000000 0.000000
# 2 0.003325 0.039467 -0.016768 0.000000 0.000000 0.000000
# 3 -0.010375 -0.016768 0.029663 0.000000 0.000000 0.000000
# 4 0.000000 0.000000 0.000000 0.034013 0.000000 0.000000
# 5 0.000000 0.000000 0.000000 0.000000 0.034320 0.000000
# 6 0.000000 0.000000 0.000000 0.000000 0.000000 0.214470
#
#
# Mechanical properties :
#
#
# Convention : Reuss Voigt Hill
#
# Bulk Modulus (GPa) = 28.61856 38.24385 33.43120
# Shear Modulus (GPa) = 11.77403 21.07132 16.42267
#
# Velocity S-wave (km/s) = 2.48313 3.32187 2.93264
# Velocity P-wave (km/s) = 4.81751 5.89414 5.38281
#
# Compressibility (1/GPa) = 0.03494236
#
# Stress axis : x y z
#
# Youngs Moduli (GPa) = 74.36162 25.33766 33.71186
#
# Poissons Ratio (x) = -0.08424 0.34975
# Poissons Ratio (y) = -0.24722 0.56527
# Poissons Ratio (z) = 0.77147 0.42485
#
# Static dielectric constant tensor:
#      x y z
#    x 1.673040 0.000000 0.000000 
#    y 0.000000 1.653190 0.000000 
#    z 0.000000 0.000000 1.628890 
# 
# From -- ./inp_files/4577.got.cif
#   From: 2010.05.17/outbox.cif.g08.bks.cpg/sg57_3_cif.got.tgz:4577.got - 2010.06.03 13:58:18.
