data_PCOD9437298
_publ_section_title
;
Structure prediction by ZEFSAII (Michael W. Deem and Ramdas Pophale) SiO2 
 PCOD9437298
Probable space group: P B C M
;
_chemical_formula_sum "Si O2"
_cell_formula_units_Z 48
_cell_length_a 14.807049
_cell_length_b 20.919273
_cell_length_c 8.682678
_cell_angle_alpha 90.000000
_cell_angle_beta 90.000000
_cell_angle_gamma 90.000000
_cell_volume 2689.482957
_symmetry_space_group_name_H-M "P B C M"
_symmetry_group_IT_number 57
_symmetry_cell_setting 'orthorhombic'
loop_
_space_group_symop_operation_xyz
x,y,z
-x,-y,1/2+z
x,1/2-y,-z
-x,1/2+y,1/2-z
-x,-y,-z
x,y,1/2-z
-x,1/2+y,z
x,1/2-y,1/2+z
loop_
_atom_site_type_symbol
_atom_site_label
_atom_site_fract_x
_atom_site_fract_y
_atom_site_fract_z
Si Si1 0.742475 0.978983 0.434565
Si Si2 0.057109 0.059309 0.935890
Si Si3 0.059014 0.680399 0.935531
Si Si4 0.748448 0.122098 0.935682
Si Si5 0.555195 0.319629 0.434481
Si Si6 0.446178 0.061110 0.433645
O O1 0.733378 0.975641 0.250000
O O2 0.838440 0.948422 0.480526
O O3 0.656881 0.945628 0.511999
O O4 0.743891 0.052875 0.486518
O O5 0.052682 0.056645 0.750000
O O6 0.010683 0.125382 0.985961
O O7 0.000000 0.000000 0.000000
O O8 0.057336 0.683085 0.750000
O O9 0.159832 0.658031 0.981853
O O10 0.038516 0.750000 0.000000
O O11 0.750304 0.113124 0.750000
O O12 0.658637 0.161613 0.974581
O O13 0.533762 0.250000 0.500000
O O14 0.547397 0.319574 0.250000
O O15 0.492010 0.374814 0.502776
O O16 0.451743 0.059502 0.250000
O O17 0.500000 0.000000 0.500000
#
# Coordination Sequence:
#
# PCOD9437298 Si02
#       6
#     8   8   8   8   8   8
#     4  11  22  36  59  90 119 153 199 247 295 351
#     4  10  21  37  59  86 117 154 196 244 291 347
#     4  10  21  37  56  84 120 156 195 239 291 349
#     4  10  20  35  58  86 121 156 190 239 296 353
#     4  11  23  39  60  89 123 160 198 243 297 357
#     4  12  24  40  62  88 119 157 199 247 300 355
#
# _framework density 17.847296
#
# number of rings (size 3 to 8) (size 9 to 14) (size 15 to 20)
#    0.000    1.333    3.333    3.000    0.000    2.667 
#    0.000    0.833    0.000    2.000    0.000    0.000 
#    0.000    0.000    0.000    0.000    0.000    0.000 
#
# Total GULP energy -268289.683657 kJ/mol
# GULP energy per Si atom -5589.368410 kJ/mol
# Density = 1.780668 g / cm^3
# Si number density = 17.847296 Si / 1000 Ang^3
#
#
#
# Elastic Constant Matrix: (Units=GPa)
#
#
# Indices 1 2 3 4 5 6 
#
# 1 159.7608 100.0004 51.3392 0.0000 0.0000 0.0000
# 2 100.0004 186.5373 53.3741 0.0000 0.0000 0.0000
# 3 51.3392 53.3741 51.0228 0.0000 0.0000 0.0000
# 4 0.0000 0.0000 0.0000 34.7180 0.0000 0.0000
# 5 0.0000 0.0000 0.0000 0.0000 14.8217 0.0000
# 6 0.0000 0.0000 0.0000 0.0000 0.0000 23.4011
#
#
#
# Elastic Compliance Matrix: (Units=1/GPa)
#
#
# Indices 1 2 3 4 5 6 
#
# 1 0.010904 -0.003862 -0.006932 0.000000 0.000000 0.000000
# 2 -0.003862 0.009019 -0.005548 0.000000 0.000000 0.000000
# 3 -0.006932 -0.005548 0.032378 0.000000 0.000000 0.000000
# 4 0.000000 0.000000 0.000000 0.028803 0.000000 0.000000
# 5 0.000000 0.000000 0.000000 0.000000 0.067469 0.000000
# 6 0.000000 0.000000 0.000000 0.000000 0.000000 0.042733
#
#
# Mechanical properties :
#
#
# Convention : Reuss Voigt Hill
#
# Bulk Modulus (GPa) = 50.97768 89.63873 70.30820
# Shear Modulus (GPa) = 21.68917 27.42865 24.55891
#
# Velocity S-wave (km/s) = 3.48985 3.92452 3.71355
# Velocity P-wave (km/s) = 6.69806 8.41845 7.60704
#
# Compressibility (1/GPa) = 0.01961643
#
# Stress axis : x y z
#
# Youngs Moduli (GPa) = 91.70541 110.87750 30.88546
#
# Poissons Ratio (x) = 0.42825 0.21409
# Poissons Ratio (y) = 0.35420 0.17136
# Poissons Ratio (z) = 0.63568 0.61518
#
# Static dielectric constant tensor:
#      x y z
#    x 1.607140 0.000000 0.000000 
#    y 0.000000 1.570960 0.000000 
#    z 0.000000 0.000000 1.603580 
# 
# From -- ./inp_files/4669.got.cif
#   From: 2010.05.17/outbox.cif.g08.bks.cpg/sg57_3_cif.got.tgz:4669.got - 2010.06.03 13:58:18.
