data_PCOD9437414
_publ_section_title
;
Structure prediction by ZEFSAII (Michael W. Deem and Ramdas Pophale) SiO2 
 PCOD9437414
Probable space group: P B C M
;
_chemical_formula_sum "Si O2"
_cell_formula_units_Z 48
_cell_length_a 10.121915
_cell_length_b 31.152676
_cell_length_c 8.718493
_cell_angle_alpha 90.000000
_cell_angle_beta 90.000000
_cell_angle_gamma 90.000000
_cell_volume 2749.156525
_symmetry_space_group_name_H-M "P B C M"
_symmetry_group_IT_number 57
_symmetry_cell_setting 'orthorhombic'
loop_
_space_group_symop_operation_xyz
x,y,z
-x,-y,1/2+z
x,1/2-y,-z
-x,1/2+y,1/2-z
-x,-y,-z
x,y,1/2-z
-x,1/2+y,z
x,1/2-y,1/2+z
loop_
_atom_site_type_symbol
_atom_site_label
_atom_site_fract_x
_atom_site_fract_y
_atom_site_fract_z
Si Si1 0.904211 0.036087 0.065556
Si Si2 0.102035 0.629812 0.565212
Si Si3 0.599058 0.465188 0.566112
Si Si4 0.592167 0.796885 0.434312
Si Si5 0.393937 0.632798 0.065410
Si Si6 0.102175 0.296465 0.065531
O O1 0.911616 0.037437 0.250000
O O2 0.751614 0.026667 0.021628
O O3 0.936137 0.083079 0.999110
O O4 0.000000 0.000000 0.000000
O O5 0.106741 0.628191 0.750000
O O6 0.247289 0.640323 0.500517
O O7 0.996909 0.665975 0.517289
O O8 0.500000 0.500000 0.500000
O O9 0.592668 0.467068 0.750000
O O10 0.567605 0.416056 0.520378
O O11 0.557261 0.750000 0.500000
O O12 0.583397 0.796256 0.250000
O O13 0.496358 0.832886 0.501118
O O14 0.745382 0.805277 0.478646
O O15 0.388762 0.634805 0.250000
O O16 0.098307 0.294045 0.250000
O O17 0.064694 0.250000 0.000000
#
# Coordination Sequence:
#
# PCOD9437414 Si02
#       6
#     8   8   8   8   8   8
#     4  10  21  37  55  79 108 140 177 219 264 316
#     4  10  20  36  56  80 108 140 177 220 266 315
#     4   9  20  36  54  77 106 137 175 218 261 310
#     4  10  20  36  56  79 106 139 175 217 264 312
#     4  10  21  37  54  78 109 141 177 218 261 314
#     4   9  20  36  55  79 107 137 175 218 263 313
#
# _framework density 17.459900000000001
#
# number of rings (size 3 to 8) (size 9 to 14) (size 15 to 20)
#    0.000    2.333    0.000    3.000    0.000    8.000 
#    0.000    6.667    0.000    0.000    0.000    0.000 
#    0.000    0.000    0.000    0.000    0.000    0.000 
#
# Total GULP energy -267898.487008 kJ/mol
# GULP energy per Si atom -5581.218479 kJ/mol
# Density = 1.742016 g / cm^3
# Si number density = 17.459900 Si / 1000 Ang^3
#
#
#
# Elastic Constant Matrix: (Units=GPa)
#
#
# Indices 1 2 3 4 5 6 
#
# 1 123.1565 142.0362 47.6673 0.0000 0.0000 0.0000
# 2 142.0362 191.3973 58.2536 0.0000 0.0000 0.0000
# 3 47.6673 58.2536 54.9142 0.0000 0.0000 0.0000
# 4 0.0000 0.0000 0.0000 36.2576 0.0000 0.0000
# 5 0.0000 0.0000 0.0000 0.0000 27.1942 0.0000
# 6 0.0000 0.0000 0.0000 0.0000 0.0000 45.1821
#
#
#
# Elastic Compliance Matrix: (Units=1/GPa)
#
#
# Indices 1 2 3 4 5 6 
#
# 1 0.058066 -0.040982 -0.006929 0.000000 0.000000 0.000000
# 2 -0.040982 0.036640 -0.003295 0.000000 0.000000 0.000000
# 3 -0.006929 -0.003295 0.027720 0.000000 0.000000 0.000000
# 4 0.000000 0.000000 0.000000 0.027580 0.000000 0.000000
# 5 0.000000 0.000000 0.000000 0.000000 0.036773 0.000000
# 6 0.000000 0.000000 0.000000 0.000000 0.000000 0.022133
#
#
# Mechanical properties :
#
#
# Convention : Reuss Voigt Hill
#
# Bulk Modulus (GPa) = 49.96313 96.15356 73.05834
# Shear Modulus (GPa) = 15.72347 29.82750 22.77549
#
# Velocity S-wave (km/s) = 3.00417 4.13769 3.61563
# Velocity P-wave (km/s) = 6.38055 8.83278 7.70485
#
# Compressibility (1/GPa) = 0.02001476
#
# Stress axis : x y z
#
# Youngs Moduli (GPa) = 17.22170 27.29223 36.07502
#
# Poissons Ratio (x) = 1.11849 0.24997
# Poissons Ratio (y) = 0.70578 0.11886
# Poissons Ratio (z) = 0.11933 0.08992
#
# Static dielectric constant tensor:
#      x y z
#    x 1.578070 0.000000 0.000000 
#    y 0.000000 1.567420 0.000000 
#    z 0.000000 0.000000 1.586870 
# 
# From -- ./inp_files/2105.got.cif
#   From: 2010.05.17/outbox.cif.g08.bks.cpg/sg57_2_cif.got.tgz:2105.got - 2010.06.03 13:58:18.
