data_PCOD9437322
_publ_section_title
;
Structure prediction by ZEFSAII (Michael W. Deem and Ramdas Pophale) SiO2 
 PCOD9437322
Probable space group: P B C M
;
_chemical_formula_sum "Si O2"
_cell_formula_units_Z 56
_cell_length_a 21.766576
_cell_length_b 15.210258
_cell_length_c 8.795844
_cell_angle_alpha 90.000000
_cell_angle_beta 90.000000
_cell_angle_gamma 90.000000
_cell_volume 2912.086135
_symmetry_space_group_name_H-M "P B C M"
_symmetry_group_IT_number 57
_symmetry_cell_setting 'orthorhombic'
loop_
_space_group_symop_operation_xyz
x,y,z
-x,-y,1/2+z
x,1/2-y,-z
-x,1/2+y,1/2-z
-x,-y,-z
x,y,1/2-z
-x,1/2+y,z
x,1/2-y,1/2+z
loop_
_atom_site_type_symbol
_atom_site_label
_atom_site_fract_x
_atom_site_fract_y
_atom_site_fract_z
Si Si1 0.692281 0.659862 0.929517
Si Si2 0.432022 0.395658 0.570801
Si Si3 0.568880 0.089293 0.430898
Si Si4 0.996368 0.349454 0.067228
Si Si5 0.091401 0.996404 0.568175
Si Si6 0.774265 0.992644 0.571109
Si Si7 0.309420 0.663222 0.928277
O O1 0.698572 0.659019 0.750000
O O2 0.715830 0.750000 0.000000
O O3 0.620861 0.649892 0.974907
O O4 0.730114 0.581113 0.002683
O O5 0.418865 0.385466 0.750000
O O6 0.502242 0.367519 0.540742
O O7 0.429400 0.498489 0.524921
O O8 0.572206 0.070244 0.250000
O O9 0.627208 0.144045 0.483891
O O10 0.992914 0.342320 0.250000
O O11 0.054421 0.413410 0.027977
O O12 0.998564 0.250000 0.000000
O O13 0.940403 0.410509 0.006698
O O14 0.087883 0.986947 0.750000
O O15 0.160940 0.004333 0.512912
O O16 0.784062 0.976904 0.750000
O O17 0.736968 0.082937 0.553347
O O18 0.322684 0.674222 0.750000
O O19 0.281083 0.750000 0.000000
#
# Coordination Sequence:
#
# PCOD9437322 Si02
#       7
#     8   8   8   8   8   8   8
#     4  12  25  41  63  88 118 159 205 255 311 370
#     4  10  20  36  58  86 117 151 196 249 309 373
#     4  10  20  35  59  86 115 153 196 248 310 373
#     4  10  21  39  65  97 131 166 205 251 300 351
#     4  10  22  40  64  94 128 168 209 249 299 358
#     4  11  24  43  64  89 125 165 206 255 304 360
#     4  11  24  40  61  86 118 157 203 255 308 368
#
# _framework density 19.230201000000001
#
# number of rings (size 3 to 8) (size 9 to 14) (size 15 to 20)
#    0.000    1.429    1.429    3.857    0.000    6.857 
#    0.000    2.857    0.000    0.000    0.000    0.000 
#    0.000    0.000    0.000    0.000    0.000    0.000 
#
# Total GULP energy -312926.276592 kJ/mol
# GULP energy per Si atom -5587.969225 kJ/mol
# Density = 1.918643 g / cm^3
# Si number density = 19.230201 Si / 1000 Ang^3
#
#
#
# Elastic Constant Matrix: (Units=GPa)
#
#
# Indices 1 2 3 4 5 6 
#
# 1 77.3475 21.1164 24.8776 0.0000 0.0000 0.0000
# 2 21.1164 111.3105 47.8555 0.0000 0.0000 0.0000
# 3 24.8776 47.8555 47.8647 0.0000 0.0000 0.0000
# 4 0.0000 0.0000 0.0000 30.6704 0.0000 0.0000
# 5 0.0000 0.0000 0.0000 0.0000 4.9384 0.0000
# 6 0.0000 0.0000 0.0000 0.0000 0.0000-1138.1147
#
#
#
# Elastic Compliance Matrix: (Units=1/GPa)
#
#
# Indices 1 2 3 4 5 6 
#
# 1 0.015578 0.000922 -0.009018 0.000000 0.000000 0.000000
# 2 0.000922 0.015812 -0.016288 0.000000 0.000000 0.000000
# 3 -0.009018 -0.016288 0.041864 0.000000 0.000000 0.000000
# 4 0.000000 0.000000 0.000000 0.032605 0.000000 0.000000
# 5 0.000000 0.000000 0.000000 0.000000 0.202493 0.000000
# 6 0.000000 0.000000 0.000000 0.000000 0.000000 -0.000879
#
#
# Mechanical properties :
#
#
# Convention : Reuss Voigt Hill
#
# Bulk Modulus (GPa) = 40.84094 47.13574 43.98834
# Shear Modulus (GPa) = 13.72111 -210.98963 -98.63426
#
# Velocity S-wave (km/s) = 2.67408 -10.48599 -7.16957
# Velocity P-wave (km/s) = 5.55142 11.04733 6.75371
#
# Compressibility (1/GPa) = 0.02448523
#
# Stress axis : x y z
#
# Youngs Moduli (GPa) = 64.19508 63.24505 23.88683
#
# Poissons Ratio (x) = -0.05831 0.21542
# Poissons Ratio (y) = -0.05919 0.38906
# Poissons Ratio (z) = 0.57893 1.03012
#
# Static dielectric constant tensor:
#      x y z
#    x 1.653440 0.000000 0.000000 
#    y 0.000000 1.685060 0.000000 
#    z 0.000000 0.000000 1.641240 
# 
# From -- ./inp_files/8061.got.cif
#   From: 2010.05.17/outbox.cif.g08.bks.cpg/sg57_5_cif.got.tgz:8061.got - 2010.06.03 13:58:18.
