data_PCOD9437683
_publ_section_title
;
Structure prediction by ZEFSAII (Michael W. Deem and Ramdas Pophale) SiO2 
 PCOD9437683
Probable space group: P B C M
;
_chemical_formula_sum "Si O2"
_cell_formula_units_Z 56
_cell_length_a 12.680924
_cell_length_b 9.505490
_cell_length_c 20.042957
_cell_angle_alpha 90.000000
_cell_angle_beta 90.000000
_cell_angle_gamma 90.000000
_cell_volume 2415.945893
_symmetry_space_group_name_H-M "P B C M"
_symmetry_group_IT_number 57
_symmetry_cell_setting 'orthorhombic'
loop_
_space_group_symop_operation_xyz
x,y,z
-x,-y,1/2+z
x,1/2-y,-z
-x,1/2+y,1/2-z
-x,-y,-z
x,y,1/2-z
-x,1/2+y,z
x,1/2-y,1/2+z
loop_
_atom_site_type_symbol
_atom_site_label
_atom_site_fract_x
_atom_site_fract_y
_atom_site_fract_z
Si Si1 0.809972 0.612418 0.479499
Si Si2 0.662359 0.772535 0.631264
Si Si3 0.057134 0.879250 0.454097
Si Si4 0.575129 0.247172 0.080871
Si Si5 0.308619 0.931296 0.320703
Si Si6 0.749227 0.481037 0.879824
Si Si7 0.096675 0.746910 0.176005
O O1 0.881851 0.750000 0.500000
O O2 0.718809 0.687140 0.438508
O O3 0.852374 0.489770 0.432676
O O4 0.783616 0.532077 0.546947
O O5 0.539711 0.765969 0.613106
O O6 0.707248 0.622400 0.654750
O O7 0.693292 0.901134 0.677797
O O8 0.097323 0.750000 0.500000
O O9 0.023543 0.806555 0.384095
O O10 0.000000 0.000000 0.500000
O O11 0.626980 0.384802 0.113842
O O12 0.652000 0.123970 0.107143
O O13 0.572042 0.250000 0.000000
O O14 0.362022 0.887022 0.250000
O O15 0.197416 0.850624 0.319206
O O16 0.846973 0.399313 0.846278
O O17 0.048545 0.735783 0.250000
#
# Coordination Sequence:
#
# PCOD9437683 Si02
#       7
#     8   8   8   8   8   8   8
#     4  10  20  36  61  95 131 166 218 272 336 400
#     4  11  21  35  57  92 132 172 231 291 330 383
#     4  12  24  43  72 103 132 165 207 269 339 413
#     4  11  22  35  57  90 129 175 230 288 335 372
#     4  10  22  38  58  84 126 182 229 273 331 394
#     4  10  21  35  60  89 128 175 220 275 331 390
#     4  10  22  43  67  93 128 174 219 261 328 410
#
# _framework density 23.179324999999999
#
# number of rings (size 3 to 8) (size 9 to 14) (size 15 to 20)
#    0.000    1.429    2.857    3.429    2.000    2.857 
#    0.000    3.571    0.000    0.000    0.000    0.000 
#    0.000    0.000    0.000    0.000    0.000    0.000 
#
# Total GULP energy -312203.158206 kJ/mol
# GULP energy per Si atom -5575.056397 kJ/mol
# Density = 2.312657 g / cm^3
# Si number density = 23.179325 Si / 1000 Ang^3
#
#
#
# Elastic Constant Matrix: (Units=GPa)
#
#
# Indices 1 2 3 4 5 6 
#
# 1 34.2637 16.4258 6.8061 0.0000 0.0000 0.0000
# 2 16.4258 174.1547 35.9171 0.0000 0.0000 0.0000
# 3 6.8061 35.9171 139.1665 0.0000 0.0000 0.0000
# 4 0.0000 0.0000 0.0000 -0.4715 0.0000 0.0000
# 5 0.0000 0.0000 0.0000 0.0000 2.9502 0.0000
# 6 0.0000 0.0000 0.0000 0.0000 0.0000 12.4763
#
#
#
# Elastic Compliance Matrix: (Units=1/GPa)
#
#
# Indices 1 2 3 4 5 6 
#
# 1 0.030651 -0.002727 -0.000795 0.000000 0.000000 0.000000
# 2 -0.002727 0.006307 -0.001495 0.000000 0.000000 0.000000
# 3 -0.000795 -0.001495 0.007610 0.000000 0.000000 0.000000
# 4 0.000000 0.000000 0.000000 -2.120787 0.000000 0.000000
# 5 0.000000 0.000000 0.000000 0.000000 0.338961 0.000000
# 6 0.000000 0.000000 0.000000 0.000000 0.000000 0.080152
#
#
# Mechanical properties :
#
#
# Convention : Reuss Voigt Hill
#
# Bulk Modulus (GPa) = 28.95611 51.76478 40.36045
# Shear Modulus (GPa) = -3.05705 22.22006 9.58150
#
# Velocity S-wave (km/s) = -1.14967 3.09951 2.03534
# Velocity P-wave (km/s) = 3.27979 5.93212 4.79307
#
# Compressibility (1/GPa) = 0.03453502
#
# Stress axis : x y z
#
# Youngs Moduli (GPa) = 32.62581 158.54296 131.40187
#
# Poissons Ratio (x) = 0.43233 0.10449
# Poissons Ratio (y) = 0.08897 0.19638
# Poissons Ratio (z) = 0.02595 0.23694
#
# Static dielectric constant tensor:
#      x y z
#    x 2.050900 0.000000 0.000000 
#    y 0.000000 1.974460 0.000000 
#    z 0.000000 0.000000 1.904270 
# 
# From -- ./inp_files/25410.got.cif
#   From: 2010.05.17/outbox.cif.g08.bks.cpg/sg57_13_cif.got.tgz:25410.got - 2010.06.03 13:58:18.
