data_PCOD9437991
_publ_section_title
;
Structure prediction by ZEFSAII (Michael W. Deem and Ramdas Pophale) SiO2 
 PCOD9437991
Probable space group: P B C M
;
_chemical_formula_sum "Si O2"
_cell_formula_units_Z 56
_cell_length_a 11.621448
_cell_length_b 14.570567
_cell_length_c 15.522944
_cell_angle_alpha 90.000000
_cell_angle_beta 90.000000
_cell_angle_gamma 90.000000
_cell_volume 2628.516977
_symmetry_space_group_name_H-M "P B C M"
_symmetry_group_IT_number 57
_symmetry_cell_setting 'orthorhombic'
loop_
_space_group_symop_operation_xyz
x,y,z
-x,-y,1/2+z
x,1/2-y,-z
-x,1/2+y,1/2-z
-x,-y,-z
x,y,1/2-z
-x,1/2+y,z
x,1/2-y,1/2+z
loop_
_atom_site_type_symbol
_atom_site_label
_atom_site_fract_x
_atom_site_fract_y
_atom_site_fract_z
Si Si1 0.428692 0.978452 0.915039
Si Si2 0.947406 0.799129 0.406184
Si Si3 0.817557 0.342709 0.449081
Si Si4 0.179023 0.471369 0.476786
Si Si5 0.591992 0.383748 0.152990
Si Si6 0.783828 0.641387 0.348978
Si Si7 0.477230 0.300253 0.646954
O O1 0.302806 0.017369 0.930769
O O2 0.510602 0.027848 0.846110
O O3 0.434648 0.871277 0.895338
O O4 0.500000 0.000000 0.000000
O O5 0.951925 0.750000 0.500000
O O6 0.890249 0.898437 0.419776
O O7 0.869404 0.728988 0.352439
O O8 0.080628 0.815506 0.383225
O O9 0.787703 0.250000 0.500000
O O10 0.865496 0.424378 0.510698
O O11 0.704231 0.384929 0.405842
O O12 0.184784 0.428020 0.573580
O O13 0.630116 0.363924 0.250000
O O14 0.510255 0.301893 0.120225
O O15 0.783251 0.604842 0.250000
O O16 0.654615 0.674748 0.372081
O O17 0.488748 0.305797 0.750000
#
# Coordination Sequence:
#
# PCOD9437991 Si02
#       7
#     8   8   8   8   8   8   8
#     4  12  21  35  58  90 117 152 196 241 294 358
#     4   9  21  38  59  85 114 151 198 247 293 345
#     4  11  22  38  60  85 118 158 203 247 289 354
#     4  11  21  37  59  88 118 154 196 247 297 353
#     4  11  24  38  57  85 120 157 193 241 300 352
#     4  10  20  38  61  86 115 151 194 244 299 353
#     4  10  21  37  56  82 119 154 188 238 294 351
#
# _framework density 21.304789
#
# number of rings (size 3 to 8) (size 9 to 14) (size 15 to 20)
#    0.000    1.429    2.857    2.571    0.000    2.286 
#    0.000    0.714    0.000    0.857    0.000    0.000 
#    0.000    0.000    0.000    0.000    0.000    0.000 
#
# Total GULP energy -312628.965335 kJ/mol
# GULP energy per Si atom -5582.660095 kJ/mol
# Density = 2.125630 g / cm^3
# Si number density = 21.304789 Si / 1000 Ang^3
#
#
#
# Elastic Constant Matrix: (Units=GPa)
#
#
# Indices 1 2 3 4 5 6 
#
# 1 93.8102 11.9851 11.7893 0.0000 0.0000 0.0000
# 2 11.9851 99.0043 7.1809 0.0000 0.0000 0.0000
# 3 11.7893 7.1809 40.1152 0.0000 0.0000 0.0000
# 4 0.0000 0.0000 0.0000 25.6121 0.0000 0.0000
# 5 0.0000 0.0000 0.0000 0.0000 12.7142 0.0000
# 6 0.0000 0.0000 0.0000 0.0000 0.0000 28.5157
#
#
#
# Elastic Compliance Matrix: (Units=1/GPa)
#
#
# Indices 1 2 3 4 5 6 
#
# 1 0.011192 -0.001131 -0.003087 0.000000 0.000000 0.000000
# 2 -0.001131 0.010348 -0.001520 0.000000 0.000000 0.000000
# 3 -0.003087 -0.001520 0.026107 0.000000 0.000000 0.000000
# 4 0.000000 0.000000 0.000000 0.039044 0.000000 0.000000
# 5 0.000000 0.000000 0.000000 0.000000 0.078653 0.000000
# 6 0.000000 0.000000 0.000000 0.000000 0.000000 0.035068
#
#
# Mechanical properties :
#
#
# Convention : Reuss Voigt Hill
#
# Bulk Modulus (GPa) = 27.64570 32.76003 30.20287
# Shear Modulus (GPa) = 22.32691 26.83337 24.58014
#
# Velocity S-wave (km/s) = 3.24076 3.55279 3.40036
# Velocity P-wave (km/s) = 5.19690 5.67803 5.44278
#
# Compressibility (1/GPa) = 0.03617198
#
# Stress axis : x y z
#
# Youngs Moduli (GPa) = 89.34765 96.63958 38.30328
#
# Poissons Ratio (x) = 0.10930 0.11823
# Poissons Ratio (y) = 0.10105 0.05822
# Poissons Ratio (z) = 0.27580 0.14688
#
# Static dielectric constant tensor:
#      x y z
#    x 1.789400 0.000000 0.000000 
#    y 0.000000 1.801060 0.000000 
#    z 0.000000 0.000000 2.133280 
# 
# From -- ./inp_files/17771.got.cif
#   From: 2010.05.17/outbox.cif.g08.bks.cpg/sg57_9_cif.got.tgz:17771.got - 2010.06.03 13:58:18.
