data_PCOD9437900
_publ_section_title
;
Structure prediction by ZEFSAII (Michael W. Deem and Ramdas Pophale) SiO2 
 PCOD9437900
Probable space group: P B C M
;
_chemical_formula_sum "Si O2"
_cell_formula_units_Z 64
_cell_length_a 12.320408
_cell_length_b 32.232272
_cell_length_c 8.569570
_cell_angle_alpha 90.000000
_cell_angle_beta 90.000000
_cell_angle_gamma 90.000000
_cell_volume 3403.102578
_symmetry_space_group_name_H-M "P B C M"
_symmetry_group_IT_number 57
_symmetry_cell_setting 'orthorhombic'
loop_
_space_group_symop_operation_xyz
x,y,z
-x,-y,1/2+z
x,1/2-y,-z
-x,1/2+y,1/2-z
-x,-y,-z
x,y,1/2-z
-x,1/2+y,z
x,1/2-y,1/2+z
loop_
_atom_site_type_symbol
_atom_site_label
_atom_site_fract_x
_atom_site_fract_y
_atom_site_fract_z
Si Si1 0.101301 0.371792 0.939104
Si Si2 0.890125 0.479486 0.434823
Si Si3 0.754014 0.705665 0.437660
Si Si4 0.758486 0.947653 0.435552
Si Si5 0.859119 0.111637 0.435140
Si Si6 0.496387 0.295107 0.562883
Si Si7 0.510672 0.546855 0.563156
Si Si8 0.626132 0.373992 0.063768
O O1 0.106123 0.376182 0.750000
O O2 0.168809 0.331557 0.987722
O O3 0.974962 0.369117 0.982909
O O4 0.160081 0.411512 0.012707
O O5 0.899180 0.472664 0.250000
O O6 0.793749 0.511191 0.473334
O O7 0.870056 0.436687 0.522292
O O8 0.000000 0.500000 0.500000
O O9 0.790951 0.750000 0.500000
O O10 0.754120 0.706586 0.250000
O O11 0.629282 0.699272 0.489004
O O12 0.768673 0.954749 0.250000
O O13 0.633202 0.937640 0.470892
O O14 0.846305 0.116875 0.250000
O O15 0.752068 0.127981 0.518628
O O16 0.532747 0.250000 0.500000
O O17 0.499280 0.294012 0.750000
O O18 0.564361 0.334199 0.504029
O O19 0.500000 0.500000 0.500000
O O20 0.498690 0.544040 0.750000
O O21 0.426576 0.582178 0.506292
O O22 0.614299 0.373588 0.250000
#
# Coordination Sequence:
#
# PCOD9437900 Si02
#       8
#     8   8   8   8   8   8   8   8
#     4  10  21  37  57  82 113 147 187 232 283 339
#     4  12  23  37  56  81 113 151 195 239 287 340
#     4   9  19  36  59  88 117 147 181 227 287 348
#     4  11  22  36  57  84 112 144 189 238 290 343
#     4  11  23  39  58  82 115 155 199 243 289 342
#     4  10  20  37  63  92 120 150 190 239 295 357
#     4  10  23  39  56  82 115 153 194 242 294 351
#     4  11  23  40  60  85 119 158 201 247 300 356
#
# _framework density 18.806367000000002
#
# number of rings (size 3 to 8) (size 9 to 14) (size 15 to 20)
#    0.000    1.500    1.250    4.125    0.000    5.500 
#    0.000    0.625    0.000    1.500    0.000    0.000 
#    0.000    0.000    0.000    0.000    0.000    0.000 
#
# Total GULP energy -357620.399383 kJ/mol
# GULP energy per Si atom -5587.818740 kJ/mol
# Density = 1.876356 g / cm^3
# Si number density = 18.806367 Si / 1000 Ang^3
#
#
#
# Elastic Constant Matrix: (Units=GPa)
#
#
# Indices 1 2 3 4 5 6 
#
# 1 98.8039 53.7475 21.2637 0.0000 0.0000 0.0000
# 2 53.7475 122.1108 15.2499 0.0000 0.0000 0.0000
# 3 21.2637 15.2499 29.0844 0.0000 0.0000 0.0000
# 4 0.0000 0.0000 0.0000 32.9431 0.0000 0.0000
# 5 0.0000 0.0000 0.0000 0.0000 26.4525 0.0000
# 6 0.0000 0.0000 0.0000 0.0000 0.0000 34.8943
#
#
#
# Elastic Compliance Matrix: (Units=1/GPa)
#
#
# Indices 1 2 3 4 5 6 
#
# 1 0.014846 -0.005542 -0.007948 0.000000 0.000000 0.000000
# 2 -0.005542 0.010832 -0.001628 0.000000 0.000000 0.000000
# 3 -0.007948 -0.001628 0.041047 0.000000 0.000000 0.000000
# 4 0.000000 0.000000 0.000000 0.030355 0.000000 0.000000
# 5 0.000000 0.000000 0.000000 0.000000 0.037804 0.000000
# 6 0.000000 0.000000 0.000000 0.000000 0.000000 0.028658
#
#
# Mechanical properties :
#
#
# Convention : Reuss Voigt Hill
#
# Bulk Modulus (GPa) = 27.40531 47.83569 37.62050
# Shear Modulus (GPa) = 24.27870 29.50720 26.89295
#
# Velocity S-wave (km/s) = 3.59692 3.96536 3.78563
# Velocity P-wave (km/s) = 5.64398 6.81590 6.25744
#
# Compressibility (1/GPa) = 0.03648928
#
# Stress axis : x y z
#
# Youngs Moduli (GPa) = 67.35632 92.31972 24.36217
#
# Poissons Ratio (x) = 0.51164 0.19364
# Poissons Ratio (y) = 0.37329 0.03965
# Poissons Ratio (z) = 0.53537 0.15027
#
# Static dielectric constant tensor:
#      x y z
#    x 1.678420 0.000000 0.000000 
#    y 0.000000 1.631130 0.000000 
#    z 0.000000 0.000000 1.634630 
# 
# From -- ./inp_files/3831.got.cif
#   From: 2010.05.17/outbox.cif.g08.bks.cpg/sg57_2_cif.got.tgz:3831.got - 2010.06.03 13:58:18.
