data_PCOD9437437
_publ_section_title
;
Structure prediction by ZEFSAII (Michael W. Deem and Ramdas Pophale) SiO2 
 PCOD9437437
Probable space group: P B C M
;
_chemical_formula_sum "Si O2"
_cell_formula_units_Z 48
_cell_length_a 8.664067
_cell_length_b 15.168648
_cell_length_c 18.968156
_cell_angle_alpha 90.000000
_cell_angle_beta 90.000000
_cell_angle_gamma 90.000000
_cell_volume 2492.836461
_symmetry_space_group_name_H-M "P B C M"
_symmetry_group_IT_number 57
_symmetry_cell_setting 'orthorhombic'
loop_
_space_group_symop_operation_xyz
x,y,z
-x,-y,1/2+z
x,1/2-y,-z
-x,1/2+y,1/2-z
-x,-y,-z
x,y,1/2-z
-x,1/2+y,z
x,1/2-y,1/2+z
loop_
_atom_site_type_symbol
_atom_site_label
_atom_site_fract_x
_atom_site_fract_y
_atom_site_fract_z
Si Si1 0.273823 0.011157 0.444400
Si Si2 0.246083 0.161098 0.831780
Si Si3 0.623943 0.015506 0.101055
Si Si4 0.115727 0.300971 0.927679
Si Si5 0.872194 0.125829 0.171344
Si Si6 0.931834 0.056570 0.672794
O O1 0.443424 0.026652 0.412384
O O2 0.182188 0.102879 0.445049
O O3 0.293405 0.980278 0.524647
O O4 0.182268 0.945325 0.392979
O O5 0.287713 0.176212 0.750000
O O6 0.238857 0.248100 0.879294
O O7 0.069512 0.125906 0.833617
O O8 0.343553 0.080731 0.865002
O O9 0.705708 0.089494 0.148516
O O10 0.957570 0.312386 0.884171
O O11 0.091996 0.250000 0.000000
O O12 0.869986 0.163937 0.250000
O O13 0.979431 0.037758 0.173184
O O14 0.856014 0.066396 0.750000
#
# Coordination Sequence:
#
# PCOD9437437 Si02
#       6
#     8   8   8   8   8   8
#     4  10  21  35  55  83 114 144 188 223 275 334
#     4  10  20  36  57  81 110 143 184 232 279 328
#     4  10  20  36  56  81 111 149 183 232 270 329
#     4  11  21  35  57  85 111 149 184 233 285 333
#     4   9  19  35  55  80 108 141 184 227 272 328
#     4   8  17  32  54  78 103 136 179 225 261 317
#
# _framework density 19.255175000000001
#
# number of rings (size 3 to 8) (size 9 to 14) (size 15 to 20)
#    0.000    2.333    1.667    2.000    2.333    4.000 
#    0.000    2.500    0.000    0.000    0.000    0.000 
#    0.000    0.000    0.000    0.000    0.000    0.000 
#
# Total GULP energy -267814.395973 kJ/mol
# GULP energy per Si atom -5579.466583 kJ/mol
# Density = 1.921135 g / cm^3
# Si number density = 19.255175 Si / 1000 Ang^3
#
#
#
# Elastic Constant Matrix: (Units=GPa)
#
#
# Indices 1 2 3 4 5 6 
#
# 1 32.5016 -5.9389 25.2722 0.0000 0.0000 0.0000
# 2 -5.9389 19.1573 -9.1993 0.0000 0.0000 0.0000
# 3 25.2722 -9.1993 94.5668 0.0000 0.0000 0.0000
# 4 0.0000 0.0000 0.0000 6.2789 0.0000 0.0000
# 5 0.0000 0.0000 0.0000 0.0000 -23.0890 0.0000
# 6 0.0000 0.0000 0.0000 0.0000 0.0000 2.3441
#
#
#
# Elastic Compliance Matrix: (Units=1/GPa)
#
#
# Indices 1 2 3 4 5 6 
#
# 1 0.039865 0.007597 -0.009915 0.000000 0.000000 0.000000
# 2 0.007597 0.056205 0.003437 0.000000 0.000000 0.000000
# 3 -0.009915 0.003437 0.013558 0.000000 0.000000 0.000000
# 4 0.000000 0.000000 0.000000 0.159265 0.000000 0.000000
# 5 0.000000 0.000000 0.000000 0.000000 -0.043311 0.000000
# 6 0.000000 0.000000 0.000000 0.000000 0.000000 0.426605
#
#
# Mechanical properties :
#
#
# Convention : Reuss Voigt Hill
#
# Bulk Modulus (GPa) = 8.93904 18.49932 13.71918
# Shear Modulus (GPa) = 7.27551 6.17957 6.72754
#
# Velocity S-wave (km/s) = 1.94594 1.79340 1.87122
# Velocity P-wave (km/s) = 3.11470 3.73051 3.43643
#
# Compressibility (1/GPa) = 0.11186889
#
# Stress axis : x y z
#
# Youngs Moduli (GPa) = 25.08452 17.79198 73.75457
#
# Poissons Ratio (x) = -0.13517 0.73125
# Poissons Ratio (y) = -0.19058 -0.25351
# Poissons Ratio (z) = 0.24870 -0.06115
#
# Static dielectric constant tensor:
#      x y z
#    x 1.637490 0.000000 0.000000 
#    y 0.000000 1.679740 0.000000 
#    z 0.000000 0.000000 1.690750 
# 
# From -- ./inp_files/20941.got.cif
#   From: 2010.05.17/outbox.cif.g08.bks.cpg/sg57_11_cif.got.tgz:20941.got - 2010.06.03 13:58:18.
