data_PCOD9437927
_publ_section_title
;
Structure prediction by ZEFSAII (Michael W. Deem and Ramdas Pophale) SiO2 
 PCOD9437927
Probable space group: P B C M
;
_chemical_formula_sum "Si O2"
_cell_formula_units_Z 40
_cell_length_a 10.147820
_cell_length_b 9.576785
_cell_length_c 17.727495
_cell_angle_alpha 90.000000
_cell_angle_beta 90.000000
_cell_angle_gamma 90.000000
_cell_volume 1722.819839
_symmetry_space_group_name_H-M "P B C M"
_symmetry_group_IT_number 57
_symmetry_cell_setting 'orthorhombic'
loop_
_space_group_symop_operation_xyz
x,y,z
-x,-y,1/2+z
x,1/2-y,-z
-x,1/2+y,1/2-z
-x,-y,-z
x,y,1/2-z
-x,1/2+y,z
x,1/2-y,1/2+z
loop_
_atom_site_type_symbol
_atom_site_label
_atom_site_fract_x
_atom_site_fract_y
_atom_site_fract_z
Si Si1 0.875328 0.587734 0.975697
Si Si2 0.458529 0.621635 0.442774
Si Si3 0.718832 0.537729 0.116925
Si Si4 0.929741 0.735902 0.836445
Si Si5 0.234571 0.777377 0.838322
O O1 0.761429 0.528741 0.028666
O O2 0.833243 0.631632 0.154257
O O3 0.888335 0.750000 0.000000
O O4 0.000000 0.500000 0.000000
O O5 0.457770 0.750000 0.500000
O O6 0.500000 0.500000 0.500000
O O7 0.580271 0.618200 0.383181
O O8 0.325917 0.631023 0.393312
O O9 0.127107 0.390688 0.113580
O O10 0.716169 0.383470 0.150965
O O11 0.937338 0.693306 0.750000
O O12 0.079606 0.772738 0.860610
O O13 0.244340 0.815954 0.750000
#
# Coordination Sequence:
#
# PCOD9437927 Si02
#       5
#     8   8   8   8   8
#     4  10  20  37  66 103 138 189 246 296 364 443
#     4  12  26  49  75 105 144 197 255 309 367 450
#     4  11  23  45  74 103 147 195 252 308 378 446
#     4  10  22  42  70 109 152 192 243 312 382 447
#     4  11  25  46  73 110 150 194 247 313 382 447
#
# _framework density 23.217751
#
# number of rings (size 3 to 8) (size 9 to 14) (size 15 to 20)
#    0.000    1.200    4.000    2.400    0.000    7.200 
#    3.600    0.000    0.000    0.000    0.000    0.000 
#    0.000    0.000    0.000    0.000    0.000    0.000 
#
# Total GULP energy -223597.310504 kJ/mol
# GULP energy per Si atom -5589.932763 kJ/mol
# Density = 2.316491 g / cm^3
# Si number density = 23.217751 Si / 1000 Ang^3
#
#
#
# Elastic Constant Matrix: (Units=GPa)
#
#
# Indices 1 2 3 4 5 6 
#
# 1 136.1316 22.8240 34.3631 0.0000 0.0000 0.0000
# 2 22.8240 68.8006 32.8558 0.0000 0.0000 0.0000
# 3 34.3631 32.8558 107.1682 0.0000 0.0000 0.0000
# 4 0.0000 0.0000 0.0000 37.6310 0.0000 0.0000
# 5 0.0000 0.0000 0.0000 0.0000 26.4479 0.0000
# 6 0.0000 0.0000 0.0000 0.0000 0.0000 29.1511
#
#
#
# Elastic Compliance Matrix: (Units=1/GPa)
#
#
# Indices 1 2 3 4 5 6 
#
# 1 0.008160 -0.001708 -0.002093 0.000000 0.000000 0.000000
# 2 -0.001708 0.017385 -0.004782 0.000000 0.000000 0.000000
# 3 -0.002093 -0.004782 0.011468 0.000000 0.000000 0.000000
# 4 0.000000 0.000000 0.000000 0.026574 0.000000 0.000000
# 5 0.000000 0.000000 0.000000 0.000000 0.037810 0.000000
# 6 0.000000 0.000000 0.000000 0.000000 0.000000 0.034304
#
#
# Mechanical properties :
#
#
# Convention : Reuss Voigt Hill
#
# Bulk Modulus (GPa) = 50.38341 54.68734 52.53538
# Shear Modulus (GPa) = 31.35106 33.44984 32.40045
#
# Velocity S-wave (km/s) = 3.67864 3.79977 3.73970
# Velocity P-wave (km/s) = 6.30798 6.54647 6.42833
#
# Compressibility (1/GPa) = 0.01984780
#
# Stress axis : x y z
#
# Youngs Moduli (GPa) = 122.54173 57.52059 87.19557
#
# Poissons Ratio (x) = 0.09822 0.18251
# Poissons Ratio (y) = 0.20925 0.41700
# Poissons Ratio (z) = 0.25649 0.27509
#
# Static dielectric constant tensor:
#      x y z
#    x 2.103480 0.000000 0.000000 
#    y 0.000000 1.874630 0.000000 
#    z 0.000000 0.000000 1.961610 
# 
# From -- ./inp_files/21594.got.cif
#   From: 2010.05.17/outbox.cif.g08.bks.cpg/sg57_11_cif.got.tgz:21594.got - 2010.06.03 13:58:18.
