data_PCOD9437562
_publ_section_title
;
Structure prediction by ZEFSAII (Michael W. Deem and Ramdas Pophale) SiO2 
 PCOD9437562
Probable space group: P B C M
;
_chemical_formula_sum "Si O2"
_cell_formula_units_Z 64
_cell_length_a 15.224244
_cell_length_b 9.041839
_cell_length_c 24.067634
_cell_angle_alpha 90.000000
_cell_angle_beta 90.000000
_cell_angle_gamma 90.000000
_cell_volume 3313.034085
_symmetry_space_group_name_H-M "P B C M"
_symmetry_group_IT_number 57
_symmetry_cell_setting 'orthorhombic'
loop_
_space_group_symop_operation_xyz
x,y,z
-x,-y,1/2+z
x,1/2-y,-z
-x,1/2+y,1/2-z
-x,-y,-z
x,y,1/2-z
-x,1/2+y,z
x,1/2-y,1/2+z
loop_
_atom_site_type_symbol
_atom_site_label
_atom_site_fract_x
_atom_site_fract_y
_atom_site_fract_z
Si Si1 0.054457 0.823522 0.387216
Si Si2 0.521879 0.056167 0.376535
Si Si3 0.409304 0.678048 0.555808
Si Si4 0.393679 0.280178 0.315754
Si Si5 0.211235 0.934210 0.448758
Si Si6 0.793479 0.719408 0.367129
Si Si7 0.037741 0.401158 0.813851
Si Si8 0.113787 0.390671 0.041400
O O1 0.148186 0.821244 0.416397
O O2 0.025127 0.670108 0.360535
O O3 0.984012 0.889276 0.431920
O O4 0.054107 0.933116 0.334513
O O5 0.584204 0.183732 0.401822
O O6 0.452837 0.147559 0.339828
O O7 0.467361 0.958589 0.421643
O O8 0.573148 0.934338 0.341295
O O9 0.447548 0.750000 0.500000
O O10 0.309987 0.623651 0.544391
O O11 0.399431 0.283798 0.250000
O O12 0.295776 0.251075 0.336409
O O13 0.214992 0.078196 0.408367
O O14 0.158422 0.981618 0.504460
O O15 0.871135 0.685276 0.323915
O O16 0.823820 0.852300 0.406838
O O17 0.009094 0.392794 0.750000
O O18 0.112396 0.250000 0.000000
#
# Coordination Sequence:
#
# PCOD9437562 Si02
#       8
#     8   8   8   8   8   8   8   8
#     4  10  21  36  59  84 120 152 199 241 282 347
#     4  10  24  42  60  89 123 148 202 240 299 360
#     4  11  23  40  61  88 122 162 190 239 298 357
#     4  11  21  40  67  87 114 153 197 250 299 343
#     4  10  20  36  58  89 117 158 192 238 297 343
#     4   9  19  36  59  86 116 148 200 238 283 352
#     4  10  20  37  58  82 114 157 197 238 288 335
#     4   9  19  35  58  87 122 154 190 235 291 351
#
# _framework density 19.317640000000001
#
# number of rings (size 3 to 8) (size 9 to 14) (size 15 to 20)
#    0.000    2.000    1.250    2.625    1.750    1.500 
#    2.250    0.000    0.000    0.000    0.000    0.000 
#    0.000    0.000    0.000    0.000    0.000    0.000 
#
# Total GULP energy -357120.826075 kJ/mol
# GULP energy per Si atom -5580.012907 kJ/mol
# Density = 1.927367 g / cm^3
# Si number density = 19.317640 Si / 1000 Ang^3
#
#
#
# Elastic Constant Matrix: (Units=GPa)
#
#
# Indices 1 2 3 4 5 6 
#
# 1 26.9154 -5.3276 0.4704 0.0000 0.0000 0.0000
# 2 -5.3276 55.3934 8.4788 0.0000 0.0000 0.0000
# 3 0.4704 8.4788 68.8806 0.0000 0.0000 0.0000
# 4 0.0000 0.0000 0.0000 21.1247 0.0000 0.0000
# 5 0.0000 0.0000 0.0000 0.0000 4.0696 0.0000
# 6 0.0000 0.0000 0.0000 0.0000 0.0000 11.9332
#
#
#
# Elastic Compliance Matrix: (Units=1/GPa)
#
#
# Indices 1 2 3 4 5 6 
#
# 1 0.037910 0.003756 -0.000721 0.000000 0.000000 0.000000
# 2 0.003756 0.018772 -0.002336 0.000000 0.000000 0.000000
# 3 -0.000721 -0.002336 0.014810 0.000000 0.000000 0.000000
# 4 0.000000 0.000000 0.000000 0.047338 0.000000 0.000000
# 5 0.000000 0.000000 0.000000 0.000000 0.245722 0.000000
# 6 0.000000 0.000000 0.000000 0.000000 0.000000 0.083800
#
#
# Mechanical properties :
#
#
# Convention : Reuss Voigt Hill
#
# Bulk Modulus (GPa) = 13.71943 17.60362 15.66153
# Shear Modulus (GPa) = 10.61008 17.26336 13.93672
#
# Velocity S-wave (km/s) = 2.34614 2.99265 2.68890
# Velocity P-wave (km/s) = 3.80218 4.59062 4.21488
#
# Compressibility (1/GPa) = 0.07288934
#
# Stress axis : x y z
#
# Youngs Moduli (GPa) = 26.37849 53.27201 67.52013
#
# Poissons Ratio (x) = -0.20011 0.04870
# Poissons Ratio (y) = -0.09909 0.15775
# Poissons Ratio (z) = 0.01903 0.12446
#
# Static dielectric constant tensor:
#      x y z
#    x 1.652860 0.000000 0.000000 
#    y 0.000000 1.684520 0.000000 
#    z 0.000000 0.000000 1.665690 
# 
# From -- ./inp_files/27460.got.cif
#   From: 2010.05.17/outbox.cif.g08.bks.cpg/sg57_14_cif.got.tgz:27460.got - 2010.06.03 13:58:18.
