data_PCOD9437819
_publ_section_title
;
Structure prediction by ZEFSAII (Michael W. Deem and Ramdas Pophale) SiO2 
 PCOD9437819
Probable space group: P B C M
;
_chemical_formula_sum "Si O2"
_cell_formula_units_Z 64
_cell_length_a 11.909914
_cell_length_b 16.814576
_cell_length_c 15.167926
_cell_angle_alpha 90.000000
_cell_angle_beta 90.000000
_cell_angle_gamma 90.000000
_cell_volume 3037.531198
_symmetry_space_group_name_H-M "P B C M"
_symmetry_group_IT_number 57
_symmetry_cell_setting 'orthorhombic'
loop_
_space_group_symop_operation_xyz
x,y,z
-x,-y,1/2+z
x,1/2-y,-z
-x,1/2+y,1/2-z
-x,-y,-z
x,y,1/2-z
-x,1/2+y,z
x,1/2-y,1/2+z
loop_
_atom_site_type_symbol
_atom_site_label
_atom_site_fract_x
_atom_site_fract_y
_atom_site_fract_z
Si Si1 0.241452 0.744611 0.604786
Si Si2 0.012356 0.910138 0.973838
Si Si3 0.769891 0.412947 0.851506
Si Si4 0.823820 0.702515 0.091543
Si Si5 0.008996 0.683227 0.843308
Si Si6 0.545805 0.011875 0.357834
Si Si7 0.429226 0.324276 0.644943
Si Si8 0.541912 0.340368 0.144343
O O1 0.225924 0.750000 0.500000
O O2 0.290938 0.827097 0.641305
O O3 0.122614 0.734468 0.652123
O O4 0.327086 0.673947 0.624685
O O5 0.123051 0.905049 0.913930
O O6 0.905224 0.872302 0.925530
O O7 0.019598 0.865024 0.066834
O O8 0.000000 0.000000 0.000000
O O9 0.801474 0.427775 0.750000
O O10 0.677168 0.476741 0.880614
O O11 0.703948 0.679015 0.128736
O O12 0.899040 0.762278 0.149726
O O13 0.806783 0.750000 0.000000
O O14 0.006523 0.638446 0.750000
O O15 0.540414 0.012073 0.250000
O O16 0.479416 0.091303 0.388405
O O17 0.500029 0.926292 0.388691
O O18 0.449685 0.323881 0.750000
O O19 0.480083 0.239968 0.610136
O O20 0.526145 0.341613 0.250000
#
# Coordination Sequence:
#
# PCOD9437819 Si02
#       8
#     8   8   8   8   8   8   8   8
#     4  12  21  38  65  98 126 160 221 275 325 384
#     4  11  25  43  62  96 135 164 219 279 324 398
#     4  11  21  41  69  93 129 176 217 269 333 391
#     4  10  22  40  60  87 124 165 211 264 326 396
#     4  11  22  41  67  92 121 168 221 273 329 391
#     4   9  20  38  62  96 130 164 219 267 312 393
#     4  10  20  37  60  88 126 168 209 260 320 382
#     4  10  21  38  63  93 126 170 216 262 318 388
#
# _framework density 21.069742999999999
#
# number of rings (size 3 to 8) (size 9 to 14) (size 15 to 20)
#    0.000    1.500    3.750    1.875    0.000    4.500 
#    0.000    3.125    0.000    0.000    0.000    0.000 
#    0.000    0.000    0.000    0.000    0.000    0.000 
#
# Total GULP energy -357325.282012 kJ/mol
# GULP energy per Si atom -5583.207531 kJ/mol
# Density = 2.102179 g / cm^3
# Si number density = 21.069743 Si / 1000 Ang^3
#
#
#
# Elastic Constant Matrix: (Units=GPa)
#
#
# Indices 1 2 3 4 5 6 
#
# 1 111.0994 49.9686 32.3357 0.0000 0.0000 0.0000
# 2 49.9686 123.8996 26.7182 0.0000 0.0000 0.0000
# 3 32.3357 26.7182 83.7612 0.0000 0.0000 0.0000
# 4 0.0000 0.0000 0.0000 5.4296 0.0000 0.0000
# 5 0.0000 0.0000 0.0000 0.0000 48.9758 0.0000
# 6 0.0000 0.0000 0.0000 0.0000 0.0000 24.2445
#
#
#
# Elastic Compliance Matrix: (Units=1/GPa)
#
#
# Indices 1 2 3 4 5 6 
#
# 1 0.011766 -0.004044 -0.003252 0.000000 0.000000 0.000000
# 2 -0.004044 0.010057 -0.001647 0.000000 0.000000 0.000000
# 3 -0.003252 -0.001647 0.013720 0.000000 0.000000 0.000000
# 4 0.000000 0.000000 0.000000 0.184175 0.000000 0.000000
# 5 0.000000 0.000000 0.000000 0.000000 0.020418 0.000000
# 6 0.000000 0.000000 0.000000 0.000000 0.000000 0.041246
#
#
# Mechanical properties :
#
#
# Convention : Reuss Voigt Hill
#
# Bulk Modulus (GPa) = 56.63614 59.64503 58.14059
# Shear Modulus (GPa) = 16.38513 29.71249 23.04881
#
# Velocity S-wave (km/s) = 2.79168 3.75933 3.31105
# Velocity P-wave (km/s) = 6.10983 6.87119 6.50166
#
# Compressibility (1/GPa) = 0.01765657
#
# Stress axis : x y z
#
# Youngs Moduli (GPa) = 84.98743 99.43181 72.88841
#
# Poissons Ratio (x) = 0.40211 0.23706
# Poissons Ratio (y) = 0.34369 0.12004
# Poissons Ratio (z) = 0.27642 0.16375
#
# Static dielectric constant tensor:
#      x y z
#    x 1.735200 0.000000 0.000000 
#    y 0.000000 1.825190 0.000000 
#    z 0.000000 0.000000 1.907600 
# 
# From -- ./inp_files/17982.got.cif
#   From: 2010.05.17/outbox.cif.g08.bks.cpg/sg57_9_cif.got.tgz:17982.got - 2010.06.03 13:58:18.
