data_PCOD9437447
_publ_section_title
;
Structure prediction by ZEFSAII (Michael W. Deem and Ramdas Pophale) SiO2 
 PCOD9437447
Probable space group: P B C M
;
_chemical_formula_sum "Si O2"
_cell_formula_units_Z 40
_cell_length_a 14.004485
_cell_length_b 18.515977
_cell_length_c 8.642132
_cell_angle_alpha 90.000000
_cell_angle_beta 90.000000
_cell_angle_gamma 90.000000
_cell_volume 2240.962921
_symmetry_space_group_name_H-M "P B C M"
_symmetry_group_IT_number 57
_symmetry_cell_setting 'orthorhombic'
loop_
_space_group_symop_operation_xyz
x,y,z
-x,-y,1/2+z
x,1/2-y,-z
-x,1/2+y,1/2-z
-x,-y,-z
x,y,1/2-z
-x,1/2+y,z
x,1/2-y,1/2+z
loop_
_atom_site_type_symbol
_atom_site_label
_atom_site_fract_x
_atom_site_fract_y
_atom_site_fract_z
Si Si1 0.583698 0.169000 0.935022
Si Si2 0.293529 0.544498 0.064834
Si Si3 0.101815 0.476266 0.563473
Si Si4 0.194262 0.327794 0.934999
Si Si5 0.608174 0.596852 0.063491
O O1 0.584797 0.170233 0.750000
O O2 0.586595 0.250000 0.000000
O O3 0.669856 0.120297 0.999276
O O4 0.487339 0.129952 0.993975
O O5 0.295458 0.544460 0.250000
O O6 0.188591 0.523711 0.003756
O O7 0.364314 0.481745 0.001768
O O8 0.104255 0.480421 0.750000
O O9 0.126115 0.393655 0.516740
O O10 0.000000 0.500000 0.500000
O O11 0.191725 0.324191 0.750000
O O12 0.301834 0.351950 0.978255
O O13 0.169774 0.250000 0.000000
O O14 0.601179 0.592700 0.250000
#
# Coordination Sequence:
#
# PCOD9437447 Si02
#       5
#     8   8   8   8   8
#     4  12  24  38  55  80 114 152 190 231 276 329
#     4  11  22  38  59  83 110 146 187 230 279 334
#     4  10  21  39  60  84 110 142 184 232 281 336
#     4   9  19  33  53  81 113 141 175 222 273 324
#     4  10  20  36  56  82 114 149 187 229 273 327
#
# _framework density 17.84947
#
# number of rings (size 3 to 8) (size 9 to 14) (size 15 to 20)
#    0.000    1.600    0.000    7.200    0.000    6.400 
#    0.000    1.000    0.000    2.400    0.000    0.000 
#    0.000    0.000    0.000    0.000    0.000    0.000 
#
# Total GULP energy -223550.958723 kJ/mol
# GULP energy per Si atom -5588.773968 kJ/mol
# Density = 1.780884 g / cm^3
# Si number density = 17.849470 Si / 1000 Ang^3
#
#
#
# Elastic Constant Matrix: (Units=GPa)
#
#
# Indices 1 2 3 4 5 6 
#
# 1 123.7612 91.6174 57.6882 0.0000 0.0000 0.0000
# 2 91.6174 124.1115 58.8488 0.0000 0.0000 0.0000
# 3 57.6882 58.8488 126.3170 0.0000 0.0000 0.0000
# 4 0.0000 0.0000 0.0000 35.6237 0.0000 0.0000
# 5 0.0000 0.0000 0.0000 0.0000 32.3781 0.0000
# 6 0.0000 0.0000 0.0000 0.0000 0.0000 13.7590
#
#
#
# Elastic Compliance Matrix: (Units=1/GPa)
#
#
# Indices 1 2 3 4 5 6 
#
# 1 0.018495 -0.012383 -0.002677 0.000000 0.000000 0.000000
# 2 -0.012383 0.018633 -0.003025 0.000000 0.000000 0.000000
# 3 -0.002677 -0.003025 0.010549 0.000000 0.000000 0.000000
# 4 0.000000 0.000000 0.000000 0.028071 0.000000 0.000000
# 5 0.000000 0.000000 0.000000 0.000000 0.030885 0.000000
# 6 0.000000 0.000000 0.000000 0.000000 0.000000 0.072680
#
#
# Mechanical properties :
#
#
# Convention : Reuss Voigt Hill
#
# Bulk Modulus (GPa) = 86.92130 87.83314 87.37722
# Shear Modulus (GPa) = 22.79772 27.42119 25.10945
#
# Velocity S-wave (km/s) = 3.57770 3.92375 3.75471
# Velocity P-wave (km/s) = 8.11598 8.35717 8.23746
#
# Compressibility (1/GPa) = 0.01150466
#
# Stress axis : x y z
#
# Youngs Moduli (GPa) = 54.06802 53.66816 94.79714
#
# Poissons Ratio (x) = 0.66459 0.25382
# Poissons Ratio (y) = 0.66954 0.28680
# Poissons Ratio (z) = 0.14477 0.16237
#
# Static dielectric constant tensor:
#      x y z
#    x 1.590250 0.000000 0.000000 
#    y 0.000000 1.606180 0.000000 
#    z 0.000000 0.000000 1.595800 
# 
# From -- ./inp_files/2683.got.cif
#   From: 2010.05.17/outbox.cif.g08.bks.cpg/sg57_2_cif.got.tgz:2683.got - 2010.06.03 13:58:18.
