data_PCOD9437627
_publ_section_title
;
Structure prediction by ZEFSAII (Michael W. Deem and Ramdas Pophale) SiO2 
 PCOD9437627
Probable space group: P B C M
;
_chemical_formula_sum "Si O2"
_cell_formula_units_Z 64
_cell_length_a 12.270067
_cell_length_b 32.131833
_cell_length_c 8.823476
_cell_angle_alpha 90.000000
_cell_angle_beta 90.000000
_cell_angle_gamma 90.000000
_cell_volume 3478.741387
_symmetry_space_group_name_H-M "P B C M"
_symmetry_group_IT_number 57
_symmetry_cell_setting 'orthorhombic'
loop_
_space_group_symop_operation_xyz
x,y,z
-x,-y,1/2+z
x,1/2-y,-z
-x,1/2+y,1/2-z
-x,-y,-z
x,y,1/2-z
-x,1/2+y,z
x,1/2-y,1/2+z
loop_
_atom_site_type_symbol
_atom_site_label
_atom_site_fract_x
_atom_site_fract_y
_atom_site_fract_z
Si Si1 0.738001 0.205803 0.068722
Si Si2 0.007533 0.546397 0.930034
Si Si3 0.876757 0.623281 0.067210
Si Si4 0.595709 0.367446 0.431040
Si Si5 0.369253 0.390150 0.568795
Si Si6 0.741492 0.447938 0.070254
Si Si7 0.609996 0.981021 0.070240
Si Si8 0.992540 0.294544 0.932403
O O1 0.730039 0.206544 0.250000
O O2 0.865226 0.199339 0.027482
O O3 0.704618 0.250000 0.000000
O O4 0.664625 0.169715 0.001202
O O5 0.989010 0.543339 0.750000
O O6 0.131901 0.562036 0.955472
O O7 0.000000 0.500000 0.000000
O O8 0.926718 0.580856 0.999120
O O9 0.886198 0.620074 0.250000
O O10 0.749217 0.627916 0.029532
O O11 0.941203 0.664700 0.017298
O O12 0.592369 0.364199 0.250000
O O13 0.474132 0.368504 0.496228
O O14 0.660308 0.410206 0.467990
O O15 0.380913 0.390197 0.750000
O O16 0.369910 0.436995 0.506733
O O17 0.728297 0.457371 0.250000
O O18 0.706280 0.487546 0.973080
O O19 0.598335 0.976469 0.250000
O O20 0.500000 0.000000 0.000000
O O21 0.000453 0.291902 0.750000
O O22 0.027868 0.250000 0.000000
#
# Coordination Sequence:
#
# PCOD9437627 Si02
#       8
#     8   8   8   8   8   8   8   8
#     4  10  20  36  60  88 118 147 181 227 283 344
#     4  11  23  38  57  83 116 154 195 241 293 349
#     4  10  22  40  60  84 118 157 197 244 296 351
#     4  11  22  37  58  83 112 146 188 234 283 338
#     4  11  23  39  58  81 114 155 197 241 289 341
#     4  10  22  38  56  81 113 147 187 237 287 338
#     4  12  23  36  56  81 111 149 194 240 288 342
#     4   9  19  37  62  91 119 150 188 236 291 348
#
# _framework density 18.397458
#
# number of rings (size 3 to 8) (size 9 to 14) (size 15 to 20)
#    0.000    1.500    1.250    4.125    0.000    6.500 
#    0.000    0.625    0.000    1.500    0.000    0.000 
#    0.000    0.000    0.000    0.000    0.000    0.000 
#
# Total GULP energy -357659.761093 kJ/mol
# GULP energy per Si atom -5588.433767 kJ/mol
# Density = 1.835558 g / cm^3
# Si number density = 18.397458 Si / 1000 Ang^3
#
#
#
# Elastic Constant Matrix: (Units=GPa)
#
#
# Indices 1 2 3 4 5 6 
#
# 1 106.4599 61.5523 42.3659 0.0000 0.0000 0.0000
# 2 61.5523 129.2354 37.3045 0.0000 0.0000 0.0000
# 3 42.3659 37.3045 40.1722 0.0000 0.0000 0.0000
# 4 0.0000 0.0000 0.0000 33.1613 0.0000 0.0000
# 5 0.0000 0.0000 0.0000 0.0000 27.1399 0.0000
# 6 0.0000 0.0000 0.0000 0.0000 0.0000 47.5992
#
#
#
# Elastic Compliance Matrix: (Units=1/GPa)
#
#
# Indices 1 2 3 4 5 6 
#
# 1 0.017679 -0.004151 -0.014789 0.000000 0.000000 0.000000
# 2 -0.004151 0.011546 -0.006344 0.000000 0.000000 0.000000
# 3 -0.014789 -0.006344 0.046381 0.000000 0.000000 0.000000
# 4 0.000000 0.000000 0.000000 0.030156 0.000000 0.000000
# 5 0.000000 0.000000 0.000000 0.000000 0.036846 0.000000
# 6 0.000000 0.000000 0.000000 0.000000 0.000000 0.021009
#
#
# Mechanical properties :
#
#
# Convention : Reuss Voigt Hill
#
# Bulk Modulus (GPa) = 39.94124 62.03475 50.98800
# Shear Modulus (GPa) = 22.46872 30.55639 26.51256
#
# Velocity S-wave (km/s) = 3.49849 4.07984 3.80030
# Velocity P-wave (km/s) = 6.17062 7.48237 6.85793
#
# Compressibility (1/GPa) = 0.02503678
#
# Stress axis : x y z
#
# Youngs Moduli (GPa) = 56.56535 86.60891 21.56041
#
# Poissons Ratio (x) = 0.35951 0.31887
# Poissons Ratio (y) = 0.23480 0.13679
# Poissons Ratio (z) = 0.83657 0.54947
#
# Static dielectric constant tensor:
#      x y z
#    x 1.646980 0.000000 0.000000 
#    y 0.000000 1.595970 0.000000 
#    z 0.000000 0.000000 1.614800 
# 
# From -- ./inp_files/3847.got.cif
#   From: 2010.05.17/outbox.cif.g08.bks.cpg/sg57_2_cif.got.tgz:3847.got - 2010.06.03 13:58:18.
