data_PCOD9437367
_publ_section_title
;
Structure prediction by ZEFSAII (Michael W. Deem and Ramdas Pophale) SiO2 
 PCOD9437367
Probable space group: P B C M
;
_chemical_formula_sum "Si O2"
_cell_formula_units_Z 64
_cell_length_a 18.918210
_cell_length_b 9.491367
_cell_length_c 16.983270
_cell_angle_alpha 90.000000
_cell_angle_beta 90.000000
_cell_angle_gamma 90.000000
_cell_volume 3049.510426
_symmetry_space_group_name_H-M "P B C M"
_symmetry_group_IT_number 57
_symmetry_cell_setting 'orthorhombic'
loop_
_space_group_symop_operation_xyz
x,y,z
-x,-y,1/2+z
x,1/2-y,-z
-x,1/2+y,1/2-z
-x,-y,-z
x,y,1/2-z
-x,1/2+y,z
x,1/2-y,1/2+z
loop_
_atom_site_type_symbol
_atom_site_label
_atom_site_fract_x
_atom_site_fract_y
_atom_site_fract_z
Si Si1 0.711000 0.028486 0.937820
Si Si2 0.916480 0.172385 0.415720
Si Si3 0.303177 0.462339 0.381137
Si Si4 0.948966 0.666759 0.584361
Si Si5 0.452844 0.333467 0.158927
Si Si6 0.232664 0.771488 0.836054
Si Si7 0.801387 0.774503 0.595419
Si Si8 0.454212 0.039781 0.421780
O O1 0.728390 0.177058 0.900747
O O2 0.629897 0.981823 0.926665
O O3 0.769974 0.929165 0.897348
O O4 0.717913 0.013007 0.031212
O O5 0.901311 0.250000 0.500000
O O6 0.844821 0.182191 0.366061
O O7 0.978733 0.271285 0.379427
O O8 0.940157 0.004901 0.423418
O O9 0.383240 0.414640 0.371386
O O10 0.280917 0.591501 0.329262
O O11 0.254973 0.327813 0.365454
O O12 0.950452 0.750000 0.500000
O O13 0.878778 0.730733 0.623803
O O14 0.443589 0.293278 0.250000
O O15 0.517093 0.439411 0.146682
O O16 0.466051 0.199914 0.103577
O O17 0.227462 0.702241 0.750000
O O18 0.800776 0.750000 0.500000
O O19 0.500000 0.000000 0.500000
#
# Coordination Sequence:
#
# PCOD9437367 Si02
#       8
#     8   8   8   8   8   8   8   8
#     4  11  24  43  73  99 132 174 238 289 339 403
#     4  11  22  39  67 100 135 176 227 285 346 408
#     4  11  21  45  72  97 125 173 228 288 338 405
#     4  10  20  35  66 104 132 165 223 293 344 403
#     4  12  27  45  68 101 143 183 225 284 357 417
#     4  12  28  44  63  98 143 184 228 284 352 420
#     4   9  19  36  67  99 125 160 221 281 334 396
#     4  12  26  46  73 100 139 182 236 287 340 421
#
# _framework density 20.986975000000001
#
# number of rings (size 3 to 8) (size 9 to 14) (size 15 to 20)
#    0.000    1.000    3.750    3.750    7.000    2.000 
#    0.000    0.625    0.000    0.000    0.000    0.000 
#    0.000    0.000    0.000    0.000    0.000    0.000 
#
# Total GULP energy -357023.616378 kJ/mol
# GULP energy per Si atom -5578.494006 kJ/mol
# Density = 2.093921 g / cm^3
# Si number density = 20.986975 Si / 1000 Ang^3
#
#
#
# Elastic Constant Matrix: (Units=GPa)
#
#
# Indices 1 2 3 4 5 6 
#
# 1 59.1250 21.7005 17.4702 0.0000 0.0000 0.0000
# 2 21.7005 113.8216 37.0149 0.0000 0.0000 0.0000
# 3 17.4702 37.0149 74.7100 0.0000 0.0000 0.0000
# 4 0.0000 0.0000 0.0000 117.0048 0.0000 0.0000
# 5 0.0000 0.0000 0.0000 0.0000 18.7986 0.0000
# 6 0.0000 0.0000 0.0000 0.0000 0.0000 40.1481
#
#
#
# Elastic Compliance Matrix: (Units=1/GPa)
#
#
# Indices 1 2 3 4 5 6 
#
# 1 0.018777 -0.002565 -0.003120 0.000000 0.000000 0.000000
# 2 -0.002565 0.010824 -0.004763 0.000000 0.000000 0.000000
# 3 -0.003120 -0.004763 0.016474 0.000000 0.000000 0.000000
# 4 0.000000 0.000000 0.000000 0.008547 0.000000 0.000000
# 5 0.000000 0.000000 0.000000 0.000000 0.053195 0.000000
# 6 0.000000 0.000000 0.000000 0.000000 0.000000 0.024908
#
#
# Mechanical properties :
#
#
# Convention : Reuss Voigt Hill
#
# Bulk Modulus (GPa) = 39.71548 44.44753 42.08151
# Shear Modulus (GPa) = 30.86178 46.62173 38.74176
#
# Velocity S-wave (km/s) = 3.83890 4.71835 4.30116
# Velocity P-wave (km/s) = 6.21405 7.13501 6.69040
#
# Compressibility (1/GPa) = 0.02517910
#
# Stress axis : x y z
#
# Youngs Moduli (GPa) = 53.25760 92.39087 60.70077
#
# Poissons Ratio (x) = 0.23701 0.18937
# Poissons Ratio (y) = 0.13662 0.28910
# Poissons Ratio (z) = 0.16615 0.44003
#
# Static dielectric constant tensor:
#      x y z
#    x 1.807300 0.000000 0.000000 
#    y 0.000000 1.737410 0.000000 
#    z 0.000000 0.000000 1.849260 
# 
# From -- ./inp_files/23052.got.cif
#   From: 2010.05.17/outbox.cif.g08.bks.cpg/sg57_12_cif.got.tgz:23052.got - 2010.06.03 13:58:18.
