data_PCOD9437196
_publ_section_title
;
Structure prediction by ZEFSAII (Michael W. Deem and Ramdas Pophale) SiO2 
 PCOD9437196
Probable space group: P B C M
;
_chemical_formula_sum "Si O2"
_cell_formula_units_Z 48
_cell_length_a 32.057617
_cell_length_b 9.427402
_cell_length_c 8.679443
_cell_angle_alpha 90.000000
_cell_angle_beta 90.000000
_cell_angle_gamma 90.000000
_cell_volume 2623.101633
_symmetry_space_group_name_H-M "P B C M"
_symmetry_group_IT_number 57
_symmetry_cell_setting 'orthorhombic'
loop_
_space_group_symop_operation_xyz
x,y,z
-x,-y,1/2+z
x,1/2-y,-z
-x,1/2+y,1/2-z
-x,-y,-z
x,y,1/2-z
-x,1/2+y,z
x,1/2-y,1/2+z
loop_
_atom_site_type_symbol
_atom_site_label
_atom_site_fract_x
_atom_site_fract_y
_atom_site_fract_z
Si Si1 0.291950 0.908286 0.566122
Si Si2 0.216512 0.090542 0.065170
Si Si3 0.038189 0.089794 0.934167
Si Si4 0.124225 0.089808 0.065408
Si Si5 0.619318 0.408441 0.434906
Si Si6 0.461792 0.408616 0.565248
O O1 0.287036 0.750000 0.500000
O O2 0.293009 0.904281 0.750000
O O3 0.336663 0.960374 0.502922
O O4 0.253694 0.001523 0.507330
O O5 0.220508 0.094660 0.250000
O O6 0.170131 0.029353 0.029336
O O7 0.218356 0.250000 0.000000
O O8 0.037171 0.094366 0.750000
O O9 0.035484 0.250000 0.000000
O O10 0.082665 0.026482 0.990380
O O11 0.000000 0.000000 0.000000
O O12 0.119267 0.093922 0.250000
O O13 0.125754 0.250000 0.000000
O O14 0.611810 0.250000 0.500000
O O15 0.622545 0.399499 0.250000
O O16 0.581204 0.511131 0.475818
O O17 0.462700 0.250000 0.500000
O O18 0.500000 0.500000 0.500000
O O19 0.464791 0.403559 0.750000
#
# Coordination Sequence:
#
# PCOD9437196 Si02
#       6
#     8   8   8   8   8   8
#     4  11  22  37  58  82 112 149 186 227 276 329
#     4  10  20  35  56  82 111 142 181 226 270 322
#     4  11  21  35  55  79 108 141 179 223 271 325
#     4   9  17  31  52  77 105 139 178 220 268 322
#     4  10  21  38  59  83 111 146 187 229 275 328
#     4  11  24  40  61  87 117 151 188 231 277 328
#
# _framework density 18.298946000000001
#
# number of rings (size 3 to 8) (size 9 to 14) (size 15 to 20)
#    0.000    1.667    0.000    7.500    0.000    6.667 
#    0.000    2.500    0.000    4.000    0.000    0.000 
#    0.000    0.000    0.000    0.000    0.000    0.000 
#
# Total GULP energy -268050.544583 kJ/mol
# GULP energy per Si atom -5584.386345 kJ/mol
# Density = 1.825730 g / cm^3
# Si number density = 18.298946 Si / 1000 Ang^3
#
#
#
# Elastic Constant Matrix: (Units=GPa)
#
#
# Indices 1 2 3 4 5 6 
#
# 1 223.8840 91.1209 93.4355 0.0000 0.0000 0.0000
# 2 91.1209 71.6601 44.0710 0.0000 0.0000 0.0000
# 3 93.4355 44.0710 127.2472 0.0000 0.0000 0.0000
# 4 0.0000 0.0000 0.0000 31.2018 0.0000 0.0000
# 5 0.0000 0.0000 0.0000 0.0000 29.1588 0.0000
# 6 0.0000 0.0000 0.0000 0.0000 0.0000 37.4797
#
#
#
# Elastic Compliance Matrix: (Units=1/GPa)
#
#
# Indices 1 2 3 4 5 6 
#
# 1 0.010632 -0.011078 -0.003970 0.000000 0.000000 0.000000
# 2 -0.011078 0.029274 -0.002004 0.000000 0.000000 0.000000
# 3 -0.003970 -0.002004 0.011468 0.000000 0.000000 0.000000
# 4 0.000000 0.000000 0.000000 0.032049 0.000000 0.000000
# 5 0.000000 0.000000 0.000000 0.000000 0.034295 0.000000
# 6 0.000000 0.000000 0.000000 0.000000 0.000000 0.026681
#
#
# Mechanical properties :
#
#
# Convention : Reuss Voigt Hill
#
# Bulk Modulus (GPa) = 57.90713 97.78290 77.84501
# Shear Modulus (GPa) = 27.13528 32.51231 29.82380
#
# Velocity S-wave (km/s) = 3.85501 4.21970 4.04147
# Velocity P-wave (km/s) = 7.17834 8.79167 8.02565
#
# Compressibility (1/GPa) = 0.01726903
#
# Stress axis : x y z
#
# Youngs Moduli (GPa) = 94.05272 34.16013 87.19676
#
# Poissons Ratio (x) = 0.37843 0.34620
# Poissons Ratio (y) = 1.04191 0.17478
# Poissons Ratio (z) = 0.37343 0.06847
#
# Static dielectric constant tensor:
#      x y z
#    x 1.657000 0.000000 0.000000 
#    y 0.000000 1.601630 0.000000 
#    z 0.000000 0.000000 1.609380 
# 
# From -- ./inp_files/9963.got.cif
#   From: 2010.05.17/outbox.cif.g08.bks.cpg/sg57_5_cif.got.tgz:9963.got - 2010.06.03 13:58:18.
