data_PCOD9437722
_publ_section_title
;
Structure prediction by ZEFSAII (Michael W. Deem and Ramdas Pophale) SiO2 
 PCOD9437722
Probable space group: P B C M
;
_chemical_formula_sum "Si O2"
_cell_formula_units_Z 48
_cell_length_a 10.773808
_cell_length_b 9.327535
_cell_length_c 19.765038
_cell_angle_alpha 90.000000
_cell_angle_beta 90.000000
_cell_angle_gamma 90.000000
_cell_volume 1986.249371
_symmetry_space_group_name_H-M "P B C M"
_symmetry_group_IT_number 57
_symmetry_cell_setting 'orthorhombic'
loop_
_space_group_symop_operation_xyz
x,y,z
-x,-y,1/2+z
x,1/2-y,-z
-x,1/2+y,1/2-z
-x,-y,-z
x,y,1/2-z
-x,1/2+y,z
x,1/2-y,1/2+z
loop_
_atom_site_type_symbol
_atom_site_label
_atom_site_fract_x
_atom_site_fract_y
_atom_site_fract_z
Si Si1 0.333109 0.401653 0.575088
Si Si2 0.173970 0.275030 0.327543
Si Si3 0.510794 0.416287 0.328203
Si Si4 0.966454 0.018599 0.825861
Si Si5 0.815959 0.155286 0.947198
Si Si6 0.589226 0.147381 0.096566
O O1 0.259052 0.273017 0.609481
O O2 0.370343 0.502904 0.639435
O O3 0.251301 0.507008 0.529019
O O4 0.470063 0.368173 0.546660
O O5 0.228299 0.265942 0.250000
O O6 0.067278 0.149311 0.329848
O O7 0.107607 0.428499 0.333804
O O8 0.500266 0.439637 0.250000
O O9 0.399217 0.493826 0.368232
O O10 0.530285 0.251943 0.346273
O O11 0.928283 0.064621 0.750000
O O12 0.892464 0.102185 0.883453
O O13 0.708001 0.269842 0.929066
O O14 0.894544 0.250000 0.000000
#
# Coordination Sequence:
#
# PCOD9437722 Si02
#       6
#     8   8   8   8   8   8
#     4   8  18  32  49  74 103 141 172 211 269 320
#     4   9  16  32  54  75 106 137 171 213 268 322
#     4   9  16  28  47  75 109 137 169 208 259 317
#     4   9  19  35  55  81 106 139 177 222 271 319
#     4  10  20  37  57  76 105 148 186 221 266 321
#     4   9  19  32  48  78 103 140 179 213 262 318
#
# _framework density 24.166149000000001
#
# number of rings (size 3 to 8) (size 9 to 14) (size 15 to 20)
#    1.000    2.000    0.000    1.000    0.000    5.333 
#    3.000    3.333    0.000    1.000    0.000    0.000 
#    0.000    0.000    0.000    0.000    0.000    0.000 
#
# Total GULP energy -267417.137461 kJ/mol
# GULP energy per Si atom -5571.190364 kJ/mol
# Density = 2.411115 g / cm^3
# Si number density = 24.166149 Si / 1000 Ang^3
#
#
#
# Elastic Constant Matrix: (Units=GPa)
#
#
# Indices 1 2 3 4 5 6 
#
# 1 32.6835 -2.4279 -6.6901 0.0000 0.0000 0.0000
# 2 -2.4279 77.6641 16.2780 0.0000 0.0000 0.0000
# 3 -6.6901 16.2780 39.8681 0.0000 0.0000 0.0000
# 4 0.0000 0.0000 0.0000 25.2122 0.0000 0.0000
# 5 0.0000 0.0000 0.0000 0.0000 -6.5987 0.0000
# 6 0.0000 0.0000 0.0000 0.0000 0.0000 45.4545
#
#
#
# Elastic Compliance Matrix: (Units=1/GPa)
#
#
# Indices 1 2 3 4 5 6 
#
# 1 0.031686 -0.000135 0.005372 0.000000 0.000000 0.000000
# 2 -0.000135 0.014082 -0.005772 0.000000 0.000000 0.000000
# 3 0.005372 -0.005772 0.028341 0.000000 0.000000 0.000000
# 4 0.000000 0.000000 0.000000 0.039663 0.000000 0.000000
# 5 0.000000 0.000000 0.000000 0.000000 -0.151546 0.000000
# 6 0.000000 0.000000 0.000000 0.000000 0.000000 0.022000
#
#
# Mechanical properties :
#
#
# Convention : Reuss Voigt Hill
#
# Bulk Modulus (GPa) = 13.69146 18.28174 15.98660
# Shear Modulus (GPa) = 518.53565 22.35066 270.44315
#
# Velocity S-wave (km/s) = 14.66414 3.04447 10.59022
# Velocity P-wave (km/s) = 17.09952 4.46541 12.49667
#
# Compressibility (1/GPa) = 0.07303823
#
# Stress axis : x y z
#
# Youngs Moduli (GPa) = 31.55957 71.01490 35.28461
#
# Poissons Ratio (x) = 0.00962 -0.18956
# Poissons Ratio (y) = 0.00428 0.20367
# Poissons Ratio (z) = -0.16955 0.40991
#
# Static dielectric constant tensor:
#      x y z
#    x 2.067100 0.000000 0.000000 
#    y 0.000000 1.951590 0.000000 
#    z 0.000000 0.000000 1.954620 
# 
# From -- ./inp_files/24957.got.cif
#   From: 2010.05.17/outbox.cif.g08.bks.cpg/sg57_13_cif.got.tgz:24957.got - 2010.06.03 13:58:18.
