data_PCOD9437358
_publ_section_title
;
Structure prediction by ZEFSAII (Michael W. Deem and Ramdas Pophale) SiO2 
 PCOD9437358
Probable space group: P B C M
;
_chemical_formula_sum "Si O2"
_cell_formula_units_Z 56
_cell_length_a 14.967306
_cell_length_b 23.114863
_cell_length_c 8.728615
_cell_angle_alpha 90.000000
_cell_angle_beta 90.000000
_cell_angle_gamma 90.000000
_cell_volume 3019.814733
_symmetry_space_group_name_H-M "P B C M"
_symmetry_group_IT_number 57
_symmetry_cell_setting 'orthorhombic'
loop_
_space_group_symop_operation_xyz
x,y,z
-x,-y,1/2+z
x,1/2-y,-z
-x,1/2+y,1/2-z
-x,-y,-z
x,y,1/2-z
-x,1/2+y,z
x,1/2-y,1/2+z
loop_
_atom_site_type_symbol
_atom_site_label
_atom_site_fract_x
_atom_site_fract_y
_atom_site_fract_z
Si Si1 0.203129 0.582840 0.567748
Si Si2 0.094427 0.478902 0.067698
Si Si3 0.412393 0.427349 0.933940
Si Si4 0.073402 0.810899 0.067008
Si Si5 0.309164 0.188989 0.065450
Si Si6 0.114350 0.352234 0.933832
Si Si7 0.380646 0.551874 0.431783
O O1 0.195553 0.573230 0.750000
O O2 0.165109 0.527506 0.478719
O O3 0.141368 0.637485 0.527098
O O4 0.305734 0.588300 0.519202
O O5 0.087439 0.472664 0.250000
O O6 0.118672 0.417912 0.992669
O O7 0.000000 0.500000 0.000000
O O8 0.399958 0.433861 0.750000
O O9 0.364651 0.367987 0.982344
O O10 0.518592 0.427023 0.964866
O O11 0.375208 0.485042 0.013782
O O12 0.067574 0.807720 0.250000
O O13 0.104342 0.750000 0.000000
O O14 0.975282 0.824692 0.001651
O O15 0.312668 0.191302 0.250000
O O16 0.205753 0.179324 0.019216
O O17 0.341747 0.250000 0.000000
O O18 0.108776 0.351677 0.750000
O O19 0.366141 0.555007 0.250000
#
# Coordination Sequence:
#
# PCOD9437358 Si02
#       7
#     8   8   8   8   8   8   8
#     4  11  23  39  58  83 116 153 191 237 289 343
#     4  12  23  36  57  86 118 152 191 236 288 342
#     4   9  19  38  60  85 119 151 185 233 293 353
#     4  11  24  40  58  78 108 151 197 241 288 341
#     4  10  22  38  57  83 115 154 193 236 288 343
#     4  11  22  37  59  85 117 154 193 238 290 345
#     4  10  20  35  61  91 115 147 189 238 292 349
#
# _framework density 18.544183
#
# number of rings (size 3 to 8) (size 9 to 14) (size 15 to 20)
#    0.000    1.429    1.429    4.286    0.000    6.286 
#    0.000    0.714    0.000    3.429    0.000    0.000 
#    0.000    0.000    0.000    0.000    0.000    0.000 
#
# Total GULP energy -313039.511432 kJ/mol
# GULP energy per Si atom -5589.991276 kJ/mol
# Density = 1.850198 g / cm^3
# Si number density = 18.544183 Si / 1000 Ang^3
#
#
#
# Elastic Constant Matrix: (Units=GPa)
#
#
# Indices 1 2 3 4 5 6 
#
# 1 90.0769 40.5910 25.6654 0.0000 0.0000 0.0000
# 2 40.5910 103.2916 19.2331 0.0000 0.0000 0.0000
# 3 25.6654 19.2331 31.7663 0.0000 0.0000 0.0000
# 4 0.0000 0.0000 0.0000 33.2465 0.0000 0.0000
# 5 0.0000 0.0000 0.0000 0.0000 26.7006 0.0000
# 6 0.0000 0.0000 0.0000 0.0000 0.0000 18.9917
#
#
#
# Elastic Compliance Matrix: (Units=1/GPa)
#
#
# Indices 1 2 3 4 5 6 
#
# 1 0.016002 -0.004374 -0.010280 0.000000 0.000000 0.000000
# 2 -0.004374 0.012107 -0.003796 0.000000 0.000000 0.000000
# 3 -0.010280 -0.003796 0.042084 0.000000 0.000000 0.000000
# 4 0.000000 0.000000 0.000000 0.030078 0.000000 0.000000
# 5 0.000000 0.000000 0.000000 0.000000 0.037452 0.000000
# 6 0.000000 0.000000 0.000000 0.000000 0.000000 0.052655
#
#
# Mechanical properties :
#
#
# Convention : Reuss Voigt Hill
#
# Bulk Modulus (GPa) = 30.03734 44.01267 37.02500
# Shear Modulus (GPa) = 20.97515 25.09744 23.03630
#
# Velocity S-wave (km/s) = 3.36682 3.68283 3.52836
# Velocity P-wave (km/s) = 5.59882 6.47069 6.05048
#
# Compressibility (1/GPa) = 0.03329190
#
# Stress axis : x y z
#
# Youngs Moduli (GPa) = 62.49269 82.59601 23.76182
#
# Poissons Ratio (x) = 0.36129 0.24428
# Poissons Ratio (y) = 0.27335 0.09021
# Poissons Ratio (z) = 0.64244 0.31356
#
# Static dielectric constant tensor:
#      x y z
#    x 1.660150 0.000000 0.000000 
#    y 0.000000 1.596930 0.000000 
#    z 0.000000 0.000000 1.620480 
# 
# From -- ./inp_files/5259.got.cif
#   From: 2010.05.17/outbox.cif.g08.bks.cpg/sg57_3_cif.got.tgz:5259.got - 2010.06.03 13:58:18.
