data_PCOD9437914
_publ_section_title
;
Structure prediction by ZEFSAII (Michael W. Deem and Ramdas Pophale) SiO2 
 PCOD9437914
Probable space group: P B C M
;
_chemical_formula_sum "Si O2"
_cell_formula_units_Z 64
_cell_length_a 12.342583
_cell_length_b 32.139704
_cell_length_c 8.652489
_cell_angle_alpha 90.000000
_cell_angle_beta 90.000000
_cell_angle_gamma 90.000000
_cell_volume 3432.329594
_symmetry_space_group_name_H-M "P B C M"
_symmetry_group_IT_number 57
_symmetry_cell_setting 'orthorhombic'
loop_
_space_group_symop_operation_xyz
x,y,z
-x,-y,1/2+z
x,1/2-y,-z
-x,1/2+y,1/2-z
-x,-y,-z
x,y,1/2-z
-x,1/2+y,z
x,1/2-y,1/2+z
loop_
_atom_site_type_symbol
_atom_site_label
_atom_site_fract_x
_atom_site_fract_y
_atom_site_fract_z
Si Si1 0.012616 0.453188 0.565466
Si Si2 0.630863 0.106343 0.066093
Si Si3 0.754670 0.555674 0.565645
Si Si4 0.997340 0.704757 0.935291
Si Si5 0.873432 0.126199 0.435691
Si Si6 0.252426 0.294467 0.064066
Si Si7 0.385281 0.515125 0.933119
Si Si8 0.406931 0.369566 0.063384
O O1 0.005636 0.456380 0.750000
O O2 0.130781 0.436803 0.514953
O O3 0.000000 0.500000 0.500000
O O4 0.925565 0.418201 0.513470
O O5 0.627847 0.098147 0.250000
O O6 0.745698 0.127302 0.029500
O O7 0.626767 0.063060 0.975081
O O8 0.523422 0.130617 0.015851
O O9 0.769739 0.557212 0.750000
O O10 0.708970 0.511237 0.513857
O O11 0.662175 0.589142 0.523671
O O12 0.000483 0.706435 0.750000
O O13 0.871926 0.698130 0.985578
O O14 0.031630 0.750000 0.000000
O O15 0.066361 0.665724 0.992760
O O16 0.886433 0.127980 0.250000
O O17 0.252248 0.293385 0.250000
O O18 0.332803 0.330860 0.016048
O O19 0.286874 0.250000 0.000000
O O20 0.382693 0.508463 0.750000
O O21 0.500000 0.500000 0.000000
O O22 0.420478 0.369457 0.250000
#
# Coordination Sequence:
#
# PCOD9437914 Si02
#       8
#     8   8   8   8   8   8   8   8
#     4  11  23  39  59  84 118 158 200 249 303 359
#     4  11  23  39  59  83 115 155 199 245 291 343
#     4  11  22  37  58  84 115 149 191 244 293 344
#     4  10  20  37  64  93 119 151 190 240 298 360
#     4  10  23  41  59  84 119 158 201 250 299 353
#     4   9  19  36  58  87 117 146 181 227 286 345
#     4  12  23  37  57  83 114 153 198 242 291 344
#     4  10  21  37  57  82 114 149 188 234 284 342
#
# _framework density 18.646228000000001
#
# number of rings (size 3 to 8) (size 9 to 14) (size 15 to 20)
#    0.000    1.500    1.250    4.125    0.000    5.500 
#    0.000    0.625    0.000    1.500    0.000    0.000 
#    0.000    0.000    0.000    0.000    0.000    0.000 
#
# Total GULP energy -357625.875612 kJ/mol
# GULP energy per Si atom -5587.904306 kJ/mol
# Density = 1.860379 g / cm^3
# Si number density = 18.646228 Si / 1000 Ang^3
#
#
#
# Elastic Constant Matrix: (Units=GPa)
#
#
# Indices 1 2 3 4 5 6 
#
# 1 107.5303 55.7847 27.8276 0.0000 0.0000 0.0000
# 2 55.7847 120.7102 29.5700 0.0000 0.0000 0.0000
# 3 27.8276 29.5700 34.5639 0.0000 0.0000 0.0000
# 4 0.0000 0.0000 0.0000 32.0878 0.0000 0.0000
# 5 0.0000 0.0000 0.0000 0.0000 31.6822 0.0000
# 6 0.0000 0.0000 0.0000 0.0000 0.0000 33.1788
#
#
#
# Elastic Compliance Matrix: (Units=1/GPa)
#
#
# Indices 1 2 3 4 5 6 
#
# 1 0.013439 -0.004504 -0.006967 0.000000 0.000000 0.000000
# 2 -0.004504 0.011990 -0.006632 0.000000 0.000000 0.000000
# 3 -0.006967 -0.006632 0.040214 0.000000 0.000000 0.000000
# 4 0.000000 0.000000 0.000000 0.031164 0.000000 0.000000
# 5 0.000000 0.000000 0.000000 0.000000 0.031564 0.000000
# 6 0.000000 0.000000 0.000000 0.000000 0.000000 0.030140
#
#
# Mechanical properties :
#
#
# Convention : Reuss Voigt Hill
#
# Bulk Modulus (GPa) = 33.96851 54.35211 44.16031
# Shear Modulus (GPa) = 24.44633 29.36455 26.90544
#
# Velocity S-wave (km/s) = 3.62479 3.97271 3.80273
# Velocity P-wave (km/s) = 5.98128 7.08912 6.55863
#
# Compressibility (1/GPa) = 0.02943903
#
# Stress axis : x y z
#
# Youngs Moduli (GPa) = 74.40873 83.40005 24.86679
#
# Poissons Ratio (x) = 0.37565 0.17324
# Poissons Ratio (y) = 0.33515 0.16491
# Poissons Ratio (z) = 0.51838 0.55308
#
# Static dielectric constant tensor:
#      x y z
#    x 1.649070 0.000000 0.000000 
#    y 0.000000 1.639300 0.000000 
#    z 0.000000 0.000000 1.635900 
# 
# From -- ./inp_files/3785.got.cif
#   From: 2010.05.17/outbox.cif.g08.bks.cpg/sg57_2_cif.got.tgz:3785.got - 2010.06.03 13:58:18.
