data_PCOD9437804
_publ_section_title
;
Structure prediction by ZEFSAII (Michael W. Deem and Ramdas Pophale) SiO2 
 PCOD9437804
Probable space group: P B C M
;
_chemical_formula_sum "Si O2"
_cell_formula_units_Z 56
_cell_length_a 15.220004
_cell_length_b 7.805124
_cell_length_c 20.478323
_cell_angle_alpha 90.000000
_cell_angle_beta 90.000000
_cell_angle_gamma 90.000000
_cell_volume 2432.702281
_symmetry_space_group_name_H-M "P B C M"
_symmetry_group_IT_number 57
_symmetry_cell_setting 'orthorhombic'
loop_
_space_group_symop_operation_xyz
x,y,z
-x,-y,1/2+z
x,1/2-y,-z
-x,1/2+y,1/2-z
-x,-y,-z
x,y,1/2-z
-x,1/2+y,z
x,1/2-y,1/2+z
loop_
_atom_site_type_symbol
_atom_site_label
_atom_site_fract_x
_atom_site_fract_y
_atom_site_fract_z
Si Si1 0.550809 0.185222 0.823547
Si Si2 0.730377 0.037788 0.446334
Si Si3 0.977108 0.783271 0.324400
Si Si4 0.853548 0.048404 0.823545
Si Si5 0.689818 0.066923 0.583525
Si Si6 0.917909 0.922840 0.461540
Si Si7 0.636496 0.934487 0.176455
O O1 0.561666 0.116877 0.750000
O O2 0.602751 0.065377 0.873430
O O3 0.593692 0.374159 0.824341
O O4 0.447048 0.185942 0.836134
O O5 0.685109 0.976945 0.513464
O O6 0.702470 0.231193 0.431655
O O7 0.833053 0.040019 0.461702
O O8 0.705897 0.928588 0.382247
O O9 0.962547 0.850977 0.250000
O O10 0.924326 0.605262 0.326634
O O11 0.941795 0.883503 0.386968
O O12 0.083346 0.785760 0.333278
O O13 0.816527 0.057293 0.750000
O O14 0.775798 0.020290 0.874309
O O15 0.893929 0.750000 0.500000
O O16 0.000000 0.000000 0.500000
O O17 0.671844 0.904378 0.250000
#
# Coordination Sequence:
#
# PCOD9437804 Si02
#       7
#     8   8   8   8   8   8   8
#     4   9  18  36  62  88 116 154 194 239 300 363
#     4  10  23  38  58  88 120 158 203 247 302 362
#     4  10  22  39  58  83 115 153 203 254 309 365
#     4  10  21  38  60  86 117 155 201 255 306 363
#     4  10  20  37  60  86 119 155 203 244 294 371
#     4  12  26  42  64  88 123 168 210 258 316 372
#     4   9  19  39  63  90 120 154 197 246 304 369
#
# _framework density 23.019669
#
# number of rings (size 3 to 8) (size 9 to 14) (size 15 to 20)
#    0.000    2.000    0.000    3.000    6.000    1.714 
#    5.143    0.000    0.000    0.000    0.000    0.000 
#    0.000    0.000    0.000    0.000    0.000    0.000 
#
# Total GULP energy -312920.318552 kJ/mol
# GULP energy per Si atom -5587.862831 kJ/mol
# Density = 2.296727 g / cm^3
# Si number density = 23.019669 Si / 1000 Ang^3
#
#
#
# Elastic Constant Matrix: (Units=GPa)
#
#
# Indices 1 2 3 4 5 6 
#
# 1 47.5749 16.8603 33.0887 0.0000 0.0000 0.0000
# 2 16.8603 34.2028 46.8634 0.0000 0.0000 0.0000
# 3 33.0887 46.8634 130.6544 0.0000 0.0000 0.0000
# 4 0.0000 0.0000 0.0000 26.4485 0.0000 0.0000
# 5 0.0000 0.0000 0.0000 0.0000 39.6207 0.0000
# 6 0.0000 0.0000 0.0000 0.0000 0.0000 25.4346
#
#
#
# Elastic Compliance Matrix: (Units=1/GPa)
#
#
# Indices 1 2 3 4 5 6 
#
# 1 0.026481 -0.007600 -0.003980 0.000000 0.000000 0.000000
# 2 -0.007600 0.059673 -0.019479 0.000000 0.000000 0.000000
# 3 -0.003980 -0.019479 0.015649 0.000000 0.000000 0.000000
# 4 0.000000 0.000000 0.000000 0.037809 0.000000 0.000000
# 5 0.000000 0.000000 0.000000 0.000000 0.025239 0.000000
# 6 0.000000 0.000000 0.000000 0.000000 0.000000 0.039317
#
#
# Mechanical properties :
#
#
# Convention : Reuss Voigt Hill
#
# Bulk Modulus (GPa) = 25.19897 45.11744 35.15821
# Shear Modulus (GPa) = 17.88808 26.00874 21.94841
#
# Velocity S-wave (km/s) = 2.79064 3.36497 3.09117
# Velocity P-wave (km/s) = 4.62104 5.89402 5.29591
#
# Compressibility (1/GPa) = 0.03968415
#
# Stress axis : x y z
#
# Youngs Moduli (GPa) = 37.76241 16.75789 63.90334
#
# Poissons Ratio (x) = 0.12736 0.25437
# Poissons Ratio (y) = 0.28700 1.24477
# Poissons Ratio (z) = 0.15031 0.32643
#
# Static dielectric constant tensor:
#      x y z
#    x 1.857200 0.000000 0.000000 
#    y 0.000000 1.937400 0.000000 
#    z 0.000000 0.000000 1.802380 
# 
# From -- ./inp_files/25386.got.cif
#   From: 2010.05.17/outbox.cif.g08.bks.cpg/sg57_13_cif.got.tgz:25386.got - 2010.06.03 13:58:18.
