data_PCOD9437464
_publ_section_title
;
Structure prediction by ZEFSAII (Michael W. Deem and Ramdas Pophale) SiO2 
 PCOD9437464
Probable space group: P B C M
;
_chemical_formula_sum "Si O2"
_cell_formula_units_Z 48
_cell_length_a 7.800355
_cell_length_b 35.327547
_cell_length_c 9.063786
_cell_angle_alpha 90.000000
_cell_angle_beta 90.000000
_cell_angle_gamma 90.000000
_cell_volume 2497.684014
_symmetry_space_group_name_H-M "P B C M"
_symmetry_group_IT_number 57
_symmetry_cell_setting 'orthorhombic'
loop_
_space_group_symop_operation_xyz
x,y,z
-x,-y,1/2+z
x,1/2-y,-z
-x,1/2+y,1/2-z
-x,-y,-z
x,y,1/2-z
-x,1/2+y,z
x,1/2-y,1/2+z
loop_
_atom_site_type_symbol
_atom_site_label
_atom_site_fract_x
_atom_site_fract_y
_atom_site_fract_z
Si Si1 0.763539 0.852042 0.927862
Si Si2 0.713836 0.571479 0.916060
Si Si3 0.053049 0.790303 0.571995
Si Si4 0.689335 0.085835 0.584452
Si Si5 0.184116 0.503460 0.927463
Si Si6 0.631749 0.339205 0.573399
O O1 0.764257 0.856947 0.750000
O O2 0.569531 0.838563 0.971293
O O3 0.906710 0.821084 0.966901
O O4 0.799318 0.892740 0.002752
O O5 0.783361 0.565811 0.750000
O O6 0.515376 0.582394 0.904751
O O7 0.718512 0.532647 0.006874
O O8 0.017520 0.750000 0.500000
O O9 0.052158 0.786907 0.750000
O O10 0.240850 0.805807 0.524904
O O11 0.758881 0.092056 0.750000
O O12 0.749943 0.045046 0.529498
O O13 0.717803 0.121944 0.483028
O O14 0.183977 0.501511 0.750000
O O15 0.000000 0.500000 0.000000
O O16 0.631965 0.339527 0.750000
#
# Coordination Sequence:
#
# PCOD9437464 Si02
#       6
#     8   8   8   8   8   8
#     4   9  19  37  58  81 112 147 185 228 275 332
#     4  10  20  36  57  81 108 143 186 231 280 331
#     4  10  22  38  57  84 112 143 181 224 278 337
#     4   9  20  37  56  79 108 143 186 231 276 328
#     4  11  23  36  51  78 113 149 188 231 276 324
#     4   9  19  36  58  82 110 146 184 226 277 331
#
# _framework density 19.217803
#
# number of rings (size 3 to 8) (size 9 to 14) (size 15 to 20)
#    0.000    2.333    0.000    1.500    2.333    4.000 
#    0.000    0.000    0.000    0.000    0.000    0.000 
#    0.000    0.000    0.000    0.000    0.000    0.000 
#
# Total GULP energy -267662.393618 kJ/mol
# GULP energy per Si atom -5576.299867 kJ/mol
# Density = 1.917406 g / cm^3
# Si number density = 19.217803 Si / 1000 Ang^3
#
#
#
# Elastic Constant Matrix: (Units=GPa)
#
#
# Indices 1 2 3 4 5 6 
#
# 1 33.7425 -0.4578 4.5990 0.0000 0.0000 0.0000
# 2 -0.4578 61.4660 6.8778 0.0000 0.0000 0.0000
# 3 4.5990 6.8778 16.4015 0.0000 0.0000 0.0000
# 4 0.0000 0.0000 0.0000 38.3272 0.0000 0.0000
# 5 0.0000 0.0000 0.0000 0.0000 17.0087 0.0000
# 6 0.0000 0.0000 0.0000 0.0000 0.0000 37.3177
#
#
#
# Elastic Compliance Matrix: (Units=1/GPa)
#
#
# Indices 1 2 3 4 5 6 
#
# 1 0.030906 0.001259 -0.009194 0.000000 0.000000 0.000000
# 2 0.001259 0.017121 -0.007533 0.000000 0.000000 0.000000
# 3 -0.009194 -0.007533 0.066707 0.000000 0.000000 0.000000
# 4 0.000000 0.000000 0.000000 0.026091 0.000000 0.000000
# 5 0.000000 0.000000 0.000000 0.000000 0.058794 0.000000
# 6 0.000000 0.000000 0.000000 0.000000 0.000000 0.026797
#
#
# Mechanical properties :
#
#
# Convention : Reuss Voigt Hill
#
# Bulk Modulus (GPa) = 11.93335 14.84979 13.39157
# Shear Modulus (GPa) = 17.52631 25.23678 21.38154
#
# Velocity S-wave (km/s) = 3.02318 3.62774 3.33917
# Velocity P-wave (km/s) = 4.29059 5.02903 4.67442
#
# Compressibility (1/GPa) = 0.08379877
#
# Stress axis : x y z
#
# Youngs Moduli (GPa) = 32.35572 58.40633 14.99095
#
# Poissons Ratio (x) = -0.07353 0.13783
# Poissons Ratio (y) = -0.04074 0.11292
# Poissons Ratio (z) = 0.29749 0.43996
#
# Static dielectric constant tensor:
#      x y z
#    x 2.538040 0.000000 0.000000 
#    y 0.000000 0.674610 0.000000 
#    z 0.000000 0.000000 1.656530 
# 
# From -- ./inp_files/2020.got.cif
#   From: 2010.05.17/outbox.cif.g08.bks.cpg/sg57_2_cif.got.tgz:2020.got - 2010.06.03 13:58:18.
