data_PCOD9437246
_publ_section_title
;
Structure prediction by ZEFSAII (Michael W. Deem and Ramdas Pophale) SiO2 
 PCOD9437246
Probable space group: P B C M
;
_chemical_formula_sum "Si O2"
_cell_formula_units_Z 56
_cell_length_a 21.529185
_cell_length_b 15.860873
_cell_length_c 8.768802
_cell_angle_alpha 90.000000
_cell_angle_beta 90.000000
_cell_angle_gamma 90.000000
_cell_volume 2994.297455
_symmetry_space_group_name_H-M "P B C M"
_symmetry_group_IT_number 57
_symmetry_cell_setting 'orthorhombic'
loop_
_space_group_symop_operation_xyz
x,y,z
-x,-y,1/2+z
x,1/2-y,-z
-x,1/2+y,1/2-z
-x,-y,-z
x,y,1/2-z
-x,1/2+y,z
x,1/2-y,1/2+z
loop_
_atom_site_type_symbol
_atom_site_label
_atom_site_fract_x
_atom_site_fract_y
_atom_site_fract_z
Si Si1 0.468836 0.584254 0.432404
Si Si2 0.991503 0.593422 0.566022
Si Si3 0.876740 0.161923 0.933486
Si Si4 0.791169 0.004663 0.934216
Si Si5 0.406871 0.163879 0.432593
Si Si6 0.351180 0.516567 0.566568
Si Si7 0.144425 0.158749 0.566954
O O1 0.500000 0.500000 0.500000
O O2 0.466717 0.579058 0.250000
O O3 0.520126 0.653840 0.474733
O O4 0.399450 0.583471 0.497154
O O5 0.991574 0.587863 0.750000
O O6 0.926224 0.634299 0.518817
O O7 0.000000 0.500000 0.500000
O O8 0.051890 0.646447 0.518634
O O9 0.874544 0.165901 0.750000
O O10 0.836844 0.080503 0.981071
O O11 0.853733 0.250000 0.000000
O O12 0.794533 0.996227 0.750000
O O13 0.720456 0.027413 0.974785
O O14 0.812508 0.916766 0.006764
O O15 0.381146 0.250000 0.500000
O O16 0.402727 0.167275 0.250000
O O17 0.372506 0.077935 0.481830
O O18 0.357134 0.520241 0.750000
O O19 0.160758 0.250000 0.500000
O O20 0.146688 0.161890 0.750000
#
# Coordination Sequence:
#
# PCOD9437246 Si02
#       7
#     8   8   8   8   8   8   8
#     4   9  17  31  51  75 101 131 169 212 255 307
#     4  10  20  35  57  84 110 141 183 232 287 341
#     4  10  21  37  58  82 108 143 185 232 287 340
#     4  10  21  39  59  79 111 151 190 234 282 335
#     4   9  18  31  49  76 105 132 169 213 260 312
#     4   9  19  35  54  76 104 141 180 219 267 321
#     4  11  23  37  56  83 114 149 188 233 284 340
#
# _framework density 18.702216
#
# number of rings (size 3 to 8) (size 9 to 14) (size 15 to 20)
#    0.000    2.286    1.429    2.143    0.000    5.714 
#    0.000    2.143    0.000    3.429    0.000    0.000 
#    0.000    0.000    0.000    0.000    0.000    0.000 
#
# Total GULP energy -312350.543758 kJ/mol
# GULP energy per Si atom -5577.688281 kJ/mol
# Density = 1.865965 g / cm^3
# Si number density = 18.702216 Si / 1000 Ang^3
#
#
#
# Elastic Constant Matrix: (Units=GPa)
#
#
# Indices 1 2 3 4 5 6 
#
# 1 83.5304 -2.8470 17.2696 0.0000 0.0000 0.0000
# 2 -2.8470 70.1691 10.9959 0.0000 0.0000 0.0000
# 3 17.2696 10.9959 9.2082 0.0000 0.0000 0.0000
# 4 0.0000 0.0000 0.0000 30.1876 0.0000 0.0000
# 5 0.0000 0.0000 0.0000 0.0000 20.9817 0.0000
# 6 0.0000 0.0000 0.0000 0.0000 0.0000 11.9078
#
#
#
# Elastic Compliance Matrix: (Units=1/GPa)
#
#
# Indices 1 2 3 4 5 6 
#
# 1 0.024105 0.009918 -0.057052 0.000000 0.000000 0.000000
# 2 0.009918 0.021613 -0.044410 0.000000 0.000000 0.000000
# 3 -0.057052 -0.044410 0.268628 0.000000 0.000000 0.000000
# 4 0.000000 0.000000 0.000000 0.033126 0.000000 0.000000
# 5 0.000000 0.000000 0.000000 0.000000 0.047661 0.000000
# 6 0.000000 0.000000 0.000000 0.000000 0.000000 0.083978
#
#
# Mechanical properties :
#
#
# Convention : Reuss Voigt Hill
#
# Bulk Modulus (GPa) = 7.61850 23.74938 15.68394
# Shear Modulus (GPa) = 7.08264 21.78138 14.43201
#
# Velocity S-wave (km/s) = 1.94815 3.41639 2.78092
# Velocity P-wave (km/s) = 3.02371 5.31870 4.32616
#
# Compressibility (1/GPa) = 0.13125947
#
# Stress axis : x y z
#
# Youngs Moduli (GPa) = 41.48531 46.26845 3.72261
#
# Poissons Ratio (x) = -0.45890 0.21238
# Poissons Ratio (y) = -0.41146 0.16532
# Poissons Ratio (z) = 2.36680 2.05479
#
# Static dielectric constant tensor:
#      x y z
#    x 1.664040 0.000000 0.000000 
#    y 0.000000 1.625230 0.000000 
#    z 0.000000 0.000000 1.633800 
# 
# From -- ./inp_files/8135.got.cif
#   From: 2010.05.17/outbox.cif.g08.bks.cpg/sg57_5_cif.got.tgz:8135.got - 2010.06.03 13:58:18.
