data_PCOD9437785
_publ_section_title
;
Structure prediction by ZEFSAII (Michael W. Deem and Ramdas Pophale) SiO2 
 PCOD9437785
Probable space group: P B C M
;
_chemical_formula_sum "Si O2"
_cell_formula_units_Z 64
_cell_length_a 22.195714
_cell_length_b 16.962870
_cell_length_c 8.461338
_cell_angle_alpha 90.000000
_cell_angle_beta 90.000000
_cell_angle_gamma 90.000000
_cell_volume 3185.719235
_symmetry_space_group_name_H-M "P B C M"
_symmetry_group_IT_number 57
_symmetry_cell_setting 'orthorhombic'
loop_
_space_group_symop_operation_xyz
x,y,z
-x,-y,1/2+z
x,1/2-y,-z
-x,1/2+y,1/2-z
-x,-y,-z
x,y,1/2-z
-x,1/2+y,z
x,1/2-y,1/2+z
loop_
_atom_site_type_symbol
_atom_site_label
_atom_site_fract_x
_atom_site_fract_y
_atom_site_fract_z
Si Si1 0.623659 0.335684 0.058605
Si Si2 0.239765 0.831442 0.064182
Si Si3 0.006381 0.667836 0.438543
Si Si4 0.782795 0.838770 0.440391
Si Si5 0.893635 0.559305 0.437566
Si Si6 0.642211 0.659726 0.939519
Si Si7 0.128113 0.897371 0.569238
Si Si8 0.431734 0.494414 0.559779
O O1 0.621614 0.332871 0.250000
O O2 0.692956 0.339762 0.999652
O O3 0.595830 0.419984 0.010612
O O4 0.599220 0.250000 0.000000
O O5 0.245186 0.827139 0.250000
O O6 0.213315 0.750000 0.000000
O O7 0.191724 0.895728 0.017498
O O8 0.983017 0.750000 0.500000
O O9 0.013212 0.669109 0.250000
O O10 0.954964 0.605446 0.473342
O O11 0.073443 0.652646 0.504318
O O12 0.792727 0.750000 0.500000
O O13 0.788898 0.843548 0.250000
O O14 0.833296 0.891942 0.522599
O O15 0.712647 0.857555 0.480627
O O16 0.893326 0.538792 0.250000
O O17 0.894803 0.485221 0.551892
O O18 0.636999 0.662410 0.750000
O O19 0.628204 0.750000 0.000000
O O20 0.601835 0.585583 0.999501
O O21 0.138813 0.874087 0.750000
O O22 0.500000 0.500000 0.500000
O O23 0.429755 0.491316 0.750000
#
# Coordination Sequence:
#
# PCOD9437785 Si02
#       8
#     8   8   8   8   8   8   8   8
#     4   9  21  40  63  91 124 163 206 254 308 363
#     4  10  20  37  59  87 117 152 194 242 297 357
#     4  10  23  40  58  79 108 148 194 242 295 354
#     4  10  21  38  60  89 120 154 197 246 300 360
#     4  11  23  38  57  83 114 152 194 243 299 356
#     4  10  22  41  65  94 127 167 211 259 315 373
#     4  11  23  38  56  83 115 150 193 244 297 355
#     4  11  24  42  64  94 130 169 212 259 308 369
#
# _framework density 20.089655
#
# number of rings (size 3 to 8) (size 9 to 14) (size 15 to 20)
#    0.000    1.750    0.000    3.375    1.750    7.500 
#    0.000    1.250    0.000    0.000    0.000    0.000 
#    0.000    0.000    0.000    0.000    0.000    0.000 
#
# Total GULP energy -356916.012713 kJ/mol
# GULP energy per Si atom -5576.812699 kJ/mol
# Density = 2.004393 g / cm^3
# Si number density = 20.089655 Si / 1000 Ang^3
#
#
#
# Elastic Constant Matrix: (Units=GPa)
#
#
# Indices 1 2 3 4 5 6 
#
# 1 76.8878 36.2559 17.9572 0.0000 0.0000 0.0000
# 2 36.2559 88.1621 12.2471 0.0000 0.0000 0.0000
# 3 17.9572 12.2471 29.3447 0.0000 0.0000 0.0000
# 4 0.0000 0.0000 0.0000 35.4213 0.0000 0.0000
# 5 0.0000 0.0000 0.0000 0.0000 13.0695 0.0000
# 6 0.0000 0.0000 0.0000 0.0000 0.0000 49.0817
#
#
#
# Elastic Compliance Matrix: (Units=1/GPa)
#
#
# Indices 1 2 3 4 5 6 
#
# 1 0.017877 -0.006191 -0.008356 0.000000 0.000000 0.000000
# 2 -0.006191 0.014185 -0.002132 0.000000 0.000000 0.000000
# 3 -0.008356 -0.002132 0.040081 0.000000 0.000000 0.000000
# 4 0.000000 0.000000 0.000000 0.028232 0.000000 0.000000
# 5 0.000000 0.000000 0.000000 0.000000 0.076514 0.000000
# 6 0.000000 0.000000 0.000000 0.000000 0.000000 0.020374
#
#
# Mechanical properties :
#
#
# Convention : Reuss Voigt Hill
#
# Bulk Modulus (GPa) = 25.78274 36.36834 31.07554
# Shear Modulus (GPa) = 20.52991 28.04345 24.28668
#
# Velocity S-wave (km/s) = 3.20021 3.74025 3.48072
# Velocity P-wave (km/s) = 5.14945 6.06588 5.62635
#
# Compressibility (1/GPa) = 0.03878564
#
# Stress axis : x y z
#
# Youngs Moduli (GPa) = 55.93863 70.49792 24.94978
#
# Poissons Ratio (x) = 0.43645 0.20847
# Poissons Ratio (y) = 0.34631 0.05318
# Poissons Ratio (z) = 0.46741 0.15027
#
# Static dielectric constant tensor:
#      x y z
#    x 1.714860 0.000000 0.000000 
#    y 0.000000 1.813770 0.000000 
#    z 0.000000 0.000000 1.729140 
# 
# From -- ./inp_files/9285.got.cif
#   From: 2010.05.17/outbox.cif.g08.bks.cpg/sg57_5_cif.got.tgz:9285.got - 2010.06.03 13:58:18.
