data_PCOD9437945
_publ_section_title
;
Structure prediction by ZEFSAII (Michael W. Deem and Ramdas Pophale) SiO2 
 PCOD9437945
Probable space group: P B C M
;
_chemical_formula_sum "Si O2"
_cell_formula_units_Z 56
_cell_length_a 14.489933
_cell_length_b 9.336179
_cell_length_c 24.502561
_cell_angle_alpha 90.000000
_cell_angle_beta 90.000000
_cell_angle_gamma 90.000000
_cell_volume 3314.721354
_symmetry_space_group_name_H-M "P B C M"
_symmetry_group_IT_number 57
_symmetry_cell_setting 'orthorhombic'
loop_
_space_group_symop_operation_xyz
x,y,z
-x,-y,1/2+z
x,1/2-y,-z
-x,1/2+y,1/2-z
-x,-y,-z
x,y,1/2-z
-x,1/2+y,z
x,1/2-y,1/2+z
loop_
_atom_site_type_symbol
_atom_site_label
_atom_site_fract_x
_atom_site_fract_y
_atom_site_fract_z
Si Si1 0.093189 0.182439 0.314114
Si Si2 0.597241 0.525815 0.250000
Si Si3 0.617215 0.125826 0.463931
Si Si4 0.089905 0.522535 0.185880
Si Si5 0.602299 0.322042 0.750000
Si Si6 0.593181 0.636904 0.043516
Si Si7 0.297815 0.315284 0.652884
Si Si8 0.706332 0.028375 0.350602
O O1 0.107740 0.145070 0.250000
O O2 0.076008 0.352134 0.316748
O O3 0.188762 0.152940 0.344714
O O4 0.002361 0.100635 0.333666
O O5 0.496261 0.597907 0.250000
O O6 0.593681 0.351816 0.250000
O O7 0.651713 0.590916 0.198569
O O8 0.663408 0.250000 0.500000
O O9 0.514273 0.172093 0.443966
O O10 0.669691 0.068360 0.410809
O O11 0.599054 0.008670 0.510328
O O12 0.103659 0.560754 0.250000
O O13 0.184371 0.556650 0.154829
O O14 0.655446 0.378857 0.696027
O O15 0.654241 0.643453 0.096703
O O16 0.628961 0.750000 0.000000
O O17 0.308773 0.142373 0.661091
#
# Coordination Sequence:
#
# PCOD9437945 Si02
#       8
#     8   4   8   8   4   8   8   8
#     4   9  18  34  55  82 112 147 186 234 287 347
#     4  12  26  38  55  86 119 156 185 236 286 350
#     4  10  22  36  58  83 116 149 198 239 278 337
#     4   9  18  34  56  81 112 147 187 234 287 346
#     4  12  26  38  55  84 121 154 189 228 296 344
#     4  10  20  38  58  83 108 154 196 235 281 334
#     4  11  21  38  62  83 117 149 194 238 291 346
#     4  11  21  39  60  84 117 154 186 241 294 343
#
# _framework density 16.894331000000001
#
# number of rings (size 3 to 8) (size 9 to 14) (size 15 to 20)
#    0.000    1.714    2.857    2.143    2.000    1.143 
#    0.000    0.000    0.000    1.714    0.000    0.000 
#    0.000    0.000    0.000    0.000    0.000    0.000 
#
# Total GULP energy -312234.981086 kJ/mol
# GULP energy per Si atom -5575.624662 kJ/mol
# Density = 1.685588 g / cm^3
# Si number density = 16.894331 Si / 1000 Ang^3
#
#
#
# Elastic Constant Matrix: (Units=GPa)
#
#
# Indices 1 2 3 4 5 6 
#
# 1 142.4337 51.2343 69.8499 0.0000 0.0000 0.0000
# 2 51.2343 85.2034 43.7078 0.0000 0.0000 0.0000
# 3 69.8499 43.7078 99.6095 0.0000 0.0000 0.0000
# 4 0.0000 0.0000 0.0000 24.1288 0.0000 0.0000
# 5 0.0000 0.0000 0.0000 0.0000 50.4699 0.0000
# 6 0.0000 0.0000 0.0000 0.0000 0.0000 28.5796
#
#
#
# Elastic Compliance Matrix: (Units=1/GPa)
#
#
# Indices 1 2 3 4 5 6 
#
# 1 0.011490 -0.003582 -0.006485 0.000000 0.000000 0.000000
# 2 -0.003582 0.016263 -0.004624 0.000000 0.000000 0.000000
# 3 -0.006485 -0.004624 0.016616 0.000000 0.000000 0.000000
# 4 0.000000 0.000000 0.000000 0.041444 0.000000 0.000000
# 5 0.000000 0.000000 0.000000 0.000000 0.019814 0.000000
# 6 0.000000 0.000000 0.000000 0.000000 0.000000 0.034990
#
#
# Mechanical properties :
#
#
# Convention : Reuss Voigt Hill
#
# Bulk Modulus (GPa) = 66.73105 72.98119 69.85612
# Shear Modulus (GPa) = 28.57241 31.46596 30.01918
#
# Velocity S-wave (km/s) = 4.11693 4.32037 4.21988
# Velocity P-wave (km/s) = 7.88566 8.25711 8.07352
#
# Compressibility (1/GPa) = 0.01498553
#
# Stress axis : x y z
#
# Youngs Moduli (GPa) = 87.03454 61.49056 60.18370
#
# Poissons Ratio (x) = 0.22027 0.39030
# Poissons Ratio (y) = 0.31177 0.27829
# Poissons Ratio (z) = 0.56443 0.28433
#
# Static dielectric constant tensor:
#      x y z
#    x 1.566250 0.000000 0.000000 
#    y 0.000000 1.506510 0.000000 
#    z 0.000000 0.000000 1.536070 
# 
# From -- ./inp_files/25436.got.cif
#   From: 2010.05.17/outbox.cif.g08.bks.cpg/sg57_13_cif.got.tgz:25436.got - 2010.06.03 13:58:18.
