data_PCOD9437936
_publ_section_title
;
Structure prediction by ZEFSAII (Michael W. Deem and Ramdas Pophale) SiO2 
 PCOD9437936
Probable space group: P B C M
;
_chemical_formula_sum "Si O2"
_cell_formula_units_Z 40
_cell_length_a 24.071393
_cell_length_b 8.855008
_cell_length_c 9.743513
_cell_angle_alpha 90.000000
_cell_angle_beta 90.000000
_cell_angle_gamma 90.000000
_cell_volume 2076.852962
_symmetry_space_group_name_H-M "P B C M"
_symmetry_group_IT_number 57
_symmetry_cell_setting 'orthorhombic'
loop_
_space_group_symop_operation_xyz
x,y,z
-x,-y,1/2+z
x,1/2-y,-z
-x,1/2+y,1/2-z
-x,-y,-z
x,y,1/2-z
-x,1/2+y,z
x,1/2-y,1/2+z
loop_
_atom_site_type_symbol
_atom_site_label
_atom_site_fract_x
_atom_site_fract_y
_atom_site_fract_z
Si Si1 0.541910 0.144149 0.750000
Si Si2 0.045204 0.095560 0.085811
Si Si3 0.739296 0.897130 0.592893
Si Si4 0.574892 0.495128 0.750000
Si Si5 0.629568 0.073436 0.975314
Si Si6 0.843056 0.101566 0.590179
O O1 0.550937 0.323891 0.750000
O O2 0.575028 0.077837 0.879942
O O3 0.477610 0.104218 0.750000
O O4 0.031219 0.117326 0.250000
O O5 0.102868 0.003910 0.081487
O O6 0.051162 0.250000 0.000000
O O7 0.000000 0.000000 0.000000
O O8 0.736073 0.750000 0.500000
O O9 0.751368 0.853671 0.750000
O O10 0.681669 0.988361 0.587619
O O11 0.788994 0.006887 0.545946
O O12 0.612501 0.506532 0.616064
O O13 0.644066 0.250000 0.000000
O O14 0.850242 0.250000 0.500000
O O15 0.835237 0.144039 0.750000
#
# Coordination Sequence:
#
# PCOD9437936 Si02
#       6
#     4   8   8   4   8   8
#     4  10  20  38  56  86 114 152 189 244 287 354
#     4  11  23  40  64  94 132 171 215 263 313 367
#     4  11  24  41  61  88 120 153 198 249 300 357
#     4  10  22  34  60  84 116 150 193 232 299 352
#     4  10  21  39  60  83 116 154 195 241 294 353
#     4  10  23  42  64  92 124 163 206 254 305 364
#
# _framework density 19.259910000000001
#
# number of rings (size 3 to 8) (size 9 to 14) (size 15 to 20)
#    0.000    1.600    1.000    3.000    1.400    5.600 
#    0.000    0.000    0.000    0.000    0.000    0.000 
#    0.000    0.000    0.000    0.000    0.000    0.000 
#
# Total GULP energy -223489.415181 kJ/mol
# GULP energy per Si atom -5587.235380 kJ/mol
# Density = 1.921607 g / cm^3
# Si number density = 19.259910 Si / 1000 Ang^3
#
#
#
# Elastic Constant Matrix: (Units=GPa)
#
#
# Indices 1 2 3 4 5 6 
#
# 1 78.2683 28.5545 19.0384 0.0000 0.0000 0.0000
# 2 28.5545 90.6084 48.0429 0.0000 0.0000 0.0000
# 3 19.0384 48.0429 102.7286 0.0000 0.0000 0.0000
# 4 0.0000 0.0000 0.0000 46.4370 0.0000 0.0000
# 5 0.0000 0.0000 0.0000 0.0000 34.9274 0.0000
# 6 0.0000 0.0000 0.0000 0.0000 0.0000 28.7199
#
#
#
# Elastic Compliance Matrix: (Units=1/GPa)
#
#
# Indices 1 2 3 4 5 6 
#
# 1 0.014477 -0.004175 -0.000731 0.000000 0.000000 0.000000
# 2 -0.004175 0.015880 -0.006653 0.000000 0.000000 0.000000
# 3 -0.000731 -0.006653 0.012981 0.000000 0.000000 0.000000
# 4 0.000000 0.000000 0.000000 0.021535 0.000000 0.000000
# 5 0.000000 0.000000 0.000000 0.000000 0.028631 0.000000
# 6 0.000000 0.000000 0.000000 0.000000 0.000000 0.034819
#
#
# Mechanical properties :
#
#
# Convention : Reuss Voigt Hill
#
# Bulk Modulus (GPa) = 49.45209 51.43076 50.44143
# Shear Modulus (GPa) = 31.60964 33.74816 32.67890
#
# Velocity S-wave (km/s) = 4.05559 4.19053 4.12361
# Velocity P-wave (km/s) = 6.90379 7.08347 6.99421
#
# Compressibility (1/GPa) = 0.02022159
#
# Stress axis : x y z
#
# Youngs Moduli (GPa) = 69.07288 62.97366 77.03566
#
# Poissons Ratio (x) = 0.26292 0.05628
# Poissons Ratio (y) = 0.28839 0.51249
# Poissons Ratio (z) = 0.05046 0.41894
#
# Static dielectric constant tensor:
#      x y z
#    x 1.632030 0.000000 0.000000 
#    y 0.000000 1.684280 0.000000 
#    z 0.000000 0.000000 1.682490 
# 
# From -- ./inp_files/8938.got.cif
#   From: 2010.05.17/outbox.cif.g08.bks.cpg/sg57_5_cif.got.tgz:8938.got - 2010.06.03 13:58:18.
