data_PCOD9437169
_publ_section_title
;
Structure prediction by ZEFSAII (Michael W. Deem and Ramdas Pophale) SiO2 
 PCOD9437169
Probable space group: P B C M
;
_chemical_formula_sum "Si O2"
_cell_formula_units_Z 48
_cell_length_a 19.700684
_cell_length_b 15.338498
_cell_length_c 7.949979
_cell_angle_alpha 90.000000
_cell_angle_beta 90.000000
_cell_angle_gamma 90.000000
_cell_volume 2402.315926
_symmetry_space_group_name_H-M "P B C M"
_symmetry_group_IT_number 57
_symmetry_cell_setting 'orthorhombic'
loop_
_space_group_symop_operation_xyz
x,y,z
-x,-y,1/2+z
x,1/2-y,-z
-x,1/2+y,1/2-z
-x,-y,-z
x,y,1/2-z
-x,1/2+y,z
x,1/2-y,1/2+z
loop_
_atom_site_type_symbol
_atom_site_label
_atom_site_fract_x
_atom_site_fract_y
_atom_site_fract_z
Si Si1 0.257541 0.508018 0.949981
Si Si2 0.653790 0.846289 0.049108
Si Si3 0.103985 0.503848 0.546504
Si Si4 0.505114 0.601003 0.547460
Si Si5 0.358668 0.655522 0.547434
Si Si6 0.003813 0.147634 0.950263
O O1 0.252128 0.523362 0.750000
O O2 0.181071 0.509125 0.017215
O O3 0.308567 0.581315 0.019114
O O4 0.294963 0.417019 0.977739
O O5 0.652667 0.855586 0.250000
O O6 0.576757 0.862212 0.983886
O O7 0.675139 0.750000 0.000000
O O8 0.104498 0.507114 0.750000
O O9 0.068511 0.412057 0.499856
O O10 0.058996 0.586763 0.486030
O O11 0.500000 0.500000 0.500000
O O12 0.505830 0.609141 0.750000
O O13 0.435877 0.644655 0.482858
O O14 0.332536 0.750000 0.500000
O O15 0.361834 0.647566 0.750000
O O16 0.999879 0.147588 0.750000
O O17 0.004607 0.250000 0.000000
#
# Coordination Sequence:
#
# PCOD9437169 Si02
#       6
#     8   8   8   8   8   8
#     4  10  21  39  59  80 113 149 184 229 277 327
#     4  11  23  37  56  82 110 146 189 233 282 334
#     4   9  20  38  59  84 113 148 186 225 271 323
#     4  10  20  35  56  80 106 141 186 234 282 329
#     4  10  21  36  55  80 109 144 183 227 278 328
#     4  10  20  36  60  88 116 146 182 224 270 324
#
# _framework density 19.980718
#
# number of rings (size 3 to 8) (size 9 to 14) (size 15 to 20)
#    0.000    2.000    1.667    1.500    0.000    4.667 
#    0.000    0.000    0.000    0.000    0.000    0.000 
#    0.000    0.000    0.000    0.000    0.000    0.000 
#
# Total GULP energy -267899.880044 kJ/mol
# GULP energy per Si atom -5581.247501 kJ/mol
# Density = 1.993524 g / cm^3
# Si number density = 19.980718 Si / 1000 Ang^3
#
#
#
# Elastic Constant Matrix: (Units=GPa)
#
#
# Indices 1 2 3 4 5 6 
#
# 1 141.9858 50.6560 5.8156 0.0000 0.0000 0.0000
# 2 50.6560 141.0347 -13.5912 0.0000 0.0000 0.0000
# 3 5.8156 -13.5912 16.2586 0.0000 0.0000 0.0000
# 4 0.0000 0.0000 0.0000 19.9110 0.0000 0.0000
# 5 0.0000 0.0000 0.0000 0.0000 -0.7913 0.0000
# 6 0.0000 0.0000 0.0000 0.0000 0.0000 -26.2591
#
#
#
# Elastic Compliance Matrix: (Units=1/GPa)
#
#
# Indices 1 2 3 4 5 6 
#
# 1 0.008611 -0.003686 -0.006162 0.000000 0.000000 0.000000
# 2 -0.003686 0.009290 0.009084 0.000000 0.000000 0.000000
# 3 -0.006162 0.009084 0.071304 0.000000 0.000000 0.000000
# 4 0.000000 0.000000 0.000000 0.050224 0.000000 0.000000
# 5 0.000000 0.000000 0.000000 0.000000 -1.263695 0.000000
# 6 0.000000 0.000000 0.000000 0.000000 0.000000 -0.038082
#
#
# Mechanical properties :
#
#
# Convention : Reuss Voigt Hill
#
# Bulk Modulus (GPa) = 11.40547 42.78221 27.09384
# Shear Modulus (GPa) = -4.41854 15.66536 5.62341
#
# Velocity S-wave (km/s) = -1.48869 2.80308 1.67944
# Velocity P-wave (km/s) = 1.66304 5.65107 4.16535
#
# Compressibility (1/GPa) = 0.08767725
#
# Stress axis : x y z
#
# Youngs Moduli (GPa) = 116.13681 107.64290 14.02449
#
# Poissons Ratio (x) = 0.39682 0.08641
# Poissons Ratio (y) = 0.42813 -0.12740
# Poissons Ratio (z) = 0.71558 -0.97788
#
# Static dielectric constant tensor:
#      x y z
#    x 1.723160 0.000000 0.000000 
#    y 0.000000 1.666130 0.000000 
#    z 0.000000 0.000000 1.728190 
# 
# From -- ./inp_files/6499.got.cif
#   From: 2010.05.17/outbox.cif.g08.bks.cpg/sg57_4_cif.got.tgz:6499.got - 2010.06.03 13:58:18.
