data_PCOD9437179
_publ_section_title
;
Structure prediction by ZEFSAII (Michael W. Deem and Ramdas Pophale) SiO2 
 PCOD9437179
Probable space group: P B C M
;
_chemical_formula_sum "Si O2"
_cell_formula_units_Z 56
_cell_length_a 15.147641
_cell_length_b 23.345935
_cell_length_c 7.853227
_cell_angle_alpha 90.000000
_cell_angle_beta 90.000000
_cell_angle_gamma 90.000000
_cell_volume 2777.182544
_symmetry_space_group_name_H-M "P B C M"
_symmetry_group_IT_number 57
_symmetry_cell_setting 'orthorhombic'
loop_
_space_group_symop_operation_xyz
x,y,z
-x,-y,1/2+z
x,1/2-y,-z
-x,1/2+y,1/2-z
-x,-y,-z
x,y,1/2-z
-x,1/2+y,z
x,1/2-y,1/2+z
loop_
_atom_site_type_symbol
_atom_site_label
_atom_site_fract_x
_atom_site_fract_y
_atom_site_fract_z
Si Si1 0.591096 0.076358 0.948586
Si Si2 0.304466 0.686892 0.544818
Si Si3 0.899236 0.485363 0.453765
Si Si4 0.116048 0.646174 0.542181
Si Si5 0.784744 0.907653 0.448320
Si Si6 0.599858 0.551867 0.449064
Si Si7 0.923747 0.685380 0.955047
O O1 0.617191 0.074073 0.750000
O O2 0.639062 0.132525 0.020151
O O3 0.613990 0.013037 0.019268
O O4 0.485298 0.079636 0.963796
O O5 0.338020 0.750000 0.500000
O O6 0.303708 0.683960 0.750000
O O7 0.203378 0.679000 0.483804
O O8 0.889015 0.488603 0.250000
O O9 0.878399 0.420531 0.506862
O O10 0.835512 0.532199 0.533975
O O11 0.000000 0.500000 0.500000
O O12 0.114998 0.647900 0.750000
O O13 0.022597 0.671104 0.481660
O O14 0.769516 0.895411 0.250000
O O15 0.689766 0.913507 0.532980
O O16 0.851347 0.859710 0.519408
O O17 0.576932 0.546495 0.250000
O O18 0.926385 0.679069 0.750000
O O19 0.900677 0.750000 0.000000
#
# Coordination Sequence:
#
# PCOD9437179 Si02
#       7
#     8   8   8   8   8   8   8
#     4   9  19  37  58  83 114 146 176 220 284 338
#     4  10  20  35  56  80 111 149 186 225 274 327
#     4  11  20  34  55  81 113 147 185 229 280 333
#     4   9  18  35  55  77 111 148 181 224 278 328
#     4  11  22  37  55  81 115 148 182 227 279 330
#     4  10  20  36  61  88 109 139 182 229 280 337
#     4  10  21  37  54  74 105 146 188 228 271 319
#
# _framework density 20.16432
#
# number of rings (size 3 to 8) (size 9 to 14) (size 15 to 20)
#    0.000    2.000    1.429    2.571    0.000    4.571 
#    0.000    3.571    0.000    0.000    0.000    0.000 
#    0.000    0.000    0.000    0.000    0.000    0.000 
#
# Total GULP energy -312726.574785 kJ/mol
# GULP energy per Si atom -5584.403121 kJ/mol
# Density = 2.011843 g / cm^3
# Si number density = 20.164320 Si / 1000 Ang^3
#
#
#
# Elastic Constant Matrix: (Units=GPa)
#
#
# Indices 1 2 3 4 5 6 
#
# 1 111.6725 54.7412 -2.4892 0.0000 0.0000 0.0000
# 2 54.7412 109.3686 2.6412 0.0000 0.0000 0.0000
# 3 -2.4892 2.6412 25.1542 0.0000 0.0000 0.0000
# 4 0.0000 0.0000 0.0000 19.5752 0.0000 0.0000
# 5 0.0000 0.0000 0.0000 0.0000 14.9102 0.0000
# 6 0.0000 0.0000 0.0000 0.0000 0.0000 23.7175
#
#
#
# Elastic Compliance Matrix: (Units=1/GPa)
#
#
# Indices 1 2 3 4 5 6 
#
# 1 0.011948 -0.006024 0.001815 0.000000 0.000000 0.000000
# 2 -0.006024 0.012204 -0.001878 0.000000 0.000000 0.000000
# 3 0.001815 -0.001878 0.040132 0.000000 0.000000 0.000000
# 4 0.000000 0.000000 0.000000 0.051085 0.000000 0.000000
# 5 0.000000 0.000000 0.000000 0.000000 0.067068 0.000000
# 6 0.000000 0.000000 0.000000 0.000000 0.000000 0.042163
#
#
# Mechanical properties :
#
#
# Convention : Reuss Voigt Hill
#
# Bulk Modulus (GPa) = 19.19014 39.55353 29.37183
# Shear Modulus (GPa) = 19.67392 24.39406 22.03399
#
# Velocity S-wave (km/s) = 3.12698 3.48194 3.30922
# Velocity P-wave (km/s) = 4.75130 5.98526 5.40362
#
# Compressibility (1/GPa) = 0.05211010
#
# Stress axis : x y z
#
# Youngs Moduli (GPa) = 83.69456 81.94077 24.91803
#
# Poissons Ratio (x) = 0.49362 -0.04522
# Poissons Ratio (y) = 0.50419 0.04678
# Poissons Ratio (z) = -0.15190 0.15385
#
# Static dielectric constant tensor:
#      x y z
#    x 1.695180 0.000000 0.000000 
#    y 0.000000 1.703500 0.000000 
#    z 0.000000 0.000000 1.750250 
# 
# From -- ./inp_files/5133.got.cif
#   From: 2010.05.17/outbox.cif.g08.bks.cpg/sg57_3_cif.got.tgz:5133.got - 2010.06.03 13:58:18.
