data_PCOD9437630
_publ_section_title
;
Structure prediction by ZEFSAII (Michael W. Deem and Ramdas Pophale) SiO2 
 PCOD9437630
Probable space group: P B C M
;
_chemical_formula_sum "Si O2"
_cell_formula_units_Z 48
_cell_length_a 14.356560
_cell_length_b 19.397280
_cell_length_c 8.356362
_cell_angle_alpha 90.000000
_cell_angle_beta 90.000000
_cell_angle_gamma 90.000000
_cell_volume 2327.064767
_symmetry_space_group_name_H-M "P B C M"
_symmetry_group_IT_number 57
_symmetry_cell_setting 'orthorhombic'
loop_
_space_group_symop_operation_xyz
x,y,z
-x,-y,1/2+z
x,1/2-y,-z
-x,1/2+y,1/2-z
-x,-y,-z
x,y,1/2-z
-x,1/2+y,z
x,1/2-y,1/2+z
loop_
_atom_site_type_symbol
_atom_site_label
_atom_site_fract_x
_atom_site_fract_y
_atom_site_fract_z
Si Si1 0.393663 0.927185 0.432728
Si Si2 0.931376 0.322960 0.064885
Si Si3 0.403013 0.410336 0.560649
Si Si4 0.216278 0.329779 0.556121
Si Si5 0.053462 0.433573 0.930064
Si Si6 0.269371 0.817003 0.567568
O O1 0.369059 0.909938 0.250000
O O2 0.500612 0.906239 0.464847
O O3 0.330705 0.884086 0.551247
O O4 0.377435 0.008671 0.455059
O O5 0.957008 0.334876 0.250000
O O6 0.966015 0.250000 0.000000
O O7 0.820713 0.323892 0.043924
O O8 0.972343 0.377890 0.944341
O O9 0.421568 0.398497 0.750000
O O10 0.318503 0.360141 0.512291
O O11 0.203151 0.250000 0.500000
O O12 0.209460 0.328674 0.750000
O O13 0.140675 0.388310 0.499781
O O14 0.081335 0.452175 0.750000
O O15 0.000000 0.500000 0.000000
O O16 0.322384 0.750000 0.500000
O O17 0.240045 0.805916 0.750000
#
# Coordination Sequence:
#
# PCOD9437630 Si02
#       6
#     8   8   8   8   8   8
#     4  10  20  36  60  88 121 160 203 253 306 361
#     4  11  22  39  61  86 120 159 199 248 303 363
#     4   9  20  39  60  85 119 161 204 250 304 362
#     4  10  23  42  64  90 123 163 206 256 310 367
#     4  11  24  41  62  92 123 160 206 253 310 368
#     4  11  22  37  58  87 119 155 199 246 299 363
#
# _framework density 20.626843999999998
#
# number of rings (size 3 to 8) (size 9 to 14) (size 15 to 20)
#    0.000    1.667    0.000    5.500    2.333    4.667 
#    0.000    1.667    0.000    0.000    0.000    0.000 
#    0.000    0.000    0.000    0.000    0.000    0.000 
#
# Total GULP energy -267576.796723 kJ/mol
# GULP energy per Si atom -5574.516598 kJ/mol
# Density = 2.057990 g / cm^3
# Si number density = 20.626844 Si / 1000 Ang^3
#
#
#
# Elastic Constant Matrix: (Units=GPa)
#
#
# Indices 1 2 3 4 5 6 
#
# 1 57.8029 44.9508 8.8223 0.0000 0.0000 0.0000
# 2 44.9508 99.1039 4.4049 0.0000 0.0000 0.0000
# 3 8.8223 4.4049 46.4349 0.0000 0.0000 0.0000
# 4 0.0000 0.0000 0.0000 31.6366 0.0000 0.0000
# 5 0.0000 0.0000 0.0000 0.0000 22.0605 0.0000
# 6 0.0000 0.0000 0.0000 0.0000 0.0000 36.3553
#
#
#
# Elastic Compliance Matrix: (Units=1/GPa)
#
#
# Indices 1 2 3 4 5 6 
#
# 1 0.027467 -0.012278 -0.004054 0.000000 0.000000 0.000000
# 2 -0.012278 0.015622 0.000851 0.000000 0.000000 0.000000
# 3 -0.004054 0.000851 0.022225 0.000000 0.000000 0.000000
# 4 0.000000 0.000000 0.000000 0.031609 0.000000 0.000000
# 5 0.000000 0.000000 0.000000 0.000000 0.045330 0.000000
# 6 0.000000 0.000000 0.000000 0.000000 0.000000 0.027506
#
#
# Mechanical properties :
#
#
# Convention : Reuss Voigt Hill
#
# Bulk Modulus (GPa) = 29.11079 35.52196 32.31638
# Shear Modulus (GPa) = 23.56582 27.68805 25.62694
#
# Velocity S-wave (km/s) = 3.38373 3.66776 3.52860
# Velocity P-wave (km/s) = 5.42309 5.93256 5.68353
#
# Compressibility (1/GPa) = 0.03435153
#
# Stress axis : x y z
#
# Youngs Moduli (GPa) = 36.40720 64.01377 44.99433
#
# Poissons Ratio (x) = 0.78597 0.18240
# Poissons Ratio (y) = 0.44701 -0.03828
# Poissons Ratio (z) = 0.14759 -0.05447
#
# Static dielectric constant tensor:
#      x y z
#    x 1.743100 0.000000 0.000000 
#    y 0.000000 1.719170 0.000000 
#    z 0.000000 0.000000 1.724520 
# 
# From -- ./inp_files/4569.got.cif
#   From: 2010.05.17/outbox.cif.g08.bks.cpg/sg57_3_cif.got.tgz:4569.got - 2010.06.03 13:58:18.
