data_PCOD9437207
_publ_section_title
;
Structure prediction by ZEFSAII (Michael W. Deem and Ramdas Pophale) SiO2 
 PCOD9437207
Probable space group: P B C M
;
_chemical_formula_sum "Si O2"
_cell_formula_units_Z 64
_cell_length_a 12.347969
_cell_length_b 32.111354
_cell_length_c 8.440110
_cell_angle_alpha 90.000000
_cell_angle_beta 90.000000
_cell_angle_gamma 90.000000
_cell_volume 3346.588048
_symmetry_space_group_name_H-M "P B C M"
_symmetry_group_IT_number 57
_symmetry_cell_setting 'orthorhombic'
loop_
_space_group_symop_operation_xyz
x,y,z
-x,-y,1/2+z
x,1/2-y,-z
-x,1/2+y,1/2-z
-x,-y,-z
x,y,1/2-z
-x,1/2+y,z
x,1/2-y,1/2+z
loop_
_atom_site_type_symbol
_atom_site_label
_atom_site_fract_x
_atom_site_fract_y
_atom_site_fract_z
Si Si1 0.249523 0.202545 0.440726
Si Si2 0.324954 0.498426 0.559984
Si Si3 0.870617 0.377395 0.938725
Si Si4 0.008996 0.297825 0.941901
Si Si5 0.091936 0.968690 0.059818
Si Si6 0.630946 0.135993 0.938155
Si Si7 0.515995 0.797102 0.940373
Si Si8 0.514455 0.561936 0.940546
O O1 0.250629 0.250000 0.500000
O O2 0.250276 0.202028 0.250000
O O3 0.365857 0.184223 0.491233
O O4 0.130619 0.187395 0.491011
O O5 0.322053 0.499553 0.750000
O O6 0.208191 0.513224 0.502208
O O7 0.372057 0.453997 0.507560
O O8 0.417606 0.530839 0.506984
O O9 0.882750 0.378723 0.750000
O O10 0.927030 0.334246 0.995175
O O11 0.918258 0.420688 0.005599
O O12 0.744160 0.375506 0.983479
O O13 0.005292 0.295897 0.750000
O O14 0.990423 0.250000 0.000000
O O15 0.092449 0.968988 0.250000
O O16 0.000000 0.000000 0.000000
O O17 0.644624 0.130971 0.750000
O O18 0.532480 0.106105 0.990861
O O19 0.586918 0.180856 0.983497
O O20 0.508563 0.798968 0.750000
O O21 0.517085 0.750000 0.000000
O O22 0.521143 0.560416 0.750000
#
# Coordination Sequence:
#
# PCOD9437207 Si02
#       8
#     8   8   8   8   8   8   8   8
#     4   8  15  31  54  77 105 139 178 226 279 334
#     4   9  18  35  58  83 109 141 182 229 281 336
#     4  11  23  39  60  86 118 156 200 244 292 354
#     4   9  19  36  59  87 117 151 194 241 290 343
#     4  11  23  42  63  86 118 156 197 241 296 351
#     4  11  22  38  57  80 116 153 190 239 290 344
#     4  10  20  35  56  83 113 150 192 232 285 345
#     4   9  18  34  56  82 110 141 181 230 282 337
#
# _framework density 19.123956
#
# number of rings (size 3 to 8) (size 9 to 14) (size 15 to 20)
#    0.000    2.250    1.250    1.500    0.000    4.000 
#    2.250    1.250    0.000    0.000    0.000    0.000 
#    0.000    0.000    0.000    0.000    0.000    0.000 
#
# Total GULP energy -356557.842936 kJ/mol
# GULP energy per Si atom -5571.216296 kJ/mol
# Density = 1.908043 g / cm^3
# Si number density = 19.123956 Si / 1000 Ang^3
#
#
#
# Elastic Constant Matrix: (Units=GPa)
#
#
# Indices 1 2 3 4 5 6 
#
# 1 85.4727 60.9152 18.0281 0.0000 0.0000 0.0000
# 2 60.9152 100.4866 15.9225 0.0000 0.0000 0.0000
# 3 18.0281 15.9225 22.0229 0.0000 0.0000 0.0000
# 4 0.0000 0.0000 0.0000 26.4522 0.0000 0.0000
# 5 0.0000 0.0000 0.0000 0.0000 23.6926 0.0000
# 6 0.0000 0.0000 0.0000 0.0000 0.0000 38.0960
#
#
#
# Elastic Compliance Matrix: (Units=1/GPa)
#
#
# Indices 1 2 3 4 5 6 
#
# 1 0.022248 -0.011973 -0.009556 0.000000 0.000000 0.000000
# 2 -0.011973 0.017682 -0.002983 0.000000 0.000000 0.000000
# 3 -0.009556 -0.002983 0.055387 0.000000 0.000000 0.000000
# 4 0.000000 0.000000 0.000000 0.037804 0.000000 0.000000
# 5 0.000000 0.000000 0.000000 0.000000 0.042207 0.000000
# 6 0.000000 0.000000 0.000000 0.000000 0.000000 0.026249
#
#
# Mechanical properties :
#
#
# Convention : Reuss Voigt Hill
#
# Bulk Modulus (GPa) = 21.60155 44.19042 32.89598
# Shear Modulus (GPa) = 18.79467 25.18924 21.99196
#
# Velocity S-wave (km/s) = 3.13834 3.63320 3.39480
# Velocity P-wave (km/s) = 4.94492 6.38418 5.71008
#
# Compressibility (1/GPa) = 0.04629297
#
# Stress axis : x y z
#
# Youngs Moduli (GPa) = 44.94801 56.55450 18.05478
#
# Poissons Ratio (x) = 0.67710 0.17254
# Poissons Ratio (y) = 0.53814 0.05386
# Poissons Ratio (z) = 0.42953 0.16872
#
# Static dielectric constant tensor:
#      x y z
#    x 1.689630 0.000000 0.000000 
#    y 0.000000 1.660820 0.000000 
#    z 0.000000 0.000000 1.652870 
# 
# From -- ./inp_files/3868.got.cif
#   From: 2010.05.17/outbox.cif.g08.bks.cpg/sg57_2_cif.got.tgz:3868.got - 2010.06.03 13:58:18.
