data_PCOD9437327
_publ_section_title
;
Structure prediction by ZEFSAII (Michael W. Deem and Ramdas Pophale) SiO2 
 PCOD9437327
Probable space group: P B C M
;
_chemical_formula_sum "Si O2"
_cell_formula_units_Z 48
_cell_length_a 20.404308
_cell_length_b 14.301279
_cell_length_c 8.671565
_cell_angle_alpha 90.000000
_cell_angle_beta 90.000000
_cell_angle_gamma 90.000000
_cell_volume 2530.429451
_symmetry_space_group_name_H-M "P B C M"
_symmetry_group_IT_number 57
_symmetry_cell_setting 'orthorhombic'
loop_
_space_group_symop_operation_xyz
x,y,z
-x,-y,1/2+z
x,1/2-y,-z
-x,1/2+y,1/2-z
-x,-y,-z
x,y,1/2-z
-x,1/2+y,z
x,1/2-y,1/2+z
loop_
_atom_site_type_symbol
_atom_site_label
_atom_site_fract_x
_atom_site_fract_y
_atom_site_fract_z
Si Si1 0.345475 0.959630 0.065014
Si Si2 0.973119 0.647194 0.064970
Si Si3 0.472045 0.850367 0.064459
Si Si4 0.900358 0.458404 0.065290
Si Si5 0.777379 0.352797 0.933699
Si Si6 0.376748 0.350434 0.065137
O O1 0.342599 0.959632 0.250000
O O2 0.417808 0.924704 0.014941
O O3 0.291342 0.890017 0.999219
O O4 0.336046 0.063571 0.000981
O O5 0.979391 0.652103 0.250000
O O6 0.920484 0.565500 0.028007
O O7 0.958194 0.750000 0.000000
O O8 0.040936 0.608056 0.994356
O O9 0.472322 0.847602 0.250000
O O10 0.547075 0.865232 0.013890
O O11 0.451336 0.750000 0.000000
O O12 0.895575 0.450151 0.250000
O O13 0.833861 0.423423 0.988686
O O14 0.775124 0.348465 0.750000
O O15 0.791563 0.250000 0.000000
O O16 0.374650 0.349727 0.250000
O O17 0.356284 0.250000 0.000000
#
# Coordination Sequence:
#
# PCOD9437327 Si02
#       6
#     8   8   8   8   8   8
#     4  11  22  37  56  81 111 145 186 231 278 332
#     4  10  20  35  59  89 120 152 187 230 277 325
#     4   9  19  33  53  80 110 142 179 226 279 334
#     4  10  21  38  59  85 117 153 192 232 276 327
#     4  12  25  41  60  83 113 149 187 229 278 333
#     4  10  20  36  56  80 108 142 183 229 282 336
#
# _framework density 18.969113
#
# number of rings (size 3 to 8) (size 9 to 14) (size 15 to 20)
#    0.000    1.667    0.000    5.000    0.000    5.333 
#    0.000    0.833    0.000    2.000    0.000    0.000 
#    0.000    0.000    0.000    0.000    0.000    0.000 
#
# Total GULP energy -268190.587423 kJ/mol
# GULP energy per Si atom -5587.303905 kJ/mol
# Density = 1.892594 g / cm^3
# Si number density = 18.969113 Si / 1000 Ang^3
#
#
#
# Elastic Constant Matrix: (Units=GPa)
#
#
# Indices 1 2 3 4 5 6 
#
# 1 16.3456 12.8356 10.8271 0.0000 0.0000 0.0000
# 2 12.8356 125.3485 34.9774 0.0000 0.0000 0.0000
# 3 10.8271 34.9774 70.9461 0.0000 0.0000 0.0000
# 4 0.0000 0.0000 0.0000 33.4078 0.0000 0.0000
# 5 0.0000 0.0000 0.0000 0.0000 28.8460 0.0000
# 6 0.0000 0.0000 0.0000 0.0000 0.0000 23.5243
#
#
#
# Elastic Compliance Matrix: (Units=1/GPa)
#
#
# Indices 1 2 3 4 5 6 
#
# 1 0.070555 -0.004893 -0.008355 0.000000 0.000000 0.000000
# 2 -0.004893 0.009590 -0.003981 0.000000 0.000000 0.000000
# 3 -0.008355 -0.003981 0.017333 0.000000 0.000000 0.000000
# 4 0.000000 0.000000 0.000000 0.029933 0.000000 0.000000
# 5 0.000000 0.000000 0.000000 0.000000 0.034667 0.000000
# 6 0.000000 0.000000 0.000000 0.000000 0.000000 0.042509
#
#
# Mechanical properties :
#
#
# Convention : Reuss Voigt Hill
#
# Bulk Modulus (GPa) = 15.86818 36.65782 26.26300
# Shear Modulus (GPa) = 19.22688 27.42228 23.32458
#
# Velocity S-wave (km/s) = 3.18714 3.80627 3.51038
# Velocity P-wave (km/s) = 4.68266 6.21963 5.50505
#
# Compressibility (1/GPa) = 0.06301920
#
# Stress axis : x y z
#
# Youngs Moduli (GPa) = 14.17327 104.27821 57.69346
#
# Poissons Ratio (x) = 0.51028 0.48202
# Poissons Ratio (y) = 0.06936 0.22968
# Poissons Ratio (z) = 0.11842 0.41514
#
# Static dielectric constant tensor:
#      x y z
#    x 1.652180 0.000000 0.000000 
#    y 0.000000 1.662700 0.000000 
#    z 0.000000 0.000000 1.617400 
# 
# From -- ./inp_files/6531.got.cif
#   From: 2010.05.17/outbox.cif.g08.bks.cpg/sg57_4_cif.got.tgz:6531.got - 2010.06.03 13:58:18.
