data_PCOD9437904
_publ_section_title
;
Structure prediction by ZEFSAII (Michael W. Deem and Ramdas Pophale) SiO2 
 PCOD9437904
Probable space group: P B C M
;
_chemical_formula_sum "Si O2"
_cell_formula_units_Z 56
_cell_length_a 22.166943
_cell_length_b 15.293889
_cell_length_c 8.734318
_cell_angle_alpha 90.000000
_cell_angle_beta 90.000000
_cell_angle_gamma 90.000000
_cell_volume 2961.097708
_symmetry_space_group_name_H-M "P B C M"
_symmetry_group_IT_number 57
_symmetry_cell_setting 'orthorhombic'
loop_
_space_group_symop_operation_xyz
x,y,z
-x,-y,1/2+z
x,1/2-y,-z
-x,1/2+y,1/2-z
-x,-y,-z
x,y,1/2-z
-x,1/2+y,z
x,1/2-y,1/2+z
loop_
_atom_site_type_symbol
_atom_site_label
_atom_site_fract_x
_atom_site_fract_y
_atom_site_fract_z
Si Si1 0.805501 0.659021 0.433911
Si Si2 0.270502 0.000096 0.566399
Si Si3 0.062752 0.897220 0.066641
Si Si4 0.499206 0.349356 0.933958
Si Si5 0.937743 0.896837 0.566669
Si Si6 0.194918 0.841027 0.066197
Si Si7 0.588762 0.505956 0.934379
O O1 0.783340 0.750000 0.500000
O O2 0.804566 0.657317 0.250000
O O3 0.764473 0.582716 0.499159
O O4 0.875216 0.645667 0.484938
O O5 0.265971 0.999343 0.750000
O O6 0.341001 0.001574 0.524879
O O7 0.236443 0.917143 0.497670
O O8 0.059928 0.891246 0.250000
O O9 0.125323 0.855045 0.014446
O O10 0.066225 0.000207 0.025291
O O11 0.000257 0.861532 0.000215
O O12 0.497578 0.342290 0.750000
O O13 0.555004 0.414729 0.976950
O O14 0.501359 0.250000 0.000000
O O15 0.443133 0.409167 0.991413
O O16 0.940798 0.890898 0.750000
O O17 0.195463 0.842311 0.250000
O O18 0.216837 0.750000 0.000000
O O19 0.583135 0.514431 0.750000
#
# Coordination Sequence:
#
# PCOD9437904 Si02
#       7
#     8   8   8   8   8   8   8
#     4  11  23  40  59  84 116 152 197 245 296 354
#     4  11  23  41  63  87 118 157 198 243 292 343
#     4   9  18  34  55  79 108 144 186 238 297 354
#     4  10  20  37  63  93 125 158 192 235 283 333
#     4   9  18  34  55  79 108 143 186 239 297 355
#     4  11  23  40  59  84 117 153 197 245 294 353
#     4   9  21  40  61  89 122 156 198 239 282 338
#
# _framework density 18.911905000000001
#
# number of rings (size 3 to 8) (size 9 to 14) (size 15 to 20)
#    0.000    2.000    1.429    1.714    0.000    5.714 
#    0.000    4.286    0.000    0.000    0.000    0.000 
#    0.000    0.000    0.000    0.000    0.000    0.000 
#
# Total GULP energy -312622.721927 kJ/mol
# GULP energy per Si atom -5582.548606 kJ/mol
# Density = 1.886886 g / cm^3
# Si number density = 18.911905 Si / 1000 Ang^3
#
#
#
# Elastic Constant Matrix: (Units=GPa)
#
#
# Indices 1 2 3 4 5 6 
#
# 1 159.4208 90.4551 52.0838 0.0000 0.0000 0.0000
# 2 90.4551 179.6097 49.7164 0.0000 0.0000 0.0000
# 3 52.0838 49.7164 46.4596 0.0000 0.0000 0.0000
# 4 0.0000 0.0000 0.0000 25.0734 0.0000 0.0000
# 5 0.0000 0.0000 0.0000 0.0000 27.4825 0.0000
# 6 0.0000 0.0000 0.0000 0.0000 0.0000 -671.0171
#
#
#
# Elastic Compliance Matrix: (Units=1/GPa)
#
#
# Indices 1 2 3 4 5 6 
#
# 1 0.010930 -0.003002 -0.009040 0.000000 0.000000 0.000000
# 2 -0.003002 0.008735 -0.005982 0.000000 0.000000 0.000000
# 3 -0.009040 -0.005982 0.038060 0.000000 0.000000 0.000000
# 4 0.000000 0.000000 0.000000 0.039883 0.000000 0.000000
# 5 0.000000 0.000000 0.000000 0.000000 0.036387 0.000000
# 6 0.000000 0.000000 0.000000 0.000000 0.000000 -0.001490
#
#
# Mechanical properties :
#
#
# Convention : Reuss Voigt Hill
#
# Bulk Modulus (GPa) = 46.13348 85.55563 65.84456
# Shear Modulus (GPa) = 28.44477 -110.80991 -41.18257
#
# Velocity S-wave (km/s) = 3.88244 -7.66289 -4.67154
# Velocity P-wave (km/s) = 6.67417 5.74073 2.40714
#
# Compressibility (1/GPa) = 0.02167623
#
# Stress axis : x y z
#
# Youngs Moduli (GPa) = 91.49539 114.47640 26.27403
#
# Poissons Ratio (x) = 0.34366 0.23752
# Poissons Ratio (y) = 0.27467 0.15718
# Poissons Ratio (z) = 0.82714 0.68484
#
# Static dielectric constant tensor:
#      x y z
#    x 1.652810 0.000000 0.000000 
#    y 0.000000 1.636480 0.000000 
#    z 0.000000 0.000000 1.633300 
# 
# From -- ./inp_files/8017.got.cif
#   From: 2010.05.17/outbox.cif.g08.bks.cpg/sg57_5_cif.got.tgz:8017.got - 2010.06.03 13:58:18.
