data_PCOD9437578
_publ_section_title
;
Structure prediction by ZEFSAII (Michael W. Deem and Ramdas Pophale) SiO2 
 PCOD9437578
Probable space group: P B C M
;
_chemical_formula_sum "Si O2"
_cell_formula_units_Z 48
_cell_length_a 17.670094
_cell_length_b 8.110848
_cell_length_c 14.945436
_cell_angle_alpha 90.000000
_cell_angle_beta 90.000000
_cell_angle_gamma 90.000000
_cell_volume 2141.971616
_symmetry_space_group_name_H-M "P B C M"
_symmetry_group_IT_number 57
_symmetry_cell_setting 'orthorhombic'
loop_
_space_group_symop_operation_xyz
x,y,z
-x,-y,1/2+z
x,1/2-y,-z
-x,1/2+y,1/2-z
-x,-y,-z
x,y,1/2-z
-x,1/2+y,z
x,1/2-y,1/2+z
loop_
_atom_site_type_symbol
_atom_site_label
_atom_site_fract_x
_atom_site_fract_y
_atom_site_fract_z
Si Si1 0.728075 0.104745 0.250000
Si Si2 0.879777 0.732860 0.893337
Si Si3 0.535577 0.851144 0.408196
Si Si4 0.781157 0.621909 0.250000
Si Si5 0.119689 0.705080 0.750000
Si Si6 0.382159 0.793733 0.597051
Si Si7 0.986421 0.033667 0.891933
Si Si8 0.361653 0.254998 0.250000
O O1 0.818041 0.145939 0.250000
O O2 0.686208 0.184242 0.164609
O O3 0.693952 0.917135 0.250000
O O4 0.806897 0.775039 0.837048
O O5 0.927074 0.571305 0.866241
O O6 0.940199 0.873181 0.866578
O O7 0.866802 0.750000 0.000000
O O8 0.543049 0.750000 0.500000
O O9 0.447456 0.839353 0.380548
O O10 0.585709 0.761930 0.334955
O O11 0.570029 0.034737 0.411228
O O12 0.823852 0.450739 0.250000
O O13 0.692581 0.599973 0.250000
O O14 0.066530 0.671978 0.660447
O O15 0.351003 0.750000 0.500000
O O16 0.000000 0.000000 0.000000
#
# Coordination Sequence:
#
# PCOD9437578 Si02
#       8
#     4   8   8   4   4   8   8   4
#     4  10  23  40  56  82 120 152 191 240 296 354
#     4   9  18  33  52  75 100 131 171 218 269 326
#     4  10  20  36  59  85 113 151 200 245 289 343
#     4  10  21  34  50  74 106 138 175 220 276 336
#     4  10  21  36  56  82 110 146 185 228 288 348
#     4  10  20  37  59  85 115 151 194 245 291 346
#     4   9  18  34  55  79 105 136 181 228 273 335
#     4  10  23  38  54  82 116 154 195 240 294 350
#
# _framework density 22.40926
#
# number of rings (size 3 to 8) (size 9 to 14) (size 15 to 20)
#    0.000    2.333    0.000    3.000    0.000    4.667 
#    0.000   10.833    0.000    0.000    0.000    0.000 
#    0.000    0.000    0.000    0.000    0.000    0.000 
#
# Total GULP energy -267261.605190 kJ/mol
# GULP energy per Si atom -5567.950108 kJ/mol
# Density = 2.235826 g / cm^3
# Si number density = 22.409260 Si / 1000 Ang^3
#
#
#
# Elastic Constant Matrix: (Units=GPa)
#
#
# Indices 1 2 3 4 5 6 
#
# 1 98.3951 20.4355 72.1818 0.0000 0.0000 0.0000
# 2 20.4355 37.3029 24.6583 0.0000 0.0000 0.0000
# 3 72.1818 24.6583 93.4114 0.0000 0.0000 0.0000
# 4 0.0000 0.0000 0.0000 12.3686 0.0000 0.0000
# 5 0.0000 0.0000 0.0000 0.0000 42.6898 0.0000
# 6 0.0000 0.0000 0.0000 0.0000 0.0000 41.2768
#
#
#
# Elastic Compliance Matrix: (Units=1/GPa)
#
#
# Indices 1 2 3 4 5 6 
#
# 1 0.023498 -0.001054 -0.017880 0.000000 0.000000 0.000000
# 2 -0.001054 0.032521 -0.007770 0.000000 0.000000 0.000000
# 3 -0.017880 -0.007770 0.026573 0.000000 0.000000 0.000000
# 4 0.000000 0.000000 0.000000 0.080850 0.000000 0.000000
# 5 0.000000 0.000000 0.000000 0.000000 0.023425 0.000000
# 6 0.000000 0.000000 0.000000 0.000000 0.000000 0.024227
#
#
# Mechanical properties :
#
#
# Convention : Reuss Voigt Hill
#
# Bulk Modulus (GPa) = 34.26495 51.51786 42.89140
# Shear Modulus (GPa) = 18.23285 26.72262 22.47774
#
# Velocity S-wave (km/s) = 2.85551 3.45698 3.17054
# Velocity P-wave (km/s) = 5.11817 6.24289 5.70830
#
# Compressibility (1/GPa) = 0.02918434
#
# Stress axis : x y z
#
# Youngs Moduli (GPa) = 42.55597 30.74892 37.63253
#
# Poissons Ratio (x) = 0.03241 0.67286
# Poissons Ratio (y) = 0.04486 0.29242
# Poissons Ratio (z) = 0.76089 0.23893
#
# Static dielectric constant tensor:
#      x y z
#    x 1.788140 0.000000 0.000000 
#    y 0.000000 1.921280 0.000000 
#    z 0.000000 0.000000 2.146280 
# 
# From -- ./inp_files/22541.got.cif
#   From: 2010.05.17/outbox.cif.g08.bks.cpg/sg57_12_cif.got.tgz:22541.got - 2010.06.03 13:58:18.
