data_PCOD9437159
_publ_section_title
;
Structure prediction by ZEFSAII (Michael W. Deem and Ramdas Pophale) SiO2 
 PCOD9437159
Probable space group: P B C M
;
_chemical_formula_sum "Si O2"
_cell_formula_units_Z 40
_cell_length_a 14.777522
_cell_length_b 8.710390
_cell_length_c 15.637227
_cell_angle_alpha 90.000000
_cell_angle_beta 90.000000
_cell_angle_gamma 90.000000
_cell_volume 2012.792270
_symmetry_space_group_name_H-M "P B C M"
_symmetry_group_IT_number 57
_symmetry_cell_setting 'orthorhombic'
loop_
_space_group_symop_operation_xyz
x,y,z
-x,-y,1/2+z
x,1/2-y,-z
-x,1/2+y,1/2-z
-x,-y,-z
x,y,1/2-z
-x,1/2+y,z
x,1/2-y,1/2+z
loop_
_atom_site_type_symbol
_atom_site_label
_atom_site_fract_x
_atom_site_fract_y
_atom_site_fract_z
Si Si1 0.213777 0.441979 0.152317
Si Si2 0.100755 0.566975 0.995282
Si Si3 0.420783 0.017927 0.654684
Si Si4 0.581450 0.842567 0.912532
Si Si5 0.229687 0.428193 0.649823
O O1 0.187878 0.480825 0.250000
O O2 0.314960 0.506018 0.136910
O O3 0.215307 0.256590 0.145958
O O4 0.150802 0.506254 0.079526
O O5 0.157576 0.509690 0.912243
O O6 0.097800 0.750000 0.000000
O O7 0.000000 0.500000 0.000000
O O8 0.441563 0.962115 0.750000
O O9 0.430809 0.201453 0.652510
O O10 0.489838 0.939151 0.590357
O O11 0.667729 0.944618 0.885924
O O12 0.599404 0.750000 0.000000
O O13 0.223925 0.474159 0.750000
#
# Coordination Sequence:
#
# PCOD9437159 Si02
#       5
#     8   8   8   8   8
#     4   9  20  40  64  88 123 166 210 258 313 372
#     4  12  26  43  65  91 121 155 199 257 317 380
#     4  10  20  35  55  84 121 163 202 246 302 361
#     4  11  21  35  58  88 124 164 210 255 304 364
#     4  10  21  41  66  91 122 164 207 254 310 371
#
# _framework density 19.872890000000002
#
# number of rings (size 3 to 8) (size 9 to 14) (size 15 to 20)
#    0.000    1.600    0.000    7.800    0.000    4.000 
#    0.000    2.000    0.000    0.000    0.000    0.000 
#    0.000    0.000    0.000    0.000    0.000    0.000 
#
# Total GULP energy -223393.772204 kJ/mol
# GULP energy per Si atom -5584.844305 kJ/mol
# Density = 1.982766 g / cm^3
# Si number density = 19.872890 Si / 1000 Ang^3
#
#
#
# Elastic Constant Matrix: (Units=GPa)
#
#
# Indices 1 2 3 4 5 6 
#
# 1 125.8103 48.8814 106.2793 0.0000 0.0000 0.0000
# 2 48.8814 47.4754 49.0081 0.0000 0.0000 0.0000
# 3 106.2793 49.0081 175.3279 0.0000 0.0000 0.0000
# 4 0.0000 0.0000 0.0000 24.4417 0.0000 0.0000
# 5 0.0000 0.0000 0.0000 0.0000 16.6148 0.0000
# 6 0.0000 0.0000 0.0000 0.0000 0.0000 36.6700
#
#
#
# Elastic Compliance Matrix: (Units=1/GPa)
#
#
# Indices 1 2 3 4 5 6 
#
# 1 0.019801 -0.011241 -0.008861 0.000000 0.000000 0.000000
# 2 -0.011241 0.035987 -0.003246 0.000000 0.000000 0.000000
# 3 -0.008861 -0.003246 0.011982 0.000000 0.000000 0.000000
# 4 0.000000 0.000000 0.000000 0.040914 0.000000 0.000000
# 5 0.000000 0.000000 0.000000 0.000000 0.060187 0.000000
# 6 0.000000 0.000000 0.000000 0.000000 0.000000 0.027270
#
#
# Mechanical properties :
#
#
# Convention : Reuss Voigt Hill
#
# Bulk Modulus (GPa) = 47.44632 84.10571 65.77602
# Shear Modulus (GPa) = 20.01110 25.17495 22.59302
#
# Velocity S-wave (km/s) = 3.17670 3.56307 3.37542
# Velocity P-wave (km/s) = 6.11408 7.70331 6.95424
#
# Compressibility (1/GPa) = 0.02107645
#
# Stress axis : x y z
#
# Youngs Moduli (GPa) = 50.50204 27.78760 83.45782
#
# Poissons Ratio (x) = 0.31235 0.73952
# Poissons Ratio (y) = 0.56767 0.27086
# Poissons Ratio (z) = 0.44750 0.09019
#
# Static dielectric constant tensor:
#      x y z
#    x 1.695200 0.000000 0.000000 
#    y 0.000000 1.684900 0.000000 
#    z 0.000000 0.000000 1.744710 
# 
# From -- ./inp_files/18212.got.cif
#   From: 2010.05.17/outbox.cif.g08.bks.cpg/sg57_10_cif.got.tgz:18212.got - 2010.06.03 13:58:18.
