data_PCOD9437680
_publ_section_title
;
Structure prediction by ZEFSAII (Michael W. Deem and Ramdas Pophale) SiO2 
 PCOD9437680
Probable space group: P B C M
;
_chemical_formula_sum "Si O2"
_cell_formula_units_Z 64
_cell_length_a 24.265715
_cell_length_b 15.430659
_cell_length_c 8.069560
_cell_angle_alpha 90.000000
_cell_angle_beta 90.000000
_cell_angle_gamma 90.000000
_cell_volume 3021.533555
_symmetry_space_group_name_H-M "P B C M"
_symmetry_group_IT_number 57
_symmetry_cell_setting 'orthorhombic'
loop_
_space_group_symop_operation_xyz
x,y,z
-x,-y,1/2+z
x,1/2-y,-z
-x,1/2+y,1/2-z
-x,-y,-z
x,y,1/2-z
-x,1/2+y,z
x,1/2-y,1/2+z
loop_
_atom_site_type_symbol
_atom_site_label
_atom_site_fract_x
_atom_site_fract_y
_atom_site_fract_z
Si Si1 0.626797 0.623014 0.058440
Si Si2 0.504057 0.655903 0.050683
Si Si3 0.745872 0.842968 0.060077
Si Si4 0.916907 0.487342 0.049075
Si Si5 0.206849 0.980862 0.443378
Si Si6 0.296074 0.655662 0.948970
Si Si7 0.398382 0.560392 0.445174
Si Si8 0.009154 0.351667 0.947859
O O1 0.631642 0.650873 0.250000
O O2 0.566691 0.647717 0.988553
O O3 0.679641 0.655334 0.960861
O O4 0.625928 0.519311 0.046819
O O5 0.506593 0.649272 0.250000
O O6 0.459239 0.586142 0.994039
O O7 0.483197 0.750000 0.000000
O O8 0.760159 0.856946 0.250000
O O9 0.766146 0.750000 0.000000
O O10 0.770386 0.922081 0.957839
O O11 0.916296 0.490585 0.250000
O O12 0.854625 0.476840 0.985851
O O13 0.943614 0.579525 0.992398
O O14 0.954131 0.404789 0.999452
O O15 0.202117 0.957663 0.250000
O O16 0.252762 0.915989 0.512997
O O17 0.301679 0.649461 0.750000
O O18 0.276136 0.750000 0.000000
O O19 0.355515 0.637769 0.029388
O O20 0.400846 0.538047 0.250000
O O21 0.011702 0.350531 0.750000
O O22 0.012052 0.250000 0.000000
#
# Coordination Sequence:
#
# PCOD9437680 Si02
#       8
#     8   8   8   8   8   8   8   8
#     4  11  22  39  60  84 114 150 194 244 304 366
#     4  10  23  38  55  81 112 146 189 242 298 364
#     4  12  25  41  63  89 120 159 203 252 305 366
#     4   9  20  39  62  90 125 165 207 254 303 353
#     4  10  22  42  64  89 124 162 205 255 305 357
#     4  11  23  39  61  86 118 158 201 251 305 364
#     4  11  22  38  59  85 114 148 194 244 303 368
#     4  10  20  36  61  92 128 167 207 251 301 354
#
# _framework density 21.181297000000001
#
# number of rings (size 3 to 8) (size 9 to 14) (size 15 to 20)
#    0.000    1.500    1.250    3.750    0.000    6.500 
#    0.000    2.500    0.000    0.000    0.000    0.000 
#    0.000    0.000    0.000    0.000    0.000    0.000 
#
# Total GULP energy -357496.981237 kJ/mol
# GULP energy per Si atom -5585.890332 kJ/mol
# Density = 2.113309 g / cm^3
# Si number density = 21.181297 Si / 1000 Ang^3
#
#
#
# Elastic Constant Matrix: (Units=GPa)
#
#
# Indices 1 2 3 4 5 6 
#
# 1 97.1311 17.8306 0.8463 0.0000 0.0000 0.0000
# 2 17.8306 110.5779 -10.6077 0.0000 0.0000 0.0000
# 3 0.8463 -10.6077 30.0558 0.0000 0.0000 0.0000
# 4 0.0000 0.0000 0.0000 10.5703 0.0000 0.0000
# 5 0.0000 0.0000 0.0000 0.0000 23.9989 0.0000
# 6 0.0000 0.0000 0.0000 0.0000 0.0000 -2.2688
#
#
#
# Elastic Compliance Matrix: (Units=1/GPa)
#
#
# Indices 1 2 3 4 5 6 
#
# 1 0.010635 -0.001805 -0.000936 0.000000 0.000000 0.000000
# 2 -0.001805 0.009667 0.003462 0.000000 0.000000 0.000000
# 3 -0.000936 0.003462 0.034520 0.000000 0.000000 0.000000
# 4 0.000000 0.000000 0.000000 0.094604 0.000000 0.000000
# 5 0.000000 0.000000 0.000000 0.000000 0.041669 0.000000
# 6 0.000000 0.000000 0.000000 0.000000 0.000000 -0.440767
#
#
# Mechanical properties :
#
#
# Convention : Reuss Voigt Hill
#
# Bulk Modulus (GPa) = 17.77336 28.21146 22.99241
# Shear Modulus (GPa) = -21.51826 21.77314 0.12744
#
# Velocity S-wave (km/s) = -3.19079 3.20963 0.24555
# Velocity P-wave (km/s) = 2.27279 5.20419 3.31044
#
# Compressibility (1/GPa) = 0.05626399
#
# Stress axis : x y z
#
# Youngs Moduli (GPa) = 94.03078 103.44950 28.96887
#
# Poissons Ratio (x) = 0.18669 0.02713
# Poissons Ratio (y) = 0.16970 -0.10030
# Poissons Ratio (z) = 0.08805 -0.35819
#
# Static dielectric constant tensor:
#      x y z
#    x 1.780420 0.000000 0.000000 
#    y 0.000000 1.777740 0.000000 
#    z 0.000000 0.000000 1.756550 
# 
# From -- ./inp_files/9283.got.cif
#   From: 2010.05.17/outbox.cif.g08.bks.cpg/sg57_5_cif.got.tgz:9283.got - 2010.06.03 13:58:18.
