data_PCOD9437009
_publ_section_title
;
Structure prediction by ZEFSAII (Michael W. Deem and Ramdas Pophale) SiO2 
 PCOD9437009
Probable space group: P B C M
;
_chemical_formula_sum "Si O2"
_cell_formula_units_Z 60
_cell_length_a 17.840264
_cell_length_b 5.369451
_cell_length_c 28.983706
_cell_angle_alpha 90.000000
_cell_angle_beta 90.000000
_cell_angle_gamma 90.000000
_cell_volume 2776.419436
_symmetry_space_group_name_H-M "P B C M"
_symmetry_group_IT_number 57
_symmetry_cell_setting 'orthorhombic'
loop_
_space_group_symop_operation_xyz
x,y,z
-x,-y,1/2+z
x,1/2-y,-z
-x,1/2+y,1/2-z
-x,-y,-z
x,y,1/2-z
-x,1/2+y,z
x,1/2-y,1/2+z
loop_
_atom_site_type_symbol
_atom_site_label
_atom_site_fract_x
_atom_site_fract_y
_atom_site_fract_z
Si Si1 0.710608 0.997311 0.471407
Si Si2 0.597839 0.732212 0.345995
Si Si3 0.961536 0.199749 0.694583
Si Si4 0.671726 0.180006 0.697041
Si Si5 0.459066 0.116907 0.559524
Si Si6 0.821251 0.872954 0.698847
Si Si7 0.747827 0.567874 0.628330
Si Si8 0.549901 0.929887 0.250000
O O1 0.718682 0.250000 0.500000
O O2 0.757623 0.013949 0.423922
O O3 0.731433 0.750000 0.500000
O O4 0.622768 0.963549 0.457768
O O5 0.599660 0.452001 0.325938
O O6 0.544561 0.848370 0.384618
O O7 0.592004 0.894259 0.299310
O O8 0.677959 0.738424 0.372871
O O9 0.970661 0.216154 0.750000
O O10 0.877354 0.098673 0.687926
O O11 0.013753 0.970888 0.677327
O O12 0.659503 0.263413 0.750000
O O13 0.711486 0.359497 0.660873
O O14 0.736582 0.969495 0.703259
O O15 0.484430 0.395316 0.545808
O O16 0.842733 0.769328 0.750000
O O17 0.816582 0.681893 0.656725
O O18 0.497883 0.680851 0.250000
#
# Coordination Sequence:
#
# PCOD9437009 Si02
#       8
#     8   8   8   8   8   8   8   4
#     4  11  26  44  65  86 112 144 185 242 314 369
#     4  10  23  36  53  78 111 145 188 230 286 337
#     4   9  18  31  50  77 121 169 203 234 267 313
#     4  10  20  34  58  83 114 156 195 236 281 338
#     4  11  24  40  62  83 107 137 181 233 291 359
#     4   9  19  34  53  88 121 161 207 233 279 329
#     4  10  23  36  62  81 116 149 192 247 292 343
#     4  12  26  38  54  76 106 148 188 228 274 338
#
# _framework density 21.610569000000002
#
# number of rings (size 3 to 8) (size 9 to 14) (size 15 to 20)
#    0.000    1.867    0.667    2.000   14.933    1.600 
#    0.000    0.000    0.000    0.000    0.000    0.000 
#    0.000    3.200    0.000    0.000    0.000    0.000 
#
# Total GULP energy -334794.018421 kJ/mol
# GULP energy per Si atom -5579.900307 kJ/mol
# Density = 2.156138 g / cm^3
# Si number density = 21.610569 Si / 1000 Ang^3
#
#
#
# Elastic Constant Matrix: (Units=GPa)
#
#
# Indices 1 2 3 4 5 6 
#
# 1 41.9296 -7.7567 3.8413 0.0000 0.0000 0.0000
# 2 -7.7567 88.5837 32.8754 0.0000 0.0000 0.0000
# 3 3.8413 32.8754 120.4223 0.0000 0.0000 0.0000
# 4 0.0000 0.0000 0.0000 30.5664 0.0000 0.0000
# 5 0.0000 0.0000 0.0000 0.0000 10.6258 0.0000
# 6 0.0000 0.0000 0.0000 0.0000 0.0000 27.1171
#
#
#
# Elastic Compliance Matrix: (Units=1/GPa)
#
#
# Indices 1 2 3 4 5 6 
#
# 1 0.024490 0.002709 -0.001521 0.000000 0.000000 0.000000
# 2 0.002709 0.012861 -0.003597 0.000000 0.000000 0.000000
# 3 -0.001521 -0.003597 0.009335 0.000000 0.000000 0.000000
# 4 0.000000 0.000000 0.000000 0.032716 0.000000 0.000000
# 5 0.000000 0.000000 0.000000 0.000000 0.094111 0.000000
# 6 0.000000 0.000000 0.000000 0.000000 0.000000 0.036877
#
#
# Mechanical properties :
#
#
# Convention : Reuss Voigt Hill
#
# Bulk Modulus (GPa) = 23.88520 34.31729 29.10124
# Shear Modulus (GPa) = 21.81846 28.46022 25.13934
#
# Velocity S-wave (km/s) = 3.18090 3.63293 3.41440
# Velocity P-wave (km/s) = 4.95655 5.78895 5.38884
#
# Compressibility (1/GPa) = 0.04186693
#
# Stress axis : x y z
#
# Youngs Moduli (GPa) = 40.83311 77.75410 107.12674
#
# Poissons Ratio (x) = -0.21062 0.16291
# Poissons Ratio (y) = -0.11061 0.38539
# Poissons Ratio (z) = 0.06209 0.27972
#
# Static dielectric constant tensor:
#      x y z
#    x 1.825610 0.000000 0.000000 
#    y 0.000000 1.918790 0.000000 
#    z 0.000000 0.000000 1.864250 
# 
# From -- ./inp_files/28873.got.cif
#   From: 2010.05.17/outbox.cif.g08.bks.cpg/sg57_15_cif.got.tgz:28873.got - 2010.06.03 13:58:18.
