data_PCOD9437302
_publ_section_title
;
Structure prediction by ZEFSAII (Michael W. Deem and Ramdas Pophale) SiO2 
 PCOD9437302
Probable space group: P B C M
;
_chemical_formula_sum "Si O2"
_cell_formula_units_Z 64
_cell_length_a 20.840246
_cell_length_b 19.770891
_cell_length_c 8.580349
_cell_angle_alpha 90.000000
_cell_angle_beta 90.000000
_cell_angle_gamma 90.000000
_cell_volume 3535.363190
_symmetry_space_group_name_H-M "P B C M"
_symmetry_group_IT_number 57
_symmetry_cell_setting 'orthorhombic'
loop_
_space_group_symop_operation_xyz
x,y,z
-x,-y,1/2+z
x,1/2-y,-z
-x,1/2+y,1/2-z
-x,-y,-z
x,y,1/2-z
-x,1/2+y,z
x,1/2-y,1/2+z
loop_
_atom_site_type_symbol
_atom_site_label
_atom_site_fract_x
_atom_site_fract_y
_atom_site_fract_z
Si Si1 0.848021 0.570826 0.436679
Si Si2 0.987039 0.924906 0.435286
Si Si3 0.620136 0.603905 0.938170
Si Si4 0.653461 0.045714 0.938571
Si Si5 0.203351 0.578252 0.561809
Si Si6 0.516248 0.425080 0.061900
Si Si7 0.903714 0.325719 0.935307
Si Si8 0.254123 0.323161 0.062986
O O1 0.853897 0.573837 0.250000
O O2 0.914787 0.592000 0.513932
O O3 0.829709 0.493604 0.478975
O O4 0.791955 0.619791 0.493592
O O5 0.993140 0.926171 0.250000
O O6 0.038261 0.872184 0.502184
O O7 0.000000 0.000000 0.500000
O O8 0.620790 0.600051 0.750000
O O9 0.546422 0.617201 0.988298
O O10 0.673099 0.658226 0.985755
O O11 0.642778 0.530683 0.000959
O O12 0.654897 0.042670 0.750000
O O13 0.722274 0.074204 0.989111
O O14 0.589763 0.087741 0.987314
O O15 0.201636 0.584237 0.750000
O O16 0.161852 0.638066 0.489712
O O17 0.516574 0.425847 0.250000
O O18 0.500000 0.500000 0.000000
O O19 0.906376 0.324167 0.750000
O O20 0.908196 0.250000 0.000000
O O21 0.250072 0.324383 0.250000
O O22 0.235928 0.250000 0.000000
#
# Coordination Sequence:
#
# PCOD9437302 Si02
#       8
#     8   8   8   8   8   8   8   8
#     4  11  22  38  61  87 117 150 191 238 286 340
#     4  12  24  41  65  93 122 154 194 235 282 337
#     4   9  17  29  47  72 105 142 184 234 284 338
#     4   9  16  28  50  79 109 143 182 228 281 335
#     4  10  20  35  58  87 119 153 191 234 284 343
#     4   8  14  25  43  71 104 137 175 223 279 331
#     4  12  26  44  66  91 121 155 192 236 286 342
#     4  11  23  37  53  76 110 151 197 242 293 349
#
# _framework density 18.102809000000001
#
# number of rings (size 3 to 8) (size 9 to 14) (size 15 to 20)
#    0.000    1.750    2.500    3.000    0.000    2.000 
#    0.000    2.500    0.000    0.750    0.000    1.750 
#    0.000    0.000    0.000    0.000    0.000    0.000 
#
# Total GULP energy -357104.916665 kJ/mol
# GULP energy per Si atom -5579.764323 kJ/mol
# Density = 1.806161 g / cm^3
# Si number density = 18.102809 Si / 1000 Ang^3
#
#
#
# Elastic Constant Matrix: (Units=GPa)
#
#
# Indices 1 2 3 4 5 6 
#
# 1 154.2075 50.7328 38.6679 0.0000 0.0000 0.0000
# 2 50.7328 101.1136 34.4433 0.0000 0.0000 0.0000
# 3 38.6679 34.4433 57.2153 0.0000 0.0000 0.0000
# 4 0.0000 0.0000 0.0000 23.6717 0.0000 0.0000
# 5 0.0000 0.0000 0.0000 0.0000 22.4323 0.0000
# 6 0.0000 0.0000 0.0000 0.0000 0.0000 21.5918
#
#
#
# Elastic Compliance Matrix: (Units=1/GPa)
#
#
# Indices 1 2 3 4 5 6 
#
# 1 0.008425 -0.002878 -0.003961 0.000000 0.000000 0.000000
# 2 -0.002878 0.013424 -0.006136 0.000000 0.000000 0.000000
# 3 -0.003961 -0.006136 0.023849 0.000000 0.000000 0.000000
# 4 0.000000 0.000000 0.000000 0.042244 0.000000 0.000000
# 5 0.000000 0.000000 0.000000 0.000000 0.044579 0.000000
# 6 0.000000 0.000000 0.000000 0.000000 0.000000 0.046314
#
#
# Mechanical properties :
#
#
# Convention : Reuss Voigt Hill
#
# Bulk Modulus (GPa) = 50.64039 62.24715 56.44377
# Shear Modulus (GPa) = 23.65541 26.11866 24.88703
#
# Velocity S-wave (km/s) = 3.61879 3.80254 3.71180
# Velocity P-wave (km/s) = 6.74502 7.33069 7.04395
#
# Compressibility (1/GPa) = 0.01974708
#
# Stress axis : x y z
#
# Youngs Moduli (GPa) = 118.69680 74.49348 41.93025
#
# Poissons Ratio (x) = 0.21437 0.16610
# Poissons Ratio (y) = 0.34157 0.25730
# Poissons Ratio (z) = 0.47021 0.45712
#
# Static dielectric constant tensor:
#      x y z
#    x 1.674330 0.000000 0.000000 
#    y 0.000000 1.684100 0.000000 
#    z 0.000000 0.000000 1.610010 
# 
# From -- ./inp_files/8444.got.cif
#   From: 2010.05.17/outbox.cif.g08.bks.cpg/sg57_5_cif.got.tgz:8444.got - 2010.06.03 13:58:18.
