data_PCOD9437990
_publ_section_title
;
Structure prediction by ZEFSAII (Michael W. Deem and Ramdas Pophale) SiO2 
 PCOD9437990
Probable space group: P B C M
;
_chemical_formula_sum "Si O2"
_cell_formula_units_Z 48
_cell_length_a 30.871931
_cell_length_b 9.677071
_cell_length_c 8.716816
_cell_angle_alpha 90.000000
_cell_angle_beta 90.000000
_cell_angle_gamma 90.000000
_cell_volume 2604.147631
_symmetry_space_group_name_H-M "P B C M"
_symmetry_group_IT_number 57
_symmetry_cell_setting 'orthorhombic'
loop_
_space_group_symop_operation_xyz
x,y,z
-x,-y,1/2+z
x,1/2-y,-z
-x,1/2+y,1/2-z
-x,-y,-z
x,y,1/2-z
-x,1/2+y,z
x,1/2-y,1/2+z
loop_
_atom_site_type_symbol
_atom_site_label
_atom_site_fract_x
_atom_site_fract_y
_atom_site_fract_z
Si Si1 0.283905 0.900627 0.934681
Si Si2 0.135821 0.595743 0.065763
Si Si3 0.615715 0.101154 0.434065
Si Si4 0.963312 0.402428 0.567064
Si Si5 0.538176 0.904289 0.065216
Si Si6 0.789204 0.596097 0.433396
O O1 0.280366 0.899625 0.750000
O O2 0.334283 0.923938 0.978303
O O3 0.271415 0.750000 0.000000
O O4 0.252919 0.015768 0.004493
O O5 0.141048 0.598852 0.250000
O O6 0.086129 0.554489 0.029475
O O7 0.142699 0.750000 0.000000
O O8 0.169692 0.491024 0.992518
O O9 0.602116 0.250000 0.500000
O O10 0.614459 0.111317 0.250000
O O11 0.583084 0.980047 0.480095
O O12 0.969148 0.250000 0.500000
O O13 0.966862 0.398067 0.750000
O O14 0.000000 0.500000 0.500000
O O15 0.535530 0.899874 0.250000
O O16 0.535495 0.750000 0.000000
O O17 0.500000 0.000000 0.000000
O O18 0.790581 0.750000 0.500000
O O19 0.788741 0.599794 0.250000
#
# Coordination Sequence:
#
# PCOD9437990 Si02
#       6
#     8   8   8   8   8   8
#     4  10  20  38  61  86 115 150 189 230 276 333
#     4  10  21  39  61  85 112 148 190 232 277 333
#     4   9  20  37  59  85 114 147 187 231 278 331
#     4  10  21  37  59  85 115 149 188 231 279 332
#     4  11  23  39  58  84 115 151 191 234 283 336
#     4  12  25  40  58  83 114 149 187 234 285 335
#
# _framework density 18.432134999999999
#
# number of rings (size 3 to 8) (size 9 to 14) (size 15 to 20)
#    0.000    1.667    0.000    4.500    0.000    6.667 
#    0.000    1.667    0.000    0.000    0.000    0.000 
#    0.000    0.000    0.000    0.000    0.000    0.000 
#
# Total GULP energy -268278.656102 kJ/mol
# GULP energy per Si atom -5589.138669 kJ/mol
# Density = 1.839018 g / cm^3
# Si number density = 18.432135 Si / 1000 Ang^3
#
#
#
# Elastic Constant Matrix: (Units=GPa)
#
#
# Indices 1 2 3 4 5 6 
#
# 1 126.3223 113.5389 61.8983 0.0000 0.0000 0.0000
# 2 113.5389 169.2313 66.2280 0.0000 0.0000 0.0000
# 3 61.8983 66.2280 91.2296 0.0000 0.0000 0.0000
# 4 0.0000 0.0000 0.0000 39.4786 0.0000 0.0000
# 5 0.0000 0.0000 0.0000 0.0000 28.3025 0.0000
# 6 0.0000 0.0000 0.0000 0.0000 0.0000 38.0553
#
#
#
# Elastic Compliance Matrix: (Units=1/GPa)
#
#
# Indices 1 2 3 4 5 6 
#
# 1 0.021989 -0.012451 -0.005880 0.000000 0.000000 0.000000
# 2 -0.012451 0.015305 -0.002662 0.000000 0.000000 0.000000
# 3 -0.005880 -0.002662 0.016884 0.000000 0.000000 0.000000
# 4 0.000000 0.000000 0.000000 0.025330 0.000000 0.000000
# 5 0.000000 0.000000 0.000000 0.000000 0.035333 0.000000
# 6 0.000000 0.000000 0.000000 0.000000 0.000000 0.026278
#
#
# Mechanical properties :
#
#
# Convention : Reuss Voigt Hill
#
# Bulk Modulus (GPa) = 82.03723 96.67926 89.35825
# Shear Modulus (GPa) = 26.71389 30.84181 28.77785
#
# Velocity S-wave (km/s) = 3.81111 4.09499 3.95560
# Velocity P-wave (km/s) = 7.99815 8.65586 8.33350
#
# Compressibility (1/GPa) = 0.01218959
#
# Stress axis : x y z
#
# Youngs Moduli (GPa) = 45.47745 65.33932 59.22881
#
# Poissons Ratio (x) = 0.81357 0.34827
# Poissons Ratio (y) = 0.56626 0.15768
# Poissons Ratio (z) = 0.26741 0.17395
#
# Static dielectric constant tensor:
#      x y z
#    x 1.643800 0.000000 0.000000 
#    y 0.000000 1.585310 0.000000 
#    z 0.000000 0.000000 1.615760 
# 
# From -- ./inp_files/10064.got.cif
#   From: 2010.05.17/outbox.cif.g08.bks.cpg/sg57_6_cif.got.tgz:10064.got - 2010.06.03 13:58:18.
