data_PCOD9437717
_publ_section_title
;
Structure prediction by ZEFSAII (Michael W. Deem and Ramdas Pophale) SiO2 
 PCOD9437717
Probable space group: P B C M
;
_chemical_formula_sum "Si O2"
_cell_formula_units_Z 36
_cell_length_a 12.316172
_cell_length_b 5.359521
_cell_length_c 26.811264
_cell_angle_alpha 90.000000
_cell_angle_beta 90.000000
_cell_angle_gamma 90.000000
_cell_volume 1769.778893
_symmetry_space_group_name_H-M "P B C M"
_symmetry_group_IT_number 57
_symmetry_cell_setting 'orthorhombic'
loop_
_space_group_symop_operation_xyz
x,y,z
-x,-y,1/2+z
x,1/2-y,-z
-x,1/2+y,1/2-z
-x,-y,-z
x,y,1/2-z
-x,1/2+y,z
x,1/2-y,1/2+z
loop_
_atom_site_type_symbol
_atom_site_label
_atom_site_fract_x
_atom_site_fract_y
_atom_site_fract_z
Si Si1 0.555053 0.725945 0.439431
Si Si2 0.122422 0.335685 0.349921
Si Si3 0.799535 0.887198 0.946468
Si Si4 0.875978 0.165094 0.691214
Si Si5 0.074274 0.750000 0.000000
O O1 0.547404 0.750000 0.500000
O O2 0.475806 0.503582 0.421991
O O3 0.676868 0.637220 0.427705
O O4 0.124815 0.257429 0.407432
O O5 0.174809 0.599864 0.336985
O O6 0.999186 0.359855 0.329803
O O7 0.174749 0.102047 0.321124
O O8 0.798812 0.750000 0.000000
O O9 0.843918 0.167483 0.955483
O O10 0.880779 0.212055 0.750000
O O11 0.000000 0.500000 0.000000
#
# Coordination Sequence:
#
# PCOD9437717 Si02
#       5
#     8   8   8   8   4
#     4   9  20  36  59  79 103 145 197 254 299 321
#     4  10  21  32  55  77 106 146 186 226 287 330
#     4  11  26  39  57  83 122 158 207 234 277 355
#     4  10  20  37  56  77 107 143 194 246 279 324
#     4  12  28  38  52  72 122 168 194 222 262 320
#
# _framework density 20.341522999999999
#
# number of rings (size 3 to 8) (size 9 to 14) (size 15 to 20)
#    0.000    1.778    1.111    3.333   17.111    0.000 
#    0.000    0.000    0.000    0.000    0.000    0.000 
#    0.000   30.222    0.000    0.000    0.000    0.000 
#
# Total GULP energy -200669.915885 kJ/mol
# GULP energy per Si atom -5574.164330 kJ/mol
# Density = 2.029522 g / cm^3
# Si number density = 20.341523 Si / 1000 Ang^3
#
#
#
# Elastic Constant Matrix: (Units=GPa)
#
#
# Indices 1 2 3 4 5 6 
#
# 1 63.4074 33.0415 4.2052 0.0000 0.0000 0.0000
# 2 33.0415 145.6649 -1.2456 0.0000 0.0000 0.0000
# 3 4.2052 -1.2456 80.3094 0.0000 0.0000 0.0000
# 4 0.0000 0.0000 0.0000 30.4702 0.0000 0.0000
# 5 0.0000 0.0000 0.0000 0.0000 5.7851 0.0000
# 6 0.0000 0.0000 0.0000 0.0000 0.0000 27.4768
#
#
#
# Elastic Compliance Matrix: (Units=1/GPa)
#
#
# Indices 1 2 3 4 5 6 
#
# 1 0.017966 -0.004084 -0.001004 0.000000 0.000000 0.000000
# 2 -0.004084 0.007794 0.000335 0.000000 0.000000 0.000000
# 3 -0.001004 0.000335 0.012510 0.000000 0.000000 0.000000
# 4 0.000000 0.000000 0.000000 0.032819 0.000000 0.000000
# 5 0.000000 0.000000 0.000000 0.000000 0.172858 0.000000
# 6 0.000000 0.000000 0.000000 0.000000 0.000000 0.036394
#
#
# Mechanical properties :
#
#
# Convention : Reuss Voigt Hill
#
# Bulk Modulus (GPa) = 34.76654 40.15378 37.46016
# Shear Modulus (GPa) = 16.69811 29.63846 23.16828
#
# Velocity S-wave (km/s) = 2.86822 3.82126 3.37852
# Velocity P-wave (km/s) = 5.30070 6.26515 5.80300
#
# Compressibility (1/GPa) = 0.02876329
#
# Stress axis : x y z
#
# Youngs Moduli (GPa) = 55.66174 128.29939 79.93857
#
# Poissons Ratio (x) = 0.52395 0.08026
# Poissons Ratio (y) = 0.22731 -0.02676
# Poissons Ratio (z) = 0.05589 -0.04295
#
# Static dielectric constant tensor:
#      x y z
#    x 1.860120 0.000000 0.000000 
#    y 0.000000 1.865150 0.000000 
#    z 0.000000 0.000000 1.768190 
# 
# From -- ./inp_files/27010.got.cif
#   From: 2010.05.17/outbox.cif.g08.bks.cpg/sg57_14_cif.got.tgz:27010.got - 2010.06.03 13:58:18.
