data_PCOD9437564
_publ_section_title
;
Structure prediction by ZEFSAII (Michael W. Deem and Ramdas Pophale) SiO2 
 PCOD9437564
Probable space group: P B C M
;
_chemical_formula_sum "Si O2"
_cell_formula_units_Z 36
_cell_length_a 6.930472
_cell_length_b 21.940808
_cell_length_c 9.565178
_cell_angle_alpha 90.000000
_cell_angle_beta 90.000000
_cell_angle_gamma 90.000000
_cell_volume 1454.482454
_symmetry_space_group_name_H-M "P B C M"
_symmetry_group_IT_number 57
_symmetry_cell_setting 'orthorhombic'
loop_
_space_group_symop_operation_xyz
x,y,z
-x,-y,1/2+z
x,1/2-y,-z
-x,1/2+y,1/2-z
-x,-y,-z
x,y,1/2-z
-x,1/2+y,z
x,1/2-y,1/2+z
loop_
_atom_site_type_symbol
_atom_site_label
_atom_site_fract_x
_atom_site_fract_y
_atom_site_fract_z
Si Si1 0.719880 0.034956 0.907100
Si Si2 0.661966 0.329328 0.998807
Si Si3 0.168866 0.070783 0.907651
Si Si4 0.777967 0.809291 0.585188
Si Si5 0.220193 0.737085 0.250000
O O1 0.654202 0.018283 0.750000
O O2 0.951702 0.045749 0.897163
O O3 0.646033 0.100755 0.955501
O O4 0.701749 0.981192 0.020106
O O5 0.455567 0.310927 0.932235
O O6 0.805868 0.315007 0.873098
O O7 0.725796 0.288511 0.129099
O O8 0.232343 0.087270 0.750000
O O9 0.162163 0.129352 0.006906
O O10 0.844830 0.750000 0.500000
O O11 0.818213 0.801974 0.750000
#
# Coordination Sequence:
#
# PCOD9437564 Si02
#       5
#     8   8   8   8   4
#     4  10  22  43  63  88 119 159 202 250 295 355
#     4  11  20  38  63  89 119 159 198 247 295 357
#     4  10  24  42  63  87 121 159 202 246 301 353
#     4  12  23  41  62  91 124 158 196 246 299 356
#     4  10  20  36  58  92 122 158 192 246 300 350
#
# _framework density 24.751069999999999
#
# number of rings (size 3 to 8) (size 9 to 14) (size 15 to 20)
#    0.000    1.333    4.444    1.333    3.111    1.778 
#    4.000    0.000    0.000    0.000    0.000    0.000 
#    0.000    0.000    0.000    0.000    0.000    0.000 
#
# Total GULP energy -200687.763941 kJ/mol
# GULP energy per Si atom -5574.660109 kJ/mol
# Density = 2.469474 g / cm^3
# Si number density = 24.751070 Si / 1000 Ang^3
#
#
#
# Elastic Constant Matrix: (Units=GPa)
#
#
# Indices 1 2 3 4 5 6 
#
# 1 56.8680 -7.4972 17.6403 0.0000 0.0000 0.0000
# 2 -7.4972 146.6908 82.4786 0.0000 0.0000 0.0000
# 3 17.6403 82.4786 294.2432 0.0000 0.0000 0.0000
# 4 0.0000 0.0000 0.0000 46.9997 0.0000 0.0000
# 5 0.0000 0.0000 0.0000 0.0000 53.4239 0.0000
# 6 0.0000 0.0000 0.0000 0.0000 0.0000 3.1077
#
#
#
# Elastic Compliance Matrix: (Units=1/GPa)
#
#
# Indices 1 2 3 4 5 6 
#
# 1 0.018329 0.001845 -0.001616 0.000000 0.000000 0.000000
# 2 0.001845 0.008278 -0.002431 0.000000 0.000000 0.000000
# 3 -0.001616 -0.002431 0.004177 0.000000 0.000000 0.000000
# 4 0.000000 0.000000 0.000000 0.021277 0.000000 0.000000
# 5 0.000000 0.000000 0.000000 0.000000 0.018718 0.000000
# 6 0.000000 0.000000 0.000000 0.000000 0.000000 0.321779
#
#
# Mechanical properties :
#
#
# Convention : Reuss Voigt Hill
#
# Bulk Modulus (GPa) = 37.90630 75.89393 56.90012
# Shear Modulus (GPa) = 12.32269 47.71829 30.02049
#
# Velocity S-wave (km/s) = 2.23371 4.39558 3.48644
# Velocity P-wave (km/s) = 4.69051 7.51605 6.26466
#
# Compressibility (1/GPa) = 0.02638084
#
# Stress axis : x y z
#
# Youngs Moduli (GPa) = 54.55773 120.79774 239.41212
#
# Poissons Ratio (x) = -0.22293 0.38693
# Poissons Ratio (y) = -0.10069 0.58204
# Poissons Ratio (z) = 0.08817 0.29367
#
# Static dielectric constant tensor:
#      x y z
#    x 2.233750 0.000000 0.000000 
#    y 0.000000 1.932810 0.000000 
#    z 0.000000 0.000000 1.803770 
# 
# From -- ./inp_files/1325.got.cif
#   From: 2010.05.17/outbox.cif.g08.bks.cpg/sg57_1_cif.got.tgz:1325.got - 2010.06.03 13:58:18.
