data_PCOD9437973
_publ_section_title
;
Structure prediction by ZEFSAII (Michael W. Deem and Ramdas Pophale) SiO2 
 PCOD9437973
Probable space group: P B C M
;
_chemical_formula_sum "Si O2"
_cell_formula_units_Z 40
_cell_length_a 7.993894
_cell_length_b 14.194098
_cell_length_c 17.489520
_cell_angle_alpha 90.000000
_cell_angle_beta 90.000000
_cell_angle_gamma 90.000000
_cell_volume 1984.467885
_symmetry_space_group_name_H-M "P B C M"
_symmetry_group_IT_number 57
_symmetry_cell_setting 'orthorhombic'
loop_
_space_group_symop_operation_xyz
x,y,z
-x,-y,1/2+z
x,1/2-y,-z
-x,1/2+y,1/2-z
-x,-y,-z
x,y,1/2-z
-x,1/2+y,z
x,1/2-y,1/2+z
loop_
_atom_site_type_symbol
_atom_site_label
_atom_site_fract_x
_atom_site_fract_y
_atom_site_fract_z
Si Si1 0.271872 0.637303 0.495185
Si Si2 0.092163 0.138111 0.483064
Si Si3 0.728216 0.678206 0.162923
Si Si4 0.605388 0.876905 0.408086
Si Si5 0.388527 0.933301 0.667496
O O1 0.266356 0.750000 0.500000
O O2 0.426441 0.611738 0.550084
O O3 0.306630 0.610105 0.407736
O O4 0.085389 0.599834 0.512416
O O5 0.089030 0.250000 0.500000
O O6 0.129476 0.136619 0.392654
O O7 0.252671 0.100949 0.528644
O O8 0.782476 0.698038 0.250000
O O9 0.647621 0.772959 0.124618
O O10 0.578549 0.603261 0.165465
O O11 0.617114 0.954751 0.342870
O O12 0.316682 0.904799 0.750000
#
# Coordination Sequence:
#
# PCOD9437973 Si02
#       5
#     8   8   8   8   8
#     4  11  20  38  63  86 115 152 194 239 286 344
#     4   9  20  35  60  87 110 151 195 230 285 345
#     4  10  20  38  60  84 118 155 191 238 294 343
#     4  11  20  40  60  82 117 155 191 240 286 341
#     4  11  23  37  59  87 115 153 194 235 292 346
#
# _framework density 20.156537
#
# number of rings (size 3 to 8) (size 9 to 14) (size 15 to 20)
#    0.000    1.600    4.000    1.800    0.000    1.600 
#    0.000    0.000    0.000    2.400    0.000    0.000 
#    0.000    0.000    0.000    0.000    0.000    0.000 
#
# Total GULP energy -223126.159425 kJ/mol
# GULP energy per Si atom -5578.153986 kJ/mol
# Density = 2.011066 g / cm^3
# Si number density = 20.156537 Si / 1000 Ang^3
#
#
#
# Elastic Constant Matrix: (Units=GPa)
#
#
# Indices 1 2 3 4 5 6 
#
# 1 116.9008 7.4236 37.8961 0.0000 0.0000 0.0000
# 2 7.4236 42.2587 2.6463 0.0000 0.0000 0.0000
# 3 37.8961 2.6463 122.2766 0.0000 0.0000 0.0000
# 4 0.0000 0.0000 0.0000 25.6275 0.0000 0.0000
# 5 0.0000 0.0000 0.0000 0.0000 10.1546 0.0000
# 6 0.0000 0.0000 0.0000 0.0000 0.0000 -13.2452
#
#
#
# Elastic Compliance Matrix: (Units=1/GPa)
#
#
# Indices 1 2 3 4 5 6 
#
# 1 0.009604 -0.001503 -0.002944 0.000000 0.000000 0.000000
# 2 -0.001503 0.023931 -0.000052 0.000000 0.000000 0.000000
# 3 -0.002944 -0.000052 0.009092 0.000000 0.000000 0.000000
# 4 0.000000 0.000000 0.000000 0.039021 0.000000 0.000000
# 5 0.000000 0.000000 0.000000 0.000000 0.098477 0.000000
# 6 0.000000 0.000000 0.000000 0.000000 0.000000 -0.075499
#
#
# Mechanical properties :
#
#
# Convention : Reuss Voigt Hill
#
# Bulk Modulus (GPa) = 29.73631 41.92978 35.83305
# Shear Modulus (GPa) = 40.05359 20.07208 30.06283
#
# Velocity S-wave (km/s) = 4.46256 3.15907 3.86614
# Velocity P-wave (km/s) = 6.42941 5.84410 6.14373
#
# Compressibility (1/GPa) = 0.03362892
#
# Stress axis : x y z
#
# Youngs Moduli (GPa) = 104.12275 41.78677 109.99036
#
# Poissons Ratio (x) = 0.06280 0.32381
# Poissons Ratio (y) = 0.15647 0.00574
# Poissons Ratio (z) = 0.30653 0.00218
#
# Static dielectric constant tensor:
#      x y z
#    x 1.742340 0.000000 0.000000 
#    y 0.000000 1.726750 0.000000 
#    z 0.000000 0.000000 1.719680 
# 
# From -- ./inp_files/20722.got.cif
#   From: 2010.05.17/outbox.cif.g08.bks.cpg/sg57_11_cif.got.tgz:20722.got - 2010.06.03 13:58:18.
