data_PCOD9437881
_publ_section_title
;
Structure prediction by ZEFSAII (Michael W. Deem and Ramdas Pophale) SiO2 
 PCOD9437881
Probable space group: P B C M
;
_chemical_formula_sum "Si O2"
_cell_formula_units_Z 56
_cell_length_a 9.430384
_cell_length_b 15.348674
_cell_length_c 18.803095
_cell_angle_alpha 90.000000
_cell_angle_beta 90.000000
_cell_angle_gamma 90.000000
_cell_volume 2721.633109
_symmetry_space_group_name_H-M "P B C M"
_symmetry_group_IT_number 57
_symmetry_cell_setting 'orthorhombic'
loop_
_space_group_symop_operation_xyz
x,y,z
-x,-y,1/2+z
x,1/2-y,-z
-x,1/2+y,1/2-z
-x,-y,-z
x,y,1/2-z
-x,1/2+y,z
x,1/2-y,1/2+z
loop_
_atom_site_type_symbol
_atom_site_label
_atom_site_fract_x
_atom_site_fract_y
_atom_site_fract_z
Si Si1 0.402954 0.574140 0.572102
Si Si2 0.744092 0.950023 0.831834
Si Si3 0.619237 0.262167 0.331178
Si Si4 0.302954 0.158589 0.532966
Si Si5 0.233240 0.837435 0.952018
Si Si6 0.945071 0.569580 0.055864
Si Si7 0.277672 0.256589 0.326815
O O1 0.379571 0.485745 0.616236
O O2 0.350434 0.647115 0.628822
O O3 0.563696 0.596890 0.549993
O O4 0.308937 0.589899 0.501593
O O5 0.727519 0.978298 0.750000
O O6 0.886906 0.976909 0.873192
O O7 0.755873 0.845349 0.831551
O O8 0.671135 0.258629 0.250000
O O9 0.678910 0.186566 0.381628
O O10 0.448782 0.258645 0.329191
O O11 0.360130 0.250000 0.500000
O O12 0.187209 0.118602 0.480933
O O13 0.228940 0.186900 0.606689
O O14 0.075730 0.866128 0.931245
O O15 0.229325 0.750000 0.000000
O O16 0.000000 0.500000 0.000000
O O17 0.229559 0.289989 0.250000
#
# Coordination Sequence:
#
# PCOD9437881 Si02
#       7
#     8   8   8   8   8   8   8
#     4  10  20  37  62  91 118 157 205 251 315 367
#     4  11  23  39  60  88 126 161 195 252 318 372
#     4   9  18  35  60  89 120 151 199 258 310 360
#     4  11  21  39  66  91 119 162 211 263 308 368
#     4  10  21  36  59  87 120 157 207 251 293 361
#     4  12  25  41  59  88 126 167 208 251 306 372
#     4   9  19  37  62  92 120 154 203 257 311 364
#
# _framework density 20.575882
#
# number of rings (size 3 to 8) (size 9 to 14) (size 15 to 20)
#    0.000    1.714    2.857    3.000    0.000    2.857 
#    0.000    0.714    0.000    0.000    0.000    0.000 
#    0.000    0.000    0.000    0.000    0.000    0.000 
#
# Total GULP energy -312602.348692 kJ/mol
# GULP energy per Si atom -5582.184798 kJ/mol
# Density = 2.052905 g / cm^3
# Si number density = 20.575882 Si / 1000 Ang^3
#
#
#
# Elastic Constant Matrix: (Units=GPa)
#
#
# Indices 1 2 3 4 5 6 
#
# 1 42.5620 13.6416 24.6110 0.0000 0.0000 0.0000
# 2 13.6416 30.1943 17.7196 0.0000 0.0000 0.0000
# 3 24.6110 17.7196 146.3416 0.0000 0.0000 0.0000
# 4 0.0000 0.0000 0.0000 33.4014 0.0000 0.0000
# 5 0.0000 0.0000 0.0000 0.0000 23.8553 0.0000
# 6 0.0000 0.0000 0.0000 0.0000 0.0000 29.0891
#
#
#
# Elastic Compliance Matrix: (Units=1/GPa)
#
#
# Indices 1 2 3 4 5 6 
#
# 1 0.029095 -0.011059 -0.003554 0.000000 0.000000 0.000000
# 2 -0.011059 0.039856 -0.002966 0.000000 0.000000 0.000000
# 3 -0.003554 -0.002966 0.007790 0.000000 0.000000 0.000000
# 4 0.000000 0.000000 0.000000 0.029939 0.000000 0.000000
# 5 0.000000 0.000000 0.000000 0.000000 0.041919 0.000000
# 6 0.000000 0.000000 0.000000 0.000000 0.000000 0.034377
#
#
# Mechanical properties :
#
#
# Convention : Reuss Voigt Hill
#
# Bulk Modulus (GPa) = 24.04855 36.78248 30.41551
# Shear Modulus (GPa) = 21.55216 28.14422 24.84819
#
# Velocity S-wave (km/s) = 3.23994 3.70242 3.47888
# Velocity P-wave (km/s) = 5.07044 6.01603 5.56336
#
# Compressibility (1/GPa) = 0.04158255
#
# Stress axis : x y z
#
# Youngs Moduli (GPa) = 34.37051 25.09032 128.36729
#
# Poissons Ratio (x) = 0.27748 0.45620
# Poissons Ratio (y) = 0.38011 0.38074
# Poissons Ratio (z) = 0.12215 0.07442
#
# Static dielectric constant tensor:
#      x y z
#    x 1.728980 0.000000 0.000000 
#    y 0.000000 1.802900 0.000000 
#    z 0.000000 0.000000 1.773480 
# 
# From -- ./inp_files/24399.got.cif
#   From: 2010.05.17/outbox.cif.g08.bks.cpg/sg57_13_cif.got.tgz:24399.got - 2010.06.03 13:58:18.
