data_PCOD9437435
_publ_section_title
;
Structure prediction by ZEFSAII (Michael W. Deem and Ramdas Pophale) SiO2 
 PCOD9437435
Probable space group: P B C M
;
_chemical_formula_sum "Si O2"
_cell_formula_units_Z 48
_cell_length_a 30.660514
_cell_length_b 9.694143
_cell_length_c 8.731748
_cell_angle_alpha 90.000000
_cell_angle_beta 90.000000
_cell_angle_gamma 90.000000
_cell_volume 2595.314818
_symmetry_space_group_name_H-M "P B C M"
_symmetry_group_IT_number 57
_symmetry_cell_setting 'orthorhombic'
loop_
_space_group_symop_operation_xyz
x,y,z
-x,-y,1/2+z
x,1/2-y,-z
-x,1/2+y,1/2-z
-x,-y,-z
x,y,1/2-z
-x,1/2+y,z
x,1/2-y,1/2+z
loop_
_atom_site_type_symbol
_atom_site_label
_atom_site_fract_x
_atom_site_fract_y
_atom_site_fract_z
Si Si1 0.715062 0.097277 0.566308
Si Si2 0.462908 0.097327 0.433615
Si Si3 0.961549 0.095658 0.566621
Si Si4 0.889837 0.599778 0.567181
Si Si5 0.213472 0.100992 0.567980
Si Si6 0.635883 0.902399 0.934313
O O1 0.713660 0.250000 0.500000
O O2 0.715342 0.102692 0.750000
O O3 0.757496 0.016120 0.508331
O O4 0.672792 0.009121 0.515485
O O5 0.468956 0.250000 0.500000
O O6 0.465601 0.100245 0.250000
O O7 0.413417 0.054086 0.476991
O O8 0.500000 0.000000 0.500000
O O9 0.964339 0.250000 0.500000
O O10 0.964244 0.100450 0.750000
O O11 0.917410 0.019718 0.512710
O O12 0.000000 0.000000 0.500000
O O13 0.902359 0.750000 0.500000
O O14 0.897540 0.598784 0.750000
O O15 0.838155 0.581382 0.539399
O O16 0.225910 0.250000 0.500000
O O17 0.220388 0.101777 0.750000
O O18 0.637498 0.893149 0.750000
O O19 0.643924 0.750000 0.000000
#
# Coordination Sequence:
#
# PCOD9437435 Si02
#       6
#     8   8   8   8   8   8
#     4  11  23  38  56  81 113 148 187 232 282 333
#     4  10  20  36  56  81 111 144 183 226 276 331
#     4  12  25  42  63  88 119 155 195 238 286 338
#     4  10  21  39  62  89 119 152 191 234 282 335
#     4  10  21  38  61  87 116 151 190 232 279 335
#     4   9  20  37  57  80 107 142 184 228 275 332
#
# _framework density 18.494866999999999
#
# number of rings (size 3 to 8) (size 9 to 14) (size 15 to 20)
#    0.000    1.667    0.000    4.500    0.000    6.667 
#    0.000    1.667    0.000    0.000    0.000    0.000 
#    0.000    0.000    0.000    0.000    0.000    0.000 
#
# Total GULP energy -268289.689790 kJ/mol
# GULP energy per Si atom -5589.368537 kJ/mol
# Density = 1.845277 g / cm^3
# Si number density = 18.494867 Si / 1000 Ang^3
#
#
#
# Elastic Constant Matrix: (Units=GPa)
#
#
# Indices 1 2 3 4 5 6 
#
# 1 97.7025 95.6569 65.5230 0.0000 0.0000 0.0000
# 2 95.6569 163.7065 71.1333 0.0000 0.0000 0.0000
# 3 65.5230 71.1333 97.5608 0.0000 0.0000 0.0000
# 4 0.0000 0.0000 0.0000 39.6777 0.0000 0.0000
# 5 0.0000 0.0000 0.0000 0.0000 24.2416 0.0000
# 6 0.0000 0.0000 0.0000 0.0000 0.0000 5.4529
#
#
#
# Elastic Compliance Matrix: (Units=1/GPa)
#
#
# Indices 1 2 3 4 5 6 
#
# 1 0.030124 -0.012897 -0.010828 0.000000 0.000000 0.000000
# 2 -0.012897 0.014463 -0.001883 0.000000 0.000000 0.000000
# 3 -0.010828 -0.001883 0.018895 0.000000 0.000000 0.000000
# 4 0.000000 0.000000 0.000000 0.025203 0.000000 0.000000
# 5 0.000000 0.000000 0.000000 0.000000 0.041251 0.000000
# 6 0.000000 0.000000 0.000000 0.000000 0.000000 0.183390
#
#
# Mechanical properties :
#
#
# Convention : Reuss Voigt Hill
#
# Bulk Modulus (GPa) = 81.53089 91.51067 86.52078
# Shear Modulus (GPa) = 13.56368 22.31822 17.94095
#
# Velocity S-wave (km/s) = 2.71103 3.47756 3.11794
# Velocity P-wave (km/s) = 7.34699 8.10623 7.73593
#
# Compressibility (1/GPa) = 0.01226529
#
# Stress axis : x y z
#
# Youngs Moduli (GPa) = 33.19638 69.14329 52.92274
#
# Poissons Ratio (x) = 0.89173 0.57305
# Poissons Ratio (y) = 0.42813 0.09967
# Poissons Ratio (z) = 0.35945 0.13022
#
# Static dielectric constant tensor:
#      x y z
#    x 1.648370 0.000000 0.000000 
#    y 0.000000 1.584530 0.000000 
#    z 0.000000 0.000000 1.619720 
# 
# From -- ./inp_files/9896.got.cif
#   From: 2010.05.17/outbox.cif.g08.bks.cpg/sg57_5_cif.got.tgz:9896.got - 2010.06.03 13:58:18.
