data_PCOD9437167
_publ_section_title
;
Structure prediction by ZEFSAII (Michael W. Deem and Ramdas Pophale) SiO2 
 PCOD9437167
Probable space group: P B C M
;
_chemical_formula_sum "Si O2"
_cell_formula_units_Z 64
_cell_length_a 11.498069
_cell_length_b 17.022885
_cell_length_c 14.931605
_cell_angle_alpha 90.000000
_cell_angle_beta 90.000000
_cell_angle_gamma 90.000000
_cell_volume 2922.567620
_symmetry_space_group_name_H-M "P B C M"
_symmetry_group_IT_number 57
_symmetry_cell_setting 'orthorhombic'
loop_
_space_group_symop_operation_xyz
x,y,z
-x,-y,1/2+z
x,1/2-y,-z
-x,1/2+y,1/2-z
-x,-y,-z
x,y,1/2-z
-x,1/2+y,z
x,1/2-y,1/2+z
loop_
_atom_site_type_symbol
_atom_site_label
_atom_site_fract_x
_atom_site_fract_y
_atom_site_fract_z
Si Si1 0.438807 0.052171 0.146400
Si Si2 0.517502 0.884750 0.147398
Si Si3 0.047479 0.964918 0.645876
Si Si4 0.786411 0.891371 0.114197
Si Si5 0.062317 0.254395 0.607722
Si Si6 0.561995 0.286492 0.860183
Si Si7 0.817185 0.585043 0.094589
Si Si8 0.175930 0.687344 0.145149
O O1 0.479271 0.048657 0.250000
O O2 0.495143 0.133637 0.110027
O O3 0.299897 0.060439 0.142973
O O4 0.472168 0.966984 0.105542
O O5 0.471571 0.883273 0.250000
O O6 0.656278 0.891787 0.148737
O O7 0.486529 0.798454 0.108869
O O8 0.019065 0.949388 0.750000
O O9 0.117479 0.890885 0.604846
O O10 0.923982 0.976234 0.597407
O O11 0.135553 0.036127 0.643101
O O12 0.856082 0.814180 0.141624
O O13 0.781532 0.895799 0.006573
O O14 0.060518 0.250000 0.500000
O O15 0.122638 0.336470 0.633693
O O16 0.928238 0.250204 0.637295
O O17 0.553814 0.285923 0.750000
O O18 0.696946 0.291925 0.888999
O O19 0.194236 0.670355 0.250000
#
# Coordination Sequence:
#
# PCOD9437167 Si02
#       8
#     8   8   8   8   8   8   8   8
#     4  10  20  36  57  78 106 143 180 224 273 320
#     4  10  21  35  53  80 109 140 184 227 265 323
#     4  10  20  35  56  80 105 137 180 225 270 323
#     4  11  21  35  55  79 109 141 177 222 272 323
#     4   9  20  36  53  77 109 141 173 217 269 325
#     4   9  18  34  55  78 107 141 177 222 271 317
#     4  10  21  37  55  78 109 142 178 219 270 328
#     4   9  18  34  55  77 103 139 181 222 269 324
#
# _framework density 21.898551000000001
#
# number of rings (size 3 to 8) (size 9 to 14) (size 15 to 20)
#    0.000    2.250    0.000    2.625    0.000    5.000 
#    0.000    2.500    0.000    0.000    0.000    0.000 
#    0.000    0.000    0.000    0.000    0.000    0.000 
#
# Total GULP energy -357106.355607 kJ/mol
# GULP energy per Si atom -5579.786806 kJ/mol
# Density = 2.184871 g / cm^3
# Si number density = 21.898551 Si / 1000 Ang^3
#
#
#
# Elastic Constant Matrix: (Units=GPa)
#
#
# Indices 1 2 3 4 5 6 
#
# 1 174.8492 85.1175 -10.8646 0.0000 0.0000 0.0000
# 2 85.1175 151.8947 4.1064 0.0000 0.0000 0.0000
# 3 -10.8646 4.1064 36.7630 0.0000 0.0000 0.0000
# 4 0.0000 0.0000 0.0000 16.1102 0.0000 0.0000
# 5 0.0000 0.0000 0.0000 0.0000 39.9283 0.0000
# 6 0.0000 0.0000 0.0000 0.0000 0.0000 35.5462
#
#
#
# Elastic Compliance Matrix: (Units=1/GPa)
#
#
# Indices 1 2 3 4 5 6 
#
# 1 0.008168 -0.004657 0.002934 0.000000 0.000000 0.000000
# 2 -0.004657 0.009258 -0.002410 0.000000 0.000000 0.000000
# 3 0.002934 -0.002410 0.028338 0.000000 0.000000 0.000000
# 4 0.000000 0.000000 0.000000 0.062073 0.000000 0.000000
# 5 0.000000 0.000000 0.000000 0.000000 0.025045 0.000000
# 6 0.000000 0.000000 0.000000 0.000000 0.000000 0.028132
#
#
# Mechanical properties :
#
#
# Convention : Reuss Voigt Hill
#
# Bulk Modulus (GPa) = 26.66773 57.80285 42.23529
# Shear Modulus (GPa) = 27.50588 37.32677 32.41633
#
# Velocity S-wave (km/s) = 3.54794 4.13308 3.85163
# Velocity P-wave (km/s) = 5.38406 7.01637 6.25370
#
# Compressibility (1/GPa) = 0.03749850
#
# Stress axis : x y z
#
# Youngs Moduli (GPa) = 122.42254 108.01300 35.28881
#
# Poissons Ratio (x) = 0.50298 -0.10354
# Poissons Ratio (y) = 0.57008 0.08506
# Poissons Ratio (z) = -0.35921 0.26035
#
# Static dielectric constant tensor:
#      x y z
#    x 1.756130 0.000000 0.000000 
#    y 0.000000 1.846620 0.000000 
#    z 0.000000 0.000000 1.848220 
# 
# From -- ./inp_files/24597.got.cif
#   From: 2010.05.17/outbox.cif.g08.bks.cpg/sg57_13_cif.got.tgz:24597.got - 2010.06.03 13:58:18.
