data_PCOD9437386
_publ_section_title
;
Structure prediction by ZEFSAII (Michael W. Deem and Ramdas Pophale) SiO2 
 PCOD9437386
Probable space group: P B C M
;
_chemical_formula_sum "Si O2"
_cell_formula_units_Z 44
_cell_length_a 8.789293
_cell_length_b 25.288562
_cell_length_c 10.998613
_cell_angle_alpha 90.000000
_cell_angle_beta 90.000000
_cell_angle_gamma 90.000000
_cell_volume 2444.646104
_symmetry_space_group_name_H-M "P B C M"
_symmetry_group_IT_number 57
_symmetry_cell_setting 'orthorhombic'
loop_
_space_group_symop_operation_xyz
x,y,z
-x,-y,1/2+z
x,1/2-y,-z
-x,1/2+y,1/2-z
-x,-y,-z
x,y,1/2-z
-x,1/2+y,z
x,1/2-y,1/2+z
loop_
_atom_site_type_symbol
_atom_site_label
_atom_site_fract_x
_atom_site_fract_y
_atom_site_fract_z
Si Si1 0.852876 0.750000 0.500000
Si Si2 0.824016 0.035009 0.114950
Si Si3 0.695970 0.354516 0.895638
Si Si4 0.930061 0.334863 0.111601
Si Si5 0.880638 0.925199 0.995330
Si Si6 0.347838 0.341746 0.607405
O O1 0.746991 0.710100 0.425931
O O2 0.957142 0.714059 0.587185
O O3 0.797955 0.015696 0.250000
O O4 0.706145 0.081805 0.088704
O O5 0.988444 0.063831 0.104575
O O6 0.827473 0.983325 0.033243
O O7 0.731850 0.343940 0.750000
O O8 0.525315 0.336258 0.923082
O O9 0.810523 0.332788 0.998863
O O10 0.869114 0.333084 0.250000
O O11 0.026047 0.389460 0.093070
O O12 0.738853 0.890148 0.955955
O O13 0.340477 0.351668 0.750000
#
# Coordination Sequence:
#
# PCOD9437386 Si02
#       6
#     4   8   8   8   8   8
#     4  10  22  36  56  78 100 134 178 224 272 320
#     4   9  16  30  50  76 107 142 178 216 257 306
#     4   9  20  36  56  80 111 144 176 214 266 323
#     4  10  20  36  55  78 104 136 177 224 268 315
#     4   9  18  30  52  78 105 139 181 219 258 306
#     4  10  20  37  55  77 107 141 178 220 267 322
#
# _framework density 17.998515000000001
#
# number of rings (size 3 to 8) (size 9 to 14) (size 15 to 20)
#    0.000    2.545    0.000    1.636    0.000    6.545 
#    0.000    8.182    0.000    0.000    0.000    0.000 
#    0.000    0.000    0.000    0.000    0.000    0.000 
#
# Total GULP energy -244947.310073 kJ/mol
# GULP energy per Si atom -5566.984320 kJ/mol
# Density = 1.795755 g / cm^3
# Si number density = 17.998515 Si / 1000 Ang^3
#
#
#
# Elastic Constant Matrix: (Units=GPa)
#
#
# Indices 1 2 3 4 5 6 
#
# 1 98.6340 37.5811 55.2429 0.0000 0.0000 0.0000
# 2 37.5811 65.2907 25.2933 0.0000 0.0000 0.0000
# 3 55.2429 25.2933 85.8766 0.0000 0.0000 0.0000
# 4 0.0000 0.0000 0.0000 5.6421 0.0000 0.0000
# 5 0.0000 0.0000 0.0000 0.0000 20.4053 0.0000
# 6 0.0000 0.0000 0.0000 0.0000 0.0000 32.6123
#
#
#
# Elastic Compliance Matrix: (Units=1/GPa)
#
#
# Indices 1 2 3 4 5 6 
#
# 1 0.018101 -0.006669 -0.009680 0.000000 0.000000 0.000000
# 2 -0.006669 0.019746 -0.001526 0.000000 0.000000 0.000000
# 3 -0.009680 -0.001526 0.018321 0.000000 0.000000 0.000000
# 4 0.000000 0.000000 0.000000 0.177240 0.000000 0.000000
# 5 0.000000 0.000000 0.000000 0.000000 0.049007 0.000000
# 6 0.000000 0.000000 0.000000 0.000000 0.000000 0.030663
#
#
# Mechanical properties :
#
#
# Convention : Reuss Voigt Hill
#
# Bulk Modulus (GPa) = 48.97489 54.00398 51.48944
# Shear Modulus (GPa) = 14.05945 20.51088 17.28517
#
# Velocity S-wave (km/s) = 2.79793 3.37944 3.10234
# Velocity P-wave (km/s) = 6.14064 6.73033 6.44223
#
# Compressibility (1/GPa) = 0.02041863
#
# Stress axis : x y z
#
# Youngs Moduli (GPa) = 55.24591 50.64376 54.58267
#
# Poissons Ratio (x) = 0.33774 0.52835
# Poissons Ratio (y) = 0.36843 0.08328
# Poissons Ratio (z) = 0.53477 0.07727
#
# Static dielectric constant tensor:
#      x y z
#    x 1.629760 0.000000 0.000000 
#    y 0.000000 1.603490 0.000000 
#    z 0.000000 0.000000 1.631480 
# 
# From -- ./inp_files/1875.got.cif
#   From: 2010.05.17/outbox.cif.g08.bks.cpg/sg57_1_cif.got.tgz:1875.got - 2010.06.03 13:58:18.
