data_PCOD9437893
_publ_section_title
;
Structure prediction by ZEFSAII (Michael W. Deem and Ramdas Pophale) SiO2 
 PCOD9437893
Probable space group: P B C M
;
_chemical_formula_sum "Si O2"
_cell_formula_units_Z 56
_cell_length_a 16.352700
_cell_length_b 11.012891
_cell_length_c 14.806678
_cell_angle_alpha 90.000000
_cell_angle_beta 90.000000
_cell_angle_gamma 90.000000
_cell_volume 2666.542084
_symmetry_space_group_name_H-M "P B C M"
_symmetry_group_IT_number 57
_symmetry_cell_setting 'orthorhombic'
loop_
_space_group_symop_operation_xyz
x,y,z
-x,-y,1/2+z
x,1/2-y,-z
-x,1/2+y,1/2-z
-x,-y,-z
x,y,1/2-z
-x,1/2+y,z
x,1/2-y,1/2+z
loop_
_atom_site_type_symbol
_atom_site_label
_atom_site_fract_x
_atom_site_fract_y
_atom_site_fract_z
Si Si1 0.961332 0.468085 0.145346
Si Si2 0.568555 0.145392 0.750000
Si Si3 0.837571 0.876698 0.529483
Si Si4 0.554971 0.869316 0.750000
Si Si5 0.341741 0.138158 0.432835
Si Si6 0.154175 0.997678 0.647112
Si Si7 0.334085 0.864103 0.437237
Si Si8 0.829373 0.288351 0.353816
O O1 0.947308 0.502915 0.250000
O O2 0.921589 0.335265 0.131440
O O3 0.057389 0.479959 0.131588
O O4 0.905941 0.549196 0.081140
O O5 0.511763 0.263412 0.750000
O O6 0.623298 0.150078 0.840060
O O7 0.526266 0.011244 0.750000
O O8 0.875267 0.750000 0.500000
O O9 0.755648 0.855770 0.586941
O O10 0.805368 0.934654 0.435942
O O11 0.608543 0.852908 0.840308
O O12 0.361347 0.250000 0.500000
O O13 0.355933 0.000167 0.469978
O O14 0.173842 0.035968 0.750000
O O15 0.173406 0.855674 0.638542
O O16 0.357358 0.750000 0.500000
O O17 0.236530 0.851582 0.418142
O O18 0.808668 0.320453 0.250000
#
# Coordination Sequence:
#
# PCOD9437893 Si02
#       8
#     8   4   8   4   8   8   8   8
#     4  10  22  37  59  84 121 166 216 270 332 372
#     4  10  24  44  68 106 127 175 211 259 332 404
#     4  11  23  38  58  87 122 167 217 254 317 394
#     4  10  24  46  76  96 141 165 215 269 330 406
#     4  10  23  43  65  99 133 173 218 261 332 398
#     4  10  23  40  56  88 126 164 215 284 330 373
#     4  11  21  39  68  97 131 171 218 272 318 394
#     4  10  20  37  63  88 119 161 219 271 319 383
#
# _framework density 21.000982
#
# number of rings (size 3 to 8) (size 9 to 14) (size 15 to 20)
#    0.000    1.714    2.143    1.286    3.000    2.286 
#    3.857    2.857    0.000    0.000    0.000    0.000 
#    0.000    0.000    0.000    0.000    0.000    0.000 
#
# Total GULP energy -312639.310081 kJ/mol
# GULP energy per Si atom -5582.844823 kJ/mol
# Density = 2.095318 g / cm^3
# Si number density = 21.000982 Si / 1000 Ang^3
#
#
#
# Elastic Constant Matrix: (Units=GPa)
#
#
# Indices 1 2 3 4 5 6 
#
# 1 46.3250 16.4156 25.4797 0.0000 0.0000 0.0000
# 2 16.4156 105.3144 55.7062 0.0000 0.0000 0.0000
# 3 25.4797 55.7062 81.3349 0.0000 0.0000 0.0000
# 4 0.0000 0.0000 0.0000 32.0295 0.0000 0.0000
# 5 0.0000 0.0000 0.0000 0.0000 12.0406 0.0000
# 6 0.0000 0.0000 0.0000 0.0000 0.0000 22.3790
#
#
#
# Elastic Compliance Matrix: (Units=1/GPa)
#
#
# Indices 1 2 3 4 5 6 
#
# 1 0.026091 0.000402 -0.008449 0.000000 0.000000 0.000000
# 2 0.000402 0.014896 -0.010328 0.000000 0.000000 0.000000
# 3 -0.008449 -0.010328 0.022015 0.000000 0.000000 0.000000
# 4 0.000000 0.000000 0.000000 0.031221 0.000000 0.000000
# 5 0.000000 0.000000 0.000000 0.000000 0.083052 0.000000
# 6 0.000000 0.000000 0.000000 0.000000 0.000000 0.044685
#
#
# Mechanical properties :
#
#
# Convention : Reuss Voigt Hill
#
# Bulk Modulus (GPa) = 38.09159 47.57526 42.83342
# Shear Modulus (GPa) = 18.69428 22.31466 20.50447
#
# Velocity S-wave (km/s) = 2.98680 3.26322 3.12806
# Velocity P-wave (km/s) = 5.48379 6.07463 5.78676
#
# Compressibility (1/GPa) = 0.02625251
#
# Stress axis : x y z
#
# Youngs Moduli (GPa) = 38.32705 67.13334 45.42281
#
# Poissons Ratio (x) = -0.02700 0.38378
# Poissons Ratio (y) = -0.01542 0.46913
# Poissons Ratio (z) = 0.32383 0.69336
#
# Static dielectric constant tensor:
#      x y z
#    x 1.740010 0.000000 0.000000 
#    y 0.000000 1.786240 0.000000 
#    z 0.000000 0.000000 1.773160 
# 
# From -- ./inp_files/18595.got.cif
#   From: 2010.05.17/outbox.cif.g08.bks.cpg/sg57_10_cif.got.tgz:18595.got - 2010.06.03 13:58:18.
