data_PCOD9437653
_publ_section_title
;
Structure prediction by ZEFSAII (Michael W. Deem and Ramdas Pophale) SiO2 
 PCOD9437653
Probable space group: P B C M
;
_chemical_formula_sum "Si O2"
_cell_formula_units_Z 64
_cell_length_a 24.204713
_cell_length_b 15.382937
_cell_length_c 9.006666
_cell_angle_alpha 90.000000
_cell_angle_beta 90.000000
_cell_angle_gamma 90.000000
_cell_volume 3353.538192
_symmetry_space_group_name_H-M "P B C M"
_symmetry_group_IT_number 57
_symmetry_cell_setting 'orthorhombic'
loop_
_space_group_symop_operation_xyz
x,y,z
-x,-y,1/2+z
x,1/2-y,-z
-x,1/2+y,1/2-z
-x,-y,-z
x,y,1/2-z
-x,1/2+y,z
x,1/2-y,1/2+z
loop_
_atom_site_type_symbol
_atom_site_label
_atom_site_fract_x
_atom_site_fract_y
_atom_site_fract_z
Si Si1 0.100554 0.420064 0.420991
Si Si2 0.507577 0.348153 0.070805
Si Si3 0.213860 0.160556 0.571359
Si Si4 0.877764 0.122442 0.078779
Si Si5 0.421538 0.500411 0.072893
Si Si6 0.708051 0.500125 0.927117
Si Si7 0.235196 0.663486 0.574982
Si Si8 0.996999 0.660891 0.072956
O O1 0.087712 0.396453 0.250000
O O2 0.151395 0.362374 0.477871
O O3 0.122519 0.518111 0.420264
O O4 0.045210 0.411147 0.515113
O O5 0.511141 0.339058 0.250000
O O6 0.454518 0.410942 0.035078
O O7 0.506859 0.250000 0.000000
O O8 0.555655 0.413388 0.010406
O O9 0.231789 0.250000 0.500000
O O10 0.212443 0.166451 0.750000
O O11 0.255742 0.083830 0.531791
O O12 0.869517 0.152066 0.250000
O O13 0.939244 0.147814 0.028320
O O14 0.828376 0.154319 0.977332
O O15 0.429840 0.514227 0.250000
O O16 0.356744 0.488348 0.044236
O O17 0.715624 0.485636 0.750000
O O18 0.732134 0.418744 0.013885
O O19 0.258308 0.750000 0.500000
O O20 0.238221 0.669282 0.750000
O O21 0.995672 0.664362 0.250000
O O22 0.976822 0.750000 0.000000
#
# Coordination Sequence:
#
# PCOD9437653 Si02
#       8
#     8   8   8   8   8   8   8   8
#     4  10  20  37  59  81 110 147 187 236 298 354
#     4  10  20  36  60  92 128 164 203 245 295 348
#     4  10  21  37  59  84 115 154 193 241 294 352
#     4  10  21  40  61  82 111 147 188 240 299 356
#     4   9  20  38  62  89 119 162 207 249 295 344
#     4  10  21  42  64  85 120 160 202 249 298 347
#     4  12  25  40  62  89 117 154 198 245 299 360
#     4  11  23  36  54  80 110 144 187 237 292 356
#
# _framework density 19.084322
#
# number of rings (size 3 to 8) (size 9 to 14) (size 15 to 20)
#    0.000    1.750    1.250    3.000    0.000    6.500 
#    0.000    0.000    0.000    0.000    0.000    0.000 
#    0.000    0.000    0.000    0.000    0.000    0.000 
#
# Total GULP energy -357338.707325 kJ/mol
# GULP energy per Si atom -5583.417302 kJ/mol
# Density = 1.904088 g / cm^3
# Si number density = 19.084322 Si / 1000 Ang^3
#
#
#
# Elastic Constant Matrix: (Units=GPa)
#
#
# Indices 1 2 3 4 5 6 
#
# 1 93.9129 39.7721 44.5003 0.0000 0.0000 0.0000
# 2 39.7721 129.4122 43.8242 0.0000 0.0000 0.0000
# 3 44.5003 43.8242 50.5592 0.0000 0.0000 0.0000
# 4 0.0000 0.0000 0.0000 25.4676 0.0000 0.0000
# 5 0.0000 0.0000 0.0000 0.0000 13.9725 0.0000
# 6 0.0000 0.0000 0.0000 0.0000 0.0000 64.4914
#
#
#
# Elastic Compliance Matrix: (Units=1/GPa)
#
#
# Indices 1 2 3 4 5 6 
#
# 1 0.018272 -0.000240 -0.015874 0.000000 0.000000 0.000000
# 2 -0.000240 0.010941 -0.009272 0.000000 0.000000 0.000000
# 3 -0.015874 -0.009272 0.041788 0.000000 0.000000 0.000000
# 4 0.000000 0.000000 0.000000 0.039266 0.000000 0.000000
# 5 0.000000 0.000000 0.000000 0.000000 0.071569 0.000000
# 6 0.000000 0.000000 0.000000 0.000000 0.000000 0.015506
#
#
# Mechanical properties :
#
#
# Convention : Reuss Voigt Hill
#
# Bulk Modulus (GPa) = 49.43717 58.89749 54.16733
# Shear Modulus (GPa) = 19.61888 30.50547 25.06217
#
# Velocity S-wave (km/s) = 3.20974 4.00241 3.62779
# Velocity P-wave (km/s) = 6.30059 7.23103 6.78178
#
# Compressibility (1/GPa) = 0.02022769
#
# Stress axis : x y z
#
# Youngs Moduli (GPa) = 54.72969 91.39953 23.93036
#
# Poissons Ratio (x) = 0.02191 0.37987
# Poissons Ratio (y) = 0.01312 0.22189
# Poissons Ratio (z) = 0.86879 0.84750
#
# Static dielectric constant tensor:
#      x y z
#    x 1.659120 0.000000 0.000000 
#    y 0.000000 1.690310 0.000000 
#    z 0.000000 0.000000 1.645150 
# 
# From -- ./inp_files/9400.got.cif
#   From: 2010.05.17/outbox.cif.g08.bks.cpg/sg57_5_cif.got.tgz:9400.got - 2010.06.03 13:58:18.
