data_PCOD9437644
_publ_section_title
;
Structure prediction by ZEFSAII (Michael W. Deem and Ramdas Pophale) SiO2 
 PCOD9437644
Probable space group: P B C M
;
_chemical_formula_sum "Si O2"
_cell_formula_units_Z 64
_cell_length_a 24.377807
_cell_length_b 15.607967
_cell_length_c 8.145061
_cell_angle_alpha 90.000000
_cell_angle_beta 90.000000
_cell_angle_gamma 90.000000
_cell_volume 3099.098028
_symmetry_space_group_name_H-M "P B C M"
_symmetry_group_IT_number 57
_symmetry_cell_setting 'orthorhombic'
loop_
_space_group_symop_operation_xyz
x,y,z
-x,-y,1/2+z
x,1/2-y,-z
-x,1/2+y,1/2-z
-x,-y,-z
x,y,1/2-z
-x,1/2+y,z
x,1/2-y,1/2+z
loop_
_atom_site_type_symbol
_atom_site_label
_atom_site_fract_x
_atom_site_fract_y
_atom_site_fract_z
Si Si1 0.493697 0.158154 0.553361
Si Si2 0.004911 0.350844 0.946321
Si Si3 0.627238 0.882564 0.942655
Si Si4 0.398063 0.923507 0.051158
Si Si5 0.081846 0.507419 0.550800
Si Si6 0.288509 0.843048 0.448394
Si Si7 0.257441 0.341154 0.437565
Si Si8 0.205872 0.987250 0.056616
O O1 0.516561 0.250000 0.500000
O O2 0.487514 0.152599 0.750000
O O3 0.433854 0.150361 0.475333
O O4 0.540046 0.092077 0.492661
O O5 0.006908 0.348368 0.750000
O O6 0.053252 0.417362 0.003517
O O7 0.006451 0.250000 0.000000
O O8 0.951798 0.407669 0.998005
O O9 0.640264 0.872966 0.750000
O O10 0.623638 0.982471 0.986558
O O11 0.676548 0.842224 0.043609
O O12 0.401302 0.917046 0.250000
O O13 0.350811 0.859603 0.991932
O O14 0.081257 0.505721 0.750000
O O15 0.144265 0.512708 0.489437
O O16 0.269392 0.750000 0.500000
O O17 0.290346 0.848635 0.250000
O O18 0.247470 0.916168 0.511711
O O19 0.236932 0.250000 0.500000
O O20 0.242335 0.353507 0.250000
O O21 0.233413 0.420365 0.536955
O O22 0.200792 0.968805 0.250000
#
# Coordination Sequence:
#
# PCOD9437644 Si02
#       8
#     8   8   8   8   8   8   8   8
#     4  11  22  36  53  80 111 142 185 234 290 356
#     4  10  20  36  60  90 126 164 206 250 298 352
#     4  11  21  39  61  81 109 146 189 240 301 358
#     4   9  19  36  58  80 108 145 187 235 293 354
#     4   9  20  38  61  90 122 163 207 250 300 350
#     4  10  20  37  59  84 115 154 194 240 294 351
#     4  12  25  41  62  88 117 154 200 247 300 361
#     4  10  21  41  64  87 123 161 200 249 300 351
#
# _framework density 20.651171000000001
#
# number of rings (size 3 to 8) (size 9 to 14) (size 15 to 20)
#    0.000    1.750    1.250    3.375    0.000    2.500 
#    0.000    5.000    0.000    0.000    0.000    0.000 
#    0.000    0.000    0.000    0.000    0.000    0.000 
#
# Total GULP energy -357202.037065 kJ/mol
# GULP energy per Si atom -5581.281829 kJ/mol
# Density = 2.060417 g / cm^3
# Si number density = 20.651171 Si / 1000 Ang^3
#
#
#
# Elastic Constant Matrix: (Units=GPa)
#
#
# Indices 1 2 3 4 5 6 
#
# 1 109.6054 40.5027 -5.9735 0.0000 0.0000 0.0000
# 2 40.5027 126.8175 -5.3457 0.0000 0.0000 0.0000
# 3 -5.9735 -5.3457 17.0337 0.0000 0.0000 0.0000
# 4 0.0000 0.0000 0.0000 17.4172 0.0000 0.0000
# 5 0.0000 0.0000 0.0000 0.0000 10.4290 0.0000
# 6 0.0000 0.0000 0.0000 0.0000 0.0000 -14.6307
#
#
#
# Elastic Compliance Matrix: (Units=1/GPa)
#
#
# Indices 1 2 3 4 5 6 
#
# 1 0.010462 -0.003229 0.002655 0.000000 0.000000 0.000000
# 2 -0.003229 0.008988 0.001688 0.000000 0.000000 0.000000
# 3 0.002655 0.001688 0.060168 0.000000 0.000000 0.000000
# 4 0.000000 0.000000 0.000000 0.057415 0.000000 0.000000
# 5 0.000000 0.000000 0.000000 0.000000 0.095887 0.000000
# 6 0.000000 0.000000 0.000000 0.000000 0.000000 -0.068350
#
#
# Mechanical properties :
#
#
# Convention : Reuss Voigt Hill
#
# Bulk Modulus (GPa) = 12.21802 34.64705 23.43254
# Shear Modulus (GPa) = 26.36809 17.59464 21.98136
#
# Velocity S-wave (km/s) = 3.57716 2.92206 3.26607
# Velocity P-wave (km/s) = 4.79485 5.31020 5.05909
#
# Compressibility (1/GPa) = 0.08184635
#
# Stress axis : x y z
#
# Youngs Moduli (GPa) = 95.58694 111.26106 16.62005
#
# Poissons Ratio (x) = 0.35929 -0.04413
# Poissons Ratio (y) = 0.30868 -0.02806
# Poissons Ratio (z) = -0.25382 -0.18783
#
# Static dielectric constant tensor:
#      x y z
#    x 1.749000 0.000000 0.000000 
#    y 0.000000 1.731310 0.000000 
#    z 0.000000 0.000000 1.746910 
# 
# From -- ./inp_files/9390.got.cif
#   From: 2010.05.17/outbox.cif.g08.bks.cpg/sg57_5_cif.got.tgz:9390.got - 2010.06.03 13:58:18.
