data_PCOD9437524
_publ_section_title
;
Structure prediction by ZEFSAII (Michael W. Deem and Ramdas Pophale) SiO2 
 PCOD9437524
Probable space group: P B C M
;
_chemical_formula_sum "Si O2"
_cell_formula_units_Z 64
_cell_length_a 26.657839
_cell_length_b 15.113219
_cell_length_c 8.618618
_cell_angle_alpha 90.000000
_cell_angle_beta 90.000000
_cell_angle_gamma 90.000000
_cell_volume 3472.318453
_symmetry_space_group_name_H-M "P B C M"
_symmetry_group_IT_number 57
_symmetry_cell_setting 'orthorhombic'
loop_
_space_group_symop_operation_xyz
x,y,z
-x,-y,1/2+z
x,1/2-y,-z
-x,1/2+y,1/2-z
-x,-y,-z
x,y,1/2-z
-x,1/2+y,z
x,1/2-y,1/2+z
loop_
_atom_site_type_symbol
_atom_site_label
_atom_site_fract_x
_atom_site_fract_y
_atom_site_fract_z
Si Si1 0.633421 0.850507 0.936091
Si Si2 0.108255 0.158258 0.063618
Si Si3 0.820488 0.001676 0.936152
Si Si4 0.000653 0.599004 0.062635
Si Si5 0.631721 0.149346 0.063521
Si Si6 0.888973 0.156617 0.436041
Si Si7 0.291412 0.494957 0.435794
Si Si8 0.556070 0.004712 0.563561
O O1 0.635009 0.845228 0.750000
O O2 0.586665 0.914990 0.980624
O O3 0.631280 0.750000 0.000000
O O4 0.680612 0.908852 0.994765
O O5 0.106820 0.159026 0.250000
O O6 0.145537 0.081331 0.014175
O O7 0.051031 0.143322 0.007680
O O8 0.127313 0.250000 0.000000
O O9 0.816663 0.001910 0.750000
O O10 0.852492 0.084350 0.993422
O O11 0.765400 0.999338 0.007290
O O12 0.000018 0.598269 0.250000
O O13 0.053171 0.641527 0.012591
O O14 0.000000 0.500000 0.000000
O O15 0.629655 0.154104 0.250000
O O16 0.678695 0.085259 0.019046
O O17 0.633910 0.250000 0.000000
O O18 0.584771 0.091081 0.002501
O O19 0.872226 0.250000 0.500000
O O20 0.887606 0.153053 0.250000
O O21 0.293567 0.488747 0.250000
O O22 0.556186 0.010072 0.750000
O O23 0.500000 0.000000 0.500000
#
# Coordination Sequence:
#
# PCOD9437524 Si02
#       8
#     8   8   8   8   8   8   8   8
#     4  10  21  38  61  88 117 155 200 244 293 345
#     4  10  22  38  57  83 112 145 184 227 279 337
#     4  11  23  40  60  83 116 150 188 238 288 344
#     4  10  20  36  58  83 111 145 184 226 279 339
#     4  10  21  38  61  87 116 153 196 243 293 347
#     4  11  23  38  59  85 113 148 187 232 284 343
#     4  10  22  40  61  85 115 150 193 243 294 348
#     4  10  21  37  58  87 125 163 201 244 289 341
#
# _framework density 18.43149
#
# number of rings (size 3 to 8) (size 9 to 14) (size 15 to 20)
#    0.000    1.750    1.250    2.625    0.000    6.500 
#    0.000    3.750    0.000    0.000    0.000    0.000 
#    0.000    0.000    0.000    0.000    0.000    0.000 
#
# Total GULP energy -357299.666781 kJ/mol
# GULP energy per Si atom -5582.807293 kJ/mol
# Density = 1.838954 g / cm^3
# Si number density = 18.431490 Si / 1000 Ang^3
#
#
#
# Elastic Constant Matrix: (Units=GPa)
#
#
# Indices 1 2 3 4 5 6 
#
# 1 163.1869 90.5921 37.6948 0.0000 0.0000 0.0000
# 2 90.5921 202.1280 42.6605 0.0000 0.0000 0.0000
# 3 37.6948 42.6605 34.9099 0.0000 0.0000 0.0000
# 4 0.0000 0.0000 0.0000 35.1848 0.0000 0.0000
# 5 0.0000 0.0000 0.0000 0.0000 36.0613 0.0000
# 6 0.0000 0.0000 0.0000 0.0000 0.0000 28.1327
#
#
#
# Elastic Compliance Matrix: (Units=1/GPa)
#
#
# Indices 1 2 3 4 5 6 
#
# 1 0.009152 -0.002717 -0.006562 0.000000 0.000000 0.000000
# 2 -0.002717 0.007473 -0.006199 0.000000 0.000000 0.000000
# 3 -0.006562 -0.006199 0.043306 0.000000 0.000000 0.000000
# 4 0.000000 0.000000 0.000000 0.028421 0.000000 0.000000
# 5 0.000000 0.000000 0.000000 0.000000 0.027731 0.000000
# 6 0.000000 0.000000 0.000000 0.000000 0.000000 0.035546
#
#
# Mechanical properties :
#
#
# Convention : Reuss Voigt Hill
#
# Bulk Modulus (GPa) = 34.51184 82.45774 58.48479
# Shear Modulus (GPa) = 26.00871 35.16092 30.58481
#
# Velocity S-wave (km/s) = 3.76054 4.37241 4.07797
# Velocity P-wave (km/s) = 6.13356 8.38601 7.34662
#
# Compressibility (1/GPa) = 0.02897557
#
# Stress axis : x y z
#
# Youngs Moduli (GPa) = 109.26621 133.80809 23.09152
#
# Poissons Ratio (x) = 0.36354 0.15153
# Poissons Ratio (y) = 0.29686 0.14314
# Poissons Ratio (z) = 0.71700 0.82948
#
# Static dielectric constant tensor:
#      x y z
#    x 1.629770 0.000000 0.000000 
#    y 0.000000 1.604540 0.000000 
#    z 0.000000 0.000000 1.626960 
# 
# From -- ./inp_files/9322.got.cif
#   From: 2010.05.17/outbox.cif.g08.bks.cpg/sg57_5_cif.got.tgz:9322.got - 2010.06.03 13:58:18.
