data_PCOD9437319
_publ_section_title
;
Structure prediction by ZEFSAII (Michael W. Deem and Ramdas Pophale) SiO2 
 PCOD9437319
Probable space group: P B C M
;
_chemical_formula_sum "Si O2"
_cell_formula_units_Z 64
_cell_length_a 7.053221
_cell_length_b 27.249782
_cell_length_c 17.669375
_cell_angle_alpha 90.000000
_cell_angle_beta 90.000000
_cell_angle_gamma 90.000000
_cell_volume 3396.031517
_symmetry_space_group_name_H-M "P B C M"
_symmetry_group_IT_number 57
_symmetry_cell_setting 'orthorhombic'
loop_
_space_group_symop_operation_xyz
x,y,z
-x,-y,1/2+z
x,1/2-y,-z
-x,1/2+y,1/2-z
-x,-y,-z
x,y,1/2-z
-x,1/2+y,z
x,1/2-y,1/2+z
loop_
_atom_site_type_symbol
_atom_site_label
_atom_site_fract_x
_atom_site_fract_y
_atom_site_fract_z
Si Si1 0.192124 0.305758 0.661092
Si Si2 0.147363 0.871610 0.340843
Si Si3 0.872479 0.932669 0.434870
Si Si4 0.792544 0.454365 0.551896
Si Si5 0.473293 0.613835 0.955682
Si Si6 0.125247 0.623778 0.338753
Si Si7 0.415908 0.805302 0.922098
Si Si8 0.918429 0.233110 0.916276
O O1 0.235296 0.308708 0.750000
O O2 0.380616 0.298315 0.614064
O O3 0.077780 0.354547 0.635868
O O4 0.045742 0.262219 0.643843
O O5 0.155510 0.863543 0.250000
O O6 0.350678 0.885698 0.378321
O O7 0.085611 0.823077 0.389334
O O8 0.995710 0.913788 0.363459
O O9 0.694856 0.896647 0.445523
O O10 0.028338 0.936014 0.501703
O O11 0.788888 0.987738 0.436167
O O12 0.615223 0.429181 0.509308
O O13 0.828860 0.429756 0.632376
O O14 0.439186 0.665250 0.999349
O O15 0.127651 0.627879 0.250000
O O16 0.287823 0.657838 0.372975
O O17 0.292727 0.755994 0.918260
O O18 0.992981 0.250000 0.000000
#
# Coordination Sequence:
#
# PCOD9437319 Si02
#       8
#     8   8   8   8   8   8   8   8
#     4  10  21  35  58  88 116 148 188 239 299 355
#     4  11  25  42  57  83 122 157 199 251 301 354
#     4  10  21  37  62  85 115 154 200 239 292 350
#     4   9  19  36  58  89 116 151 194 242 284 345
#     4  10  20  37  62  87 114 153 198 248 293 348
#     4   9  18  33  53  81 118 147 177 231 290 345
#     4  10  20  35  59  85 111 147 193 240 296 348
#     4  11  23  40  60  82 115 155 199 244 293 353
#
# _framework density 18.845526
#
# number of rings (size 3 to 8) (size 9 to 14) (size 15 to 20)
#    0.000    2.000    1.250    1.875    3.500    4.000 
#    0.000    0.000    0.000    0.000    0.000    0.000 
#    0.000    0.000    0.000    0.000    0.000    0.000 
#
# Total GULP energy -356689.446056 kJ/mol
# GULP energy per Si atom -5573.272595 kJ/mol
# Density = 1.880263 g / cm^3
# Si number density = 18.845526 Si / 1000 Ang^3
#
#
#
# Elastic Constant Matrix: (Units=GPa)
#
#
# Indices 1 2 3 4 5 6 
#
# 1 102.2704 15.2986 21.9676 0.0000 0.0000 0.0000
# 2 15.2986 57.9427 30.4544 0.0000 0.0000 0.0000
# 3 21.9676 30.4544 69.1667 0.0000 0.0000 0.0000
# 4 0.0000 0.0000 0.0000 29.0475 0.0000 0.0000
# 5 0.0000 0.0000 0.0000 0.0000 51.6433 0.0000
# 6 0.0000 0.0000 0.0000 0.0000 0.0000 -2.1350
#
#
#
# Elastic Compliance Matrix: (Units=1/GPa)
#
#
# Indices 1 2 3 4 5 6 
#
# 1 0.010573 -0.001336 -0.002770 0.000000 0.000000 0.000000
# 2 -0.001336 0.022624 -0.009537 0.000000 0.000000 0.000000
# 3 -0.002770 -0.009537 0.019537 0.000000 0.000000 0.000000
# 4 0.000000 0.000000 0.000000 0.034426 0.000000 0.000000
# 5 0.000000 0.000000 0.000000 0.000000 0.019364 0.000000
# 6 0.000000 0.000000 0.000000 0.000000 0.000000 -0.468381
#
#
# Mechanical properties :
#
#
# Convention : Reuss Voigt Hill
#
# Bulk Modulus (GPa) = 39.29586 40.53567 39.91577
# Shear Modulus (GPa) = -15.33320 26.48842 5.57761
#
# Velocity S-wave (km/s) = -2.85551 3.75314 1.72223
# Velocity P-wave (km/s) = 3.16622 6.35119 5.01809
#
# Compressibility (1/GPa) = 0.02544797
#
# Stress axis : x y z
#
# Youngs Moduli (GPa) = 94.58258 44.20132 51.18552
#
# Poissons Ratio (x) = 0.05904 0.14178
# Poissons Ratio (y) = 0.12633 0.48816
# Poissons Ratio (z) = 0.26198 0.42155
#
# Static dielectric constant tensor:
#      x y z
#    x 1.640580 0.000000 0.000000 
#    y 0.000000 1.752000 0.000000 
#    z 0.000000 0.000000 1.630550 
# 
# From -- ./inp_files/20360.got.cif
#   From: 2010.05.17/outbox.cif.g08.bks.cpg/sg57_11_cif.got.tgz:20360.got - 2010.06.03 13:58:18.
