data_PCOD9437281
_publ_section_title
;
Structure prediction by ZEFSAII (Michael W. Deem and Ramdas Pophale) SiO2 
 PCOD9437281
Probable space group: P B C M
;
_chemical_formula_sum "Si O2"
_cell_formula_units_Z 48
_cell_length_a 15.562095
_cell_length_b 19.431861
_cell_length_c 8.678727
_cell_angle_alpha 90.000000
_cell_angle_beta 90.000000
_cell_angle_gamma 90.000000
_cell_volume 2624.451097
_symmetry_space_group_name_H-M "P B C M"
_symmetry_group_IT_number 57
_symmetry_cell_setting 'orthorhombic'
loop_
_space_group_symop_operation_xyz
x,y,z
-x,-y,1/2+z
x,1/2-y,-z
-x,1/2+y,1/2-z
-x,-y,-z
x,y,1/2-z
-x,1/2+y,z
x,1/2-y,1/2+z
loop_
_atom_site_type_symbol
_atom_site_label
_atom_site_fract_x
_atom_site_fract_y
_atom_site_fract_z
Si Si1 0.901128 0.076089 0.435778
Si Si2 0.255519 0.673506 0.434825
Si Si3 0.087945 0.082219 0.564040
Si Si4 0.596017 0.081104 0.934055
Si Si5 0.602446 0.931013 0.435833
Si Si6 0.248496 0.326426 0.436126
O O1 0.903557 0.077531 0.250000
O O2 0.824045 0.125329 0.486921
O O3 0.993895 0.098108 0.498876
O O4 0.888422 0.996203 0.482617
O O5 0.247536 0.750000 0.500000
O O6 0.254851 0.675862 0.250000
O O7 0.342762 0.637380 0.490760
O O8 0.084073 0.083319 0.750000
O O9 0.161265 0.135066 0.513829
O O10 0.602808 0.085097 0.750000
O O11 0.495397 0.088844 0.976844
O O12 0.622205 0.005003 0.990859
O O13 0.606643 0.938686 0.250000
O O14 0.670810 0.873626 0.483073
O O15 0.254058 0.250000 0.500000
O O16 0.248239 0.323857 0.250000
#
# Coordination Sequence:
#
# PCOD9437281 Si02
#       6
#     8   8   8   8   8   8
#     4   9  19  36  57  78 101 135 177 220 268 318
#     4  11  23  38  55  77 110 147 181 221 270 322
#     4   9  18  34  56  79 103 134 173 218 266 315
#     4  10  20  35  58  85 108 137 180 224 268 319
#     4   9  19  37  58  80 109 143 178 220 268 317
#     4  10  21  36  53  76 109 145 178 214 262 316
#
# _framework density 18.289539000000001
#
# number of rings (size 3 to 8) (size 9 to 14) (size 15 to 20)
#    0.000    2.333    0.000    2.000    0.000    7.333 
#    0.000    8.333    0.000    0.000    0.000    0.000 
#    0.000    0.000    0.000    0.000    0.000    0.000 
#
# Total GULP energy -267988.099956 kJ/mol
# GULP energy per Si atom -5583.085416 kJ/mol
# Density = 1.824791 g / cm^3
# Si number density = 18.289539 Si / 1000 Ang^3
#
#
#
# Elastic Constant Matrix: (Units=GPa)
#
#
# Indices 1 2 3 4 5 6 
#
# 1 67.9346 49.5065 18.6770 0.0000 0.0000 0.0000
# 2 49.5065 83.2291 20.4440 0.0000 0.0000 0.0000
# 3 18.6770 20.4440 14.9348 0.0000 0.0000 0.0000
# 4 0.0000 0.0000 0.0000 32.4843 0.0000 0.0000
# 5 0.0000 0.0000 0.0000 0.0000 23.5478 0.0000
# 6 0.0000 0.0000 0.0000 0.0000 0.0000 1.3252
#
#
#
# Elastic Compliance Matrix: (Units=1/GPa)
#
#
# Indices 1 2 3 4 5 6 
#
# 1 0.029237 -0.012670 -0.019219 0.000000 0.000000 0.000000
# 2 -0.012670 0.023592 -0.016450 0.000000 0.000000 0.000000
# 3 -0.019219 -0.016450 0.113511 0.000000 0.000000 0.000000
# 4 0.000000 0.000000 0.000000 0.030784 0.000000 0.000000
# 5 0.000000 0.000000 0.000000 0.000000 0.042467 0.000000
# 6 0.000000 0.000000 0.000000 0.000000 0.000000 0.754612
#
#
# Mechanical properties :
#
#
# Convention : Reuss Voigt Hill
#
# Bulk Modulus (GPa) = 14.35512 38.15036 26.25274
# Shear Modulus (GPa) = 4.48792 16.63618 10.56205
#
# Velocity S-wave (km/s) = 1.56817 3.01923 2.40571
# Velocity P-wave (km/s) = 3.33837 5.74967 4.70125
#
# Compressibility (1/GPa) = 0.06966154
#
# Stress axis : x y z
#
# Youngs Moduli (GPa) = 34.20337 42.38706 8.80969
#
# Poissons Ratio (x) = 0.53704 0.16932
# Poissons Ratio (y) = 0.43335 0.14492
# Poissons Ratio (z) = 0.65736 0.69728
#
# Static dielectric constant tensor:
#      x y z
#    x 1.621700 0.000000 0.000000 
#    y 0.000000 1.595880 0.000000 
#    z 0.000000 0.000000 1.621370 
# 
# From -- ./inp_files/4533.got.cif
#   From: 2010.05.17/outbox.cif.g08.bks.cpg/sg57_3_cif.got.tgz:4533.got - 2010.06.03 13:58:18.
