data_PCOD9437773
_publ_section_title
;
Structure prediction by ZEFSAII (Michael W. Deem and Ramdas Pophale) SiO2 
 PCOD9437773
Probable space group: P B C M
;
_chemical_formula_sum "Si O2"
_cell_formula_units_Z 64
_cell_length_a 21.250187
_cell_length_b 19.088181
_cell_length_c 8.612116
_cell_angle_alpha 90.000000
_cell_angle_beta 90.000000
_cell_angle_gamma 90.000000
_cell_volume 3493.310357
_symmetry_space_group_name_H-M "P B C M"
_symmetry_group_IT_number 57
_symmetry_cell_setting 'orthorhombic'
loop_
_space_group_symop_operation_xyz
x,y,z
-x,-y,1/2+z
x,1/2-y,-z
-x,1/2+y,1/2-z
-x,-y,-z
x,y,1/2-z
-x,1/2+y,z
x,1/2-y,1/2+z
loop_
_atom_site_type_symbol
_atom_site_label
_atom_site_fract_x
_atom_site_fract_y
_atom_site_fract_z
Si Si1 0.437508 0.036230 0.064147
Si Si2 0.256670 0.673824 0.936901
Si Si3 0.689628 0.031665 0.064356
Si Si4 0.116453 0.328846 0.936428
Si Si5 0.888831 0.175069 0.563537
Si Si6 0.748899 0.603909 0.436816
Si Si7 0.002032 0.078144 0.936642
Si Si8 0.621747 0.672867 0.564174
O O1 0.437977 0.037553 0.250000
O O2 0.426477 0.114702 0.000088
O O3 0.500000 0.000000 0.000000
O O4 0.376964 0.993369 0.004089
O O5 0.260541 0.673084 0.750000
O O6 0.183363 0.663730 0.984699
O O7 0.276354 0.750000 0.000000
O O8 0.294491 0.609218 0.007135
O O9 0.688101 0.027945 0.250000
O O10 0.739864 0.974856 0.000228
O O11 0.112447 0.327155 0.750000
O O12 0.184392 0.361879 0.978761
O O13 0.111274 0.250000 0.000000
O O14 0.061033 0.377576 0.001415
O O15 0.909877 0.250000 0.500000
O O16 0.889197 0.177674 0.750000
O O17 0.937792 0.116661 0.512837
O O18 0.743212 0.602745 0.250000
O O19 0.690813 0.648357 0.505521
O O20 0.004277 0.077337 0.750000
O O21 0.000000 0.000000 0.000000
O O22 0.608531 0.750000 0.500000
O O23 0.621116 0.672416 0.750000
#
# Coordination Sequence:
#
# PCOD9437773 Si02
#       8
#     8   8   8   8   8   8   8   8
#     4  11  22  40  63  89 121 160 199 239 286 337
#     4  10  20  37  59  85 115 149 190 241 295 348
#     4  11  22  37  59  89 120 154 194 237 287 343
#     4  11  24  40  59  83 114 151 191 238 293 350
#     4   9  20  37  58  80 106 141 185 234 288 346
#     4  10  21  37  58  85 117 154 193 240 293 345
#     4  11  24  40  57  81 111 148 191 240 291 348
#     4  11  21  36  59  89 122 157 198 242 288 343
#
# _framework density 18.320730999999999
#
# number of rings (size 3 to 8) (size 9 to 14) (size 15 to 20)
#    0.000    1.500    0.000    7.125    1.750    5.500 
#    0.000    0.625    0.000    0.000    0.000    0.000 
#    0.000    0.000    0.000    0.000    0.000    0.000 
#
# Total GULP energy -357724.220589 kJ/mol
# GULP energy per Si atom -5589.440947 kJ/mol
# Density = 1.827903 g / cm^3
# Si number density = 18.320731 Si / 1000 Ang^3
#
#
#
# Elastic Constant Matrix: (Units=GPa)
#
#
# Indices 1 2 3 4 5 6 
#
# 1 75.4438 83.4720 41.7129 0.0000 0.0000 0.0000
# 2 83.4720 195.3826 64.9034 0.0000 0.0000 0.0000
# 3 41.7129 64.9034 115.0789 0.0000 0.0000 0.0000
# 4 0.0000 0.0000 0.0000 37.8992 0.0000 0.0000
# 5 0.0000 0.0000 0.0000 0.0000 26.7709 0.0000
# 6 0.0000 0.0000 0.0000 0.0000 0.0000 28.1451
#
#
#
# Elastic Compliance Matrix: (Units=1/GPa)
#
#
# Indices 1 2 3 4 5 6 
#
# 1 0.026531 -0.010017 -0.003967 0.000000 0.000000 0.000000
# 2 -0.010017 0.010080 -0.002054 0.000000 0.000000 0.000000
# 3 -0.003967 -0.002054 0.011286 0.000000 0.000000 0.000000
# 4 0.000000 0.000000 0.000000 0.026386 0.000000 0.000000
# 5 0.000000 0.000000 0.000000 0.000000 0.037354 0.000000
# 6 0.000000 0.000000 0.000000 0.000000 0.000000 0.035530
#
#
# Mechanical properties :
#
#
# Convention : Reuss Voigt Hill
#
# Bulk Modulus (GPa) = 63.20863 85.12020 74.16441
# Shear Modulus (GPa) = 27.09765 31.61753 29.35759
#
# Velocity S-wave (km/s) = 3.85004 4.15876 4.00737
# Velocity P-wave (km/s) = 7.37155 8.34400 7.87281
#
# Compressibility (1/GPa) = 0.01582062
#
# Stress axis : x y z
#
# Youngs Moduli (GPa) = 37.69136 99.20674 88.60295
#
# Poissons Ratio (x) = 0.99374 0.35153
# Poissons Ratio (y) = 0.37755 0.18201
# Poissons Ratio (z) = 0.14954 0.20379
#
# Static dielectric constant tensor:
#      x y z
#    x 1.616670 0.000000 0.000000 
#    y 0.000000 1.605700 0.000000 
#    z 0.000000 0.000000 1.613450 
# 
# From -- ./inp_files/8529.got.cif
#   From: 2010.05.17/outbox.cif.g08.bks.cpg/sg57_5_cif.got.tgz:8529.got - 2010.06.03 13:58:18.
