data_PCOD9437735
_publ_section_title
;
Structure prediction by ZEFSAII (Michael W. Deem and Ramdas Pophale) SiO2 
 PCOD9437735
Probable space group: P B C M
;
_chemical_formula_sum "Si O2"
_cell_formula_units_Z 48
_cell_length_a 10.198475
_cell_length_b 24.472881
_cell_length_c 8.120523
_cell_angle_alpha 90.000000
_cell_angle_beta 90.000000
_cell_angle_gamma 90.000000
_cell_volume 2026.769382
_symmetry_space_group_name_H-M "P B C M"
_symmetry_group_IT_number 57
_symmetry_cell_setting 'orthorhombic'
loop_
_space_group_symop_operation_xyz
x,y,z
-x,-y,1/2+z
x,1/2-y,-z
-x,1/2+y,1/2-z
-x,-y,-z
x,y,1/2-z
-x,1/2+y,z
x,1/2-y,1/2+z
loop_
_atom_site_type_symbol
_atom_site_label
_atom_site_fract_x
_atom_site_fract_y
_atom_site_fract_z
Si Si1 0.260502 0.925386 0.560649
Si Si2 0.098694 0.309806 0.942110
Si Si3 0.982150 0.922802 0.059702
Si Si4 0.664800 0.192997 0.943623
Si Si5 0.308611 0.459983 0.049607
Si Si6 0.385817 0.157829 0.549036
O O1 0.298193 0.919283 0.750000
O O2 0.274977 0.866125 0.481326
O O3 0.106477 0.940241 0.545778
O O4 0.335194 0.978596 0.487934
O O5 0.069658 0.317778 0.750000
O O6 0.060099 0.250000 0.000000
O O7 0.030383 0.357378 0.044976
O O8 0.254252 0.317371 0.973879
O O9 0.002600 0.938125 0.250000
O O10 0.840657 0.943997 0.001761
O O11 0.655221 0.197118 0.750000
O O12 0.516064 0.187666 0.010748
O O13 0.727425 0.250000 0.000000
O O14 0.310677 0.462544 0.250000
O O15 0.392266 0.406756 0.003069
O O16 0.375304 0.160658 0.750000
#
# Coordination Sequence:
#
# PCOD9437735 Si02
#       6
#     8   8   8   8   8   8
#     4  11  22  37  58  85 117 152 190 229 276 335
#     4  11  21  34  55  84 114 146 188 236 288 340
#     4  10  20  37  58  82 115 152 190 232 282 334
#     4  11  24  41  60  82 112 152 195 236 281 333
#     4   8  17  35  60  88 117 147 180 227 282 336
#     4   9  19  38  61  85 114 147 186 233 284 335
#
# _framework density 23.683012000000002
#
# number of rings (size 3 to 8) (size 9 to 14) (size 15 to 20)
#    0.000    2.000    0.000    5.000    0.000    4.000 
#    0.000   10.833    0.000    0.000    0.000    0.000 
#    0.000    0.000    0.000    0.000    0.000    0.000 
#
# Total GULP energy -268265.010427 kJ/mol
# GULP energy per Si atom -5588.854384 kJ/mol
# Density = 2.362911 g / cm^3
# Si number density = 23.683012 Si / 1000 Ang^3
#
#
#
# Elastic Constant Matrix: (Units=GPa)
#
#
# Indices 1 2 3 4 5 6 
#
# 1 37.7814 10.7690 -4.6614 0.0000 0.0000 0.0000
# 2 10.7690 191.9589 6.5857 0.0000 0.0000 0.0000
# 3 -4.6614 6.5857 43.2561 0.0000 0.0000 0.0000
# 4 0.0000 0.0000 0.0000 20.6955 0.0000 0.0000
# 5 0.0000 0.0000 0.0000 0.0000 20.5365 0.0000
# 6 0.0000 0.0000 0.0000 0.0000 0.0000 11.7029
#
#
#
# Elastic Compliance Matrix: (Units=1/GPa)
#
#
# Indices 1 2 3 4 5 6 
#
# 1 0.027331 -0.001643 0.003195 0.000000 0.000000 0.000000
# 2 -0.001643 0.005336 -0.000989 0.000000 0.000000 0.000000
# 3 0.003195 -0.000989 0.023613 0.000000 0.000000 0.000000
# 4 0.000000 0.000000 0.000000 0.048320 0.000000 0.000000
# 5 0.000000 0.000000 0.000000 0.000000 0.048694 0.000000
# 6 0.000000 0.000000 0.000000 0.000000 0.000000 0.085449
#
#
# Mechanical properties :
#
#
# Convention : Reuss Voigt Hill
#
# Bulk Modulus (GPa) = 17.41995 33.15365 25.28680
# Shear Modulus (GPa) = 19.47414 27.94051 23.70733
#
# Velocity S-wave (km/s) = 2.87066 3.43850 3.16733
# Velocity P-wave (km/s) = 4.28474 5.45836 4.90677
#
# Compressibility (1/GPa) = 0.05740545
#
# Stress axis : x y z
#
# Youngs Moduli (GPa) = 36.58907 187.42179 42.34934
#
# Poissons Ratio (x) = 0.30791 -0.13532
# Poissons Ratio (y) = 0.06011 0.04190
# Poissons Ratio (z) = -0.11692 0.18543
#
# Static dielectric constant tensor:
#      x y z
#    x 1.914880 0.000000 0.000000 
#    y 0.000000 1.973580 0.000000 
#    z 0.000000 0.000000 1.814730 
# 
# From -- ./inp_files/3178.got.cif
#   From: 2010.05.17/outbox.cif.g08.bks.cpg/sg57_2_cif.got.tgz:3178.got - 2010.06.03 13:58:18.
