data_PCOD9437065
_publ_section_title
;
Structure prediction by ZEFSAII (Michael W. Deem and Ramdas Pophale) SiO2 
 PCOD9437065
Probable space group: P B C M
;
_chemical_formula_sum "Si O2"
_cell_formula_units_Z 56
_cell_length_a 18.443265
_cell_length_b 19.499758
_cell_length_c 8.657186
_cell_angle_alpha 90.000000
_cell_angle_beta 90.000000
_cell_angle_gamma 90.000000
_cell_volume 3113.463484
_symmetry_space_group_name_H-M "P B C M"
_symmetry_group_IT_number 57
_symmetry_cell_setting 'orthorhombic'
loop_
_space_group_symop_operation_xyz
x,y,z
-x,-y,1/2+z
x,1/2-y,-z
-x,1/2+y,1/2-z
-x,-y,-z
x,y,1/2-z
-x,1/2+y,z
x,1/2-y,1/2+z
loop_
_atom_site_type_symbol
_atom_site_label
_atom_site_fract_x
_atom_site_fract_y
_atom_site_fract_z
Si Si1 0.499138 0.173086 0.935675
Si Si2 0.630964 0.424725 0.064019
Si Si3 0.918036 0.673237 0.435461
Si Si4 0.918797 0.173622 0.436389
Si Si5 0.368377 0.083627 0.435355
Si Si6 0.787831 0.077777 0.435886
Si Si7 0.210756 0.418360 0.434896
O O1 0.498793 0.175627 0.750000
O O2 0.567668 0.126553 0.986721
O O3 0.503247 0.250000 0.000000
O O4 0.427506 0.134055 0.993505
O O5 0.632621 0.424769 0.250000
O O6 0.617992 0.504079 0.015087
O O7 0.709652 0.402752 0.003115
O O8 0.909451 0.750000 0.500000
O O9 0.913119 0.674283 0.250000
O O10 0.855638 0.625922 0.503717
O O11 0.999811 0.650158 0.479575
O O12 0.908683 0.250000 0.500000
O O13 0.916577 0.176062 0.250000
O O14 0.854284 0.124487 0.490376
O O15 0.371974 0.086505 0.250000
O O16 0.287618 0.102214 0.491186
O O17 0.783921 0.082415 0.250000
O O18 0.800811 0.998268 0.476033
O O19 0.215858 0.412663 0.250000
#
# Coordination Sequence:
#
# PCOD9437065 Si02
#       7
#     8   8   8   8   8   8   8
#     4  11  23  38  55  80 111 141 175 216 261 309
#     4   9  20  37  57  80 107 139 176 216 260 312
#     4  10  20  35  54  76 105 140 178 219 263 313
#     4   9  19  35  53  76 106 141 179 218 262 311
#     4  10  20  37  59  81 105 137 176 217 263 313
#     4   9  19  35  55  79 108 140 175 216 262 312
#     4  10  20  35  55  80 108 138 174 216 263 314
#
# _framework density 17.9864
#
# number of rings (size 3 to 8) (size 9 to 14) (size 15 to 20)
#    0.000    2.286    0.000    2.143    0.000    5.143 
#    0.000    5.714    0.000    0.000    0.000    0.000 
#    0.000    0.000    0.000    0.000    0.000    0.000 
#
# Total GULP energy -312581.365284 kJ/mol
# GULP energy per Si atom -5581.810094 kJ/mol
# Density = 1.794546 g / cm^3
# Si number density = 17.986400 Si / 1000 Ang^3
#
#
#
# Elastic Constant Matrix: (Units=GPa)
#
#
# Indices 1 2 3 4 5 6 
#
# 1 166.6325 98.4044 37.3753 0.0000 0.0000 0.0000
# 2 98.4044 87.9173 28.6012 0.0000 0.0000 0.0000
# 3 37.3753 28.6012 35.0826 0.0000 0.0000 0.0000
# 4 0.0000 0.0000 0.0000 25.9519 0.0000 0.0000
# 5 0.0000 0.0000 0.0000 0.0000 37.9148 0.0000
# 6 0.0000 0.0000 0.0000 0.0000 0.0000 162.8472
#
#
#
# Elastic Compliance Matrix: (Units=1/GPa)
#
#
# Indices 1 2 3 4 5 6 
#
# 1 0.018059 -0.018991 -0.003757 0.000000 0.000000 0.000000
# 2 -0.018991 0.035451 -0.008669 0.000000 0.000000 0.000000
# 3 -0.003757 -0.008669 0.039574 0.000000 0.000000 0.000000
# 4 0.000000 0.000000 0.000000 0.038533 0.000000 0.000000
# 5 0.000000 0.000000 0.000000 0.000000 0.026375 0.000000
# 6 0.000000 0.000000 0.000000 0.000000 0.000000 0.006141
#
#
# Mechanical properties :
#
#
# Convention : Reuss Voigt Hill
#
# Bulk Modulus (GPa) = 33.05801 68.71047 50.88424
# Shear Modulus (GPa) = 21.09265 53.69287 37.39276
#
# Velocity S-wave (km/s) = 3.42819 5.46962 4.56449
# Velocity P-wave (km/s) = 5.83860 8.84156 7.49208
#
# Compressibility (1/GPa) = 0.03024986
#
# Stress axis : x y z
#
# Youngs Moduli (GPa) = 55.37452 28.20811 25.26905
#
# Poissons Ratio (x) = 0.53570 0.09493
# Poissons Ratio (y) = 1.05161 0.21907
# Poissons Ratio (z) = 0.20802 0.24455
#
# Static dielectric constant tensor:
#      x y z
#    x 1.600280 0.000000 0.000000 
#    y 0.000000 1.594430 0.000000 
#    z 0.000000 0.000000 1.609110 
# 
# From -- ./inp_files/5155.got.cif
#   From: 2010.05.17/outbox.cif.g08.bks.cpg/sg57_3_cif.got.tgz:5155.got - 2010.06.03 13:58:18.
