data_PCOD9437542
_publ_section_title
;
Structure prediction by ZEFSAII (Michael W. Deem and Ramdas Pophale) SiO2 
 PCOD9437542
Probable space group: P B C M
;
_chemical_formula_sum "Si O2"
_cell_formula_units_Z 48
_cell_length_a 15.298514
_cell_length_b 19.675677
_cell_length_c 8.662311
_cell_angle_alpha 90.000000
_cell_angle_beta 90.000000
_cell_angle_gamma 90.000000
_cell_volume 2607.430281
_symmetry_space_group_name_H-M "P B C M"
_symmetry_group_IT_number 57
_symmetry_cell_setting 'orthorhombic'
loop_
_space_group_symop_operation_xyz
x,y,z
-x,-y,1/2+z
x,1/2-y,-z
-x,1/2+y,1/2-z
-x,-y,-z
x,y,1/2-z
-x,1/2+y,z
x,1/2-y,1/2+z
loop_
_atom_site_type_symbol
_atom_site_label
_atom_site_fract_x
_atom_site_fract_y
_atom_site_fract_z
Si Si1 0.393763 0.325959 0.434457
Si Si2 0.771210 0.908094 0.565017
Si Si3 0.070618 0.324862 0.435559
Si Si4 0.271902 0.563958 0.936479
Si Si5 0.869265 0.175918 0.935806
Si Si6 0.464633 0.928505 0.565731
O O1 0.394778 0.250000 0.500000
O O2 0.395458 0.324481 0.250000
O O3 0.306724 0.364387 0.491335
O O4 0.475539 0.368913 0.497516
O O5 0.767243 0.901230 0.750000
O O6 0.862428 0.878987 0.503893
O O7 0.756954 0.987148 0.525808
O O8 0.093155 0.250000 0.500000
O O9 0.076666 0.324055 0.250000
O O10 0.969822 0.338827 0.481052
O O11 0.282054 0.567711 0.750000
O O12 0.198314 0.617977 0.984726
O O13 0.364569 0.578975 0.014017
O O14 0.867651 0.179000 0.750000
O O15 0.845686 0.250000 0.000000
O O16 0.472172 0.929232 0.750000
O O17 0.500000 0.000000 0.500000
#
# Coordination Sequence:
#
# PCOD9437542 Si02
#       6
#     8   8   8   8   8   8
#     4  12  25  42  64  91 123 158 202 252 302 360
#     4  11  22  37  59  87 121 159 200 246 302 362
#     4  10  20  36  58  84 118 157 201 247 300 357
#     4  10  22  40  62  87 120 159 201 247 302 360
#     4   9  20  39  61  86 117 157 200 250 300 353
#     4  12  24  41  64  90 121 160 202 246 301 360
#
# _framework density 18.408930000000002
#
# number of rings (size 3 to 8) (size 9 to 14) (size 15 to 20)
#    0.000    1.333    1.667    4.500    0.000    3.333 
#    0.000    1.667    0.000    0.000    0.000    0.000 
#    0.000    0.000    0.000    0.000    0.000    0.000 
#
# Total GULP energy -268386.265109 kJ/mol
# GULP energy per Si atom -5591.380523 kJ/mol
# Density = 1.836703 g / cm^3
# Si number density = 18.408930 Si / 1000 Ang^3
#
#
#
# Elastic Constant Matrix: (Units=GPa)
#
#
# Indices 1 2 3 4 5 6 
#
# 1 145.9553 116.5893 61.4051 0.0000 0.0000 0.0000
# 2 116.5893 181.6996 72.9694 0.0000 0.0000 0.0000
# 3 61.4051 72.9694 95.1230 0.0000 0.0000 0.0000
# 4 0.0000 0.0000 0.0000 29.3254 0.0000 0.0000
# 5 0.0000 0.0000 0.0000 0.0000 9.6410 0.0000
# 6 0.0000 0.0000 0.0000 0.0000 0.0000 26.6712
#
#
#
# Elastic Compliance Matrix: (Units=1/GPa)
#
#
# Indices 1 2 3 4 5 6 
#
# 1 0.014725 -0.008138 -0.003263 0.000000 0.000000 0.000000
# 2 -0.008138 0.012452 -0.004298 0.000000 0.000000 0.000000
# 3 -0.003263 -0.004298 0.015916 0.000000 0.000000 0.000000
# 4 0.000000 0.000000 0.000000 0.034100 0.000000 0.000000
# 5 0.000000 0.000000 0.000000 0.000000 0.103724 0.000000
# 6 0.000000 0.000000 0.000000 0.000000 0.000000 0.037494
#
#
# Mechanical properties :
#
#
# Convention : Reuss Voigt Hill
#
# Bulk Modulus (GPa) = 85.50995 102.74505 94.12750
# Shear Modulus (GPa) = 19.70784 24.58178 22.14481
#
# Velocity S-wave (km/s) = 3.27549 3.65817 3.47210
# Velocity P-wave (km/s) = 7.80104 8.58933 8.20466
#
# Compressibility (1/GPa) = 0.01169454
#
# Stress axis : x y z
#
# Youngs Moduli (GPa) = 67.91334 80.31093 62.82951
#
# Poissons Ratio (x) = 0.65357 0.20498
# Poissons Ratio (y) = 0.55268 0.27006
# Poissons Ratio (z) = 0.22157 0.34520
#
# Static dielectric constant tensor:
#      x y z
#    x 1.617200 0.000000 0.000000 
#    y 0.000000 1.600640 0.000000 
#    z 0.000000 0.000000 1.620420 
# 
# From -- ./inp_files/4623.got.cif
#   From: 2010.05.17/outbox.cif.g08.bks.cpg/sg57_3_cif.got.tgz:4623.got - 2010.06.03 13:58:18.
