data_PCOD9437483
_publ_section_title
;
Structure prediction by ZEFSAII (Michael W. Deem and Ramdas Pophale) SiO2 
 PCOD9437483
Probable space group: P B C M
;
_chemical_formula_sum "Si O2"
_cell_formula_units_Z 48
_cell_length_a 31.752567
_cell_length_b 9.437258
_cell_length_c 8.656431
_cell_angle_alpha 90.000000
_cell_angle_beta 90.000000
_cell_angle_gamma 90.000000
_cell_volume 2593.961589
_symmetry_space_group_name_H-M "P B C M"
_symmetry_group_IT_number 57
_symmetry_cell_setting 'orthorhombic'
loop_
_space_group_symop_operation_xyz
x,y,z
-x,-y,1/2+z
x,1/2-y,-z
-x,1/2+y,1/2-z
-x,-y,-z
x,y,1/2-z
-x,1/2+y,z
x,1/2-y,1/2+z
loop_
_atom_site_type_symbol
_atom_site_label
_atom_site_fract_x
_atom_site_fract_y
_atom_site_fract_z
Si Si1 0.697792 0.907853 0.435853
Si Si2 0.207364 0.092525 0.564867
Si Si3 0.617403 0.409360 0.936578
Si Si4 0.460640 0.089647 0.435754
Si Si5 0.038046 0.591356 0.565069
Si Si6 0.131662 0.908400 0.065091
O O1 0.689591 0.750000 0.500000
O O2 0.697064 0.897889 0.250000
O O3 0.745153 0.952513 0.482433
O O4 0.661878 0.018606 0.481646
O O5 0.201798 0.250000 0.500000
O O6 0.205639 0.094138 0.750000
O O7 0.170160 0.996850 0.500955
O O8 0.614115 0.407348 0.750000
O O9 0.613902 0.250000 0.000000
O O10 0.580861 0.508307 0.005388
O O11 0.461689 0.250000 0.500000
O O12 0.461729 0.092990 0.250000
O O13 0.500000 0.000000 0.500000
O O14 0.034942 0.750000 0.500000
O O15 0.035609 0.595520 0.750000
O O16 0.084875 0.535623 0.522253
O O17 0.000000 0.500000 0.500000
O O18 0.134205 0.905216 0.250000
O O19 0.134227 0.750000 0.000000
#
# Coordination Sequence:
#
# PCOD9437483 Si02
#       6
#     8   8   8   8   8   8
#     4   9  20  37  58  83 113 148 189 233 282 334
#     4  10  20  36  57  83 113 148 188 232 278 331
#     4  11  23  40  60  87 120 155 194 238 285 337
#     4  12  25  43  65  91 121 156 195 238 287 340
#     4  10  21  37  57  80 108 141 181 225 275 330
#     4  10  21  37  56  80 109 144 182 226 277 332
#
# _framework density 18.504514
#
# number of rings (size 3 to 8) (size 9 to 14) (size 15 to 20)
#    0.000    1.667    0.000    4.500    0.000    6.667 
#    0.000    1.667    0.000    0.000    0.000    0.000 
#    0.000    0.000    0.000    0.000    0.000    0.000 
#
# Total GULP energy -268152.403660 kJ/mol
# GULP energy per Si atom -5586.508410 kJ/mol
# Density = 1.846240 g / cm^3
# Si number density = 18.504514 Si / 1000 Ang^3
#
#
#
# Elastic Constant Matrix: (Units=GPa)
#
#
# Indices 1 2 3 4 5 6 
#
# 1 199.6461 117.1263 72.3044 0.0000 0.0000 0.0000
# 2 117.1263 130.8570 53.8509 0.0000 0.0000 0.0000
# 3 72.3044 53.8509 92.5930 0.0000 0.0000 0.0000
# 4 0.0000 0.0000 0.0000 38.0448 0.0000 0.0000
# 5 0.0000 0.0000 0.0000 0.0000 26.1214 0.0000
# 6 0.0000 0.0000 0.0000 0.0000 0.0000 43.4595
#
#
#
# Elastic Compliance Matrix: (Units=1/GPa)
#
#
# Indices 1 2 3 4 5 6 
#
# 1 0.011553 -0.008713 -0.003954 0.000000 0.000000 0.000000
# 2 -0.008713 0.016618 -0.002861 0.000000 0.000000 0.000000
# 3 -0.003954 -0.002861 0.015551 0.000000 0.000000 0.000000
# 4 0.000000 0.000000 0.000000 0.026285 0.000000 0.000000
# 5 0.000000 0.000000 0.000000 0.000000 0.038283 0.000000
# 6 0.000000 0.000000 0.000000 0.000000 0.000000 0.023010
#
#
# Mechanical properties :
#
#
# Convention : Reuss Voigt Hill
#
# Bulk Modulus (GPa) = 78.94983 101.07326 90.01154
# Shear Modulus (GPa) = 30.01605 33.51276 31.76441
#
# Velocity S-wave (km/s) = 4.03189 4.26027 4.14765
# Velocity P-wave (km/s) = 8.02700 8.88478 8.46676
#
# Compressibility (1/GPa) = 0.01266627
#
# Stress axis : x y z
#
# Youngs Moduli (GPa) = 86.56059 60.17446 64.30389
#
# Poissons Ratio (x) = 0.52432 0.25424
# Poissons Ratio (y) = 0.75423 0.18397
# Poissons Ratio (z) = 0.34223 0.17215
#
# Static dielectric constant tensor:
#      x y z
#    x 1.654130 0.000000 0.000000 
#    y 0.000000 1.584910 0.000000 
#    z 0.000000 0.000000 1.621350 
# 
# From -- ./inp_files/9906.got.cif
#   From: 2010.05.17/outbox.cif.g08.bks.cpg/sg57_5_cif.got.tgz:9906.got - 2010.06.03 13:58:18.
