data_PCOD9437983
_publ_section_title
;
Structure prediction by ZEFSAII (Michael W. Deem and Ramdas Pophale) SiO2 
 PCOD9437983
Probable space group: P B C M
;
_chemical_formula_sum "Si O2"
_cell_formula_units_Z 36
_cell_length_a 20.354168
_cell_length_b 8.620507
_cell_length_c 10.399558
_cell_angle_alpha 90.000000
_cell_angle_beta 90.000000
_cell_angle_gamma 90.000000
_cell_volume 1824.740222
_symmetry_space_group_name_H-M "P B C M"
_symmetry_group_IT_number 57
_symmetry_cell_setting 'orthorhombic'
loop_
_space_group_symop_operation_xyz
x,y,z
-x,-y,1/2+z
x,1/2-y,-z
-x,1/2+y,1/2-z
-x,-y,-z
x,y,1/2-z
-x,1/2+y,z
x,1/2-y,1/2+z
loop_
_atom_site_type_symbol
_atom_site_label
_atom_site_fract_x
_atom_site_fract_y
_atom_site_fract_z
Si Si1 0.992494 0.750000 0.500000
Si Si2 0.411270 0.941419 0.250000
Si Si3 0.239121 0.886836 0.903136
Si Si4 0.361926 0.433030 0.017601
Si Si5 0.555462 0.423215 0.750000
Si Si6 0.091780 0.529356 0.394369
O O1 0.044183 0.679172 0.398156
O O2 0.945600 0.607651 0.533755
O O3 0.428938 0.759497 0.250000
O O4 0.373145 0.985831 0.379936
O O5 0.478487 0.040423 0.250000
O O6 0.240586 0.845456 0.750000
O O7 0.289982 0.025203 0.928111
O O8 0.164586 0.930743 0.940917
O O9 0.259732 0.750000 0.000000
O O10 0.412342 0.500714 0.123092
O O11 0.370951 0.250000 0.000000
O O12 0.099998 0.473966 0.250000
#
# Coordination Sequence:
#
# PCOD9437983 Si02
#       6
#     4   4   8   8   4   8
#     4  10  20  38  60  92 122 164 214 272 328 396
#     4  12  26  44  76 100 138 175 222 271 336 390
#     4  11  24  44  66  95 132 177 223 273 335 401
#     4  12  26  44  67  99 137 178 225 276 329 394
#     4  12  24  48  70 104 134 175 220 275 330 398
#     4  10  21  38  62  88 127 166 218 270 333 388
#
# _framework density 19.728835
#
# number of rings (size 3 to 8) (size 9 to 14) (size 15 to 20)
#    0.000    0.889    2.222    5.333    3.111    0.000 
#    0.000    1.111    0.000    0.000    0.000    0.000 
#    0.000    0.000    0.000    0.000    0.000    0.000 
#
# Total GULP energy -201028.818696 kJ/mol
# GULP energy per Si atom -5584.133853 kJ/mol
# Density = 1.968393 g / cm^3
# Si number density = 19.728835 Si / 1000 Ang^3
#
#
#
# Elastic Constant Matrix: (Units=GPa)
#
#
# Indices 1 2 3 4 5 6 
#
# 1 91.2506 17.9573 28.2730 0.0000 0.0000 0.0000
# 2 17.9573 117.4089 38.7546 0.0000 0.0000 0.0000
# 3 28.2730 38.7546 100.7767 0.0000 0.0000 0.0000
# 4 0.0000 0.0000 0.0000 17.3490 0.0000 0.0000
# 5 0.0000 0.0000 0.0000 0.0000 33.7733 0.0000
# 6 0.0000 0.0000 0.0000 0.0000 0.0000 29.2530
#
#
#
# Elastic Compliance Matrix: (Units=1/GPa)
#
#
# Indices 1 2 3 4 5 6 
#
# 1 0.012073 -0.000834 -0.003066 0.000000 0.000000 0.000000
# 2 -0.000834 0.009813 -0.003540 0.000000 0.000000 0.000000
# 3 -0.003066 -0.003540 0.012144 0.000000 0.000000 0.000000
# 4 0.000000 0.000000 0.000000 0.057640 0.000000 0.000000
# 5 0.000000 0.000000 0.000000 0.000000 0.029609 0.000000
# 6 0.000000 0.000000 0.000000 0.000000 0.000000 0.034185
#
#
# Mechanical properties :
#
#
# Convention : Reuss Voigt Hill
#
# Bulk Modulus (GPa) = 52.21921 53.26733 52.74327
# Shear Modulus (GPa) = 28.29194 31.03847 29.66521
#
# Velocity S-wave (km/s) = 3.79098 3.97073 3.88190
# Velocity P-wave (km/s) = 6.75929 6.93402 6.84721
#
# Compressibility (1/GPa) = 0.01915004
#
# Stress axis : x y z
#
# Youngs Moduli (GPa) = 82.82895 101.90298 82.34265
#
# Poissons Ratio (x) = 0.08503 0.25248
# Poissons Ratio (y) = 0.06911 0.29147
# Poissons Ratio (z) = 0.25397 0.36070
#
# Static dielectric constant tensor:
#      x y z
#    x 1.722830 0.000000 0.000000 
#    y 0.000000 1.689610 0.000000 
#    z 0.000000 0.000000 1.719210 
# 
# From -- ./inp_files/7718.got.cif
#   From: 2010.05.17/outbox.cif.g08.bks.cpg/sg57_4_cif.got.tgz:7718.got - 2010.06.03 13:58:18.
