data_PCOD9437531
_publ_section_title
;
Structure prediction by ZEFSAII (Michael W. Deem and Ramdas Pophale) SiO2 
 PCOD9437531
Probable space group: P B C M
;
_chemical_formula_sum "Si O2"
_cell_formula_units_Z 64
_cell_length_a 7.962678
_cell_length_b 24.269245
_cell_length_c 17.546722
_cell_angle_alpha 90.000000
_cell_angle_beta 90.000000
_cell_angle_gamma 90.000000
_cell_volume 3390.872148
_symmetry_space_group_name_H-M "P B C M"
_symmetry_group_IT_number 57
_symmetry_cell_setting 'orthorhombic'
loop_
_space_group_symop_operation_xyz
x,y,z
-x,-y,1/2+z
x,1/2-y,-z
-x,1/2+y,1/2-z
-x,-y,-z
x,y,1/2-z
-x,1/2+y,z
x,1/2-y,1/2+z
loop_
_atom_site_type_symbol
_atom_site_label
_atom_site_fract_x
_atom_site_fract_y
_atom_site_fract_z
Si Si1 0.615936 0.070937 0.164574
Si Si2 0.931563 0.589536 0.955521
Si Si3 0.715862 0.698554 0.538987
Si Si4 0.547367 0.227721 0.662422
Si Si5 0.613874 0.325552 0.557003
Si Si6 0.741954 0.369946 0.097930
Si Si7 0.045305 0.528349 0.395414
Si Si8 0.681546 0.484337 0.340346
O O1 0.582779 0.090733 0.250000
O O2 0.594790 0.119999 0.105918
O O3 0.808648 0.050727 0.158590
O O4 0.476695 0.024410 0.148081
O O5 0.804071 0.639564 0.961744
O O6 0.877645 0.529133 0.927274
O O7 0.065628 0.612955 0.894794
O O8 0.015982 0.572263 0.036337
O O9 0.814293 0.750000 0.500000
O O10 0.629899 0.714411 0.619792
O O11 0.558954 0.690408 0.483156
O O12 0.523773 0.243650 0.750000
O O13 0.644935 0.274668 0.613787
O O14 0.658506 0.172611 0.655251
O O15 0.728878 0.340737 0.484802
O O16 0.655413 0.429545 0.108680
O O17 0.860108 0.513193 0.362652
O O18 0.689099 0.470047 0.250000
#
# Coordination Sequence:
#
# PCOD9437531 Si02
#       8
#     8   8   8   8   8   8   8   8
#     4  11  22  36  59  87 118 161 198 235 299 360
#     4  10  20  37  56  85 115 149 193 247 290 342
#     4   9  20  36  59  85 111 149 196 243 292 347
#     4  10  21  38  58  82 115 150 191 246 300 353
#     4  10  20  37  57  84 111 149 195 243 287 351
#     4  10  20  36  58  83 113 147 195 242 294 345
#     4  10  21  37  56  86 123 155 195 245 294 349
#     4  10  22  37  55  86 123 157 196 246 299 354
#
# _framework density 18.874200999999999
#
# number of rings (size 3 to 8) (size 9 to 14) (size 15 to 20)
#    0.000    2.000    1.250    3.000    3.500    1.500 
#    0.000    3.125    0.000    0.750    0.000    0.000 
#    0.000    0.000    0.000    0.000    0.000    0.000 
#
# Total GULP energy -356286.008781 kJ/mol
# GULP energy per Si atom -5566.968887 kJ/mol
# Density = 1.883124 g / cm^3
# Si number density = 18.874201 Si / 1000 Ang^3
#
#
#
# Elastic Constant Matrix: (Units=GPa)
#
#
# Indices 1 2 3 4 5 6 
#
# 1 34.6061 22.1529 10.6766 0.0000 0.0000 0.0000
# 2 22.1529 85.3799 38.2821 0.0000 0.0000 0.0000
# 3 10.6766 38.2821 77.8482 0.0000 0.0000 0.0000
# 4 0.0000 0.0000 0.0000 24.6123 0.0000 0.0000
# 5 0.0000 0.0000 0.0000 0.0000 0.4284 0.0000
# 6 0.0000 0.0000 0.0000 0.0000 0.0000 27.7369
#
#
#
# Elastic Compliance Matrix: (Units=1/GPa)
#
#
# Indices 1 2 3 4 5 6 
#
# 1 0.034663 -0.008803 -0.000425 0.000000 0.000000 0.000000
# 2 -0.008803 0.017261 -0.007281 0.000000 0.000000 0.000000
# 3 -0.000425 -0.007281 0.016484 0.000000 0.000000 0.000000
# 4 0.000000 0.000000 0.000000 0.040630 0.000000 0.000000
# 5 0.000000 0.000000 0.000000 0.000000 2.334445 0.000000
# 6 0.000000 0.000000 0.000000 0.000000 0.000000 0.036053
#
#
# Mechanical properties :
#
#
# Convention : Reuss Voigt Hill
#
# Bulk Modulus (GPa) = 28.25634 37.78415 33.02024
# Shear Modulus (GPa) = 1.98071 19.00368 10.49220
#
# Velocity S-wave (km/s) = 1.02553 3.17655 2.36031
# Velocity P-wave (km/s) = 4.05039 5.78933 4.99610
#
# Compressibility (1/GPa) = 0.03539029
#
# Stress axis : x y z
#
# Youngs Moduli (GPa) = 28.84913 57.93412 60.66432
#
# Poissons Ratio (x) = 0.51001 0.02578
# Poissons Ratio (y) = 0.25397 0.44169
# Poissons Ratio (z) = 0.01226 0.42181
#
# Static dielectric constant tensor:
#      x y z
#    x 1.669980 0.000000 0.000000 
#    y 0.000000 1.724380 0.000000 
#    z 0.000000 0.000000 1.672200 
# 
# From -- ./inp_files/21457.got.cif
#   From: 2010.05.17/outbox.cif.g08.bks.cpg/sg57_11_cif.got.tgz:21457.got - 2010.06.03 13:58:18.
