data_PCOD9437513
_publ_section_title
;
Structure prediction by ZEFSAII (Michael W. Deem and Ramdas Pophale) SiO2 
 PCOD9437513
Probable space group: P B C M
;
_chemical_formula_sum "Si O2"
_cell_formula_units_Z 64
_cell_length_a 16.375198
_cell_length_b 9.560234
_cell_length_c 15.071236
_cell_angle_alpha 90.000000
_cell_angle_beta 90.000000
_cell_angle_gamma 90.000000
_cell_volume 2359.412918
_symmetry_space_group_name_H-M "P B C M"
_symmetry_group_IT_number 57
_symmetry_cell_setting 'orthorhombic'
loop_
_space_group_symop_operation_xyz
x,y,z
-x,-y,1/2+z
x,1/2-y,-z
-x,1/2+y,1/2-z
-x,-y,-z
x,y,1/2-z
-x,1/2+y,z
x,1/2-y,1/2+z
loop_
_atom_site_type_symbol
_atom_site_label
_atom_site_fract_x
_atom_site_fract_y
_atom_site_fract_z
Si Si1 0.593182 0.599127 0.850570
Si Si2 0.496535 0.841199 0.588461
Si Si3 0.907719 0.165758 0.591430
Si Si4 0.258977 0.790360 0.852732
Si Si5 0.745726 0.786405 0.642152
Si Si6 0.353681 0.963086 0.358764
Si Si7 0.841569 0.956707 0.357619
Si Si8 0.015121 0.402797 0.646554
O O1 0.611203 0.560512 0.750000
O O2 0.575304 0.452919 0.898170
O O3 0.668525 0.690171 0.885483
O O4 0.428797 0.452400 0.900093
O O5 0.496366 0.750000 0.500000
O O6 0.518793 0.712547 0.653594
O O7 0.330512 0.691999 0.610009
O O8 0.897775 0.250000 0.500000
O O9 0.825901 0.202217 0.644892
O O10 0.923137 0.999368 0.590605
O O11 0.988220 0.242095 0.632772
O O12 0.280278 0.810819 0.750000
O O13 0.229295 0.937880 0.891542
O O14 0.746513 0.789687 0.750000
O O15 0.824273 0.700728 0.612049
O O16 0.724299 0.941541 0.615588
O O17 0.363035 0.965602 0.250000
O O18 0.834265 0.957601 0.250000
O O19 0.928312 0.023409 0.373979
O O20 0.038131 0.420240 0.750000
#
# Coordination Sequence:
#
# PCOD9437513 Si02
#       8
#     8   8   8   8   8   8   8   8
#     4  10  20  36  58  81 110 153 201 244 291 359
#     4  11  22  37  55  84 121 154 190 246 310 358
#     4  11  22  37  55  84 121 154 190 246 310 358
#     4   9  18  34  56  80 107 144 193 241 282 342
#     4   8  15  29  50  78 107 135 178 236 285 326
#     4   9  18  34  56  80 107 144 193 241 282 342
#     4   8  15  29  50  78 107 135 178 236 285 326
#     4  10  20  36  58  81 110 153 201 244 291 359
#
# _framework density 27.125389999999999
#
# number of rings (size 3 to 8) (size 9 to 14) (size 15 to 20)
#    0.000    2.500    0.000    4.500    0.000    2.000 
#    0.000   10.000    0.000    3.000    0.000    0.000 
#    0.000    0.000    0.000    0.000    0.000    0.000 
#
# Total GULP energy -357608.253297 kJ/mol
# GULP energy per Si atom -5587.628958 kJ/mol
# Density = 2.706365 g / cm^3
# Si number density = 27.125390 Si / 1000 Ang^3
#
#
#
# Elastic Constant Matrix: (Units=GPa)
#
#
# Indices 1 2 3 4 5 6 
#
# 1 60.9468 25.0217 -1.3523 0.0000 0.0000 0.0000
# 2 25.0217 166.4630 17.8832 0.0000 0.0000 0.0000
# 3 -1.3523 17.8832 87.8517 0.0000 0.0000 0.0000
# 4 0.0000 0.0000 0.0000 23.9967 0.0000 0.0000
# 5 0.0000 0.0000 0.0000 0.0000 -16.8425 0.0000
# 6 0.0000 0.0000 0.0000 0.0000 0.0000 52.4490
#
#
#
# Elastic Compliance Matrix: (Units=1/GPa)
#
#
# Indices 1 2 3 4 5 6 
#
# 1 0.017545 -0.002726 0.000825 0.000000 0.000000 0.000000
# 2 -0.002726 0.006565 -0.001378 0.000000 0.000000 0.000000
# 3 0.000825 -0.001378 0.011676 0.000000 0.000000 0.000000
# 4 0.000000 0.000000 0.000000 0.041672 0.000000 0.000000
# 5 0.000000 0.000000 0.000000 0.000000 -0.059374 0.000000
# 6 0.000000 0.000000 0.000000 0.000000 0.000000 0.019066
#
#
# Mechanical properties :
#
#
# Convention : Reuss Voigt Hill
#
# Bulk Modulus (GPa) = 34.21400 44.26297 39.23849
# Shear Modulus (GPa) = 93.54066 30.16789 61.85427
#
# Velocity S-wave (km/s) = 5.87872 3.33853 4.78044
# Velocity P-wave (km/s) = 7.66289 5.58698 6.70575
#
# Compressibility (1/GPa) = 0.02922780
#
# Stress axis : x y z
#
# Youngs Moduli (GPa) = 56.99569 152.31914 85.64503
#
# Poissons Ratio (x) = 0.41521 -0.07065
# Poissons Ratio (y) = 0.15537 0.11805
# Poissons Ratio (z) = -0.04702 0.20995
#
# Static dielectric constant tensor:
#      x y z
#    x 2.205940 0.000000 0.000000 
#    y 0.000000 2.086800 0.000000 
#    z 0.000000 0.000000 2.111080 
# 
# From -- ./inp_files/22702.got.cif
#   From: 2010.05.17/outbox.cif.g08.bks.cpg/sg57_12_cif.got.tgz:22702.got - 2010.06.03 13:58:18.
