data_PCOD9437684
_publ_section_title
;
Structure prediction by ZEFSAII (Michael W. Deem and Ramdas Pophale) SiO2 
 PCOD9437684
Probable space group: P B C M
;
_chemical_formula_sum "Si O2"
_cell_formula_units_Z 60
_cell_length_a 8.876239
_cell_length_b 13.451073
_cell_length_c 25.102837
_cell_angle_alpha 90.000000
_cell_angle_beta 90.000000
_cell_angle_gamma 90.000000
_cell_volume 2997.151686
_symmetry_space_group_name_H-M "P B C M"
_symmetry_group_IT_number 57
_symmetry_cell_setting 'orthorhombic'
loop_
_space_group_symop_operation_xyz
x,y,z
-x,-y,1/2+z
x,1/2-y,-z
-x,1/2+y,1/2-z
-x,-y,-z
x,y,1/2-z
-x,1/2+y,z
x,1/2-y,1/2+z
loop_
_atom_site_type_symbol
_atom_site_label
_atom_site_fract_x
_atom_site_fract_y
_atom_site_fract_z
Si Si1 0.005695 0.480052 0.125851
Si Si2 0.082878 0.750000 0.000000
Si Si3 0.633117 0.702713 0.898001
Si Si4 0.276500 0.009748 0.953702
Si Si5 0.172791 0.382210 0.946135
Si Si6 0.695212 0.288854 0.912148
Si Si7 0.883577 0.689646 0.811302
Si Si8 0.876638 0.350723 0.809302
O O1 0.114532 0.474482 0.074833
O O2 0.997205 0.373089 0.152669
O O3 0.095109 0.537571 0.172352
O O4 0.873447 0.550390 0.104497
O O5 0.195150 0.725671 0.951025
O O6 0.974563 0.836356 0.976510
O O7 0.626244 0.594657 0.925196
O O8 0.733026 0.784150 0.930334
O O9 0.465506 0.743643 0.899234
O O10 0.725600 0.690625 0.842768
O O11 0.321999 0.896679 0.941619
O O12 0.259637 0.044530 0.014092
O O13 0.776148 0.307229 0.856205
O O14 0.870904 0.656234 0.750000
O O15 0.961588 0.796987 0.809795
O O16 0.813300 0.341038 0.750000
#
# Coordination Sequence:
#
# PCOD9437684 Si02
#       8
#     8   4   8   8   8   8   8   8
#     4  10  20  36  61  98 115 155 209 262 311 370
#     4  12  22  38  62  90 130 160 218 258 316 372
#     4  11  23  42  61  89 132 165 218 257 317 395
#     4  10  22  38  61  87 125 171 213 248 320 374
#     4  12  21  38  65  90 128 171 209 263 312 381
#     4  11  26  40  58  96 130 172 209 263 327 390
#     4  10  21  39  68  92 117 162 213 267 317 370
#     4  10  20  40  63  88 121 160 210 268 320 370
#
# _framework density 20.019006999999998
#
# number of rings (size 3 to 8) (size 9 to 14) (size 15 to 20)
#    0.000    1.333    5.333    0.800    3.733    1.067 
#    2.400    0.000    0.000    0.000    0.000    0.000 
#    0.000    0.000    0.000    0.000    0.000    0.000 
#
# Total GULP energy -334627.152208 kJ/mol
# GULP energy per Si atom -5577.119203 kJ/mol
# Density = 1.997344 g / cm^3
# Si number density = 20.019007 Si / 1000 Ang^3
#
#
#
# Elastic Constant Matrix: (Units=GPa)
#
#
# Indices 1 2 3 4 5 6 
#
# 1 61.1421 18.3875 21.1627 0.0000 0.0000 0.0000
# 2 18.3875 49.3075 19.0860 0.0000 0.0000 0.0000
# 3 21.1627 19.0860 116.4258 0.0000 0.0000 0.0000
# 4 0.0000 0.0000 0.0000 32.6425 0.0000 0.0000
# 5 0.0000 0.0000 0.0000 0.0000 13.1845 0.0000
# 6 0.0000 0.0000 0.0000 0.0000 0.0000 20.7691
#
#
#
# Elastic Compliance Matrix: (Units=1/GPa)
#
#
# Indices 1 2 3 4 5 6 
#
# 1 0.019056 -0.006156 -0.002455 0.000000 0.000000 0.000000
# 2 -0.006156 0.023644 -0.002757 0.000000 0.000000 0.000000
# 3 -0.002455 -0.002757 0.009487 0.000000 0.000000 0.000000
# 4 0.000000 0.000000 0.000000 0.030635 0.000000 0.000000
# 5 0.000000 0.000000 0.000000 0.000000 0.075847 0.000000
# 6 0.000000 0.000000 0.000000 0.000000 0.000000 0.048148
#
#
# Mechanical properties :
#
#
# Convention : Reuss Voigt Hill
#
# Bulk Modulus (GPa) = 33.95389 38.23864 36.09626
# Shear Modulus (GPa) = 20.88813 24.53518 22.71165
#
# Velocity S-wave (km/s) = 3.23370 3.50465 3.37189
# Velocity P-wave (km/s) = 5.56238 5.95981 5.76452
#
# Compressibility (1/GPa) = 0.02945171
#
# Stress axis : x y z
#
# Youngs Moduli (GPa) = 52.47599 42.29440 105.40402
#
# Poissons Ratio (x) = 0.26037 0.25873
# Poissons Ratio (y) = 0.32305 0.29060
# Poissons Ratio (z) = 0.12881 0.11660
#
# Static dielectric constant tensor:
#      x y z
#    x 1.716320 0.000000 0.000000 
#    y 0.000000 1.750730 0.000000 
#    z 0.000000 0.000000 1.723500 
# 
# From -- ./inp_files/26844.got.cif
#   From: 2010.05.17/outbox.cif.g08.bks.cpg/sg57_14_cif.got.tgz:26844.got - 2010.06.03 13:58:18.
