data_PCOD9437725
_publ_section_title
;
Structure prediction by ZEFSAII (Michael W. Deem and Ramdas Pophale) SiO2 
 PCOD9437725
Probable space group: P B C M
;
_chemical_formula_sum "Si O2"
_cell_formula_units_Z 48
_cell_length_a 8.365219
_cell_length_b 15.038949
_cell_length_c 20.894693
_cell_angle_alpha 90.000000
_cell_angle_beta 90.000000
_cell_angle_gamma 90.000000
_cell_volume 2628.638088
_symmetry_space_group_name_H-M "P B C M"
_symmetry_group_IT_number 57
_symmetry_cell_setting 'orthorhombic'
loop_
_space_group_symop_operation_xyz
x,y,z
-x,-y,1/2+z
x,1/2-y,-z
-x,1/2+y,1/2-z
-x,-y,-z
x,y,1/2-z
-x,1/2+y,z
x,1/2-y,1/2+z
loop_
_atom_site_type_symbol
_atom_site_label
_atom_site_fract_x
_atom_site_fract_y
_atom_site_fract_z
Si Si1 0.073950 0.556229 0.822986
Si Si2 0.120413 0.270786 0.323843
Si Si3 0.302842 0.512644 0.565392
Si Si4 0.698456 0.689329 0.059432
Si Si5 0.615044 0.409999 0.934033
Si Si6 0.137544 0.619561 0.321616
O O1 0.131543 0.572305 0.750000
O O2 0.212482 0.556684 0.875615
O O3 0.938382 0.629467 0.836680
O O4 0.990129 0.460373 0.824592
O O5 0.176181 0.263647 0.250000
O O6 0.245491 0.234404 0.375063
O O7 0.962717 0.209543 0.329835
O O8 0.235409 0.412020 0.555110
O O9 0.295606 0.567780 0.500034
O O10 0.491271 0.492334 0.578242
O O11 0.507912 0.671846 0.058321
O O12 0.747339 0.750000 0.000000
O O13 0.732919 0.394332 0.876067
O O14 0.208819 0.618765 0.250000
#
# Coordination Sequence:
#
# PCOD9437725 Si02
#       6
#     8   8   8   8   8   8
#     4  10  21  37  61  86 114 151 192 240 285 336
#     4  10  22  38  58  86 113 146 192 237 283 339
#     4   9  20  39  57  80 117 150 188 236 282 342
#     4  10  21  37  58  82 113 152 188 231 284 340
#     4   9  21  36  56  83 111 152 184 235 285 334
#     4  10  20  37  57  84 116 145 190 238 282 338
#
# _framework density 18.260407000000001
#
# number of rings (size 3 to 8) (size 9 to 14) (size 15 to 20)
#    1.000    1.333    1.667    0.000    2.333    4.667 
#    0.000    0.000    0.000    7.000    0.000    0.000 
#    0.000    0.000    0.000    0.000    0.000    0.000 
#
# Total GULP energy -267382.114584 kJ/mol
# GULP energy per Si atom -5570.460721 kJ/mol
# Density = 1.821885 g / cm^3
# Si number density = 18.260407 Si / 1000 Ang^3
#
#
#
# Elastic Constant Matrix: (Units=GPa)
#
#
# Indices 1 2 3 4 5 6 
#
# 1 23.5697 6.8125 46.4939 0.0000 0.0000 0.0000
# 2 6.8125 25.4028 22.8520 0.0000 0.0000 0.0000
# 3 46.4939 22.8520 132.5731 0.0000 0.0000 0.0000
# 4 0.0000 0.0000 0.0000 23.3955 0.0000 0.0000
# 5 0.0000 0.0000 0.0000 0.0000 49.6081 0.0000
# 6 0.0000 0.0000 0.0000 0.0000 0.0000 21.8870
#
#
#
# Elastic Compliance Matrix: (Units=1/GPa)
#
#
# Indices 1 2 3 4 5 6 
#
# 1 0.138951 0.007780 -0.050072 0.000000 0.000000 0.000000
# 2 0.007780 0.047026 -0.010834 0.000000 0.000000 0.000000
# 3 -0.050072 -0.010834 0.026971 0.000000 0.000000 0.000000
# 4 0.000000 0.000000 0.000000 0.042743 0.000000 0.000000
# 5 0.000000 0.000000 0.000000 0.000000 0.020158 0.000000
# 6 0.000000 0.000000 0.000000 0.000000 0.000000 0.045689
#
#
# Mechanical properties :
#
#
# Convention : Reuss Voigt Hill
#
# Bulk Modulus (GPa) = 9.37248 37.09581 23.23415
# Shear Modulus (GPa) = 10.79085 26.00392 18.39738
#
# Velocity S-wave (km/s) = 2.43357 3.77777 3.17756
# Velocity P-wave (km/s) = 3.61112 6.27596 5.11995
#
# Compressibility (1/GPa) = 0.10669532
#
# Stress axis : x y z
#
# Youngs Moduli (GPa) = 7.19678 21.26491 37.07700
#
# Poissons Ratio (x) = -0.16544 1.85651
# Poissons Ratio (y) = -0.05599 0.40171
# Poissons Ratio (z) = 0.36036 0.23039
#
# Static dielectric constant tensor:
#      x y z
#    x 1.611810 0.000000 0.000000 
#    y 0.000000 1.637310 0.000000 
#    z 0.000000 0.000000 1.612160 
# 
# From -- ./inp_files/24248.got.cif
#   From: 2010.05.17/outbox.cif.g08.bks.cpg/sg57_13_cif.got.tgz:24248.got - 2010.06.03 13:58:18.
