data_PCOD9437527
_publ_section_title
;
Structure prediction by ZEFSAII (Michael W. Deem and Ramdas Pophale) SiO2 
 PCOD9437527
Probable space group: P B C M
;
_chemical_formula_sum "Si O2"
_cell_formula_units_Z 64
_cell_length_a 26.676658
_cell_length_b 15.132859
_cell_length_c 8.553097
_cell_angle_alpha 90.000000
_cell_angle_beta 90.000000
_cell_angle_gamma 90.000000
_cell_volume 3452.834831
_symmetry_space_group_name_H-M "P B C M"
_symmetry_group_IT_number 57
_symmetry_cell_setting 'orthorhombic'
loop_
_space_group_symop_operation_xyz
x,y,z
-x,-y,1/2+z
x,1/2-y,-z
-x,1/2+y,1/2-z
-x,-y,-z
x,y,1/2-z
-x,1/2+y,z
x,1/2-y,1/2+z
loop_
_atom_site_type_symbol
_atom_site_label
_atom_site_fract_x
_atom_site_fract_y
_atom_site_fract_z
Si Si1 0.631873 0.850877 0.936763
Si Si2 0.110033 0.156391 0.937615
Si Si3 0.820297 0.997748 0.937347
Si Si4 0.999838 0.400707 0.061267
Si Si5 0.633635 0.350633 0.938165
Si Si6 0.890847 0.342355 0.437959
Si Si7 0.291738 0.494338 0.437219
Si Si8 0.556267 0.997331 0.438014
O O1 0.630351 0.847196 0.750000
O O2 0.632027 0.750000 0.000000
O O3 0.679670 0.909640 0.990773
O O4 0.585685 0.911282 0.998191
O O5 0.111648 0.151523 0.750000
O O6 0.052135 0.142412 0.989293
O O7 0.127118 0.250000 0.000000
O O8 0.145987 0.084059 0.010818
O O9 0.815138 0.999374 0.750000
O O10 0.853252 0.081534 0.988930
O O11 0.765736 0.995952 0.012669
O O12 0.999141 0.400620 0.250000
O O13 0.947972 0.357559 0.005124
O O14 0.000000 0.500000 0.000000
O O15 0.633872 0.344638 0.750000
O O16 0.680404 0.414028 0.985541
O O17 0.586197 0.412700 0.984248
O O18 0.633821 0.250000 0.000000
O O19 0.872238 0.250000 0.500000
O O20 0.892376 0.342813 0.250000
O O21 0.296545 0.487836 0.250000
O O22 0.557088 0.993113 0.250000
O O23 0.500000 0.000000 0.500000
#
# Coordination Sequence:
#
# PCOD9437527 Si02
#       8
#     8   8   8   8   8   8   8   8
#     4  11  22  39  63  90 119 157 201 246 298 353
#     4  11  23  38  59  85 113 148 187 230 284 342
#     4  11  23  40  60  84 115 148 188 237 288 344
#     4  10  20  36  58  83 111 147 185 227 280 338
#     4   9  20  37  59  85 116 153 195 241 288 341
#     4  10  22  38  57  83 114 147 186 230 280 340
#     4  10  22  41  61  85 116 149 192 244 294 348
#     4  10  21  38  58  88 127 166 206 250 296 344
#
# _framework density 18.535495000000001
#
# number of rings (size 3 to 8) (size 9 to 14) (size 15 to 20)
#    0.000    1.750    1.250    3.750    0.000    6.500 
#    0.000    6.250    0.000    0.000    0.000    0.000 
#    0.000    0.000    0.000    0.000    0.000    0.000 
#
# Total GULP energy -357292.393689 kJ/mol
# GULP energy per Si atom -5582.693651 kJ/mol
# Density = 1.849331 g / cm^3
# Si number density = 18.535495 Si / 1000 Ang^3
#
#
#
# Elastic Constant Matrix: (Units=GPa)
#
#
# Indices 1 2 3 4 5 6 
#
# 1 159.6502 88.3043 38.0480 0.0000 0.0000 0.0000
# 2 88.3043 201.9648 40.8553 0.0000 0.0000 0.0000
# 3 38.0480 40.8553 54.5064 0.0000 0.0000 0.0000
# 4 0.0000 0.0000 0.0000 35.7396 0.0000 0.0000
# 5 0.0000 0.0000 0.0000 0.0000 41.9495 0.0000
# 6 0.0000 0.0000 0.0000 0.0000 0.0000 27.9364
#
#
#
# Elastic Compliance Matrix: (Units=1/GPa)
#
#
# Indices 1 2 3 4 5 6 
#
# 1 0.008910 -0.003109 -0.003889 0.000000 0.000000 0.000000
# 2 -0.003109 0.006921 -0.003017 0.000000 0.000000 0.000000
# 3 -0.003889 -0.003017 0.023323 0.000000 0.000000 0.000000
# 4 0.000000 0.000000 0.000000 0.027980 0.000000 0.000000
# 5 0.000000 0.000000 0.000000 0.000000 0.023838 0.000000
# 6 0.000000 0.000000 0.000000 0.000000 0.000000 0.035796
#
#
# Mechanical properties :
#
#
# Convention : Reuss Voigt Hill
#
# Bulk Modulus (GPa) = 52.29371 83.39297 67.84334
# Shear Modulus (GPa) = 32.64251 37.71936 35.18093
#
# Velocity S-wave (km/s) = 4.20108 4.51597 4.36137
# Velocity P-wave (km/s) = 7.19764 8.50180 7.87676
#
# Compressibility (1/GPa) = 0.01912276
#
# Stress axis : x y z
#
# Youngs Moduli (GPa) = 112.23033 144.48554 42.87576
#
# Poissons Ratio (x) = 0.44921 0.16676
# Poissons Ratio (y) = 0.34893 0.12938
# Poissons Ratio (z) = 0.43651 0.43598
#
# Static dielectric constant tensor:
#      x y z
#    x 1.637270 0.000000 0.000000 
#    y 0.000000 1.607520 0.000000 
#    z 0.000000 0.000000 1.632830 
# 
# From -- ./inp_files/9318.got.cif
#   From: 2010.05.17/outbox.cif.g08.bks.cpg/sg57_5_cif.got.tgz:9318.got - 2010.06.03 13:58:18.
