data_PCOD9437607
_publ_section_title
;
Structure prediction by ZEFSAII (Michael W. Deem and Ramdas Pophale) SiO2 
 PCOD9437607
Probable space group: P B C M
;
_chemical_formula_sum "Si O2"
_cell_formula_units_Z 56
_cell_length_a 16.058479
_cell_length_b 11.172812
_cell_length_c 15.205287
_cell_angle_alpha 90.000000
_cell_angle_beta 90.000000
_cell_angle_gamma 90.000000
_cell_volume 2728.107761
_symmetry_space_group_name_H-M "P B C M"
_symmetry_group_IT_number 57
_symmetry_cell_setting 'orthorhombic'
loop_
_space_group_symop_operation_xyz
x,y,z
-x,-y,1/2+z
x,1/2-y,-z
-x,1/2+y,1/2-z
-x,-y,-z
x,y,1/2-z
-x,1/2+y,z
x,1/2-y,1/2+z
loop_
_atom_site_type_symbol
_atom_site_label
_atom_site_fract_x
_atom_site_fract_y
_atom_site_fract_z
Si Si1 0.502259 0.965077 0.852755
Si Si2 0.953315 0.769229 0.851279
Si Si3 0.213163 0.129509 0.852248
Si Si4 0.766345 0.013869 0.975687
Si Si5 0.949875 0.462302 0.414389
Si Si6 0.333096 0.333040 0.649631
Si Si7 0.597763 0.119049 0.986429
O O1 0.479683 0.982248 0.750000
O O2 0.568378 0.854525 0.857886
O O3 0.558631 0.068155 0.896803
O O4 0.429724 0.950667 0.924793
O O5 0.962472 0.742400 0.750000
O O6 0.859598 0.725771 0.875613
O O7 0.963219 0.912596 0.860551
O O8 0.014525 0.670054 0.893275
O O9 0.201452 0.092085 0.750000
O O10 0.300958 0.198323 0.858840
O O11 0.210485 0.029282 0.926272
O O12 0.696741 0.114989 0.979404
O O13 0.851273 0.046820 0.927910
O O14 0.717125 0.909661 0.922258
O O15 0.000000 0.500000 0.500000
O O16 0.310029 0.371786 0.750000
O O17 0.564716 0.250000 0.000000
#
# Coordination Sequence:
#
# PCOD9437607 Si02
#       7
#     8   8   8   8   8   8   8
#     4   9  20  40  64  93 125 164 211 262 321 388
#     4  11  24  42  64  94 129 168 220 278 333 398
#     4  10  20  36  59  89 124 163 214 270 320 379
#     4  11  22  38  60  85 127 168 214 259 324 389
#     4  12  24  40  66  94 127 171 221 270 335 398
#     4   9  18  33  61  92 118 154 207 260 314 379
#     4  10  23  40  61  92 129 169 211 267 323 392
#
# _framework density 20.527048000000001
#
# number of rings (size 3 to 8) (size 9 to 14) (size 15 to 20)
#    0.000    1.714    2.857    1.286    0.000    6.286 
#    0.000    1.429    0.000    0.000    0.000    0.000 
#    0.000    0.000    0.000    0.000    0.000    0.000 
#
# Total GULP energy -311916.920418 kJ/mol
# GULP energy per Si atom -5569.945007 kJ/mol
# Density = 2.048033 g / cm^3
# Si number density = 20.527048 Si / 1000 Ang^3
#
#
#
# Elastic Constant Matrix: (Units=GPa)
#
#
# Indices 1 2 3 4 5 6 
#
# 1 36.0640 22.4513 -11.0401 0.0000 0.0000 0.0000
# 2 22.4513 55.5200 21.6706 0.0000 0.0000 0.0000
# 3 -11.0401 21.6706 62.4081 0.0000 0.0000 0.0000
# 4 0.0000 0.0000 0.0000 26.5966 0.0000 0.0000
# 5 0.0000 0.0000 0.0000 0.0000 18.1848 0.0000
# 6 0.0000 0.0000 0.0000 0.0000 0.0000 -101.4802
#
#
#
# Elastic Compliance Matrix: (Units=1/GPa)
#
#
# Indices 1 2 3 4 5 6 
#
# 1 0.050721 -0.027777 0.018618 0.000000 0.000000 0.000000
# 2 -0.027777 0.036048 -0.017431 0.000000 0.000000 0.000000
# 3 0.018618 -0.017431 0.025370 0.000000 0.000000 0.000000
# 4 0.000000 0.000000 0.000000 0.037599 0.000000 0.000000
# 5 0.000000 0.000000 0.000000 0.000000 0.054991 0.000000
# 6 0.000000 0.000000 0.000000 0.000000 0.000000 -0.009854
#
#
# Mechanical properties :
#
#
# Convention : Reuss Voigt Hill
#
# Bulk Modulus (GPa) = 16.96145 24.46171 20.71158
# Shear Modulus (GPa) = 18.67710 -3.27906 7.69902
#
# Velocity S-wave (km/s) = 3.01969 -1.26527 1.93877
# Velocity P-wave (km/s) = 4.52095 3.13180 3.88890
#
# Compressibility (1/GPa) = 0.05895722
#
# Stress axis : x y z
#
# Youngs Moduli (GPa) = 19.71589 27.74084 39.41674
#
# Poissons Ratio (x) = 0.77057 -0.73386
# Poissons Ratio (y) = 0.54766 0.68708
# Poissons Ratio (z) = -0.36707 0.48356
#
# Static dielectric constant tensor:
#      x y z
#    x 1.716070 0.000000 0.000000 
#    y 0.000000 2.070740 0.000000 
#    z 0.000000 0.000000 1.746500 
# 
# From -- ./inp_files/18536.got.cif
#   From: 2010.05.17/outbox.cif.g08.bks.cpg/sg57_10_cif.got.tgz:18536.got - 2010.06.03 13:58:18.
