data_PCOD9437889
_publ_section_title
;
Structure prediction by ZEFSAII (Michael W. Deem and Ramdas Pophale) SiO2 
 PCOD9437889
Probable space group: P B C M
;
_chemical_formula_sum "Si O2"
_cell_formula_units_Z 48
_cell_length_a 5.208290
_cell_length_b 21.936859
_cell_length_c 18.213818
_cell_angle_alpha 90.000000
_cell_angle_beta 90.000000
_cell_angle_gamma 90.000000
_cell_volume 2080.992880
_symmetry_space_group_name_H-M "P B C M"
_symmetry_group_IT_number 57
_symmetry_cell_setting 'orthorhombic'
loop_
_space_group_symop_operation_xyz
x,y,z
-x,-y,1/2+z
x,1/2-y,-z
-x,1/2+y,1/2-z
-x,-y,-z
x,y,1/2-z
-x,1/2+y,z
x,1/2-y,1/2+z
loop_
_atom_site_type_symbol
_atom_site_label
_atom_site_fract_x
_atom_site_fract_y
_atom_site_fract_z
Si Si1 0.439603 0.192332 0.968024
Si Si2 0.612032 0.391153 0.664932
Si Si3 0.096755 0.129711 0.426105
Si Si4 0.474760 0.523179 0.830788
Si Si5 0.824033 0.412963 0.443244
Si Si6 0.199964 0.148321 0.667195
O O1 0.594966 0.129220 0.973877
O O2 0.352119 0.195918 0.883672
O O3 0.586432 0.250000 0.000000
O O4 0.195880 0.183957 0.021623
O O5 0.603234 0.373041 0.750000
O O6 0.335509 0.383344 0.627000
O O7 0.654501 0.464520 0.661570
O O8 0.845104 0.359639 0.622593
O O9 0.015961 0.079910 0.488647
O O10 0.345037 0.517674 0.750000
O O11 0.285813 0.529616 0.899677
O O12 0.633452 0.585933 0.830170
O O13 0.953897 0.371949 0.379445
O O14 0.146743 0.167942 0.750000
#
# Coordination Sequence:
#
# PCOD9437889 Si02
#       6
#     8   8   8   8   8   8
#     4  10  22  43  68  88 124 165 211 264 329 375
#     4  11  24  42  64  89 132 177 213 256 307 376
#     4  11  23  43  63  95 124 163 220 258 315 372
#     4   9  20  36  59  92 129 175 213 250 312 374
#     4  10  20  37  62  94 127 167 204 272 309 382
#     4   9  19  37  61  94 127 159 209 263 313 372
#
# _framework density 23.065915
#
# number of rings (size 3 to 8) (size 9 to 14) (size 15 to 20)
#    0.000    2.000    1.667    1.000    2.333    4.667 
#    0.000    1.667    0.000    0.000    0.000    0.000 
#    0.000    0.000    0.000    0.000    0.000    0.000 
#
# Total GULP energy -267885.971226 kJ/mol
# GULP energy per Si atom -5580.957734 kJ/mol
# Density = 2.301342 g / cm^3
# Si number density = 23.065915 Si / 1000 Ang^3
#
#
#
# Elastic Constant Matrix: (Units=GPa)
#
#
# Indices 1 2 3 4 5 6 
#
# 1 112.0420 5.5273 69.4101 0.0000 0.0000 0.0000
# 2 5.5273 28.0339 24.4031 0.0000 0.0000 0.0000
# 3 69.4101 24.4031 190.0075 0.0000 0.0000 0.0000
# 4 0.0000 0.0000 0.0000 26.9598 0.0000 0.0000
# 5 0.0000 0.0000 0.0000 0.0000 43.6445 0.0000
# 6 0.0000 0.0000 0.0000 0.0000 0.0000 24.5874
#
#
#
# Elastic Compliance Matrix: (Units=1/GPa)
#
#
# Indices 1 2 3 4 5 6 
#
# 1 0.011597 0.001578 -0.004439 0.000000 0.000000 0.000000
# 2 0.001578 0.040376 -0.005762 0.000000 0.000000 0.000000
# 3 -0.004439 -0.005762 0.007625 0.000000 0.000000 0.000000
# 4 0.000000 0.000000 0.000000 0.037092 0.000000 0.000000
# 5 0.000000 0.000000 0.000000 0.000000 0.022912 0.000000
# 6 0.000000 0.000000 0.000000 0.000000 0.000000 0.040671
#
#
# Mechanical properties :
#
#
# Convention : Reuss Voigt Hill
#
# Bulk Modulus (GPa) = 23.61222 58.75160 41.18191
# Shear Modulus (GPa) = 26.09092 34.42119 30.25606
#
# Velocity S-wave (km/s) = 3.36690 3.86722 3.62570
# Velocity P-wave (km/s) = 5.03724 6.74292 5.95150
#
# Compressibility (1/GPa) = 0.04235095
#
# Stress axis : x y z
#
# Youngs Moduli (GPa) = 86.22564 24.76739 131.15428
#
# Poissons Ratio (x) = -0.03907 0.58222
# Poissons Ratio (y) = -0.13604 0.75569
# Poissons Ratio (z) = 0.38277 0.14271
#
# Static dielectric constant tensor:
#      x y z
#    x 1.936830 0.000000 0.000000 
#    y 0.000000 1.927750 0.000000 
#    z 0.000000 0.000000 1.893040 
# 
# From -- ./inp_files/20194.got.cif
#   From: 2010.05.17/outbox.cif.g08.bks.cpg/sg57_11_cif.got.tgz:20194.got - 2010.06.03 13:58:18.
