data_PCOD9437035
_publ_section_title
;
Structure prediction by ZEFSAII (Michael W. Deem and Ramdas Pophale) SiO2 
 PCOD9437035
Probable space group: P B C M
;
_chemical_formula_sum "Si O2"
_cell_formula_units_Z 64
_cell_length_a 15.246272
_cell_length_b 30.378753
_cell_length_c 8.677766
_cell_angle_alpha 90.000000
_cell_angle_beta 90.000000
_cell_angle_gamma 90.000000
_cell_volume 4019.217802
_symmetry_space_group_name_H-M "P B C M"
_symmetry_group_IT_number 57
_symmetry_cell_setting 'orthorhombic'
loop_
_space_group_symop_operation_xyz
x,y,z
-x,-y,1/2+z
x,1/2-y,-z
-x,1/2+y,1/2-z
-x,-y,-z
x,y,1/2-z
-x,1/2+y,z
x,1/2-y,1/2+z
loop_
_atom_site_type_symbol
_atom_site_label
_atom_site_fract_x
_atom_site_fract_y
_atom_site_fract_z
Si Si1 0.039803 0.611943 0.064658
Si Si2 0.137959 0.059329 0.434758
Si Si3 0.545159 0.563806 0.564689
Si Si4 0.708054 0.881405 0.434799
Si Si5 0.993814 0.703215 0.566436
Si Si6 0.373967 0.969716 0.564728
Si Si7 0.797120 0.703758 0.066503
Si Si8 0.172180 0.965059 0.936493
O O1 0.040256 0.617679 0.250000
O O2 0.116998 0.578174 0.022284
O O3 0.948065 0.587779 0.023993
O O4 0.044582 0.659688 0.987573
O O5 0.147547 0.060775 0.250000
O O6 0.222216 0.081550 0.513570
O O7 0.131638 0.009127 0.490635
O O8 0.539462 0.562902 0.750000
O O9 0.610899 0.602727 0.520327
O O10 0.447829 0.563318 0.497097
O O11 0.593147 0.518303 0.515197
O O12 0.712048 0.877286 0.250000
O O13 0.737827 0.836529 0.513328
O O14 0.026482 0.750000 0.500000
O O15 0.990653 0.705814 0.750000
O O16 0.894816 0.697495 0.501781
O O17 0.375133 0.968748 0.750000
O O18 0.274102 0.961911 0.515390
O O19 0.803800 0.705519 0.250000
O O20 0.764014 0.750000 0.000000
O O21 0.169093 0.969704 0.750000
#
# Coordination Sequence:
#
# PCOD9437035 Si02
#       8
#     8   8   8   8   8   8   8   8
#     4  10  21  35  50  71 100 134 171 208 249 296
#     4  11  21  31  46  71 101 135 174 209 240 290
#     4   9  18  31  48  70  96 126 162 203 247 292
#     4  11  20  33  51  72 100 134 168 202 248 299
#     4  11  21  34  53  73  98 130 165 207 251 294
#     4   9  17  31  48  69  94 127 167 204 247 291
#     4  11  21  34  51  74 101 130 166 203 247 295
#     4  10  20  35  51  68  99 138 172 210 250 295
#
# _framework density 15.923495000000001
#
# number of rings (size 3 to 8) (size 9 to 14) (size 15 to 20)
#    0.000    1.750    2.500    4.125    0.000    2.500 
#    0.000    0.000    0.000    0.000    0.000    0.875 
#    0.000    6.000    0.000    0.000    0.000    0.000 
#
# Total GULP energy -357227.446665 kJ/mol
# GULP energy per Si atom -5581.678854 kJ/mol
# Density = 1.588725 g / cm^3
# Si number density = 15.923495 Si / 1000 Ang^3
#
#
#
# Elastic Constant Matrix: (Units=GPa)
#
#
# Indices 1 2 3 4 5 6 
#
# 1 59.2195 38.8760 21.4406 0.0000 0.0000 0.0000
# 2 38.8760 127.0425 41.8894 0.0000 0.0000 0.0000
# 3 21.4406 41.8894 58.9093 0.0000 0.0000 0.0000
# 4 0.0000 0.0000 0.0000 26.8326 0.0000 0.0000
# 5 0.0000 0.0000 0.0000 0.0000 18.5382 0.0000
# 6 0.0000 0.0000 0.0000 0.0000 0.0000 19.2180
#
#
#
# Elastic Compliance Matrix: (Units=1/GPa)
#
#
# Indices 1 2 3 4 5 6 
#
# 1 0.021894 -0.005320 -0.004186 0.000000 0.000000 0.000000
# 2 -0.005320 0.011575 -0.006294 0.000000 0.000000 0.000000
# 3 -0.004186 -0.006294 0.022975 0.000000 0.000000 0.000000
# 4 0.000000 0.000000 0.000000 0.037268 0.000000 0.000000
# 5 0.000000 0.000000 0.000000 0.000000 0.053943 0.000000
# 6 0.000000 0.000000 0.000000 0.000000 0.000000 0.052035
#
#
# Mechanical properties :
#
#
# Convention : Reuss Voigt Hill
#
# Bulk Modulus (GPa) = 40.25198 49.95372 45.10285
# Shear Modulus (GPa) = 20.87077 22.44877 21.65977
#
# Velocity S-wave (km/s) = 3.62427 3.75879 3.69214
# Velocity P-wave (km/s) = 6.54577 7.09064 6.82364
#
# Compressibility (1/GPa) = 0.02484350
#
# Stress axis : x y z
#
# Youngs Moduli (GPa) = 45.67460 86.39575 43.52631
#
# Poissons Ratio (x) = 0.45958 0.18220
# Poissons Ratio (y) = 0.24297 0.27397
# Poissons Ratio (z) = 0.19119 0.54381
#
# Static dielectric constant tensor:
#      x y z
#    x 1.523280 0.000000 0.000000 
#    y 0.000000 1.560520 0.000000 
#    z 0.000000 0.000000 1.534420 
# 
# From -- ./inp_files/6086.got.cif
#   From: 2010.05.17/outbox.cif.g08.bks.cpg/sg57_4_cif.got.tgz:6086.got - 2010.06.03 13:58:18.
