data_PCOD9437351
_publ_section_title
;
Structure prediction by ZEFSAII (Michael W. Deem and Ramdas Pophale) SiO2 
 PCOD9437351
Probable space group: P B C M
;
_chemical_formula_sum "Si O2"
_cell_formula_units_Z 64
_cell_length_a 11.213552
_cell_length_b 14.500089
_cell_length_c 17.639843
_cell_angle_alpha 90.000000
_cell_angle_beta 90.000000
_cell_angle_gamma 90.000000
_cell_volume 2868.194408
_symmetry_space_group_name_H-M "P B C M"
_symmetry_group_IT_number 57
_symmetry_cell_setting 'orthorhombic'
loop_
_space_group_symop_operation_xyz
x,y,z
-x,-y,1/2+z
x,1/2-y,-z
-x,1/2+y,1/2-z
-x,-y,-z
x,y,1/2-z
-x,1/2+y,z
x,1/2-y,1/2+z
loop_
_atom_site_type_symbol
_atom_site_label
_atom_site_fract_x
_atom_site_fract_y
_atom_site_fract_z
Si Si1 0.551925 0.635248 0.159562
Si Si2 0.543455 0.970498 0.417531
Si Si3 0.662168 0.353727 0.161987
Si Si4 0.677638 0.709554 0.583938
Si Si5 0.925812 0.807321 0.341378
Si Si6 0.831302 0.200793 0.157602
Si Si7 0.945486 0.020498 0.342841
Si Si8 0.205068 0.461594 0.837925
O O1 0.545806 0.636844 0.250000
O O2 0.451187 0.565467 0.129855
O O3 0.570398 0.737124 0.127573
O O4 0.676241 0.586773 0.132191
O O5 0.440335 0.906550 0.381701
O O6 0.653822 0.900282 0.417603
O O7 0.500000 0.000000 0.500000
O O8 0.625756 0.342229 0.250000
O O9 0.717273 0.259023 0.131159
O O10 0.770248 0.428700 0.162054
O O11 0.678565 0.750000 0.500000
O O12 0.802698 0.730087 0.624757
O O13 0.918388 0.802304 0.250000
O O14 0.046082 0.753708 0.363502
O O15 0.931226 0.914692 0.364454
O O16 0.824681 0.203292 0.250000
O O17 0.847605 0.095180 0.133315
O O18 0.948446 0.021560 0.250000
O O19 0.075201 0.054932 0.371008
O O20 0.199604 0.431772 0.750000
#
# Coordination Sequence:
#
# PCOD9437351 Si02
#       8
#     8   8   8   8   8   8   8   8
#     4  10  21  39  68  98 117 156 220 270 318 384
#     4  11  23  43  65  87 122 166 215 269 328 381
#     4   9  17  32  59  91 121 157 210 264 313 376
#     4  12  25  43  63  87 128 174 214 263 324 390
#     4  10  20  35  60  94 129 162 206 262 316 376
#     4   9  16  30  55  92 131 162 198 256 321 380
#     4   9  15  26  49  87 129 161 190 242 316 370
#     4   8  13  26  52  86 121 152 193 249 300 361
#
# _framework density 22.313690000000001
#
# number of rings (size 3 to 8) (size 9 to 14) (size 15 to 20)
#    0.000    2.250    2.500    2.250    0.000    4.000 
#    2.250    0.000    0.000    7.500    0.000    0.000 
#    0.000    0.000    0.000    0.000    0.000    0.000 
#
# Total GULP energy -357252.570552 kJ/mol
# GULP energy per Si atom -5582.071415 kJ/mol
# Density = 2.226290 g / cm^3
# Si number density = 22.313690 Si / 1000 Ang^3
#
#
#
# Elastic Constant Matrix: (Units=GPa)
#
#
# Indices 1 2 3 4 5 6 
#
# 1 65.0582 10.6326 11.7160 0.0000 0.0000 0.0000
# 2 10.6326 118.8736 16.1844 0.0000 0.0000 0.0000
# 3 11.7160 16.1844 52.5289 0.0000 0.0000 0.0000
# 4 0.0000 0.0000 0.0000 -1.3952 0.0000 0.0000
# 5 0.0000 0.0000 0.0000 0.0000 4.4572 0.0000
# 6 0.0000 0.0000 0.0000 0.0000 0.0000 36.1366
#
#
#
# Elastic Compliance Matrix: (Units=1/GPa)
#
#
# Indices 1 2 3 4 5 6 
#
# 1 0.016126 -0.000994 -0.003290 0.000000 0.000000 0.000000
# 2 -0.000994 0.008842 -0.002502 0.000000 0.000000 0.000000
# 3 -0.003290 -0.002502 0.020542 0.000000 0.000000 0.000000
# 4 0.000000 0.000000 0.000000 -0.716727 0.000000 0.000000
# 5 0.000000 0.000000 0.000000 0.000000 0.224358 0.000000
# 6 0.000000 0.000000 0.000000 0.000000 0.000000 0.027673
#
#
# Mechanical properties :
#
#
# Convention : Reuss Voigt Hill
#
# Bulk Modulus (GPa) = 31.31311 34.83630 33.07471
# Shear Modulus (GPa) = -12.65931 21.03488 4.18778
#
# Velocity S-wave (km/s) = -2.38446 3.07366 1.37144
# Velocity P-wave (km/s) = 2.54612 5.31436 4.16684
#
# Compressibility (1/GPa) = 0.03193550
#
# Stress axis : x y z
#
# Youngs Moduli (GPa) = 62.01195 113.09734 48.68071
#
# Poissons Ratio (x) = 0.11246 0.16018
# Poissons Ratio (y) = 0.06166 0.12182
# Poissons Ratio (z) = 0.20404 0.28302
#
# Static dielectric constant tensor:
#      x y z
#    x 1.840870 0.000000 0.000000 
#    y 0.000000 1.896810 0.000000 
#    z 0.000000 0.000000 1.746720 
# 
# From -- ./inp_files/22037.got.cif
#   From: 2010.05.17/outbox.cif.g08.bks.cpg/sg57_12_cif.got.tgz:22037.got - 2010.06.03 13:58:18.
