data_PCOD9437516
_publ_section_title
;
Structure prediction by ZEFSAII (Michael W. Deem and Ramdas Pophale) SiO2 
 PCOD9437516
Probable space group: P B C M
;
_chemical_formula_sum "Si O2"
_cell_formula_units_Z 56
_cell_length_a 22.158411
_cell_length_b 15.043842
_cell_length_c 8.500876
_cell_angle_alpha 90.000000
_cell_angle_beta 90.000000
_cell_angle_gamma 90.000000
_cell_volume 2833.746902
_symmetry_space_group_name_H-M "P B C M"
_symmetry_group_IT_number 57
_symmetry_cell_setting 'orthorhombic'
loop_
_space_group_symop_operation_xyz
x,y,z
-x,-y,1/2+z
x,1/2-y,-z
-x,1/2+y,1/2-z
-x,-y,-z
x,y,1/2-z
-x,1/2+y,z
x,1/2-y,1/2+z
loop_
_atom_site_type_symbol
_atom_site_label
_atom_site_fract_x
_atom_site_fract_y
_atom_site_fract_z
Si Si1 0.282560 0.025303 0.061881
Si Si2 0.654103 0.350306 0.440061
Si Si3 0.952445 0.849350 0.938784
Si Si4 0.847822 0.523822 0.561867
Si Si5 0.909874 0.348062 0.560622
Si Si6 0.389650 0.148424 0.939261
Si Si7 0.479162 0.648651 0.939615
O O1 0.283306 0.026185 0.250000
O O2 0.298575 0.924769 0.007494
O O3 0.216736 0.052279 0.003197
O O4 0.334980 0.090016 0.002079
O O5 0.663839 0.250000 0.500000
O O6 0.654731 0.346505 0.250000
O O7 0.586917 0.383791 0.491045
O O8 0.949811 0.851087 0.750000
O O9 0.021312 0.871897 0.987978
O O10 0.941022 0.750000 0.000000
O O11 0.902433 0.914127 0.007378
O O12 0.845451 0.524242 0.750000
O O13 0.864506 0.424218 0.506224
O O14 0.895738 0.250000 0.500000
O O15 0.909257 0.345880 0.750000
O O16 0.388115 0.149731 0.750000
O O17 0.455898 0.110943 0.991241
O O18 0.384828 0.250000 0.000000
O O19 0.479137 0.647292 0.750000
O O20 0.480244 0.750000 0.000000
#
# Coordination Sequence:
#
# PCOD9437516 Si02
#       7
#     8   8   8   8   8   8   8
#     4  11  24  39  54  78 111 149 190 227 269 324
#     4   9  19  36  57  80 109 143 181 227 276 327
#     4  10  20  37  61  89 116 144 179 222 273 325
#     4  11  23  39  57  81 113 149 188 228 269 318
#     4   9  20  37  60  88 116 145 180 223 271 323
#     4  10  20  36  58  82 109 141 179 227 279 331
#     4   8  15  30  53  80 106 135 174 221 276 330
#
# _framework density 19.761821999999999
#
# number of rings (size 3 to 8) (size 9 to 14) (size 15 to 20)
#    0.000    2.286    0.000    2.143    0.000    5.143 
#    0.000    5.714    0.000    0.000    0.000    0.000 
#    0.000    0.000    0.000    0.000    0.000    0.000 
#
# Total GULP energy -312499.875318 kJ/mol
# GULP energy per Si atom -5580.354916 kJ/mol
# Density = 1.971684 g / cm^3
# Si number density = 19.761822 Si / 1000 Ang^3
#
#
#
# Elastic Constant Matrix: (Units=GPa)
#
#
# Indices 1 2 3 4 5 6 
#
# 1 32.7641 1.8206 8.5037 0.0000 0.0000 0.0000
# 2 1.8206 33.8544 2.5393 0.0000 0.0000 0.0000
# 3 8.5037 2.5393 33.1180 0.0000 0.0000 0.0000
# 4 0.0000 0.0000 0.0000 26.9810 0.0000 0.0000
# 5 0.0000 0.0000 0.0000 0.0000 21.2865 0.0000
# 6 0.0000 0.0000 0.0000 0.0000 0.0000 22.4262
#
#
#
# Elastic Compliance Matrix: (Units=1/GPa)
#
#
# Indices 1 2 3 4 5 6 
#
# 1 0.032744 -0.001137 -0.008320 0.000000 0.000000 0.000000
# 2 -0.001137 0.029749 -0.001989 0.000000 0.000000 0.000000
# 3 -0.008320 -0.001989 0.032484 0.000000 0.000000 0.000000
# 4 0.000000 0.000000 0.000000 0.037063 0.000000 0.000000
# 5 0.000000 0.000000 0.000000 0.000000 0.046978 0.000000
# 6 0.000000 0.000000 0.000000 0.000000 0.000000 0.044591
#
#
# Mechanical properties :
#
#
# Convention : Reuss Voigt Hill
#
# Bulk Modulus (GPa) = 13.87273 13.94041 13.90657
# Shear Modulus (GPa) = 18.48232 19.93026 19.20629
#
# Velocity S-wave (km/s) = 3.06151 3.17917 3.12089
# Velocity P-wave (km/s) = 4.41954 4.53274 4.47650
#
# Compressibility (1/GPa) = 0.07208384
#
# Stress axis : x y z
#
# Youngs Moduli (GPa) = 30.54007 33.61510 30.78443
#
# Poissons Ratio (x) = 0.03821 0.25614
# Poissons Ratio (y) = 0.03472 0.06123
# Poissons Ratio (z) = 0.25411 0.06686
#
# Static dielectric constant tensor:
#      x y z
#    x 1.705700 0.000000 0.000000 
#    y 0.000000 1.671940 0.000000 
#    z 0.000000 0.000000 1.673750 
# 
# From -- ./inp_files/8152.got.cif
#   From: 2010.05.17/outbox.cif.g08.bks.cpg/sg57_5_cif.got.tgz:8152.got - 2010.06.03 13:58:18.
