data_PCOD9437096
_publ_section_title
;
Structure prediction by ZEFSAII (Michael W. Deem and Ramdas Pophale) SiO2 
 PCOD9437096
Probable space group: P B C M
;
_chemical_formula_sum "Si O2"
_cell_formula_units_Z 64
_cell_length_a 27.056614
_cell_length_b 15.076638
_cell_length_c 8.602892
_cell_angle_alpha 90.000000
_cell_angle_beta 90.000000
_cell_angle_gamma 90.000000
_cell_volume 3509.315576
_symmetry_space_group_name_H-M "P B C M"
_symmetry_group_IT_number 57
_symmetry_cell_setting 'orthorhombic'
loop_
_space_group_symop_operation_xyz
x,y,z
-x,-y,1/2+z
x,1/2-y,-z
-x,1/2+y,1/2-z
-x,-y,-z
x,y,1/2-z
-x,1/2+y,z
x,1/2-y,1/2+z
loop_
_atom_site_type_symbol
_atom_site_label
_atom_site_fract_x
_atom_site_fract_y
_atom_site_fract_z
Si Si1 0.499861 0.649376 0.436426
Si Si2 0.055262 0.001176 0.063644
Si Si3 0.237566 0.151559 0.562798
Si Si4 0.311199 0.998859 0.562085
Si Si5 0.874086 0.849068 0.063396
Si Si6 0.870631 0.348594 0.062637
Si Si7 0.240882 0.651129 0.563702
Si Si8 0.425010 0.493916 0.438001
O O1 0.497648 0.750000 0.500000
O O2 0.500893 0.654343 0.250000
O O3 0.454028 0.584534 0.482689
O O4 0.546777 0.591912 0.494896
O O5 0.053766 0.000283 0.250000
O O6 0.087557 0.916630 0.009491
O O7 0.085298 0.086443 0.006485
O O8 0.000000 0.000000 0.000000
O O9 0.245831 0.250000 0.500000
O O10 0.238599 0.154561 0.750000
O O11 0.181889 0.122995 0.517086
O O12 0.279214 0.083469 0.508956
O O13 0.310938 0.997748 0.750000
O O14 0.282104 0.913482 0.502545
O O15 0.368084 0.002643 0.511830
O O16 0.877114 0.849267 0.250000
O O17 0.880899 0.750000 0.000000
O O18 0.871406 0.345844 0.250000
O O19 0.814969 0.377025 0.015618
O O20 0.878967 0.250000 0.000000
O O21 0.247927 0.750000 0.500000
O O22 0.242946 0.651699 0.750000
O O23 0.426986 0.488075 0.250000
#
# Coordination Sequence:
#
# PCOD9437096 Si02
#       8
#     8   8   8   8   8   8   8   8
#     4  10  20  36  58  79 103 140 183 227 272 318
#     4  11  23  38  55  79 108 138 175 221 270 321
#     4   9  19  34  54  79 108 141 177 216 260 315
#     4  10  20  35  54  80 114 145 174 217 267 313
#     4  10  20  36  57  80 105 139 179 218 263 315
#     4   9  20  37  57  79 105 138 177 219 263 313
#     4  10  20  35  55  80 108 141 179 217 260 314
#     4   9  20  37  55  79 110 142 180 223 267 317
#
# _framework density 18.237174
#
# number of rings (size 3 to 8) (size 9 to 14) (size 15 to 20)
#    0.000    2.250    0.000    2.250    0.000    5.000 
#    0.000    3.750    0.000    0.000    0.000    0.000 
#    0.000    0.000    0.000    0.000    0.000    0.000 
#
# Total GULP energy -357225.975474 kJ/mol
# GULP energy per Si atom -5581.655867 kJ/mol
# Density = 1.819567 g / cm^3
# Si number density = 18.237174 Si / 1000 Ang^3
#
#
#
# Elastic Constant Matrix: (Units=GPa)
#
#
# Indices 1 2 3 4 5 6 
#
# 1 201.5734 114.6968 42.5284 0.0000 0.0000 0.0000
# 2 114.6968 137.8588 29.3109 0.0000 0.0000 0.0000
# 3 42.5284 29.3109 25.5544 0.0000 0.0000 0.0000
# 4 0.0000 0.0000 0.0000 32.1243 0.0000 0.0000
# 5 0.0000 0.0000 0.0000 0.0000 33.0942 0.0000
# 6 0.0000 0.0000 0.0000 0.0000 0.0000 131.9145
#
#
#
# Elastic Compliance Matrix: (Units=1/GPa)
#
#
# Indices 1 2 3 4 5 6 
#
# 1 0.011222 -0.007096 -0.010536 0.000000 0.000000 0.000000
# 2 -0.007096 0.014081 -0.004341 0.000000 0.000000 0.000000
# 3 -0.010536 -0.004341 0.061646 0.000000 0.000000 0.000000
# 4 0.000000 0.000000 0.000000 0.031129 0.000000 0.000000
# 5 0.000000 0.000000 0.000000 0.000000 0.030217 0.000000
# 6 0.000000 0.000000 0.000000 0.000000 0.000000 0.007581
#
#
# Mechanical properties :
#
#
# Convention : Reuss Voigt Hill
#
# Bulk Modulus (GPa) = 23.25486 82.00654 52.63070
# Shear Modulus (GPa) = 23.34758 51.32330 37.33544
#
# Velocity S-wave (km/s) = 3.58190 5.31067 4.52953
# Velocity P-wave (km/s) = 5.46678 9.09223 7.50181
#
# Compressibility (1/GPa) = 0.04300176
#
# Stress axis : x y z
#
# Youngs Moduli (GPa) = 89.11316 71.01951 16.22170
#
# Poissons Ratio (x) = 0.50397 0.17092
# Poissons Ratio (y) = 0.63236 0.07042
# Poissons Ratio (z) = 0.93891 0.30828
#
# Static dielectric constant tensor:
#      x y z
#    x 1.622240 0.000000 0.000000 
#    y 0.000000 1.594660 0.000000 
#    z 0.000000 0.000000 1.606310 
# 
# From -- ./inp_files/9441.got.cif
#   From: 2010.05.17/outbox.cif.g08.bks.cpg/sg57_5_cif.got.tgz:9441.got - 2010.06.03 13:58:18.
