data_PCOD9437346
_publ_section_title
;
Structure prediction by ZEFSAII (Michael W. Deem and Ramdas Pophale) SiO2 
 PCOD9437346
Probable space group: P B C M
;
_chemical_formula_sum "Si O2"
_cell_formula_units_Z 64
_cell_length_a 11.779777
_cell_length_b 18.266782
_cell_length_c 15.422333
_cell_angle_alpha 90.000000
_cell_angle_beta 90.000000
_cell_angle_gamma 90.000000
_cell_volume 3318.556308
_symmetry_space_group_name_H-M "P B C M"
_symmetry_group_IT_number 57
_symmetry_cell_setting 'orthorhombic'
loop_
_space_group_symop_operation_xyz
x,y,z
-x,-y,1/2+z
x,1/2-y,-z
-x,1/2+y,1/2-z
-x,-y,-z
x,y,1/2-z
-x,1/2+y,z
x,1/2-y,1/2+z
loop_
_atom_site_type_symbol
_atom_site_label
_atom_site_fract_x
_atom_site_fract_y
_atom_site_fract_z
Si Si1 0.159891 0.180916 0.558966
Si Si2 0.070052 0.972303 0.844600
Si Si3 0.207831 0.929574 0.017938
Si Si4 0.835723 0.583485 0.100921
Si Si5 0.605821 0.659469 0.153267
Si Si6 0.392156 0.335024 0.150120
Si Si7 0.039166 0.634319 0.849132
Si Si8 0.530188 0.414240 0.002358
O O1 0.193174 0.250000 0.500000
O O2 0.126969 0.120742 0.488509
O O3 0.265945 0.152119 0.613381
O O4 0.052640 0.194396 0.620594
O O5 0.125649 0.961717 0.750000
O O6 0.142582 0.948450 0.928204
O O7 0.950423 0.929060 0.846659
O O8 0.030660 0.057217 0.850928
O O9 0.334918 0.904455 0.999054
O O10 0.137131 0.874469 0.079339
O O11 0.213562 0.004287 0.074687
O O12 0.735995 0.632301 0.141496
O O13 0.568928 0.638210 0.250000
O O14 0.595543 0.747010 0.145269
O O15 0.532384 0.622920 0.078589
O O16 0.401963 0.357435 0.250000
O O17 0.478951 0.376952 0.088403
O O18 0.078239 0.645142 0.750000
O O19 0.500000 0.500000 0.000000
#
# Coordination Sequence:
#
# PCOD9437346 Si02
#       8
#     8   8   8   8   8   8   8   8
#     4  12  19  35  63  89 122 159 197 251 310 365
#     4  10  20  35  60  90 122 156 192 242 306 371
#     4  11  21  38  62  85 122 161 203 247 310 367
#     4  11  18  38  62  90 121 152 195 248 311 371
#     4  11  23  41  65  91 120 160 210 262 317 373
#     4  11  24  41  63  91 123 164 210 261 316 370
#     4  10  21  37  59  89 121 157 197 243 303 372
#     4  12  24  41  61  90 125 165 210 262 310 368
#
# _framework density 19.285495999999998
#
# number of rings (size 3 to 8) (size 9 to 14) (size 15 to 20)
#    0.000    1.000    6.250    1.875    0.000    2.000 
#    0.000    1.250    0.000    0.000    0.000    0.000 
#    0.000    0.000    0.000    0.000    0.000    0.000 
#
# Total GULP energy -357358.073737 kJ/mol
# GULP energy per Si atom -5583.719902 kJ/mol
# Density = 1.924160 g / cm^3
# Si number density = 19.285496 Si / 1000 Ang^3
#
#
#
# Elastic Constant Matrix: (Units=GPa)
#
#
# Indices 1 2 3 4 5 6 
#
# 1 108.7834 11.4243 53.8254 0.0000 0.0000 0.0000
# 2 11.4243 26.3052 22.3977 0.0000 0.0000 0.0000
# 3 53.8254 22.3977 162.4497 0.0000 0.0000 0.0000
# 4 0.0000 0.0000 0.0000 12.3540 0.0000 0.0000
# 5 0.0000 0.0000 0.0000 0.0000 6.6336 0.0000
# 6 0.0000 0.0000 0.0000 0.0000 0.0000 25.3852
#
#
#
# Elastic Compliance Matrix: (Units=1/GPa)
#
#
# Indices 1 2 3 4 5 6 
#
# 1 0.011079 -0.001910 -0.003408 0.000000 0.000000 0.000000
# 2 -0.001910 0.043401 -0.005351 0.000000 0.000000 0.000000
# 3 -0.003408 -0.005351 0.008023 0.000000 0.000000 0.000000
# 4 0.000000 0.000000 0.000000 0.080945 0.000000 0.000000
# 5 0.000000 0.000000 0.000000 0.000000 0.150747 0.000000
# 6 0.000000 0.000000 0.000000 0.000000 0.000000 0.039393
#
#
# Mechanical properties :
#
#
# Convention : Reuss Voigt Hill
#
# Bulk Modulus (GPa) = 24.29235 52.53700 38.41468
# Shear Modulus (GPa) = 13.56308 22.86730 18.21519
#
# Velocity S-wave (km/s) = 2.65482 3.44717 3.07661
# Velocity P-wave (km/s) = 4.69265 6.56847 5.70814
#
# Compressibility (1/GPa) = 0.04116522
#
# Stress axis : x y z
#
# Youngs Moduli (GPa) = 90.25890 23.04094 124.64850
#
# Poissons Ratio (x) = 0.04401 0.42475
# Poissons Ratio (y) = 0.17242 0.66699
# Poissons Ratio (z) = 0.30756 0.12329
#
# Static dielectric constant tensor:
#      x y z
#    x 1.610290 0.000000 0.000000 
#    y 0.000000 1.691960 0.000000 
#    z 0.000000 0.000000 1.691430 
# 
# From -- ./inp_files/18001.got.cif
#   From: 2010.05.17/outbox.cif.g08.bks.cpg/sg57_10_cif.got.tgz:18001.got - 2010.06.03 13:58:18.
