data_PCOD9437845
_publ_section_title
;
Structure prediction by ZEFSAII (Michael W. Deem and Ramdas Pophale) SiO2 
 PCOD9437845
Probable space group: P B C M
;
_chemical_formula_sum "Si O2"
_cell_formula_units_Z 64
_cell_length_a 13.060541
_cell_length_b 17.952491
_cell_length_c 14.070613
_cell_angle_alpha 90.000000
_cell_angle_beta 90.000000
_cell_angle_gamma 90.000000
_cell_volume 3299.126003
_symmetry_space_group_name_H-M "P B C M"
_symmetry_group_IT_number 57
_symmetry_cell_setting 'orthorhombic'
loop_
_space_group_symop_operation_xyz
x,y,z
-x,-y,1/2+z
x,1/2-y,-z
-x,1/2+y,1/2-z
-x,-y,-z
x,y,1/2-z
-x,1/2+y,z
x,1/2-y,1/2+z
loop_
_atom_site_type_symbol
_atom_site_label
_atom_site_fract_x
_atom_site_fract_y
_atom_site_fract_z
Si Si1 0.422449 0.092671 0.861793
Si Si2 0.897165 0.837189 0.515638
Si Si3 0.813374 0.556318 0.862966
Si Si4 0.515312 0.075047 0.361507
Si Si5 0.720089 0.592349 0.360395
Si Si6 0.923170 0.066843 0.473067
Si Si7 0.593490 0.334479 0.029079
Si Si8 0.770893 0.416669 0.138702
O O1 0.427589 0.110539 0.750000
O O2 0.304455 0.076806 0.885979
O O3 0.483138 0.153946 0.920888
O O4 0.479483 0.013689 0.877258
O O5 0.901060 0.750000 0.500000
O O6 0.881097 0.881778 0.416577
O O7 0.799342 0.861524 0.577547
O O8 0.001315 0.868795 0.562965
O O9 0.826491 0.557807 0.750000
O O10 0.844107 0.474790 0.902976
O O11 0.539047 0.087494 0.250000
O O12 0.399900 0.102366 0.381211
O O13 0.590246 0.115834 0.433713
O O14 0.735615 0.611015 0.250000
O O15 0.743075 0.504298 0.371671
O O16 0.864252 0.094848 0.566363
O O17 0.000000 0.000000 0.500000
O O18 0.677188 0.367009 0.101376
O O19 0.612233 0.250000 0.000000
O O20 0.792252 0.403081 0.250000
#
# Coordination Sequence:
#
# PCOD9437845 Si02
#       8
#     8   8   8   8   8   8   8   8
#     4  10  20  37  61  88 118 163 212 258 306 368
#     4  11  24  41  60  91 131 162 203 264 332 393
#     4  10  21  37  61  92 126 163 210 263 318 375
#     4  10  21  36  59  89 124 165 213 255 301 368
#     4  10  20  37  64  95 120 161 216 265 304 362
#     4  10  21  39  63  93 115 158 210 265 319 381
#     4  12  25  37  59  93 134 172 206 256 318 377
#     4  11  22  41  68  93 120 162 217 264 305 372
#
# _framework density 19.399077999999999
#
# number of rings (size 3 to 8) (size 9 to 14) (size 15 to 20)
#    0.000    1.500    3.750    2.250    0.000    6.500 
#    0.000    2.500    0.000    3.000    0.000    0.000 
#    0.000    0.000    0.000    0.000    0.000    0.000 
#
# Total GULP energy -357398.425734 kJ/mol
# GULP energy per Si atom -5584.350402 kJ/mol
# Density = 1.935492 g / cm^3
# Si number density = 19.399078 Si / 1000 Ang^3
#
#
#
# Elastic Constant Matrix: (Units=GPa)
#
#
# Indices 1 2 3 4 5 6 
#
# 1 73.4920 24.9535 28.5426 0.0000 0.0000 0.0000
# 2 24.9535 95.5623 26.2891 0.0000 0.0000 0.0000
# 3 28.5426 26.2891 66.7380 0.0000 0.0000 0.0000
# 4 0.0000 0.0000 0.0000 9.6265 0.0000 0.0000
# 5 0.0000 0.0000 0.0000 0.0000 23.3980 0.0000
# 6 0.0000 0.0000 0.0000 0.0000 0.0000 18.3851
#
#
#
# Elastic Compliance Matrix: (Units=1/GPa)
#
#
# Indices 1 2 3 4 5 6 
#
# 1 0.016927 -0.002724 -0.006166 0.000000 0.000000 0.000000
# 2 -0.002724 0.012174 -0.003631 0.000000 0.000000 0.000000
# 3 -0.006166 -0.003631 0.019051 0.000000 0.000000 0.000000
# 4 0.000000 0.000000 0.000000 0.103879 0.000000 0.000000
# 5 0.000000 0.000000 0.000000 0.000000 0.042739 0.000000
# 6 0.000000 0.000000 0.000000 0.000000 0.000000 0.054392
#
#
# Mechanical properties :
#
#
# Convention : Reuss Voigt Hill
#
# Bulk Modulus (GPa) = 43.26961 43.92919 43.59940
# Shear Modulus (GPa) = 17.73631 20.68240 19.20936
#
# Velocity S-wave (km/s) = 3.02700 3.26874 3.15019
# Velocity P-wave (km/s) = 5.87966 6.07786 5.97958
#
# Compressibility (1/GPa) = 0.02311091
#
# Stress axis : x y z
#
# Youngs Moduli (GPa) = 59.07888 82.13948 52.48945
#
# Poissons Ratio (x) = 0.22371 0.32367
# Poissons Ratio (y) = 0.16090 0.19058
# Poissons Ratio (z) = 0.36430 0.29824
#
# Static dielectric constant tensor:
#      x y z
#    x 1.736690 0.000000 0.000000 
#    y 0.000000 1.647320 0.000000 
#    z 0.000000 0.000000 1.696100 
# 
# From -- ./inp_files/17959.got.cif
#   From: 2010.05.17/outbox.cif.g08.bks.cpg/sg57_9_cif.got.tgz:17959.got - 2010.06.03 13:58:18.
