data_PCOD9437440
_publ_section_title
;
Structure prediction by ZEFSAII (Michael W. Deem and Ramdas Pophale) SiO2 
 PCOD9437440
Probable space group: P B C M
;
_chemical_formula_sum "Si O2"
_cell_formula_units_Z 64
_cell_length_a 19.167658
_cell_length_b 8.443230
_cell_length_c 18.698462
_cell_angle_alpha 90.000000
_cell_angle_beta 90.000000
_cell_angle_gamma 90.000000
_cell_volume 3026.101967
_symmetry_space_group_name_H-M "P B C M"
_symmetry_group_IT_number 57
_symmetry_cell_setting 'orthorhombic'
loop_
_space_group_symop_operation_xyz
x,y,z
-x,-y,1/2+z
x,1/2-y,-z
-x,1/2+y,1/2-z
-x,-y,-z
x,y,1/2-z
-x,1/2+y,z
x,1/2-y,1/2+z
loop_
_atom_site_type_symbol
_atom_site_label
_atom_site_fract_x
_atom_site_fract_y
_atom_site_fract_z
Si Si1 0.729666 0.385305 0.666977
Si Si2 0.339417 0.867892 0.431865
Si Si3 0.033592 0.260764 0.165870
Si Si4 0.161522 0.093211 0.589920
Si Si5 0.790391 0.935411 0.931232
Si Si6 0.897014 0.414806 0.166972
Si Si7 0.416294 0.025324 0.665757
Si Si8 0.485377 0.731913 0.917086
O O1 0.743470 0.361398 0.750000
O O2 0.695547 0.230081 0.632384
O O3 0.797772 0.452848 0.628829
O O4 0.666952 0.513550 0.659049
O O5 0.336559 0.750000 0.500000
O O6 0.420962 0.895409 0.417201
O O7 0.289130 0.015478 0.445488
O O8 0.038425 0.306787 0.250000
O O9 0.084951 0.370978 0.119951
O O10 0.953171 0.283312 0.144635
O O11 0.060901 0.081641 0.160376
O O12 0.167173 0.064397 0.505490
O O13 0.202063 0.260721 0.601695
O O14 0.829203 0.060649 0.880499
O O15 0.878546 0.392281 0.250000
O O16 0.433099 0.005662 0.750000
O O17 0.451475 0.179449 0.632594
O O18 0.448997 0.885237 0.617462
O O19 0.505708 0.750000 0.000000
#
# Coordination Sequence:
#
# PCOD9437440 Si02
#       8
#     8   8   8   8   8   8   8   8
#     4  10  21  37  57  82 112 148 186 228 281 336
#     4  10  20  38  58  81 115 147 185 233 279 329
#     4   9  18  34  54  76 108 144 182 229 276 330
#     4  10  20  36  56  82 111 147 187 229 280 335
#     4  10  21  36  56  81 112 146 184 232 281 327
#     4   9  19  35  53  77 107 141 182 228 276 330
#     4  10  21  38  57  83 116 148 185 237 286 333
#     4  10  21  37  59  84 112 149 193 230 280 341
#
# _framework density 21.149321
#
# number of rings (size 3 to 8) (size 9 to 14) (size 15 to 20)
#    0.000    2.250    1.250    1.125    0.000    4.000 
#    2.250    1.250    0.000    0.000    0.000    0.000 
#    0.000    0.000    0.000    0.000    0.000    0.000 
#
# Total GULP energy -357416.261503 kJ/mol
# GULP energy per Si atom -5584.629086 kJ/mol
# Density = 2.110118 g / cm^3
# Si number density = 21.149321 Si / 1000 Ang^3
#
#
#
# Elastic Constant Matrix: (Units=GPa)
#
#
# Indices 1 2 3 4 5 6 
#
# 1 63.4808 9.1375 12.2356 0.0000 0.0000 0.0000
# 2 9.1375 21.1320 2.6886 0.0000 0.0000 0.0000
# 3 12.2356 2.6886 71.4673 0.0000 0.0000 0.0000
# 4 0.0000 0.0000 0.0000 17.1366 0.0000 0.0000
# 5 0.0000 0.0000 0.0000 0.0000 21.6045 0.0000
# 6 0.0000 0.0000 0.0000 0.0000 0.0000 29.0483
#
#
#
# Elastic Compliance Matrix: (Units=1/GPa)
#
#
# Indices 1 2 3 4 5 6 
#
# 1 0.017299 -0.007138 -0.002693 0.000000 0.000000 0.000000
# 2 -0.007138 0.050494 -0.000678 0.000000 0.000000 0.000000
# 3 -0.002693 -0.000678 0.014479 0.000000 0.000000 0.000000
# 4 0.000000 0.000000 0.000000 0.058355 0.000000 0.000000
# 5 0.000000 0.000000 0.000000 0.000000 0.046287 0.000000
# 6 0.000000 0.000000 0.000000 0.000000 0.000000 0.034425
#
#
# Mechanical properties :
#
#
# Convention : Reuss Voigt Hill
#
# Bulk Modulus (GPa) = 16.32503 22.68926 19.50714
# Shear Modulus (GPa) = 19.02771 22.35909 20.69340
#
# Velocity S-wave (km/s) = 3.00273 3.25499 3.13140
# Velocity P-wave (km/s) = 4.44494 4.98779 4.72417
#
# Compressibility (1/GPa) = 0.06125565
#
# Stress axis : x y z
#
# Youngs Moduli (GPa) = 57.80582 19.80430 69.06555
#
# Poissons Ratio (x) = 0.14135 0.18601
# Poissons Ratio (y) = 0.41259 0.04680
# Poissons Ratio (z) = 0.15568 0.01342
#
# Static dielectric constant tensor:
#      x y z
#    x 1.752900 0.000000 0.000000 
#    y 0.000000 1.799630 0.000000 
#    z 0.000000 0.000000 1.724340 
# 
# From -- ./inp_files/25647.got.cif
#   From: 2010.05.17/outbox.cif.g08.bks.cpg/sg57_13_cif.got.tgz:25647.got - 2010.06.03 13:58:18.
