data_PCOD9437063
_publ_section_title
;
Structure prediction by ZEFSAII (Michael W. Deem and Ramdas Pophale) SiO2 
 PCOD9437063
Probable space group: P B C M
;
_chemical_formula_sum "Si O2"
_cell_formula_units_Z 40
_cell_length_a 26.291902
_cell_length_b 9.719127
_cell_length_c 8.579429
_cell_angle_alpha 90.000000
_cell_angle_beta 90.000000
_cell_angle_gamma 90.000000
_cell_volume 2192.338681
_symmetry_space_group_name_H-M "P B C M"
_symmetry_group_IT_number 57
_symmetry_cell_setting 'orthorhombic'
loop_
_space_group_symop_operation_xyz
x,y,z
-x,-y,1/2+z
x,1/2-y,-z
-x,1/2+y,1/2-z
-x,-y,-z
x,y,1/2-z
-x,1/2+y,z
x,1/2-y,1/2+z
loop_
_atom_site_type_symbol
_atom_site_label
_atom_site_fract_x
_atom_site_fract_y
_atom_site_fract_z
Si Si1 0.751367 0.598290 0.562190
Si Si2 0.634763 0.904385 0.437784
Si Si3 0.454111 0.905879 0.436394
Si Si4 0.841923 0.096115 0.061854
Si Si5 0.044492 0.904625 0.936736
O O1 0.761807 0.750000 0.500000
O O2 0.752648 0.600378 0.750000
O O3 0.693304 0.562795 0.517825
O O4 0.795190 0.496235 0.505685
O O5 0.623284 0.750000 0.500000
O O6 0.630383 0.903385 0.250000
O O7 0.596836 0.016415 0.507882
O O8 0.457009 0.750000 0.500000
O O9 0.456337 0.901762 0.250000
O O10 0.500000 0.000000 0.500000
O O11 0.840521 0.098764 0.250000
O O12 0.898590 0.046520 0.016164
O O13 0.836337 0.250000 0.000000
O O14 0.042354 0.901834 0.750000
O O15 0.038613 0.750000 0.000000
O O16 0.000000 0.000000 0.000000
#
# Coordination Sequence:
#
# PCOD9437063 Si02
#       5
#     8   8   8   8   8
#     4   9  19  35  55  80 110 142 180 221 265 317
#     4  10  20  37  59  84 114 148 184 225 271 321
#     4  12  25  42  62  86 115 148 186 227 272 323
#     4   9  19  35  53  76 105 139 177 220 267 320
#     4  10  20  35  54  76 105 139 179 223 272 325
#
# _framework density 18.245355
#
# number of rings (size 3 to 8) (size 9 to 14) (size 15 to 20)
#    0.000    2.000    0.000    3.600    0.000    4.000 
#    0.000    4.000    0.000    0.000    0.000    0.000 
#    0.000    0.000    0.000    0.000    0.000    0.000 
#
# Total GULP energy -223318.680145 kJ/mol
# GULP energy per Si atom -5582.967004 kJ/mol
# Density = 1.820383 g / cm^3
# Si number density = 18.245355 Si / 1000 Ang^3
#
#
#
# Elastic Constant Matrix: (Units=GPa)
#
#
# Indices 1 2 3 4 5 6 
#
# 1 174.1139 125.7085 53.3729 0.0000 0.0000 0.0000
# 2 125.7085 134.2930 48.8250 0.0000 0.0000 0.0000
# 3 53.3729 48.8250 72.9649 0.0000 0.0000 0.0000
# 4 0.0000 0.0000 0.0000 35.3522 0.0000 0.0000
# 5 0.0000 0.0000 0.0000 0.0000 23.9825 0.0000
# 6 0.0000 0.0000 0.0000 0.0000 0.0000 43.8481
#
#
#
# Elastic Compliance Matrix: (Units=1/GPa)
#
#
# Indices 1 2 3 4 5 6 
#
# 1 0.018058 -0.015992 -0.002508 0.000000 0.000000 0.000000
# 2 -0.015992 0.024003 -0.004364 0.000000 0.000000 0.000000
# 3 -0.002508 -0.004364 0.018460 0.000000 0.000000 0.000000
# 4 0.000000 0.000000 0.000000 0.028287 0.000000 0.000000
# 5 0.000000 0.000000 0.000000 0.000000 0.041697 0.000000
# 6 0.000000 0.000000 0.000000 0.000000 0.000000 0.022806
#
#
# Mechanical properties :
#
#
# Convention : Reuss Voigt Hill
#
# Bulk Modulus (GPa) = 67.59889 93.02051 80.30970
# Shear Modulus (GPa) = 24.51344 30.86757 27.69051
#
# Velocity S-wave (km/s) = 3.66942 4.11762 3.89996
# Velocity P-wave (km/s) = 7.42180 8.58488 8.02444
#
# Compressibility (1/GPa) = 0.01479314
#
# Stress axis : x y z
#
# Youngs Moduli (GPa) = 55.37592 41.66200 54.17152
#
# Poissons Ratio (x) = 0.66626 0.13588
# Poissons Ratio (y) = 0.88558 0.23638
# Poissons Ratio (z) = 0.13890 0.18179
#
# Static dielectric constant tensor:
#      x y z
#    x 1.650020 0.000000 0.000000 
#    y 0.000000 1.576930 0.000000 
#    z 0.000000 0.000000 1.616050 
# 
# From -- ./inp_files/8857.got.cif
#   From: 2010.05.17/outbox.cif.g08.bks.cpg/sg57_5_cif.got.tgz:8857.got - 2010.06.03 13:58:18.
