data_PCOD9437227
_publ_section_title
;
Structure prediction by ZEFSAII (Michael W. Deem and Ramdas Pophale) SiO2 
 PCOD9437227
Probable space group: P B C M
;
_chemical_formula_sum "Si O2"
_cell_formula_units_Z 64
_cell_length_a 23.534649
_cell_length_b 16.255901
_cell_length_c 8.578179
_cell_angle_alpha 90.000000
_cell_angle_beta 90.000000
_cell_angle_gamma 90.000000
_cell_volume 3281.813337
_symmetry_space_group_name_H-M "P B C M"
_symmetry_group_IT_number 57
_symmetry_cell_setting 'orthorhombic'
loop_
_space_group_symop_operation_xyz
x,y,z
-x,-y,1/2+z
x,1/2-y,-z
-x,1/2+y,1/2-z
-x,-y,-z
x,y,1/2-z
-x,1/2+y,z
x,1/2-y,1/2+z
loop_
_atom_site_type_symbol
_atom_site_label
_atom_site_fract_x
_atom_site_fract_y
_atom_site_fract_z
Si Si1 0.369444 0.927804 0.433016
Si Si2 0.051508 0.838139 0.062587
Si Si3 0.311396 0.336544 0.436930
Si Si4 0.866865 0.010576 0.561585
Si Si5 0.572001 0.587339 0.933983
Si Si6 0.466262 0.666058 0.067230
Si Si7 0.258356 0.989452 0.936760
Si Si8 0.923195 0.838239 0.937132
O O1 0.373076 0.945740 0.250000
O O2 0.407988 0.850364 0.475462
O O3 0.304366 0.928669 0.486609
O O4 0.399742 0.999602 0.532389
O O5 0.048777 0.834621 0.250000
O O6 0.089720 0.916443 0.016991
O O7 0.073396 0.750000 0.000000
O O8 0.987831 0.847627 0.996766
O O9 0.289927 0.250000 0.500000
O O10 0.309990 0.334937 0.250000
O O11 0.377301 0.350812 0.483184
O O12 0.276756 0.417650 0.487175
O O13 0.863065 0.010693 0.750000
O O14 0.805290 0.026381 0.490284
O O15 0.889002 0.919854 0.513593
O O16 0.560545 0.596748 0.750000
O O17 0.514480 0.599490 0.028111
O O18 0.455972 0.669744 0.250000
O O19 0.491487 0.750000 0.000000
O O20 0.263434 0.985029 0.750000
O O21 0.923510 0.834761 0.750000
O O22 0.901601 0.750000 0.000000
#
# Coordination Sequence:
#
# PCOD9437227 Si02
#       8
#     8   8   8   8   8   8   8   8
#     4  11  22  39  60  80 106 143 182 224 275 329
#     4  10  20  36  58  85 116 148 188 234 283 335
#     4   9  19  33  51  76 107 141 178 221 270 325
#     4  10  22  38  57  83 114 150 191 236 282 334
#     4  10  20  36  56  82 112 142 180 223 271 331
#     4  12  24  38  56  82 112 141 177 223 276 332
#     4  10  22  39  57  79 107 143 188 234 276 328
#     4  10  20  35  56  85 121 156 190 227 275 332
#
# _framework density 19.501415000000001
#
# number of rings (size 3 to 8) (size 9 to 14) (size 15 to 20)
#    0.000    1.750    0.000    6.375    0.000    6.500 
#    0.000    3.125    0.000    1.500    0.000    0.000 
#    0.000    0.000    0.000    0.000    0.000    0.000 
#
# Total GULP energy -357431.627316 kJ/mol
# GULP energy per Si atom -5584.869177 kJ/mol
# Density = 1.945703 g / cm^3
# Si number density = 19.501415 Si / 1000 Ang^3
#
#
#
# Elastic Constant Matrix: (Units=GPa)
#
#
# Indices 1 2 3 4 5 6 
#
# 1 80.3561 19.5988 16.1692 0.0000 0.0000 0.0000
# 2 19.5988 55.4237 3.0814 0.0000 0.0000 0.0000
# 3 16.1692 3.0814 41.3638 0.0000 0.0000 0.0000
# 4 0.0000 0.0000 0.0000 26.8493 0.0000 0.0000
# 5 0.0000 0.0000 0.0000 0.0000 27.0982 0.0000
# 6 0.0000 0.0000 0.0000 0.0000 0.0000 14.2656
#
#
#
# Elastic Compliance Matrix: (Units=1/GPa)
#
#
# Indices 1 2 3 4 5 6 
#
# 1 0.014726 -0.004908 -0.005391 0.000000 0.000000 0.000000
# 2 -0.004908 0.019753 0.000447 0.000000 0.000000 0.000000
# 3 -0.005391 0.000447 0.026250 0.000000 0.000000 0.000000
# 4 0.000000 0.000000 0.000000 0.037245 0.000000 0.000000
# 5 0.000000 0.000000 0.000000 0.000000 0.036903 0.000000
# 6 0.000000 0.000000 0.000000 0.000000 0.000000 0.070099
#
#
# Mechanical properties :
#
#
# Convention : Reuss Voigt Hill
#
# Bulk Modulus (GPa) = 24.37483 28.31584 26.34533
# Shear Modulus (GPa) = 20.97710 22.86223 21.91966
#
# Velocity S-wave (km/s) = 3.28330 3.42766 3.35625
# Velocity P-wave (km/s) = 5.18648 5.49695 5.34397
#
# Compressibility (1/GPa) = 0.04102594
#
# Stress axis : x y z
#
# Youngs Moduli (GPa) = 67.90539 50.62409 38.09554
#
# Poissons Ratio (x) = 0.24845 0.20537
# Poissons Ratio (y) = 0.33326 -0.01703
# Poissons Ratio (z) = 0.36608 -0.02262
#
# Static dielectric constant tensor:
#      x y z
#    x 1.677190 0.000000 0.000000 
#    y 0.000000 1.773490 0.000000 
#    z 0.000000 0.000000 1.647100 
# 
# From -- ./inp_files/9435.got.cif
#   From: 2010.05.17/outbox.cif.g08.bks.cpg/sg57_5_cif.got.tgz:9435.got - 2010.06.03 13:58:18.
