data_PCOD9437738
_publ_section_title
;
Structure prediction by ZEFSAII (Michael W. Deem and Ramdas Pophale) SiO2 
 PCOD9437738
Probable space group: P B C M
;
_chemical_formula_sum "Si O2"
_cell_formula_units_Z 48
_cell_length_a 31.759039
_cell_length_b 9.559512
_cell_length_c 8.528434
_cell_angle_alpha 90.000000
_cell_angle_beta 90.000000
_cell_angle_gamma 90.000000
_cell_volume 2589.240361
_symmetry_space_group_name_H-M "P B C M"
_symmetry_group_IT_number 57
_symmetry_cell_setting 'orthorhombic'
loop_
_space_group_symop_operation_xyz
x,y,z
-x,-y,1/2+z
x,1/2-y,-z
-x,1/2+y,1/2-z
-x,-y,-z
x,y,1/2-z
-x,1/2+y,z
x,1/2-y,1/2+z
loop_
_atom_site_type_symbol
_atom_site_label
_atom_site_fract_x
_atom_site_fract_y
_atom_site_fract_z
Si Si1 0.961185 0.591950 0.438605
Si Si2 0.882009 0.407628 0.060752
Si Si3 0.538800 0.091876 0.063018
Si Si4 0.787648 0.093453 0.939453
Si Si5 0.384902 0.091681 0.438699
Si Si6 0.710334 0.906052 0.560943
O O1 0.963409 0.750000 0.500000
O O2 0.962246 0.594208 0.250000
O O3 0.918225 0.514104 0.490449
O O4 0.000000 0.500000 0.500000
O O5 0.882813 0.402078 0.250000
O O6 0.834776 0.452290 0.011633
O O7 0.889603 0.250000 0.000000
O O8 0.537186 0.095053 0.250000
O O9 0.536649 0.250000 0.000000
O O10 0.500000 0.000000 0.000000
O O11 0.581140 0.014343 0.007174
O O12 0.786922 0.093372 0.750000
O O13 0.748748 0.000766 0.996306
O O14 0.782283 0.250000 0.000000
O O15 0.392231 0.250000 0.500000
O O16 0.387950 0.093008 0.250000
O O17 0.337084 0.050066 0.484813
O O18 0.716340 0.750000 0.500000
O O19 0.711239 0.905221 0.750000
#
# Coordination Sequence:
#
# PCOD9437738 Si02
#       6
#     8   8   8   8   8   8
#     4  11  23  38  56  80 108 141 178 222 271 325
#     4   9  19  35  55  77 105 139 178 221 269 320
#     4  12  25  42  62  86 114 147 184 226 273 325
#     4   9  18  34  53  77 107 141 179 222 268 319
#     4  10  20  37  58  83 113 148 186 227 273 324
#     4   9  19  34  54  79 110 144 181 222 267 317
#
# _framework density 18.538254999999999
#
# number of rings (size 3 to 8) (size 9 to 14) (size 15 to 20)
#    0.000    2.000    0.000    3.500    0.000    5.333 
#    0.000    1.667    0.000    0.000    0.000    0.000 
#    0.000    0.000    0.000    0.000    0.000    0.000 
#
# Total GULP energy -268016.057021 kJ/mol
# GULP energy per Si atom -5583.667855 kJ/mol
# Density = 1.849606 g / cm^3
# Si number density = 18.538255 Si / 1000 Ang^3
#
#
#
# Elastic Constant Matrix: (Units=GPa)
#
#
# Indices 1 2 3 4 5 6 
#
# 1 209.6179 136.8227 51.4672 0.0000 0.0000 0.0000
# 2 136.8227 145.0154 41.9686 0.0000 0.0000 0.0000
# 3 51.4672 41.9686 59.3123 0.0000 0.0000 0.0000
# 4 0.0000 0.0000 0.0000 35.3963 0.0000 0.0000
# 5 0.0000 0.0000 0.0000 0.0000 23.7526 0.0000
# 6 0.0000 0.0000 0.0000 0.0000 0.0000 43.0857
#
#
#
# Elastic Compliance Matrix: (Units=1/GPa)
#
#
# Indices 1 2 3 4 5 6 
#
# 1 0.012897 -0.011229 -0.003246 0.000000 0.000000 0.000000
# 2 -0.011229 0.018448 -0.003310 0.000000 0.000000 0.000000
# 3 -0.003246 -0.003310 0.022018 0.000000 0.000000 0.000000
# 4 0.000000 0.000000 0.000000 0.028252 0.000000 0.000000
# 5 0.000000 0.000000 0.000000 0.000000 0.042101 0.000000
# 6 0.000000 0.000000 0.000000 0.000000 0.000000 0.023210
#
#
# Mechanical properties :
#
#
# Convention : Reuss Voigt Hill
#
# Bulk Modulus (GPa) = 56.19756 97.16253 76.68004
# Shear Modulus (GPa) = 26.53561 32.69272 29.61416
#
# Velocity S-wave (km/s) = 3.78749 4.20399 4.00116
# Velocity P-wave (km/s) = 7.03611 8.72298 7.92456
#
# Compressibility (1/GPa) = 0.01779437
#
# Stress axis : x y z
#
# Youngs Moduli (GPa) = 77.53808 54.20534 45.41665
#
# Poissons Ratio (x) = 0.60867 0.14740
# Poissons Ratio (y) = 0.87067 0.15033
# Poissons Ratio (z) = 0.25166 0.17942
#
# Static dielectric constant tensor:
#      x y z
#    x 1.663590 0.000000 0.000000 
#    y 0.000000 1.579570 0.000000 
#    z 0.000000 0.000000 1.632830 
# 
# From -- ./inp_files/9956.got.cif
#   From: 2010.05.17/outbox.cif.g08.bks.cpg/sg57_5_cif.got.tgz:9956.got - 2010.06.03 13:58:18.
