data_PCOD9437467
_publ_section_title
;
Structure prediction by ZEFSAII (Michael W. Deem and Ramdas Pophale) SiO2 
 PCOD9437467
Probable space group: P B C M
;
_chemical_formula_sum "Si O2"
_cell_formula_units_Z 56
_cell_length_a 11.698167
_cell_length_b 16.499372
_cell_length_c 16.194466
_cell_angle_alpha 90.000000
_cell_angle_beta 90.000000
_cell_angle_gamma 90.000000
_cell_volume 3125.732896
_symmetry_space_group_name_H-M "P B C M"
_symmetry_group_IT_number 57
_symmetry_cell_setting 'orthorhombic'
loop_
_space_group_symop_operation_xyz
x,y,z
-x,-y,1/2+z
x,1/2-y,-z
-x,1/2+y,1/2-z
-x,-y,-z
x,y,1/2-z
-x,1/2+y,z
x,1/2-y,1/2+z
loop_
_atom_site_type_symbol
_atom_site_label
_atom_site_fract_x
_atom_site_fract_y
_atom_site_fract_z
Si Si1 0.154777 0.345355 0.840929
Si Si2 0.104268 0.060893 0.502468
Si Si3 0.315517 0.546083 0.951262
Si Si4 0.400292 0.688321 0.067940
Si Si5 0.587267 0.589792 0.156489
Si Si6 0.218075 0.807551 0.151969
Si Si7 0.048884 0.171637 0.844042
O O1 0.114427 0.375135 0.750000
O O2 0.288192 0.367855 0.846616
O O3 0.128426 0.250601 0.843858
O O4 0.096416 0.384693 0.920196
O O5 0.093689 0.111779 0.586038
O O6 0.220888 0.010722 0.493321
O O7 0.000000 0.000000 0.500000
O O8 0.404587 0.486339 0.905936
O O9 0.257839 0.605013 0.882764
O O10 0.361909 0.608699 0.018325
O O11 0.492882 0.655796 0.132078
O O12 0.294282 0.738015 0.107856
O O13 0.451842 0.750000 0.000000
O O14 0.568149 0.561023 0.250000
O O15 0.236345 0.802790 0.250000
O O16 0.081982 0.801676 0.136226
O O17 0.047164 0.137990 0.750000
#
# Coordination Sequence:
#
# PCOD9437467 Si02
#       7
#     8   8   8   8   8   8   8
#     4   9  21  37  57  81 107 146 191 234 276 332
#     4  11  21  33  56  82 113 150 183 224 284 339
#     4  10  21  36  55  84 114 143 186 233 284 337
#     4  10  22  36  57  82 113 144 186 234 282 331
#     4  10  20  38  59  80 108 145 191 233 279 337
#     4  10  20  36  57  81 110 148 187 227 278 338
#     4  10  21  37  56  83 117 150 188 233 280 339
#
# _framework density 17.915799
#
# number of rings (size 3 to 8) (size 9 to 14) (size 15 to 20)
#    0.000    2.000    1.429    1.714    2.000    4.571 
#    0.000    1.429    0.000    3.429    0.000    0.000 
#    0.000    0.000    0.000    0.000    0.000    0.000 
#
# Total GULP energy -312268.787277 kJ/mol
# GULP energy per Si atom -5576.228344 kJ/mol
# Density = 1.787502 g / cm^3
# Si number density = 17.915799 Si / 1000 Ang^3
#
#
#
# Elastic Constant Matrix: (Units=GPa)
#
#
# Indices 1 2 3 4 5 6 
#
# 1 37.9437 36.8843 47.0104 0.0000 0.0000 0.0000
# 2 36.8843 98.8849 66.5933 0.0000 0.0000 0.0000
# 3 47.0104 66.5933 131.8683 0.0000 0.0000 0.0000
# 4 0.0000 0.0000 0.0000 19.5768 0.0000 0.0000
# 5 0.0000 0.0000 0.0000 0.0000 29.0210 0.0000
# 6 0.0000 0.0000 0.0000 0.0000 0.0000 26.6524
#
#
#
# Elastic Compliance Matrix: (Units=1/GPa)
#
#
# Indices 1 2 3 4 5 6 
#
# 1 0.053946 -0.010866 -0.013744 0.000000 0.000000 0.000000
# 2 -0.010866 0.017513 -0.004970 0.000000 0.000000 0.000000
# 3 -0.013744 -0.004970 0.014993 0.000000 0.000000 0.000000
# 4 0.000000 0.000000 0.000000 0.051081 0.000000 0.000000
# 5 0.000000 0.000000 0.000000 0.000000 0.034458 0.000000
# 6 0.000000 0.000000 0.000000 0.000000 0.000000 0.037520
#
#
# Mechanical properties :
#
#
# Convention : Reuss Voigt Hill
#
# Bulk Modulus (GPa) = 36.64233 63.29698 49.96965
# Shear Modulus (GPa) = 18.00062 22.93064 20.46563
#
# Velocity S-wave (km/s) = 3.17319 3.58147 3.38349
# Velocity P-wave (km/s) = 5.82430 7.24634 6.57389
#
# Compressibility (1/GPa) = 0.02729084
#
# Stress axis : x y z
#
# Youngs Moduli (GPa) = 18.53720 57.10005 66.69759
#
# Poissons Ratio (x) = 0.62045 0.91669
# Poissons Ratio (y) = 0.20143 0.33151
# Poissons Ratio (z) = 0.25478 0.28381
#
# Static dielectric constant tensor:
#      x y z
#    x 1.603650 0.000000 0.000000 
#    y 0.000000 1.571460 0.000000 
#    z 0.000000 0.000000 1.642710 
# 
# From -- ./inp_files/17684.got.cif
#   From: 2010.05.17/outbox.cif.g08.bks.cpg/sg57_9_cif.got.tgz:17684.got - 2010.06.03 13:58:18.
