data_PCOD9437180
_publ_section_title
;
Structure prediction by ZEFSAII (Michael W. Deem and Ramdas Pophale) SiO2 
 PCOD9437180
Probable space group: P B C M
;
_chemical_formula_sum "Si O2"
_cell_formula_units_Z 56
_cell_length_a 20.447996
_cell_length_b 9.464405
_cell_length_c 15.331290
_cell_angle_alpha 90.000000
_cell_angle_beta 90.000000
_cell_angle_gamma 90.000000
_cell_volume 2967.035663
_symmetry_space_group_name_H-M "P B C M"
_symmetry_group_IT_number 57
_symmetry_cell_setting 'orthorhombic'
loop_
_space_group_symop_operation_xyz
x,y,z
-x,-y,1/2+z
x,1/2-y,-z
-x,1/2+y,1/2-z
-x,-y,-z
x,y,1/2-z
-x,1/2+y,z
x,1/2-y,1/2+z
loop_
_atom_site_type_symbol
_atom_site_label
_atom_site_fract_x
_atom_site_fract_y
_atom_site_fract_z
Si Si1 0.924405 0.449151 0.351790
Si Si2 0.835726 0.418454 0.508656
Si Si3 0.057447 0.613081 0.351789
Si Si4 0.336101 0.286327 0.647423
Si Si5 0.690792 0.528199 0.515942
Si Si6 0.518255 0.688622 0.844717
Si Si7 0.447873 0.580586 0.438004
O O1 0.906770 0.470446 0.250000
O O2 0.866193 0.479017 0.419153
O O3 0.943507 0.283322 0.362515
O O4 0.987420 0.544564 0.372330
O O5 0.835417 0.250000 0.500000
O O6 0.886560 0.449772 0.586403
O O7 0.762078 0.463545 0.525919
O O8 0.071305 0.583818 0.250000
O O9 0.315702 0.289160 0.750000
O O10 0.314705 0.411690 0.582895
O O11 0.314909 0.149772 0.590420
O O12 0.415143 0.279502 0.647644
O O13 0.626476 0.433138 0.530793
O O14 0.488372 0.701898 0.750000
O O15 0.542101 0.528328 0.857200
O O16 0.468984 0.762967 0.911014
O O17 0.500000 0.500000 0.500000
#
# Coordination Sequence:
#
# PCOD9437180 Si02
#       7
#     8   8   8   8   8   8   8
#     4   9  18  35  58  83 112 147 185 228 274 327
#     4  10  21  36  55  80 116 152 183 224 278 334
#     4   9  18  35  57  82 112 146 186 226 274 328
#     4   9  19  38  58  75 107 148 186 235 285 332
#     4  10  21  37  55  83 111 148 192 228 283 344
#     4  10  20  35  56  81 106 140 187 238 289 343
#     4  11  20  35  58  79 110 144 188 238 291 340
#
# _framework density 18.874056
#
# number of rings (size 3 to 8) (size 9 to 14) (size 15 to 20)
#    0.000    2.286    1.429    1.286    0.000    2.857 
#    5.143    0.000    0.000    1.714    0.000    0.000 
#    0.000    0.000    0.000    0.000    0.000    0.000 
#
# Total GULP energy -312006.998630 kJ/mol
# GULP energy per Si atom -5571.553547 kJ/mol
# Density = 1.883110 g / cm^3
# Si number density = 18.874056 Si / 1000 Ang^3
#
#
#
# Elastic Constant Matrix: (Units=GPa)
#
#
# Indices 1 2 3 4 5 6 
#
# 1 125.8403 25.2757 50.1376 0.0000 0.0000 0.0000
# 2 25.2757 30.4749 17.8081 0.0000 0.0000 0.0000
# 3 50.1376 17.8081 108.9473 0.0000 0.0000 0.0000
# 4 0.0000 0.0000 0.0000 11.3274 0.0000 0.0000
# 5 0.0000 0.0000 0.0000 0.0000 15.8600 0.0000
# 6 0.0000 0.0000 0.0000 0.0000 0.0000 29.6278
#
#
#
# Elastic Compliance Matrix: (Units=1/GPa)
#
#
# Indices 1 2 3 4 5 6 
#
# 1 0.010848 -0.006722 -0.003893 0.000000 0.000000 0.000000
# 2 -0.006722 0.040445 -0.003517 0.000000 0.000000 0.000000
# 3 -0.003893 -0.003517 0.011545 0.000000 0.000000 0.000000
# 4 0.000000 0.000000 0.000000 0.088282 0.000000 0.000000
# 5 0.000000 0.000000 0.000000 0.000000 0.063052 0.000000
# 6 0.000000 0.000000 0.000000 0.000000 0.000000 0.033752
#
#
# Mechanical properties :
#
#
# Convention : Reuss Voigt Hill
#
# Bulk Modulus (GPa) = 28.92506 50.18947 39.55726
# Shear Modulus (GPa) = 17.37841 22.83245 20.10543
#
# Velocity S-wave (km/s) = 3.03769 3.48189 3.26734
# Velocity P-wave (km/s) = 5.25947 6.54326 5.93617
#
# Compressibility (1/GPa) = 0.03457210
#
# Stress axis : x y z
#
# Youngs Moduli (GPa) = 92.18284 24.72517 86.61394
#
# Poissons Ratio (x) = 0.16620 0.33723
# Poissons Ratio (y) = 0.61966 0.30466
# Poissons Ratio (z) = 0.35891 0.08697
#
# Static dielectric constant tensor:
#      x y z
#    x 1.626820 0.000000 0.000000 
#    y 0.000000 1.703270 0.000000 
#    z 0.000000 0.000000 1.727450 
# 
# From -- ./inp_files/19377.got.cif
#   From: 2010.05.17/outbox.cif.g08.bks.cpg/sg57_10_cif.got.tgz:19377.got - 2010.06.03 13:58:18.
