data_PCOD9437460
_publ_section_title
;
Structure prediction by ZEFSAII (Michael W. Deem and Ramdas Pophale) SiO2 
 PCOD9437460
Probable space group: P B C M
;
_chemical_formula_sum "Si O2"
_cell_formula_units_Z 36
_cell_length_a 8.393177
_cell_length_b 9.666237
_cell_length_c 21.053878
_cell_angle_alpha 90.000000
_cell_angle_beta 90.000000
_cell_angle_gamma 90.000000
_cell_volume 1708.110345
_symmetry_space_group_name_H-M "P B C M"
_symmetry_group_IT_number 57
_symmetry_cell_setting 'orthorhombic'
loop_
_space_group_symop_operation_xyz
x,y,z
-x,-y,1/2+z
x,1/2-y,-z
-x,1/2+y,1/2-z
-x,-y,-z
x,y,1/2-z
-x,1/2+y,z
x,1/2-y,1/2+z
loop_
_atom_site_type_symbol
_atom_site_label
_atom_site_fract_x
_atom_site_fract_y
_atom_site_fract_z
Si Si1 0.925878 0.577191 0.394745
Si Si2 0.380917 0.368103 0.822503
Si Si3 0.730389 0.750000 0.500000
Si Si4 0.519274 0.613848 0.604761
Si Si5 0.166313 0.716526 0.925827
O O1 0.802315 0.591396 0.336956
O O2 0.835086 0.657899 0.452174
O O3 0.942958 0.417617 0.412668
O O4 0.092400 0.654902 0.388138
O O5 0.422317 0.396307 0.750000
O O6 0.403475 0.208532 0.840739
O O7 0.489137 0.458970 0.870818
O O8 0.622032 0.645313 0.541822
O O9 0.342510 0.672655 0.593223
O O10 0.167418 0.750000 0.000000
#
# Coordination Sequence:
#
# PCOD9437460 Si02
#       5
#     8   8   4   8   8
#     4  10  23  35  57  81 119 148 187 228 281 343
#     4  10  22  41  58  81 112 154 195 238 277 335
#     4  10  20  36  56  92 114 148 180 238 296 338
#     4  10  22  35  63  85 116 144 193 236 290 341
#     4  11  21  35  55  88 116 149 179 231 288 347
#
# _framework density 21.075921000000001
#
# number of rings (size 3 to 8) (size 9 to 14) (size 15 to 20)
#    0.000    1.778    2.222    1.333    3.111    4.444 
#    0.000    5.556    0.000    0.000    0.000    0.000 
#    0.000    0.000    0.000    0.000    0.000    0.000 
#
# Total GULP energy -201223.345435 kJ/mol
# GULP energy per Si atom -5589.537373 kJ/mol
# Density = 2.102795 g / cm^3
# Si number density = 21.075921 Si / 1000 Ang^3
#
#
#
# Elastic Constant Matrix: (Units=GPa)
#
#
# Indices 1 2 3 4 5 6 
#
# 1 38.5020 -9.4984 -2.0360 0.0000 0.0000 0.0000
# 2 -9.4984 55.4267 -5.7547 0.0000 0.0000 0.0000
# 3 -2.0360 -5.7547 55.5083 0.0000 0.0000 0.0000
# 4 0.0000 0.0000 0.0000 15.2139 0.0000 0.0000
# 5 0.0000 0.0000 0.0000 0.0000 -1.8632 0.0000
# 6 0.0000 0.0000 0.0000 0.0000 0.0000 33.6506
#
#
#
# Elastic Compliance Matrix: (Units=1/GPa)
#
#
# Indices 1 2 3 4 5 6 
#
# 1 0.027242 0.004824 0.001499 0.000000 0.000000 0.000000
# 2 0.004824 0.019092 0.002156 0.000000 0.000000 0.000000
# 3 0.001499 0.002156 0.018294 0.000000 0.000000 0.000000
# 4 0.000000 0.000000 0.000000 0.065729 0.000000 0.000000
# 5 0.000000 0.000000 0.000000 0.000000 -0.536724 0.000000
# 6 0.000000 0.000000 0.000000 0.000000 0.000000 0.029717
#
#
# Mechanical properties :
#
#
# Convention : Reuss Voigt Hill
#
# Bulk Modulus (GPa) = 12.25671 12.76208 12.50940
# Shear Modulus (GPa) = -13.64581 20.51535 3.43477
#
# Velocity S-wave (km/s) = -2.54728 3.12332 1.27799
# Velocity P-wave (km/s) = 1.68030 4.36753 2.85061
#
# Compressibility (1/GPa) = 0.08158794
#
# Stress axis : x y z
#
# Youngs Moduli (GPa) = 36.70793 52.37682 54.66310
#
# Poissons Ratio (x) = -0.25267 -0.08196
# Poissons Ratio (y) = -0.17708 -0.11787
# Poissons Ratio (z) = -0.05504 -0.11294
#
# Static dielectric constant tensor:
#      x y z
#    x 1.794220 0.000000 0.000000 
#    y 0.000000 1.776590 0.000000 
#    z 0.000000 0.000000 1.738730 
# 
# From -- ./inp_files/23981.got.cif
#   From: 2010.05.17/outbox.cif.g08.bks.cpg/sg57_12_cif.got.tgz:23981.got - 2010.06.03 13:58:18.
