data_PCOD9437962
_publ_section_title
;
Structure prediction by ZEFSAII (Michael W. Deem and Ramdas Pophale) SiO2 
 PCOD9437962
Probable space group: P B C M
;
_chemical_formula_sum "Si O2"
_cell_formula_units_Z 56
_cell_length_a 11.599601
_cell_length_b 12.057389
_cell_length_c 17.732971
_cell_angle_alpha 90.000000
_cell_angle_beta 90.000000
_cell_angle_gamma 90.000000
_cell_volume 2480.149310
_symmetry_space_group_name_H-M "P B C M"
_symmetry_group_IT_number 57
_symmetry_cell_setting 'orthorhombic'
loop_
_space_group_symop_operation_xyz
x,y,z
-x,-y,1/2+z
x,1/2-y,-z
-x,1/2+y,1/2-z
-x,-y,-z
x,y,1/2-z
-x,1/2+y,z
x,1/2-y,1/2+z
loop_
_atom_site_type_symbol
_atom_site_label
_atom_site_fract_x
_atom_site_fract_y
_atom_site_fract_z
Si Si1 0.683405 0.158428 0.085954
Si Si2 0.040321 0.579739 0.839171
Si Si3 0.150102 0.243148 0.663603
Si Si4 0.643162 0.568489 0.664993
Si Si5 0.891067 0.034502 0.052960
Si Si6 0.422875 0.884315 0.425016
Si Si7 0.764265 0.545266 0.076924
O O1 0.816413 0.146812 0.057536
O O2 0.645397 0.280002 0.111194
O O3 0.669506 0.059335 0.145228
O O4 0.600820 0.131657 0.014121
O O5 0.057920 0.578555 0.750000
O O6 0.972987 0.692577 0.860579
O O7 0.946534 0.488033 0.865942
O O8 0.154993 0.548694 0.883826
O O9 0.139211 0.283683 0.750000
O O10 0.242872 0.144051 0.664147
O O11 0.197591 0.339965 0.611904
O O12 0.594727 0.575696 0.750000
O O13 0.551361 0.614170 0.605024
O O14 0.794338 0.957483 0.011947
O O15 0.000000 0.000000 0.000000
O O16 0.363350 0.002458 0.407373
#
# Coordination Sequence:
#
# PCOD9437962 Si02
#       7
#     8   8   8   8   8   8   8
#     4  10  21  44  66  92 128 168 219 270 327 393
#     4  10  20  38  59  87 125 168 209 259 329 389
#     4  10  22  40  61  91 128 166 213 268 326 396
#     4  11  24  42  65  93 128 171 222 270 325 391
#     4   9  19  37  63  95 124 160 213 267 318 386
#     4  10  24  42  64  95 128 170 216 271 327 387
#     4  10  22  39  62  93 128 166 213 271 324 387
#
# _framework density 22.579284999999999
#
# number of rings (size 3 to 8) (size 9 to 14) (size 15 to 20)
#    0.000    2.000    1.429    0.857    2.000    4.571 
#    2.571    4.286    0.000    0.000    0.000    0.000 
#    0.000    0.000    0.000    0.000    0.000    0.000 
#
# Total GULP energy -312210.714191 kJ/mol
# GULP energy per Si atom -5575.191325 kJ/mol
# Density = 2.252789 g / cm^3
# Si number density = 22.579285 Si / 1000 Ang^3
#
#
#
# Elastic Constant Matrix: (Units=GPa)
#
#
# Indices 1 2 3 4 5 6 
#
# 1 84.7388 2.0768 7.9813 0.0000 0.0000 0.0000
# 2 2.0768 79.2513 1.9223 0.0000 0.0000 0.0000
# 3 7.9813 1.9223 49.0203 0.0000 0.0000 0.0000
# 4 0.0000 0.0000 0.0000 20.6420 0.0000 0.0000
# 5 0.0000 0.0000 0.0000 0.0000 23.6137 0.0000
# 6 0.0000 0.0000 0.0000 0.0000 0.0000 28.5871
#
#
#
# Elastic Compliance Matrix: (Units=1/GPa)
#
#
# Indices 1 2 3 4 5 6 
#
# 1 0.011990 -0.000267 -0.001942 0.000000 0.000000 0.000000
# 2 -0.000267 0.012636 -0.000452 0.000000 0.000000 0.000000
# 3 -0.001942 -0.000452 0.020734 0.000000 0.000000 0.000000
# 4 0.000000 0.000000 0.000000 0.048445 0.000000 0.000000
# 5 0.000000 0.000000 0.000000 0.000000 0.042348 0.000000
# 6 0.000000 0.000000 0.000000 0.000000 0.000000 0.034981
#
#
# Mechanical properties :
#
#
# Convention : Reuss Voigt Hill
#
# Bulk Modulus (GPa) = 24.97611 26.33013 25.65312
# Shear Modulus (GPa) = 26.34324 27.97055 27.15690
#
# Velocity S-wave (km/s) = 3.41940 3.52344 3.47181
# Velocity P-wave (km/s) = 5.16481 5.31407 5.23997
#
# Compressibility (1/GPa) = 0.04003825
#
# Stress axis : x y z
#
# Youngs Moduli (GPa) = 83.40002 79.13860 48.23093
#
# Poissons Ratio (x) = 0.02114 0.09365
# Poissons Ratio (y) = 0.02228 0.02180
# Poissons Ratio (z) = 0.16194 0.03577
#
# Static dielectric constant tensor:
#      x y z
#    x 1.862210 0.000000 0.000000 
#    y 0.000000 1.903960 0.000000 
#    z 0.000000 0.000000 1.878580 
# 
# From -- ./inp_files/25000.got.cif
#   From: 2010.05.17/outbox.cif.g08.bks.cpg/sg57_13_cif.got.tgz:25000.got - 2010.06.03 13:58:18.
