data_PCOD9437248
_publ_section_title
;
Structure prediction by ZEFSAII (Michael W. Deem and Ramdas Pophale) SiO2 
 PCOD9437248
Probable space group: P B C M
;
_chemical_formula_sum "Si O2"
_cell_formula_units_Z 56
_cell_length_a 17.459653
_cell_length_b 9.362177
_cell_length_c 16.968233
_cell_angle_alpha 90.000000
_cell_angle_beta 90.000000
_cell_angle_gamma 90.000000
_cell_volume 2773.633504
_symmetry_space_group_name_H-M "P B C M"
_symmetry_group_IT_number 57
_symmetry_cell_setting 'orthorhombic'
loop_
_space_group_symop_operation_xyz
x,y,z
-x,-y,1/2+z
x,1/2-y,-z
-x,1/2+y,1/2-z
-x,-y,-z
x,y,1/2-z
-x,1/2+y,z
x,1/2-y,1/2+z
loop_
_atom_site_type_symbol
_atom_site_label
_atom_site_fract_x
_atom_site_fract_y
_atom_site_fract_z
Si Si1 0.038499 0.883391 0.944198
Si Si2 0.542168 0.725478 0.845201
Si Si3 0.160292 0.015871 0.663219
Si Si4 0.400123 0.543228 0.655604
Si Si5 0.305497 0.115174 0.900219
Si Si6 0.741957 0.566935 0.419209
Si Si7 0.890863 0.652053 0.341379
O O1 0.975631 0.857478 0.876121
O O2 0.116740 0.931591 0.904092
O O3 0.050573 0.750000 0.000000
O O4 0.000000 0.000000 0.000000
O O5 0.551008 0.712613 0.750000
O O6 0.560324 0.890183 0.866252
O O7 0.457835 0.670114 0.866242
O O8 0.604311 0.620017 0.885500
O O9 0.138571 0.964883 0.750000
O O10 0.251874 0.018246 0.653689
O O11 0.132883 0.180875 0.654775
O O12 0.391372 0.542815 0.750000
O O13 0.316416 0.547007 0.616867
O O14 0.283527 0.280215 0.882524
O O15 0.277111 0.081860 0.988586
O O16 0.830734 0.561347 0.394568
O O17 0.886180 0.607311 0.250000
#
# Coordination Sequence:
#
# PCOD9437248 Si02
#       7
#     8   8   8   8   8   8   8
#     4  12  23  38  59  84 115 146 180 225 277 330
#     4   9  17  30  50  74 102 138 178 223 272 324
#     4  10  20  36  58  83 111 145 186 227 272 330
#     4   9  17  30  49  74 103 137 177 222 273 324
#     4   9  17  30  52  78 105 139 183 225 270 325
#     4   9  17  29  51  79 107 136 180 233 271 313
#     4  10  20  35  57  84 112 143 186 231 275 326
#
# _framework density 20.190121000000001
#
# number of rings (size 3 to 8) (size 9 to 14) (size 15 to 20)
#    0.000    2.286    1.429    2.143    2.000    4.000 
#    0.000    0.000    6.286    0.000    0.000    0.000 
#    0.000    0.000    0.000    0.000    0.000    0.000 
#
# Total GULP energy -312291.235932 kJ/mol
# GULP energy per Si atom -5576.629213 kJ/mol
# Density = 2.014417 g / cm^3
# Si number density = 20.190121 Si / 1000 Ang^3
#
#
#
# Elastic Constant Matrix: (Units=GPa)
#
#
# Indices 1 2 3 4 5 6 
#
# 1 36.7970 -13.9803 -9.6602 0.0000 0.0000 0.0000
# 2 -13.9803 21.2145 10.5046 0.0000 0.0000 0.0000
# 3 -9.6602 10.5046 35.0724 0.0000 0.0000 0.0000
# 4 0.0000 0.0000 0.0000 14.5222 0.0000 0.0000
# 5 0.0000 0.0000 0.0000 0.0000 28.2731 0.0000
# 6 0.0000 0.0000 0.0000 0.0000 0.0000 23.1276
#
#
#
# Elastic Compliance Matrix: (Units=1/GPa)
#
#
# Indices 1 2 3 4 5 6 
#
# 1 0.036586 0.022450 0.003353 0.000000 0.000000 0.000000
# 2 0.022450 0.069121 -0.014519 0.000000 0.000000 0.000000
# 3 0.003353 -0.014519 0.033785 0.000000 0.000000 0.000000
# 4 0.000000 0.000000 0.000000 0.068860 0.000000 0.000000
# 5 0.000000 0.000000 0.000000 0.000000 0.035369 0.000000
# 6 0.000000 0.000000 0.000000 0.000000 0.000000 0.043238
#
#
# Mechanical properties :
#
#
# Convention : Reuss Voigt Hill
#
# Bulk Modulus (GPa) = 6.17060 7.42356 6.79708
# Shear Modulus (GPa) = 15.70296 20.26590 17.98443
#
# Velocity S-wave (km/s) = 2.79185 3.17164 2.98779
# Velocity P-wave (km/s) = 3.66817 4.13488 3.90850
#
# Compressibility (1/GPa) = 0.16205869
#
# Stress axis : x y z
#
# Youngs Moduli (GPa) = 27.33305 14.46737 29.59927
#
# Poissons Ratio (x) = -0.32479 -0.09925
# Poissons Ratio (y) = -0.61362 0.42975
# Poissons Ratio (z) = -0.09165 0.21005
#
# Static dielectric constant tensor:
#      x y z
#    x 1.728760 0.000000 0.000000 
#    y 0.000000 1.712510 0.000000 
#    z 0.000000 0.000000 1.712260 
# 
# From -- ./inp_files/18529.got.cif
#   From: 2010.05.17/outbox.cif.g08.bks.cpg/sg57_10_cif.got.tgz:18529.got - 2010.06.03 13:58:18.
