data_PCOD9437749
_publ_section_title
;
Structure prediction by ZEFSAII (Michael W. Deem and Ramdas Pophale) SiO2 
 PCOD9437749
Probable space group: P B C M
;
_chemical_formula_sum "Si O2"
_cell_formula_units_Z 40
_cell_length_a 5.017834
_cell_length_b 25.806203
_cell_length_c 16.461386
_cell_angle_alpha 90.000000
_cell_angle_beta 90.000000
_cell_angle_gamma 90.000000
_cell_volume 2131.605332
_symmetry_space_group_name_H-M "P B C M"
_symmetry_group_IT_number 57
_symmetry_cell_setting 'orthorhombic'
loop_
_space_group_symop_operation_xyz
x,y,z
-x,-y,1/2+z
x,1/2-y,-z
-x,1/2+y,1/2-z
-x,-y,-z
x,y,1/2-z
-x,1/2+y,z
x,1/2-y,1/2+z
loop_
_atom_site_type_symbol
_atom_site_label
_atom_site_fract_x
_atom_site_fract_y
_atom_site_fract_z
Si Si1 0.972878 0.771123 0.657844
Si Si2 0.112565 0.944072 0.519928
Si Si3 0.285861 0.878093 0.654840
Si Si4 0.544577 0.223428 0.581102
Si Si5 0.601440 0.616775 0.996916
O O1 0.874190 0.769717 0.750000
O O2 0.096280 0.828148 0.643788
O O3 0.223691 0.732605 0.645953
O O4 0.726880 0.753303 0.603320
O O5 0.901133 0.901746 0.488547
O O6 0.149436 0.929221 0.615467
O O7 0.398782 0.931009 0.481333
O O8 0.000000 0.000000 0.500000
O O9 0.353346 0.882402 0.750000
O O10 0.528982 0.869859 0.591383
O O11 0.659080 0.250000 0.500000
O O12 0.473372 0.164829 0.559062
#
# Coordination Sequence:
#
# PCOD9437749 Si02
#       5
#     8   8   8   8   8
#     4  11  23  36  55  84 120 156 190 236 292 346
#     4  10  20  37  58  85 111 146 193 244 299 340
#     4   9  21  36  56  88 119 145 188 245 298 341
#     4  12  20  36  57  83 117 151 196 227 287 351
#     4  10  21  35  58  87 108 153 189 241 280 348
#
# _framework density 18.765198000000002
#
# number of rings (size 3 to 8) (size 9 to 14) (size 15 to 20)
#    1.200    0.400    2.000    4.200    0.000    0.800 
#    0.000    0.000    0.000    7.200    0.000    0.000 
#    0.000    0.000    0.000    0.000    0.000    0.000 
#
# Total GULP energy -222913.223099 kJ/mol
# GULP energy per Si atom -5572.830577 kJ/mol
# Density = 1.872249 g / cm^3
# Si number density = 18.765198 Si / 1000 Ang^3
#
#
#
# Elastic Constant Matrix: (Units=GPa)
#
#
# Indices 1 2 3 4 5 6 
#
# 1 54.5135 -16.6028 2.2012 0.0000 0.0000 0.0000
# 2 -16.6028 63.2706 24.9270 0.0000 0.0000 0.0000
# 3 2.2012 24.9270 54.4407 0.0000 0.0000 0.0000
# 4 0.0000 0.0000 0.0000 22.4360 0.0000 0.0000
# 5 0.0000 0.0000 0.0000 0.0000 12.2315 0.0000
# 6 0.0000 0.0000 0.0000 0.0000 0.0000 26.5797
#
#
#
# Elastic Compliance Matrix: (Units=1/GPa)
#
#
# Indices 1 2 3 4 5 6 
#
# 1 0.020642 0.007010 -0.004044 0.000000 0.000000 0.000000
# 2 0.007010 0.021664 -0.010203 0.000000 0.000000 0.000000
# 3 -0.004044 -0.010203 0.023204 0.000000 0.000000 0.000000
# 4 0.000000 0.000000 0.000000 0.044571 0.000000 0.000000
# 5 0.000000 0.000000 0.000000 0.000000 0.081756 0.000000
# 6 0.000000 0.000000 0.000000 0.000000 0.000000 0.037623
#
#
# Mechanical properties :
#
#
# Convention : Reuss Voigt Hill
#
# Bulk Modulus (GPa) = 19.59397 21.47508 20.53453
# Shear Modulus (GPa) = 19.16093 23.02938 21.09516
#
# Velocity S-wave (km/s) = 3.19891 3.50700 3.35649
# Velocity P-wave (km/s) = 4.91003 5.27898 5.09784
#
# Compressibility (1/GPa) = 0.05103611
#
# Stress axis : x y z
#
# Youngs Moduli (GPa) = 48.44390 46.15870 43.09631
#
# Poissons Ratio (x) = -0.32358 0.17430
# Poissons Ratio (y) = -0.33960 0.43971
# Poissons Ratio (z) = 0.19593 0.47096
#
# Static dielectric constant tensor:
#      x y z
#    x 1.669500 0.000000 0.000000 
#    y 0.000000 1.650390 0.000000 
#    z 0.000000 0.000000 1.647640 
# 
# From -- ./inp_files/14959.got.cif
#   From: 2010.05.17/outbox.cif.g08.bks.cpg/sg57_8_cif.got.tgz:14959.got - 2010.06.03 13:58:18.
