data_PCOD9437231
_publ_section_title
;
Structure prediction by ZEFSAII (Michael W. Deem and Ramdas Pophale) SiO2 
 PCOD9437231
Probable space group: P B C M
;
_chemical_formula_sum "Si O2"
_cell_formula_units_Z 64
_cell_length_a 12.621302
_cell_length_b 28.608248
_cell_length_c 8.246666
_cell_angle_alpha 90.000000
_cell_angle_beta 90.000000
_cell_angle_gamma 90.000000
_cell_volume 2977.651218
_symmetry_space_group_name_H-M "P B C M"
_symmetry_group_IT_number 57
_symmetry_cell_setting 'orthorhombic'
loop_
_space_group_symop_operation_xyz
x,y,z
-x,-y,1/2+z
x,1/2-y,-z
-x,1/2+y,1/2-z
-x,-y,-z
x,y,1/2-z
-x,1/2+y,z
x,1/2-y,1/2+z
loop_
_atom_site_type_symbol
_atom_site_label
_atom_site_fract_x
_atom_site_fract_y
_atom_site_fract_z
Si Si1 0.631471 0.376591 0.442343
Si Si2 0.033508 0.925226 0.946034
Si Si3 0.201949 0.438094 0.941155
Si Si4 0.011781 0.321581 0.441492
Si Si5 0.210772 0.702172 0.554180
Si Si6 0.260906 0.965935 0.557696
Si Si7 0.465459 0.302328 0.938532
Si Si8 0.241806 0.165857 0.942714
O O1 0.640427 0.382148 0.250000
O O2 0.727078 0.343302 0.503156
O O3 0.650077 0.427541 0.516938
O O4 0.529083 0.344954 0.478355
O O5 0.038563 0.919185 0.750000
O O6 0.145621 0.946380 0.999567
O O7 0.921401 0.950670 0.982228
O O8 0.015298 0.875908 0.032646
O O9 0.206067 0.428308 0.750000
O O10 0.272695 0.482794 0.982463
O O11 0.234379 0.390188 0.029408
O O12 0.015841 0.311310 0.250000
O O13 0.129579 0.313744 0.506225
O O14 0.908284 0.297900 0.514795
O O15 0.264459 0.750000 0.500000
O O16 0.208570 0.700623 0.750000
O O17 0.254931 0.971519 0.750000
O O18 0.491129 0.304231 0.750000
O O19 0.489387 0.250000 0.000000
O O20 0.341861 0.312372 0.969331
O O21 0.250991 0.174438 0.750000
#
# Coordination Sequence:
#
# PCOD9437231 Si02
#       8
#     8   8   8   8   8   8   8   8
#     4  11  23  41  63  88 120 158 204 254 307 363
#     4   9  18  31  51  81 119 162 206 247 291 348
#     4  10  20  35  56  87 125 167 210 252 301 357
#     4   9  18  34  55  83 118 156 195 240 297 358
#     4  10  21  35  54  82 116 153 191 238 298 362
#     4  11  21  34  55  87 124 165 209 252 302 360
#     4  12  26  46  70  94 120 154 203 256 308 366
#     4  10  21  40  65  91 123 159 203 255 307 361
#
# _framework density 21.493451
#
# number of rings (size 3 to 8) (size 9 to 14) (size 15 to 20)
#    0.000    1.750    1.250    3.375    0.000    4.500 
#    0.000    1.875    0.000    0.000    0.000    0.000 
#    0.000    0.000    0.000    0.000    0.000    0.000 
#
# Total GULP energy -357322.900104 kJ/mol
# GULP energy per Si atom -5583.170314 kJ/mol
# Density = 2.144453 g / cm^3
# Si number density = 21.493451 Si / 1000 Ang^3
#
#
#
# Elastic Constant Matrix: (Units=GPa)
#
#
# Indices 1 2 3 4 5 6 
#
# 1 76.7601 1.6529 -6.5675 0.0000 0.0000 0.0000
# 2 1.6529 41.2950 -4.1038 0.0000 0.0000 0.0000
# 3 -6.5675 -4.1038 19.8928 0.0000 0.0000 0.0000
# 4 0.0000 0.0000 0.0000 27.9272 0.0000 0.0000
# 5 0.0000 0.0000 0.0000 0.0000 15.2332 0.0000
# 6 0.0000 0.0000 0.0000 0.0000 0.0000 26.4996
#
#
#
# Elastic Compliance Matrix: (Units=1/GPa)
#
#
# Indices 1 2 3 4 5 6 
#
# 1 0.013407 -0.000099 0.004406 0.000000 0.000000 0.000000
# 2 -0.000099 0.024724 0.005068 0.000000 0.000000 0.000000
# 3 0.004406 0.005068 0.052769 0.000000 0.000000 0.000000
# 4 0.000000 0.000000 0.000000 0.035807 0.000000 0.000000
# 5 0.000000 0.000000 0.000000 0.000000 0.065646 0.000000
# 6 0.000000 0.000000 0.000000 0.000000 0.000000 0.037736
#
#
# Mechanical properties :
#
#
# Convention : Reuss Voigt Hill
#
# Bulk Modulus (GPa) = 9.12001 13.32346 11.22174
# Shear Modulus (GPa) = 20.17025 23.72975 21.95000
#
# Velocity S-wave (km/s) = 3.06672 3.32632 3.19915
# Velocity P-wave (km/s) = 4.09781 4.57874 4.34493
#
# Compressibility (1/GPa) = 0.10964902
#
# Stress axis : x y z
#
# Youngs Moduli (GPa) = 74.58964 40.44724 18.95040
#
# Poissons Ratio (x) = 0.00400 -0.08349
# Poissons Ratio (y) = 0.00737 -0.09604
# Poissons Ratio (z) = -0.32863 -0.20498
#
# Static dielectric constant tensor:
#      x y z
#    x 1.820880 0.000000 0.000000 
#    y 0.000000 1.718010 0.000000 
#    z 0.000000 0.000000 1.722580 
# 
# From -- ./inp_files/3858.got.cif
#   From: 2010.05.17/outbox.cif.g08.bks.cpg/sg57_2_cif.got.tgz:3858.got - 2010.06.03 13:58:18.
