data_PCOD9437541
_publ_section_title
;
Structure prediction by ZEFSAII (Michael W. Deem and Ramdas Pophale) SiO2 
 PCOD9437541
Probable space group: P B C M
;
_chemical_formula_sum "Si O2"
_cell_formula_units_Z 40
_cell_length_a 5.003301
_cell_length_b 18.666538
_cell_length_c 17.551834
_cell_angle_alpha 90.000000
_cell_angle_beta 90.000000
_cell_angle_gamma 90.000000
_cell_volume 1639.241395
_symmetry_space_group_name_H-M "P B C M"
_symmetry_group_IT_number 57
_symmetry_cell_setting 'orthorhombic'
loop_
_space_group_symop_operation_xyz
x,y,z
-x,-y,1/2+z
x,1/2-y,-z
-x,1/2+y,1/2-z
-x,-y,-z
x,y,1/2-z
-x,1/2+y,z
x,1/2-y,1/2+z
loop_
_atom_site_type_symbol
_atom_site_label
_atom_site_fract_x
_atom_site_fract_y
_atom_site_fract_z
Si Si1 0.844320 0.902909 0.609829
Si Si2 0.631880 0.756290 0.416654
Si Si3 0.381819 0.256418 0.750000
Si Si4 0.134138 0.649294 0.250000
Si Si5 0.004555 0.888289 0.439648
Si Si6 0.494384 0.029802 0.586526
O O1 0.703257 0.826302 0.599083
O O2 0.059377 0.893640 0.675102
O O3 0.982098 0.912820 0.527714
O O4 0.637383 0.965429 0.629936
O O5 0.485165 0.750000 0.500000
O O6 0.542597 0.779447 0.330971
O O7 0.884566 0.808766 0.432259
O O8 0.069459 0.280992 0.750000
O O9 0.563433 0.327097 0.750000
O O10 0.798179 0.940895 0.395727
O O11 0.303908 0.902573 0.414049
O O12 0.500000 0.000000 0.500000
#
# Coordination Sequence:
#
# PCOD9437541 Si02
#       6
#     8   8   4   4   8   8
#     4   9  19  37  58  83 115 155 204 251 305 373
#     4   9  20  39  63  90 121 164 214 262 316 385
#     4  10  22  40  58  88 126 158 201 266 325 370
#     4  10  22  36  58  86 118 156 201 258 311 368
#     4  10  21  36  58  87 117 156 202 254 314 378
#     4  10  20  36  58  84 118 156 199 256 316 373
#
# _framework density 24.401530000000001
#
# number of rings (size 3 to 8) (size 9 to 14) (size 15 to 20)
#    0.000    2.400    0.000    2.400    0.000   14.400 
#    0.000   15.000    0.000    0.000    0.000    0.000 
#    0.000    0.000    0.000    0.000    0.000    0.000 
#
# Total GULP energy -223230.084625 kJ/mol
# GULP energy per Si atom -5580.752116 kJ/mol
# Density = 2.434599 g / cm^3
# Si number density = 24.401530 Si / 1000 Ang^3
#
#
#
# Elastic Constant Matrix: (Units=GPa)
#
#
# Indices 1 2 3 4 5 6 
#
# 1 72.0151 8.4472 31.8169 0.0000 0.0000 0.0000
# 2 8.4472 91.8421 30.2395 0.0000 0.0000 0.0000
# 3 31.8169 30.2395 154.4748 0.0000 0.0000 0.0000
# 4 0.0000 0.0000 0.0000 31.2973 0.0000 0.0000
# 5 0.0000 0.0000 0.0000 0.0000 22.0870 0.0000
# 6 0.0000 0.0000 0.0000 0.0000 0.0000 40.1397
#
#
#
# Elastic Compliance Matrix: (Units=1/GPa)
#
#
# Indices 1 2 3 4 5 6 
#
# 1 0.015289 -0.000395 -0.003072 0.000000 0.000000 0.000000
# 2 -0.000395 0.011649 -0.002199 0.000000 0.000000 0.000000
# 3 -0.003072 -0.002199 0.007537 0.000000 0.000000 0.000000
# 4 0.000000 0.000000 0.000000 0.031952 0.000000 0.000000
# 5 0.000000 0.000000 0.000000 0.000000 0.045275 0.000000
# 6 0.000000 0.000000 0.000000 0.000000 0.000000 0.024913
#
#
# Mechanical properties :
#
#
# Convention : Reuss Voigt Hill
#
# Bulk Modulus (GPa) = 43.20873 51.03767 47.12320
# Shear Modulus (GPa) = 32.12117 35.22670 33.67393
#
# Velocity S-wave (km/s) = 3.63210 3.80363 3.71886
# Velocity P-wave (km/s) = 5.94436 6.34439 6.14763
#
# Compressibility (1/GPa) = 0.02314347
#
# Stress axis : x y z
#
# Youngs Moduli (GPa) = 65.40456 85.84729 132.68382
#
# Poissons Ratio (x) = 0.03390 0.40758
# Poissons Ratio (y) = 0.02582 0.29177
# Poissons Ratio (z) = 0.20091 0.18878
#
# Static dielectric constant tensor:
#      x y z
#    x 1.939510 0.000000 0.000000 
#    y 0.000000 1.992220 0.000000 
#    z 0.000000 0.000000 2.003920 
# 
# From -- ./inp_files/20032.got.cif
#   From: 2010.05.17/outbox.cif.g08.bks.cpg/sg57_11_cif.got.tgz:20032.got - 2010.06.03 13:58:18.
