data_PCOD9437141
_publ_section_title
;
Structure prediction by ZEFSAII (Michael W. Deem and Ramdas Pophale) SiO2 
 PCOD9437141
Probable space group: P B C M
;
_chemical_formula_sum "Si O2"
_cell_formula_units_Z 64
_cell_length_a 16.360101
_cell_length_b 22.461610
_cell_length_c 9.133434
_cell_angle_alpha 90.000000
_cell_angle_beta 90.000000
_cell_angle_gamma 90.000000
_cell_volume 3356.301428
_symmetry_space_group_name_H-M "P B C M"
_symmetry_group_IT_number 57
_symmetry_cell_setting 'orthorhombic'
loop_
_space_group_symop_operation_xyz
x,y,z
-x,-y,1/2+z
x,1/2-y,-z
-x,1/2+y,1/2-z
-x,-y,-z
x,y,1/2-z
-x,1/2+y,z
x,1/2-y,1/2+z
loop_
_atom_site_type_symbol
_atom_site_label
_atom_site_fract_x
_atom_site_fract_y
_atom_site_fract_z
Si Si1 0.221297 0.550396 0.420464
Si Si2 0.296241 0.073003 0.920424
Si Si3 0.381172 0.597914 0.575674
Si Si4 0.522240 0.307551 0.583155
Si Si5 0.763474 0.690194 0.080723
Si Si6 0.967618 0.061294 0.073115
Si Si7 0.540316 0.934031 0.581918
Si Si8 0.961020 0.811014 0.919519
O O1 0.238038 0.565841 0.250000
O O2 0.229467 0.478997 0.432124
O O3 0.293318 0.577837 0.517674
O O4 0.129169 0.567596 0.457582
O O5 0.315466 0.082534 0.750000
O O6 0.266472 0.132631 0.995476
O O7 0.376479 0.050070 0.003125
O O8 0.385163 0.597845 0.750000
O O9 0.403535 0.662440 0.507385
O O10 0.456605 0.558161 0.510099
O O11 0.491965 0.250000 0.500000
O O12 0.545686 0.294311 0.750000
O O13 0.457570 0.361233 0.586801
O O14 0.737723 0.689382 0.250000
O O15 0.862417 0.689083 0.076789
O O16 0.735732 0.750000 0.000000
O O17 0.978345 0.055779 0.250000
O O18 0.009455 0.123858 0.025289
O O19 0.000000 0.000000 0.000000
O O20 0.532717 0.954571 0.750000
O O21 0.987316 0.806998 0.750000
O O22 0.988167 0.750000 0.000000
#
# Coordination Sequence:
#
# PCOD9437141 Si02
#       8
#     8   8   8   8   8   8   8   8
#     4  10  22  39  57  80 115 153 188 234 290 346
#     4  11  22  35  54  81 112 149 191 232 279 337
#     4  10  20  36  57  81 108 143 188 235 279 331
#     4   9  18  33  55  79 106 141 182 230 284 338
#     4  10  20  35  55  80 113 147 183 227 279 337
#     4  10  21  38  61  89 121 156 196 244 300 360
#     4   9  20  36  54  77 108 144 183 230 283 333
#     4   9  19  36  59  86 115 152 194 240 292 351
#
# _framework density 19.068608999999999
#
# number of rings (size 3 to 8) (size 9 to 14) (size 15 to 20)
#    0.750    1.500    0.000    3.000    0.000    3.500 
#    0.000    1.875    0.000    1.500    0.000    0.000 
#    0.000    0.000    0.000    0.000    0.000    0.000 
#
# Total GULP energy -356840.212044 kJ/mol
# GULP energy per Si atom -5575.628313 kJ/mol
# Density = 1.902521 g / cm^3
# Si number density = 19.068609 Si / 1000 Ang^3
#
#
#
# Elastic Constant Matrix: (Units=GPa)
#
#
# Indices 1 2 3 4 5 6 
#
# 1 44.3427 13.9238 28.0811 0.0000 0.0000 0.0000
# 2 13.9238 91.8709 33.3485 0.0000 0.0000 0.0000
# 3 28.0811 33.3485 113.6901 0.0000 0.0000 0.0000
# 4 0.0000 0.0000 0.0000 30.8409 0.0000 0.0000
# 5 0.0000 0.0000 0.0000 0.0000 22.7869 0.0000
# 6 0.0000 0.0000 0.0000 0.0000 0.0000 20.5167
#
#
#
# Elastic Compliance Matrix: (Units=1/GPa)
#
#
# Indices 1 2 3 4 5 6 
#
# 1 0.027018 -0.001872 -0.006124 0.000000 0.000000 0.000000
# 2 -0.001872 0.012312 -0.003149 0.000000 0.000000 0.000000
# 3 -0.006124 -0.003149 0.011232 0.000000 0.000000 0.000000
# 4 0.000000 0.000000 0.000000 0.032424 0.000000 0.000000
# 5 0.000000 0.000000 0.000000 0.000000 0.043885 0.000000
# 6 0.000000 0.000000 0.000000 0.000000 0.000000 0.048741
#
#
# Mechanical properties :
#
#
# Convention : Reuss Voigt Hill
#
# Bulk Modulus (GPa) = 35.37126 44.51226 39.94176
# Shear Modulus (GPa) = 24.11669 26.46560 25.29115
#
# Velocity S-wave (km/s) = 3.56017 3.72951 3.64582
# Velocity P-wave (km/s) = 5.95730 6.47608 6.22210
#
# Compressibility (1/GPa) = 0.02827154
#
# Stress axis : x y z
#
# Youngs Moduli (GPa) = 37.01276 81.22427 89.02962
#
# Poissons Ratio (x) = 0.15203 0.54524
# Poissons Ratio (y) = 0.06928 0.28036
# Poissons Ratio (z) = 0.22668 0.25578
#
# Static dielectric constant tensor:
#      x y z
#    x 1.645080 0.000000 0.000000 
#    y 0.000000 1.746480 0.000000 
#    z 0.000000 0.000000 1.656600 
# 
# From -- ./inp_files/7245.got.cif
#   From: 2010.05.17/outbox.cif.g08.bks.cpg/sg57_4_cif.got.tgz:7245.got - 2010.06.03 13:58:18.
