data_PCOD9437584
_publ_section_title
;
Structure prediction by ZEFSAII (Michael W. Deem and Ramdas Pophale) SiO2 
 PCOD9437584
Probable space group: P B C M
;
_chemical_formula_sum "Si O2"
_cell_formula_units_Z 36
_cell_length_a 21.666556
_cell_length_b 9.153342
_cell_length_c 9.529360
_cell_angle_alpha 90.000000
_cell_angle_beta 90.000000
_cell_angle_gamma 90.000000
_cell_volume 1889.875988
_symmetry_space_group_name_H-M "P B C M"
_symmetry_group_IT_number 57
_symmetry_cell_setting 'orthorhombic'
loop_
_space_group_symop_operation_xyz
x,y,z
-x,-y,1/2+z
x,1/2-y,-z
-x,1/2+y,1/2-z
-x,-y,-z
x,y,1/2-z
-x,1/2+y,z
x,1/2-y,1/2+z
loop_
_atom_site_type_symbol
_atom_site_label
_atom_site_fract_x
_atom_site_fract_y
_atom_site_fract_z
Si Si1 0.669156 0.602415 0.585922
Si Si2 0.912159 0.008828 0.598874
Si Si3 0.550804 0.403283 0.919419
Si Si4 0.996459 0.750000 0.500000
Si Si5 0.190809 0.097780 0.916140
O O1 0.657607 0.750000 0.500000
O O2 0.667550 0.641987 0.750000
O O3 0.616482 0.483803 0.561911
O O4 0.738824 0.548291 0.556403
O O5 0.880707 0.009403 0.750000
O O6 0.959005 0.143485 0.586801
O O7 0.952768 0.861496 0.583731
O O8 0.861629 0.007495 0.476731
O O9 0.539021 0.390264 0.750000
O O10 0.551644 0.250000 0.000000
O O11 0.500000 0.500000 0.000000
O O12 0.182705 0.119571 0.750000
O O13 0.183673 0.250000 0.000000
#
# Coordination Sequence:
#
# PCOD9437584 Si02
#       5
#     8   8   8   4   8
#     4   9  20  38  60  86 118 155 197 243 293 348
#     4  11  22  39  60  85 113 151 194 240 296 354
#     4  11  23  40  62  91 126 162 202 245 295 348
#     4  10  24  38  58  84 118 146 190 240 298 354
#     4  10  20  36  59  85 116 153 196 243 291 349
#
# _framework density 19.048870000000001
#
# number of rings (size 3 to 8) (size 9 to 14) (size 15 to 20)
#    0.000    1.778    1.111    2.667    0.000    8.889 
#    2.000    0.000    0.000    0.000    0.000    0.000 
#    0.000    0.000    0.000    0.000    0.000    0.000 
#
# Total GULP energy -200924.333336 kJ/mol
# GULP energy per Si atom -5581.231482 kJ/mol
# Density = 1.900551 g / cm^3
# Si number density = 19.048870 Si / 1000 Ang^3
#
#
#
# Elastic Constant Matrix: (Units=GPa)
#
#
# Indices 1 2 3 4 5 6 
#
# 1 127.2592 58.3242 72.5337 0.0000 0.0000 0.0000
# 2 58.3242 105.3612 53.6540 0.0000 0.0000 0.0000
# 3 72.5337 53.6540 123.6080 0.0000 0.0000 0.0000
# 4 0.0000 0.0000 0.0000 16.7157 0.0000 0.0000
# 5 0.0000 0.0000 0.0000 0.0000 24.0564 0.0000
# 6 0.0000 0.0000 0.0000 0.0000 0.0000 22.0875
#
#
#
# Elastic Compliance Matrix: (Units=1/GPa)
#
#
# Indices 1 2 3 4 5 6 
#
# 1 0.013172 -0.004308 -0.005860 0.000000 0.000000 0.000000
# 2 -0.004308 0.013593 -0.003373 0.000000 0.000000 0.000000
# 3 -0.005860 -0.003373 0.012992 0.000000 0.000000 0.000000
# 4 0.000000 0.000000 0.000000 0.059824 0.000000 0.000000
# 5 0.000000 0.000000 0.000000 0.000000 0.041569 0.000000
# 6 0.000000 0.000000 0.000000 0.000000 0.000000 0.045275
#
#
# Mechanical properties :
#
#
# Convention : Reuss Voigt Hill
#
# Bulk Modulus (GPa) = 78.87684 80.58358 79.73021
# Shear Modulus (GPa) = 22.96417 24.01969 23.49193
#
# Velocity S-wave (km/s) = 3.47585 3.55484 3.51557
# Velocity P-wave (km/s) = 7.58988 7.69705 7.64365
#
# Compressibility (1/GPa) = 0.01267799
#
# Stress axis : x y z
#
# Youngs Moduli (GPa) = 75.91875 73.56635 76.96775
#
# Poissons Ratio (x) = 0.31690 0.45100
# Poissons Ratio (y) = 0.32703 0.25958
# Poissons Ratio (z) = 0.44485 0.24811
#
# Static dielectric constant tensor:
#      x y z
#    x 1.672480 0.000000 0.000000 
#    y 0.000000 1.640990 0.000000 
#    z 0.000000 0.000000 1.724020 
# 
# From -- ./inp_files/7627.got.cif
#   From: 2010.05.17/outbox.cif.g08.bks.cpg/sg57_4_cif.got.tgz:7627.got - 2010.06.03 13:58:18.
