data_PCOD9437148
_publ_section_title
;
Structure prediction by ZEFSAII (Michael W. Deem and Ramdas Pophale) SiO2 
 PCOD9437148
Probable space group: P B C M
;
_chemical_formula_sum "Si O2"
_cell_formula_units_Z 48
_cell_length_a 7.772704
_cell_length_b 14.183249
_cell_length_c 18.040732
_cell_angle_alpha 90.000000
_cell_angle_beta 90.000000
_cell_angle_gamma 90.000000
_cell_volume 1988.849917
_symmetry_space_group_name_H-M "P B C M"
_symmetry_group_IT_number 57
_symmetry_cell_setting 'orthorhombic'
loop_
_space_group_symop_operation_xyz
x,y,z
-x,-y,1/2+z
x,1/2-y,-z
-x,1/2+y,1/2-z
-x,-y,-z
x,y,1/2-z
-x,1/2+y,z
x,1/2-y,1/2+z
loop_
_atom_site_type_symbol
_atom_site_label
_atom_site_fract_x
_atom_site_fract_y
_atom_site_fract_z
Si Si1 0.003583 0.543605 0.835719
Si Si2 0.165311 0.246830 0.331232
Si Si3 0.319798 0.498994 0.079434
Si Si4 0.762214 0.383480 0.045740
Si Si5 0.131120 0.150387 0.475425
Si Si6 0.470224 0.653573 0.836056
O O1 0.043875 0.525952 0.750000
O O2 0.159054 0.541137 0.894264
O O3 0.937746 0.654166 0.841123
O O4 0.839427 0.484446 0.864461
O O5 0.124619 0.212000 0.250000
O O6 0.363900 0.279475 0.335253
O O7 0.129586 0.164751 0.388370
O O8 0.463013 0.445877 0.127979
O O9 0.360343 0.583012 0.022129
O O10 0.235704 0.427071 0.019771
O O11 0.668152 0.313669 0.102888
O O12 0.935517 0.353984 0.004023
O O13 0.209844 0.250000 0.500000
O O14 0.412508 0.643968 0.750000
#
# Coordination Sequence:
#
# PCOD9437148 Si02
#       6
#     8   8   8   8   8   8
#     4   9  16  30  52  76 105 144 188 228 267 325
#     4   9  18  35  56  80 108 147 192 228 273 337
#     4  10  20  35  55  82 112 147 187 232 274 343
#     4  11  21  33  54  87 116 141 187 239 281 332
#     4  11  18  36  56  84 113 147 190 232 286 326
#     4  10  20  37  59  80 107 148 191 229 278 343
#
# _framework density 24.134551999999999
#
# number of rings (size 3 to 8) (size 9 to 14) (size 15 to 20)
#    0.000    2.000    5.000    4.500    0.000    0.000 
#    3.000    5.000    0.000    0.000    0.000    0.000 
#    0.000    0.000    0.000    0.000    0.000    0.000 
#
# Total GULP energy -267775.835775 kJ/mol
# GULP energy per Si atom -5578.663245 kJ/mol
# Density = 2.407962 g / cm^3
# Si number density = 24.134552 Si / 1000 Ang^3
#
#
#
# Elastic Constant Matrix: (Units=GPa)
#
#
# Indices 1 2 3 4 5 6 
#
# 1 81.0328 -1.0374 24.8040 0.0000 0.0000 0.0000
# 2 -1.0374 38.1015 29.3912 0.0000 0.0000 0.0000
# 3 24.8040 29.3912 206.9720 0.0000 0.0000 0.0000
# 4 0.0000 0.0000 0.0000 33.8351 0.0000 0.0000
# 5 0.0000 0.0000 0.0000 0.0000 35.6370 0.0000
# 6 0.0000 0.0000 0.0000 0.0000 0.0000 8.9480
#
#
#
# Elastic Compliance Matrix: (Units=1/GPa)
#
#
# Indices 1 2 3 4 5 6 
#
# 1 0.012912 0.001735 -0.001794 0.000000 0.000000 0.000000
# 2 0.001735 0.029708 -0.004427 0.000000 0.000000 0.000000
# 3 -0.001794 -0.004427 0.005675 0.000000 0.000000 0.000000
# 4 0.000000 0.000000 0.000000 0.029555 0.000000 0.000000
# 5 0.000000 0.000000 0.000000 0.000000 0.028061 0.000000
# 6 0.000000 0.000000 0.000000 0.000000 0.000000 0.111757
#
#
# Mechanical properties :
#
#
# Convention : Reuss Voigt Hill
#
# Bulk Modulus (GPa) = 25.42945 48.04687 36.73816
# Shear Modulus (GPa) = 20.85541 33.88059 27.36800
#
# Velocity S-wave (km/s) = 2.94280 3.75082 3.37111
# Velocity P-wave (km/s) = 4.70172 6.22169 5.51432
#
# Compressibility (1/GPa) = 0.03932448
#
# Stress axis : x y z
#
# Youngs Moduli (GPa) = 77.44739 33.66143 176.20675
#
# Poissons Ratio (x) = -0.05841 0.31608
# Poissons Ratio (y) = -0.13440 0.78000
# Poissons Ratio (z) = 0.13893 0.14901
#
# Static dielectric constant tensor:
#      x y z
#    x 2.018180 0.000000 0.000000 
#    y 0.000000 2.018300 0.000000 
#    z 0.000000 0.000000 1.981630 
# 
# From -- ./inp_files/21084.got.cif
#   From: 2010.05.17/outbox.cif.g08.bks.cpg/sg57_11_cif.got.tgz:21084.got - 2010.06.03 13:58:18.
