data_PCOD9437017
_publ_section_title
;
Structure prediction by ZEFSAII (Michael W. Deem and Ramdas Pophale) SiO2 
 PCOD9437017
Probable space group: P B C M
;
_chemical_formula_sum "Si O2"
_cell_formula_units_Z 48
_cell_length_a 18.951291
_cell_length_b 5.272864
_cell_length_c 19.813893
_cell_angle_alpha 90.000000
_cell_angle_beta 90.000000
_cell_angle_gamma 90.000000
_cell_volume 1979.954379
_symmetry_space_group_name_H-M "P B C M"
_symmetry_group_IT_number 57
_symmetry_cell_setting 'orthorhombic'
loop_
_space_group_symop_operation_xyz
x,y,z
-x,-y,1/2+z
x,1/2-y,-z
-x,1/2+y,1/2-z
-x,-y,-z
x,y,1/2-z
-x,1/2+y,z
x,1/2-y,1/2+z
loop_
_atom_site_type_symbol
_atom_site_label
_atom_site_fract_x
_atom_site_fract_y
_atom_site_fract_z
Si Si1 0.960275 0.943937 0.668680
Si Si2 0.304763 0.668668 0.750000
Si Si3 0.321645 0.750000 0.000000
Si Si4 0.837357 0.294346 0.823602
Si Si5 0.343805 0.406272 0.617528
Si Si6 0.453618 0.065045 0.828509
Si Si7 0.211039 0.364533 0.432594
O O1 0.964368 0.927028 0.750000
O O2 0.880492 0.043511 0.656479
O O3 0.990917 0.677808 0.644176
O O4 0.351960 0.545722 0.689161
O O5 0.245215 0.759472 0.693227
O O6 0.363814 0.577823 0.946527
O O7 0.268211 0.933027 0.960120
O O8 0.867408 0.380739 0.750000
O O9 0.840697 0.497603 0.881866
O O10 0.388279 0.146936 0.625268
O O11 0.262184 0.331703 0.605653
O O12 0.428059 0.057109 0.750000
O O13 0.507229 0.300169 0.838948
O O14 0.177415 0.250000 0.500000
#
# Coordination Sequence:
#
# PCOD9437017 Si02
#       7
#     8   4   4   8   8   8   8
#     4   9  18  34  54  81 122 167 200 250 312 363
#     4  10  20  34  58  94 118 150 194 264 312 356
#     4  10  20  42  58  84 128 160 198 240 332 376
#     4   9  19  35  56  92 120 153 208 258 305 370
#     4  11  22  38  63  89 122 160 202 260 315 373
#     4  10  23  41  62  90 123 165 210 253 310 374
#     4  10  22  37  60  87 121 163 199 252 323 380
#
# _framework density 24.242985000000001
#
# number of rings (size 3 to 8) (size 9 to 14) (size 15 to 20)
#    0.500    1.667    2.500    0.000    3.500    1.333 
#    6.000    0.833    0.000    1.000    0.000    0.000 
#    0.000    0.000    0.000    0.000    0.000    0.000 
#
# Total GULP energy -267255.548509 kJ/mol
# GULP energy per Si atom -5567.823927 kJ/mol
# Density = 2.418781 g / cm^3
# Si number density = 24.242985 Si / 1000 Ang^3
#
#
#
# Elastic Constant Matrix: (Units=GPa)
#
#
# Indices 1 2 3 4 5 6 
#
# 1 37.4278 -0.8048 15.8482 0.0000 0.0000 0.0000
# 2 -0.8048 85.0313 36.3712 0.0000 0.0000 0.0000
# 3 15.8482 36.3712 101.2920 0.0000 0.0000 0.0000
# 4 0.0000 0.0000 0.0000 22.1585 0.0000 0.0000
# 5 0.0000 0.0000 0.0000 0.0000 10.4619 0.0000
# 6 0.0000 0.0000 0.0000 0.0000 0.0000 37.1515
#
#
#
# Elastic Compliance Matrix: (Units=1/GPa)
#
#
# Indices 1 2 3 4 5 6 
#
# 1 0.029102 0.002626 -0.005496 0.000000 0.000000 0.000000
# 2 0.002626 0.014131 -0.005485 0.000000 0.000000 0.000000
# 3 -0.005496 -0.005485 0.012702 0.000000 0.000000 0.000000
# 4 0.000000 0.000000 0.000000 0.045129 0.000000 0.000000
# 5 0.000000 0.000000 0.000000 0.000000 0.095585 0.000000
# 6 0.000000 0.000000 0.000000 0.000000 0.000000 0.026917
#
#
# Mechanical properties :
#
#
# Convention : Reuss Voigt Hill
#
# Bulk Modulus (GPa) = 25.49381 36.28670 30.89025
# Shear Modulus (GPa) = 19.73544 25.44350 22.58947
#
# Velocity S-wave (km/s) = 2.85628 3.24314 3.05584
# Velocity P-wave (km/s) = 4.62781 5.38743 5.02200
#
# Compressibility (1/GPa) = 0.03922521
#
# Stress axis : x y z
#
# Youngs Moduli (GPa) = 34.36195 70.76418 78.72786
#
# Poissons Ratio (x) = -0.18586 0.43272
# Poissons Ratio (y) = -0.09025 0.43183
# Poissons Ratio (z) = 0.18887 0.38815
#
# Static dielectric constant tensor:
#      x y z
#    x 2.016340 0.000000 0.000000 
#    y 0.000000 2.045360 0.000000 
#    z 0.000000 0.000000 1.925200 
# 
# From -- ./inp_files/25711.got.cif
#   From: 2010.05.17/outbox.cif.g08.bks.cpg/sg57_13_cif.got.tgz:25711.got - 2010.06.03 13:58:18.
