data_PCOD9437591
_publ_section_title
;
Structure prediction by ZEFSAII (Michael W. Deem and Ramdas Pophale) SiO2 
 PCOD9437591
Probable space group: P B C M
;
_chemical_formula_sum "Si O2"
_cell_formula_units_Z 32
_cell_length_a 21.465611
_cell_length_b 9.252398
_cell_length_c 8.655995
_cell_angle_alpha 90.000000
_cell_angle_beta 90.000000
_cell_angle_gamma 90.000000
_cell_volume 1719.153112
_symmetry_space_group_name_H-M "P B C M"
_symmetry_group_IT_number 57
_symmetry_cell_setting 'orthorhombic'
loop_
_space_group_symop_operation_xyz
x,y,z
-x,-y,1/2+z
x,1/2-y,-z
-x,1/2+y,1/2-z
-x,-y,-z
x,y,1/2-z
-x,1/2+y,z
x,1/2-y,1/2+z
loop_
_atom_site_type_symbol
_atom_site_label
_atom_site_fract_x
_atom_site_fract_y
_atom_site_fract_z
Si Si1 0.441402 0.588396 0.065354
Si Si2 0.813572 0.913258 0.565232
Si Si3 0.325092 0.413554 0.564427
Si Si4 0.058348 0.086882 0.934385
O O1 0.444095 0.590870 0.250000
O O2 0.443376 0.750000 0.000000
O O3 0.500000 0.500000 0.000000
O O4 0.378616 0.509834 0.009490
O O5 0.811450 0.750000 0.500000
O O6 0.821141 0.909201 0.750000
O O7 0.744691 0.972563 0.529662
O O8 0.875514 0.979185 0.490547
O O9 0.329808 0.250000 0.500000
O O10 0.332026 0.408927 0.750000
O O11 0.056954 0.090944 0.750000
O O12 0.055280 0.250000 0.000000
O O13 0.000000 0.000000 0.000000
#
# Coordination Sequence:
#
# PCOD9437591 Si02
#       4
#     8   8   8   8
#     4  12  25  42  62  85 115 149 187 229 276 328
#     4   9  17  31  53  80 110 144 184 227 273 328
#     4  10  20  36  59  87 116 147 185 228 275 328
#     4  11  21  35  55  80 111 146 187 232 280 332
#
# _framework density 18.613814999999999
#
# number of rings (size 3 to 8) (size 9 to 14) (size 15 to 20)
#    0.000    1.500    0.000    8.250    0.000    3.000 
#    0.000    1.250    0.000    6.000    0.000    0.000 
#    0.000    0.000    0.000    0.000    0.000    0.000 
#
# Total GULP energy -178719.239934 kJ/mol
# GULP energy per Si atom -5584.976248 kJ/mol
# Density = 1.857145 g / cm^3
# Si number density = 18.613815 Si / 1000 Ang^3
#
#
#
# Elastic Constant Matrix: (Units=GPa)
#
#
# Indices 1 2 3 4 5 6 
#
# 1 223.7580 81.7332 106.4084 0.0000 0.0000 0.0000
# 2 81.7332 83.7642 50.6759 0.0000 0.0000 0.0000
# 3 106.4084 50.6759 174.6310 0.0000 0.0000 0.0000
# 4 0.0000 0.0000 0.0000 29.5568 0.0000 0.0000
# 5 0.0000 0.0000 0.0000 0.0000 37.1542 0.0000
# 6 0.0000 0.0000 0.0000 0.0000 0.0000 36.0598
#
#
#
# Elastic Compliance Matrix: (Units=1/GPa)
#
#
# Indices 1 2 3 4 5 6 
#
# 1 0.008232 -0.006062 -0.003257 0.000000 0.000000 0.000000
# 2 -0.006062 0.018945 -0.001804 0.000000 0.000000 0.000000
# 3 -0.003257 -0.001804 0.008234 0.000000 0.000000 0.000000
# 4 0.000000 0.000000 0.000000 0.033833 0.000000 0.000000
# 5 0.000000 0.000000 0.000000 0.000000 0.026915 0.000000
# 6 0.000000 0.000000 0.000000 0.000000 0.000000 0.027732
#
#
# Mechanical properties :
#
#
# Convention : Reuss Voigt Hill
#
# Bulk Modulus (GPa) = 75.95551 106.64314 91.29933
# Shear Modulus (GPa) = 33.21689 36.77655 34.99672
#
# Velocity S-wave (km/s) = 4.22895 4.44978 4.34077
# Velocity P-wave (km/s) = 8.04611 9.15519 8.61851
#
# Compressibility (1/GPa) = 0.01316560
#
# Stress axis : x y z
#
# Youngs Moduli (GPa) = 121.47046 52.78503 121.44217
#
# Poissons Ratio (x) = 0.32000 0.39555
# Poissons Ratio (y) = 0.73640 0.21903
# Poissons Ratio (z) = 0.39564 0.09520
#
# Static dielectric constant tensor:
#      x y z
#    x 1.683040 0.000000 0.000000 
#    y 0.000000 1.605180 0.000000 
#    z 0.000000 0.000000 1.617930 
# 
# From -- ./inp_files/6195.got.cif
#   From: 2010.05.17/outbox.cif.g08.bks.cpg/sg57_4_cif.got.tgz:6195.got - 2010.06.03 13:58:18.
