data_PCOD9437153
_publ_section_title
;
Structure prediction by ZEFSAII (Michael W. Deem and Ramdas Pophale) SiO2 
 PCOD9437153
Probable space group: P B C M
;
_chemical_formula_sum "Si O2"
_cell_formula_units_Z 48
_cell_length_a 29.705471
_cell_length_b 9.006076
_cell_length_c 9.928101
_cell_angle_alpha 90.000000
_cell_angle_beta 90.000000
_cell_angle_gamma 90.000000
_cell_volume 2656.062174
_symmetry_space_group_name_H-M "P B C M"
_symmetry_group_IT_number 57
_symmetry_cell_setting 'orthorhombic'
loop_
_space_group_symop_operation_xyz
x,y,z
-x,-y,1/2+z
x,1/2-y,-z
-x,1/2+y,1/2-z
-x,-y,-z
x,y,1/2-z
-x,1/2+y,z
x,1/2-y,1/2+z
loop_
_atom_site_type_symbol
_atom_site_label
_atom_site_fract_x
_atom_site_fract_y
_atom_site_fract_z
Si Si1 0.719313 0.607418 0.091869
Si Si2 0.534091 0.098718 0.587204
Si Si3 0.941146 0.934045 0.250000
Si Si4 0.802402 0.109556 0.906324
Si Si5 0.038496 0.419320 0.750000
Si Si6 0.904595 0.072187 0.516433
Si Si7 0.363768 0.606662 0.906490
O O1 0.717421 0.646521 0.250000
O O2 0.764582 0.513085 0.069595
O O3 0.675640 0.507723 0.061259
O O4 0.719507 0.750000 0.000000
O O5 0.534605 0.250000 0.500000
O O6 0.523372 0.114140 0.750000
O O7 0.585749 0.041678 0.580652
O O8 0.500000 0.000000 0.500000
O O9 0.953696 0.758826 0.250000
O O10 0.912957 0.984600 0.379086
O O11 0.986493 0.033351 0.250000
O O12 0.800064 0.154211 0.750000
O O13 0.793483 0.250000 0.000000
O O14 0.853096 0.056438 0.936131
O O15 0.062067 0.497060 0.622713
O O16 0.913213 0.250000 0.500000
O O17 0.358451 0.651584 0.750000
O O18 0.360024 0.750000 0.000000
#
# Coordination Sequence:
#
# PCOD9437153 Si02
#       7
#     8   8   4   8   4   8   8
#     4  10  22  39  57  86 120 153 191 240 290 344
#     4  10  20  35  55  82 114 153 196 246 299 356
#     4  12  26  40  66  90 120 166 194 246 297 348
#     4  10  22  40  64  89 117 151 192 236 285 347
#     4  12  24  44  62  92 126 154 204 242 295 352
#     4  11  23  42  64  91 121 156 199 246 293 351
#     4   9  19  36  58  82 112 149 197 244 291 351
#
# _framework density 18.071867000000001
#
# number of rings (size 3 to 8) (size 9 to 14) (size 15 to 20)
#    0.000    1.667    0.833    3.500    3.500    4.000 
#    0.000    1.667    0.000    0.000    0.000    0.000 
#    0.000    0.000    0.000    0.000    0.000    0.000 
#
# Total GULP energy -267884.776464 kJ/mol
# GULP energy per Si atom -5580.932843 kJ/mol
# Density = 1.803073 g / cm^3
# Si number density = 18.071867 Si / 1000 Ang^3
#
#
#
# Elastic Constant Matrix: (Units=GPa)
#
#
# Indices 1 2 3 4 5 6 
#
# 1 94.9093 61.6345 55.4535 0.0000 0.0000 0.0000
# 2 61.6345 94.7608 51.6753 0.0000 0.0000 0.0000
# 3 55.4535 51.6753 113.5157 0.0000 0.0000 0.0000
# 4 0.0000 0.0000 0.0000 41.0159 0.0000 0.0000
# 5 0.0000 0.0000 0.0000 0.0000 30.0314 0.0000
# 6 0.0000 0.0000 0.0000 0.0000 0.0000 8.8237
#
#
#
# Elastic Compliance Matrix: (Units=1/GPa)
#
#
# Indices 1 2 3 4 5 6 
#
# 1 0.020313 -0.010377 -0.005199 0.000000 0.000000 0.000000
# 2 -0.010377 0.019338 -0.003734 0.000000 0.000000 0.000000
# 3 -0.005199 -0.003734 0.013049 0.000000 0.000000 0.000000
# 4 0.000000 0.000000 0.000000 0.024381 0.000000 0.000000
# 5 0.000000 0.000000 0.000000 0.000000 0.033298 0.000000
# 6 0.000000 0.000000 0.000000 0.000000 0.000000 0.113331
#
#
# Mechanical properties :
#
#
# Convention : Reuss Voigt Hill
#
# Bulk Modulus (GPa) = 71.02233 71.19027 71.10630
# Shear Modulus (GPa) = 18.72484 24.93570 21.83027
#
# Velocity S-wave (km/s) = 3.22239 3.71861 3.47936
# Velocity P-wave (km/s) = 7.29591 7.61024 7.45473
#
# Compressibility (1/GPa) = 0.01408008
#
# Stress axis : x y z
#
# Youngs Moduli (GPa) = 49.22996 51.71052 76.63298
#
# Poissons Ratio (x) = 0.53658 0.39844
# Poissons Ratio (y) = 0.51084 0.28617
# Poissons Ratio (z) = 0.25596 0.19310
#
# Static dielectric constant tensor:
#      x y z
#    x 1.622780 0.000000 0.000000 
#    y 0.000000 1.595480 0.000000 
#    z 0.000000 0.000000 1.633520 
# 
# From -- ./inp_files/10162.got.cif
#   From: 2010.05.17/outbox.cif.g08.bks.cpg/sg57_6_cif.got.tgz:10162.got - 2010.06.03 13:58:18.
