data_PCOD9437714
_publ_section_title
;
Structure prediction by ZEFSAII (Michael W. Deem and Ramdas Pophale) SiO2 
 PCOD9437714
Probable space group: P B C M
;
_chemical_formula_sum "Si O2"
_cell_formula_units_Z 64
_cell_length_a 14.137408
_cell_length_b 10.102273
_cell_length_c 26.210134
_cell_angle_alpha 90.000000
_cell_angle_beta 90.000000
_cell_angle_gamma 90.000000
_cell_volume 3743.330162
_symmetry_space_group_name_H-M "P B C M"
_symmetry_group_IT_number 57
_symmetry_cell_setting 'orthorhombic'
loop_
_space_group_symop_operation_xyz
x,y,z
-x,-y,1/2+z
x,1/2-y,-z
-x,1/2+y,1/2-z
-x,-y,-z
x,y,1/2-z
-x,1/2+y,z
x,1/2-y,1/2+z
loop_
_atom_site_type_symbol
_atom_site_label
_atom_site_fract_x
_atom_site_fract_y
_atom_site_fract_z
Si Si1 0.906373 0.390153 0.811704
Si Si2 0.926422 0.414647 0.311667
Si Si3 0.707728 0.449637 0.865145
Si Si4 0.279809 0.998284 0.310411
Si Si5 0.579340 0.232143 0.811430
Si Si6 0.584879 0.868255 0.540591
Si Si7 0.366534 0.244331 0.851801
Si Si8 0.364786 0.892986 0.974451
O O1 0.891606 0.400015 0.750000
O O2 0.938461 0.240112 0.822875
O O3 0.808617 0.417432 0.840377
O O4 0.987074 0.493323 0.828067
O O5 0.924310 0.426862 0.250000
O O6 0.823770 0.462001 0.331328
O O7 0.631105 0.357535 0.836409
O O8 0.682187 0.602607 0.856437
O O9 0.700268 0.417978 0.925419
O O10 0.275440 0.974724 0.250000
O O11 0.308292 0.149091 0.319438
O O12 0.361373 0.897491 0.329005
O O13 0.582416 0.242098 0.750000
O O14 0.471361 0.225162 0.829109
O O15 0.590008 0.750000 0.500000
O O16 0.622876 0.813044 0.593284
O O17 0.473539 0.902658 0.545810
O O18 0.639462 0.993884 0.517588
O O19 0.351067 0.750000 0.000000
#
# Coordination Sequence:
#
# PCOD9437714 Si02
#       8
#     8   8   8   8   8   8   8   8
#     4  10  21  37  60  85 117 148 188 245 292 339
#     4   9  19  37  58  82 112 150 190 239 289 329
#     4  12  23  37  57  87 113 150 197 240 290 343
#     4  10  22  38  55  80 119 160 197 231 276 339
#     4  11  23  38  52  77 123 166 197 230 272 333
#     4  10  20  37  52  79 114 145 188 243 287 324
#     4  12  24  34  56  84 119 158 193 231 282 347
#     4  10  22  35  59  80 107 148 193 241 288 342
#
# _framework density 17.097076000000001
#
# number of rings (size 3 to 8) (size 9 to 14) (size 15 to 20)
#    0.000    1.500    3.750    1.500    3.500    3.000 
#    0.000    0.000    0.000    0.000    0.000    4.375 
#    0.000    0.000    0.000    0.000    0.000    0.000 
#
# Total GULP energy -357307.624028 kJ/mol
# GULP energy per Si atom -5582.931625 kJ/mol
# Density = 1.705816 g / cm^3
# Si number density = 17.097076 Si / 1000 Ang^3
#
#
#
# Elastic Constant Matrix: (Units=GPa)
#
#
# Indices 1 2 3 4 5 6 
#
# 1 94.2177 60.7765 32.7738 0.0000 0.0000 0.0000
# 2 60.7765 134.7558 25.6699 0.0000 0.0000 0.0000
# 3 32.7738 25.6699 47.5278 0.0000 0.0000 0.0000
# 4 0.0000 0.0000 0.0000 23.1564 0.0000 0.0000
# 5 0.0000 0.0000 0.0000 0.0000 9.8924 0.0000
# 6 0.0000 0.0000 0.0000 0.0000 0.0000 23.8378
#
#
#
# Elastic Compliance Matrix: (Units=1/GPa)
#
#
# Indices 1 2 3 4 5 6 
#
# 1 0.017772 -0.006332 -0.008835 0.000000 0.000000 0.000000
# 2 -0.006332 0.010528 -0.001320 0.000000 0.000000 0.000000
# 3 -0.008835 -0.001320 0.027845 0.000000 0.000000 0.000000
# 4 0.000000 0.000000 0.000000 0.043185 0.000000 0.000000
# 5 0.000000 0.000000 0.000000 0.000000 0.101088 0.000000
# 6 0.000000 0.000000 0.000000 0.000000 0.000000 0.041950
#
#
# Mechanical properties :
#
#
# Convention : Reuss Voigt Hill
#
# Bulk Modulus (GPa) = 43.15626 57.21574 50.18600
# Shear Modulus (GPa) = 17.66380 21.86273 19.76326
#
# Velocity S-wave (km/s) = 3.21775 3.57983 3.40361
# Velocity P-wave (km/s) = 6.25315 7.11511 6.69801
#
# Compressibility (1/GPa) = 0.02317161
#
# Stress axis : x y z
#
# Youngs Moduli (GPa) = 56.26952 94.98340 35.91268
#
# Poissons Ratio (x) = 0.60146 0.31728
# Poissons Ratio (y) = 0.35631 0.04740
# Poissons Ratio (z) = 0.49713 0.12535
#
# Static dielectric constant tensor:
#      x y z
#    x 1.569290 0.000000 0.000000 
#    y 0.000000 1.584960 0.000000 
#    z 0.000000 0.000000 1.584040 
# 
# From -- ./inp_files/27485.got.cif
#   From: 2010.05.17/outbox.cif.g08.bks.cpg/sg57_14_cif.got.tgz:27485.got - 2010.06.03 13:58:18.
