data_PCOD9437151
_publ_section_title
;
Structure prediction by ZEFSAII (Michael W. Deem and Ramdas Pophale) SiO2 
 PCOD9437151
Probable space group: P B C M
;
_chemical_formula_sum "Si O2"
_cell_formula_units_Z 56
_cell_length_a 21.868220
_cell_length_b 15.916550
_cell_length_c 8.418066
_cell_angle_alpha 90.000000
_cell_angle_beta 90.000000
_cell_angle_gamma 90.000000
_cell_volume 2930.047755
_symmetry_space_group_name_H-M "P B C M"
_symmetry_group_IT_number 57
_symmetry_cell_setting 'orthorhombic'
loop_
_space_group_symop_operation_xyz
x,y,z
-x,-y,1/2+z
x,1/2-y,-z
-x,1/2+y,1/2-z
-x,-y,-z
x,y,1/2-z
-x,1/2+y,z
x,1/2-y,1/2+z
loop_
_atom_site_type_symbol
_atom_site_label
_atom_site_fract_x
_atom_site_fract_y
_atom_site_fract_z
Si Si1 0.851119 0.498106 0.942091
Si Si2 0.289282 0.997549 0.944109
Si Si3 0.066585 0.657954 0.441691
Si Si4 0.500741 0.595840 0.940657
Si Si5 0.925454 0.657818 0.059726
Si Si6 0.371605 0.659375 0.059919
Si Si7 0.633304 0.841236 0.058413
O O1 0.851067 0.496731 0.750000
O O2 0.780893 0.494074 0.996166
O O3 0.890224 0.417549 0.997332
O O4 0.883530 0.583381 0.996286
O O5 0.289715 0.997291 0.750000
O O6 0.323173 0.082798 0.995283
O O7 0.328349 0.916745 0.995815
O O8 0.086056 0.750000 0.500000
O O9 0.067087 0.658438 0.250000
O O10 0.996103 0.644515 0.493565
O O11 0.500222 0.595810 0.750000
O O12 0.563862 0.638966 0.994890
O O13 0.500000 0.500000 0.000000
O O14 0.440408 0.641753 0.002130
O O15 0.924462 0.657349 0.250000
O O16 0.906410 0.750000 0.000000
O O17 0.371719 0.659064 0.250000
O O18 0.350762 0.750000 0.000000
O O19 0.633389 0.841409 0.250000
O O20 0.652763 0.750000 0.000000
#
# Coordination Sequence:
#
# PCOD9437151 Si02
#       7
#     8   8   8   8   8   8   8
#     4  10  20  36  58  81 109 148 189 228 278 329
#     4   9  20  39  57  76 111 151 184 226 276 328
#     4   9  19  34  55  83 112 145 182 226 279 330
#     4  11  21  36  60  86 113 144 182 230 285 335
#     4  10  20  35  55  82 114 144 181 229 278 330
#     4  11  22  39  59  83 114 148 187 231 281 335
#     4  10  21  38  57  80 107 142 180 222 275 326
#
# _framework density 19.112317000000001
#
# number of rings (size 3 to 8) (size 9 to 14) (size 15 to 20)
#    0.000    2.000    1.429    2.143    0.000    4.571 
#    0.000    3.571    0.000    0.000    0.000    0.000 
#    0.000    0.000    0.000    0.000    0.000    0.000 
#
# Total GULP energy -312809.165053 kJ/mol
# GULP energy per Si atom -5585.877947 kJ/mol
# Density = 1.906882 g / cm^3
# Si number density = 19.112317 Si / 1000 Ang^3
#
#
#
# Elastic Constant Matrix: (Units=GPa)
#
#
# Indices 1 2 3 4 5 6 
#
# 1 127.1445 93.0133 17.5480 0.0000 0.0000 0.0000
# 2 93.0133 180.6524 17.0930 0.0000 0.0000 0.0000
# 3 17.5480 17.0930 18.7448 0.0000 0.0000 0.0000
# 4 0.0000 0.0000 0.0000 35.3189 0.0000 0.0000
# 5 0.0000 0.0000 0.0000 0.0000 16.1621 0.0000
# 6 0.0000 0.0000 0.0000 0.0000 0.0000 -2.8668
#
#
#
# Elastic Compliance Matrix: (Units=1/GPa)
#
#
# Indices 1 2 3 4 5 6 
#
# 1 0.013371 -0.006238 -0.006829 0.000000 0.000000 0.000000
# 2 -0.006238 0.008969 -0.002338 0.000000 0.000000 0.000000
# 3 -0.006829 -0.002338 0.061873 0.000000 0.000000 0.000000
# 4 0.000000 0.000000 0.000000 0.028313 0.000000 0.000000
# 5 0.000000 0.000000 0.000000 0.000000 0.061873 0.000000
# 6 0.000000 0.000000 0.000000 0.000000 0.000000 -0.348822
#
#
# Mechanical properties :
#
#
# Convention : Reuss Voigt Hill
#
# Bulk Modulus (GPa) = 18.72587 64.65003 41.68795
# Shear Modulus (GPa) = -39.74243 22.98199 -8.38022
#
# Velocity S-wave (km/s) = -4.56501 3.47143 -2.09624
# Velocity P-wave (km/s) = 4.23871 7.06877 4.00006
#
# Compressibility (1/GPa) = 0.05340207
#
# Stress axis : x y z
#
# Youngs Moduli (GPa) = 74.78704 111.49840 16.16208
#
# Poissons Ratio (x) = 0.69557 0.11037
# Poissons Ratio (y) = 0.46655 0.03779
# Poissons Ratio (z) = 0.51071 0.26072
#
# Static dielectric constant tensor:
#      x y z
#    x 1.655540 0.000000 0.000000 
#    y 0.000000 1.639460 0.000000 
#    z 0.000000 0.000000 1.658570 
# 
# From -- ./inp_files/8019.got.cif
#   From: 2010.05.17/outbox.cif.g08.bks.cpg/sg57_5_cif.got.tgz:8019.got - 2010.06.03 13:58:18.
