data_PCOD9437571
_publ_section_title
;
Structure prediction by ZEFSAII (Michael W. Deem and Ramdas Pophale) SiO2 
 PCOD9437571
Probable space group: P B C M
;
_chemical_formula_sum "Si O2"
_cell_formula_units_Z 60
_cell_length_a 9.317169
_cell_length_b 27.152836
_cell_length_c 12.757095
_cell_angle_alpha 90.000000
_cell_angle_beta 90.000000
_cell_angle_gamma 90.000000
_cell_volume 3227.386360
_symmetry_space_group_name_H-M "P B C M"
_symmetry_group_IT_number 57
_symmetry_cell_setting 'orthorhombic'
loop_
_space_group_symop_operation_xyz
x,y,z
-x,-y,1/2+z
x,1/2-y,-z
-x,1/2+y,1/2-z
-x,-y,-z
x,y,1/2-z
-x,1/2+y,z
x,1/2-y,1/2+z
loop_
_atom_site_type_symbol
_atom_site_label
_atom_site_fract_x
_atom_site_fract_y
_atom_site_fract_z
Si Si1 0.134757 0.693888 0.983940
Si Si2 0.109765 0.173158 0.129002
Si Si3 0.559503 0.915345 0.130229
Si Si4 0.186492 0.074491 0.027907
Si Si5 0.047785 0.898536 0.367161
Si Si6 0.703943 0.024190 0.629000
Si Si7 0.312363 0.250000 0.000000
Si Si8 0.439817 0.694254 0.871669
O O1 0.066327 0.659063 0.894397
O O2 0.302237 0.696826 0.949936
O O3 0.090395 0.750000 0.000000
O O4 0.056005 0.671492 0.087051
O O5 0.114874 0.188131 0.250000
O O6 0.209656 0.209940 0.058739
O O7 0.169047 0.117760 0.112736
O O8 0.603898 0.926614 0.250000
O O9 0.688254 0.910618 0.051118
O O10 0.451083 0.957705 0.092144
O O11 0.480890 0.862992 0.132734
O O12 0.047017 0.076098 0.955321
O O13 0.222776 0.020908 0.070950
O O14 0.989024 0.904217 0.250000
O O15 0.198057 0.926984 0.372314
O O16 0.688914 0.009316 0.750000
O O17 0.422742 0.276346 0.081886
O O18 0.406730 0.709773 0.750000
#
# Coordination Sequence:
#
# PCOD9437571 Si02
#       8
#     8   8   8   8   8   8   4   8
#     4  11  22  40  61  89 118 155 202 247 302 355
#     4  11  25  42  59  87 125 160 199 248 301 366
#     4  10  20  36  59  88 117 148 198 250 297 354
#     4  11  21  37  59  87 120 157 197 247 308 361
#     4  10  21  37  59  87 117 153 204 253 297 356
#     4  10  20  36  59  84 115 159 199 244 301 357
#     4  12  22  44  60  92 120 162 200 244 304 368
#     4  11  22  39  63  89 120 155 200 252 297 354
#
# _framework density 18.590895
#
# number of rings (size 3 to 8) (size 9 to 14) (size 15 to 20)
#    0.000    1.333    4.000    2.400    0.000    1.067 
#    0.000    0.000    0.000    0.800    0.000    0.000 
#    0.000    0.000    0.000    0.000    0.000    0.000 
#
# Total GULP energy -334105.260767 kJ/mol
# GULP energy per Si atom -5568.421013 kJ/mol
# Density = 1.854858 g / cm^3
# Si number density = 18.590895 Si / 1000 Ang^3
#
#
#
# Elastic Constant Matrix: (Units=GPa)
#
#
# Indices 1 2 3 4 5 6 
#
# 1 75.0488 -3.0773 30.9631 0.0000 0.0000 0.0000
# 2 -3.0773 70.7066 17.4795 0.0000 0.0000 0.0000
# 3 30.9631 17.4795 76.6789 0.0000 0.0000 0.0000
# 4 0.0000 0.0000 0.0000 19.1835 0.0000 0.0000
# 5 0.0000 0.0000 0.0000 0.0000 15.7902 0.0000
# 6 0.0000 0.0000 0.0000 0.0000 0.0000-1103.7715
#
#
#
# Elastic Compliance Matrix: (Units=1/GPa)
#
#
# Indices 1 2 3 4 5 6 
#
# 1 0.016392 0.002490 -0.007187 0.000000 0.000000 0.000000
# 2 0.002490 0.015366 -0.004508 0.000000 0.000000 0.000000
# 3 -0.007187 -0.004508 0.016971 0.000000 0.000000 0.000000
# 4 0.000000 0.000000 0.000000 0.052128 0.000000 0.000000
# 5 0.000000 0.000000 0.000000 0.000000 0.063331 0.000000
# 6 0.000000 0.000000 0.000000 0.000000 0.000000 -0.000906
#
#
# Mechanical properties :
#
#
# Convention : Reuss Voigt Hill
#
# Bulk Modulus (GPa) = 32.98266 34.79609 33.88938
# Shear Modulus (GPa) = 26.06919 -201.95496 -87.94289
#
# Velocity S-wave (km/s) = 3.74873 -10.43393 -6.88527
# Velocity P-wave (km/s) = 6.04294 11.24271 6.70378
#
# Compressibility (1/GPa) = 0.03031896
#
# Stress axis : x y z
#
# Youngs Moduli (GPa) = 61.00626 65.07958 58.92392
#
# Poissons Ratio (x) = -0.16205 0.42346
# Poissons Ratio (y) = -0.15191 0.26564
# Poissons Ratio (z) = 0.43843 0.29339
#
# Static dielectric constant tensor:
#      x y z
#    x 1.680080 0.000000 0.000000 
#    y 0.000000 1.658810 0.000000 
#    z 0.000000 0.000000 1.638860 
# 
# From -- ./inp_files/12160.got.cif
#   From: 2010.05.17/outbox.cif.g08.bks.cpg/sg57_7_cif.got.tgz:12160.got - 2010.06.03 13:58:18.
