data_PCOD9437708
_publ_section_title
;
Structure prediction by ZEFSAII (Michael W. Deem and Ramdas Pophale) SiO2 
 PCOD9437708
Probable space group: P B C M
;
_chemical_formula_sum "Si O2"
_cell_formula_units_Z 40
_cell_length_a 7.864730
_cell_length_b 12.222680
_cell_length_c 17.911287
_cell_angle_alpha 90.000000
_cell_angle_beta 90.000000
_cell_angle_gamma 90.000000
_cell_volume 1721.777595
_symmetry_space_group_name_H-M "P B C M"
_symmetry_group_IT_number 57
_symmetry_cell_setting 'orthorhombic'
loop_
_space_group_symop_operation_xyz
x,y,z
-x,-y,1/2+z
x,1/2-y,-z
-x,1/2+y,1/2-z
-x,-y,-z
x,y,1/2-z
-x,1/2+y,z
x,1/2-y,1/2+z
loop_
_atom_site_type_symbol
_atom_site_label
_atom_site_fract_x
_atom_site_fract_y
_atom_site_fract_z
Si Si1 0.369143 0.027575 0.065284
Si Si2 0.285141 0.207575 0.164469
Si Si3 0.903084 0.106857 0.165966
Si Si4 0.141803 0.394921 0.064289
Si Si5 0.766846 0.300487 0.076482
O O1 0.409280 0.119247 0.126114
O O2 0.325502 0.910927 0.101307
O O3 0.214495 0.077815 0.016684
O O4 0.500000 0.000000 0.000000
O O5 0.328854 0.235008 0.250000
O O6 0.260931 0.312168 0.111035
O O7 0.099003 0.148416 0.166282
O O8 0.860629 0.073227 0.250000
O O9 0.791024 0.208429 0.138077
O O10 0.876468 0.006284 0.110599
O O11 0.957691 0.340668 0.056850
O O12 0.691735 0.250000 0.000000
#
# Coordination Sequence:
#
# PCOD9437708 Si02
#       5
#     8   8   8   8   8
#     4  12  25  41  65  89 131 174 215 259 314 390
#     4  10  22  40  64  97 130 163 209 268 327 378
#     4  10  20  36  66 101 128 158 208 270 328 378
#     4  11  20  40  66  95 124 163 214 268 321 377
#     4  11  21  37  64  92 124 162 212 270 315 372
#
# _framework density 23.231805000000001
#
# number of rings (size 3 to 8) (size 9 to 14) (size 15 to 20)
#    0.000    1.200    4.000    4.200    0.000    3.200 
#    0.000    2.000    0.000    0.000    0.000    0.000 
#    0.000    0.000    0.000    0.000    0.000    0.000 
#
# Total GULP energy -223976.743546 kJ/mol
# GULP energy per Si atom -5599.418589 kJ/mol
# Density = 2.317893 g / cm^3
# Si number density = 23.231805 Si / 1000 Ang^3
#
#
#
# Elastic Constant Matrix: (Units=GPa)
#
#
# Indices 1 2 3 4 5 6 
#
# 1 43.1994 12.6290 -1.9771 0.0000 0.0000 0.0000
# 2 12.6290 133.5133 31.9064 0.0000 0.0000 0.0000
# 3 -1.9771 31.9064 109.3542 0.0000 0.0000 0.0000
# 4 0.0000 0.0000 0.0000 20.0323 0.0000 0.0000
# 5 0.0000 0.0000 0.0000 0.0000 23.7675 0.0000
# 6 0.0000 0.0000 0.0000 0.0000 0.0000 12.5573
#
#
#
# Elastic Compliance Matrix: (Units=1/GPa)
#
#
# Indices 1 2 3 4 5 6 
#
# 1 0.023947 -0.002546 0.001176 0.000000 0.000000 0.000000
# 2 -0.002546 0.008322 -0.002474 0.000000 0.000000 0.000000
# 3 0.001176 -0.002474 0.009888 0.000000 0.000000 0.000000
# 4 0.000000 0.000000 0.000000 0.049919 0.000000 0.000000
# 5 0.000000 0.000000 0.000000 0.000000 0.042074 0.000000
# 6 0.000000 0.000000 0.000000 0.000000 0.000000 0.079635
#
#
# Mechanical properties :
#
#
# Convention : Reuss Voigt Hill
#
# Bulk Modulus (GPa) = 29.01283 41.24260 35.12771
# Shear Modulus (GPa) = 21.46260 27.50531 24.48395
#
# Velocity S-wave (km/s) = 3.04278 3.44459 3.24990
# Velocity P-wave (km/s) = 4.98600 5.79754 5.40702
#
# Compressibility (1/GPa) = 0.03446751
#
# Stress axis : x y z
#
# Youngs Moduli (GPa) = 41.75956 120.16363 101.13539
#
# Poissons Ratio (x) = 0.30595 -0.11892
# Poissons Ratio (y) = 0.10632 0.25022
# Poissons Ratio (z) = -0.04910 0.29730
#
# Static dielectric constant tensor:
#      x y z
#    x 1.964300 0.000000 0.000000 
#    y 0.000000 1.849800 0.000000 
#    z 0.000000 0.000000 1.804010 
# 
# From -- ./inp_files/20524.got.cif
#   From: 2010.05.17/outbox.cif.g08.bks.cpg/sg57_11_cif.got.tgz:20524.got - 2010.06.03 13:58:18.
