data_PCOD9437565
_publ_section_title
;
Structure prediction by ZEFSAII (Michael W. Deem and Ramdas Pophale) SiO2 
 PCOD9437565
Probable space group: P B C M
;
_chemical_formula_sum "Si O2"
_cell_formula_units_Z 56
_cell_length_a 5.428064
_cell_length_b 20.130957
_cell_length_c 26.315647
_cell_angle_alpha 90.000000
_cell_angle_beta 90.000000
_cell_angle_gamma 90.000000
_cell_volume 2875.566615
_symmetry_space_group_name_H-M "P B C M"
_symmetry_group_IT_number 57
_symmetry_cell_setting 'orthorhombic'
loop_
_space_group_symop_operation_xyz
x,y,z
-x,-y,1/2+z
x,1/2-y,-z
-x,1/2+y,1/2-z
-x,-y,-z
x,y,1/2-z
-x,1/2+y,z
x,1/2-y,1/2+z
loop_
_atom_site_type_symbol
_atom_site_label
_atom_site_fract_x
_atom_site_fract_y
_atom_site_fract_z
Si Si1 0.885528 0.210380 0.445911
Si Si2 0.526786 0.884279 0.071426
Si Si3 0.205319 0.073072 0.750000
Si Si4 0.801089 0.312260 0.140763
Si Si5 0.290443 0.662841 0.750000
Si Si6 0.623865 0.863876 0.536342
Si Si7 0.099713 0.452212 0.138958
Si Si8 0.818409 0.496632 0.048451
O O1 0.886015 0.250000 0.500000
O O2 0.908499 0.259328 0.397841
O O3 0.624570 0.171070 0.444645
O O4 0.120603 0.162772 0.441889
O O5 0.452664 0.832350 0.113641
O O6 0.676171 0.939925 0.100801
O O7 0.293636 0.922606 0.047870
O O8 0.652422 0.850381 0.024051
O O9 0.453744 0.119476 0.750000
O O10 0.189941 0.033683 0.803757
O O11 0.949250 0.114627 0.750000
O O12 0.739261 0.295274 0.198591
O O13 0.961085 0.380377 0.141459
O O14 0.626571 0.943529 0.542291
O O15 0.932096 0.501231 0.105499
O O16 0.000000 0.500000 0.000000
#
# Coordination Sequence:
#
# PCOD9437565 Si02
#       8
#     8   8   4   8   4   8   8   8
#     4  12  25  38  58  82 123 158 196 243 291 353
#     4  11  20  36  60  85 123 151 193 248 299 362
#     4  10  20  36  58  94 117 151 188 250 315 346
#     4  10  22  38  58  92 118 157 195 250 305 350
#     4  10  20  36  62  86 121 149 198 248 301 356
#     4  12  25  38  56  86 120 161 197 232 292 361
#     4  10  21  36  62  85 123 150 196 250 302 360
#     4  11  23  37  57  88 121 161 198 240 298 359
#
# _framework density 19.474421
#
# number of rings (size 3 to 8) (size 9 to 14) (size 15 to 20)
#    0.000    1.143    4.286    2.571    4.000    0.000 
#    0.000    0.000    0.000    1.714    0.000    0.000 
#    0.000    0.000    0.000    0.000    0.000    0.000 
#
# Total GULP energy -312162.388412 kJ/mol
# GULP energy per Si atom -5574.328364 kJ/mol
# Density = 1.943010 g / cm^3
# Si number density = 19.474421 Si / 1000 Ang^3
#
#
#
# Elastic Constant Matrix: (Units=GPa)
#
#
# Indices 1 2 3 4 5 6 
#
# 1 78.0293 9.4124 24.8676 0.0000 0.0000 0.0000
# 2 9.4124 36.5407 25.0540 0.0000 0.0000 0.0000
# 3 24.8676 25.0540 165.7379 0.0000 0.0000 0.0000
# 4 0.0000 0.0000 0.0000 21.0532 0.0000 0.0000
# 5 0.0000 0.0000 0.0000 0.0000 -73.6988 0.0000
# 6 0.0000 0.0000 0.0000 0.0000 0.0000 22.2265
#
#
#
# Elastic Compliance Matrix: (Units=1/GPa)
#
#
# Indices 1 2 3 4 5 6 
#
# 1 0.013638 -0.002354 -0.001690 0.000000 0.000000 0.000000
# 2 -0.002354 0.030937 -0.004324 0.000000 0.000000 0.000000
# 3 -0.001690 -0.004324 0.006941 0.000000 0.000000 0.000000
# 4 0.000000 0.000000 0.000000 0.047499 0.000000 0.000000
# 5 0.000000 0.000000 0.000000 0.000000 -0.013569 0.000000
# 6 0.000000 0.000000 0.000000 0.000000 0.000000 0.044991
#
#
# Mechanical properties :
#
#
# Convention : Reuss Voigt Hill
#
# Bulk Modulus (GPa) = 28.75153 44.33065 36.54109
# Shear Modulus (GPa) = 31.49259 8.64778 20.07018
#
# Velocity S-wave (km/s) = 4.02571 2.10956 3.21377
# Velocity P-wave (km/s) = 6.03360 5.36158 5.70749
#
# Compressibility (1/GPa) = 0.03478076
#
# Stress axis : x y z
#
# Youngs Moduli (GPa) = 73.32237 32.32325 144.07494
#
# Poissons Ratio (x) = 0.07609 0.24356
# Poissons Ratio (y) = 0.17260 0.62291
# Poissons Ratio (z) = 0.12395 0.13975
#
# Static dielectric constant tensor:
#      x y z
#    x 1.882380 0.000000 0.000000 
#    y 0.000000 1.632110 0.000000 
#    z 0.000000 0.000000 1.919620 
# 
# From -- ./inp_files/28122.got.cif
#   From: 2010.05.17/outbox.cif.g08.bks.cpg/sg57_15_cif.got.tgz:28122.got - 2010.06.03 13:58:18.
