data_PCOD9437157
_publ_section_title
;
Structure prediction by ZEFSAII (Michael W. Deem and Ramdas Pophale) SiO2 
 PCOD9437157
Probable space group: P B C M
;
_chemical_formula_sum "Si O2"
_cell_formula_units_Z 64
_cell_length_a 25.638732
_cell_length_b 14.927880
_cell_length_c 8.508109
_cell_angle_alpha 90.000000
_cell_angle_beta 90.000000
_cell_angle_gamma 90.000000
_cell_volume 3256.324848
_symmetry_space_group_name_H-M "P B C M"
_symmetry_group_IT_number 57
_symmetry_cell_setting 'orthorhombic'
loop_
_space_group_symop_operation_xyz
x,y,z
-x,-y,1/2+z
x,1/2-y,-z
-x,1/2+y,1/2-z
-x,-y,-z
x,y,1/2-z
-x,1/2+y,z
x,1/2-y,1/2+z
loop_
_atom_site_type_symbol
_atom_site_label
_atom_site_fract_x
_atom_site_fract_y
_atom_site_fract_z
Si Si1 0.409672 0.340190 0.438320
Si Si2 0.323221 0.024775 0.561549
Si Si3 0.518362 0.403778 0.440084
Si Si4 0.876444 0.952587 0.560793
Si Si5 0.365910 0.847914 0.061948
Si Si6 0.229520 0.352088 0.560980
Si Si7 0.016352 0.402818 0.061944
Si Si8 0.904693 0.344266 0.439447
O O1 0.383863 0.250000 0.500000
O O2 0.409436 0.338780 0.250000
O O3 0.376741 0.425773 0.489934
O O4 0.469246 0.344683 0.493808
O O5 0.321704 0.021637 0.750000
O O6 0.276846 0.087015 0.500766
O O7 0.326789 0.924873 0.495526
O O8 0.500000 0.500000 0.500000
O O9 0.519773 0.404511 0.250000
O O10 0.575142 0.372527 0.496085
O O11 0.878241 0.955348 0.750000
O O12 0.823533 0.903445 0.511635
O O13 0.925691 0.893225 0.504571
O O14 0.881832 0.057868 0.508597
O O15 0.366828 0.847254 0.250000
O O16 0.352284 0.750000 0.000000
O O17 0.231500 0.250000 0.500000
O O18 0.231266 0.349658 0.750000
O O19 0.018906 0.401031 0.250000
O O20 0.966037 0.345737 0.012518
O O21 0.000000 0.500000 0.000000
O O22 0.881576 0.250000 0.500000
O O23 0.901942 0.343578 0.250000
#
# Coordination Sequence:
#
# PCOD9437157 Si02
#       8
#     8   8   8   8   8   8   8   8
#     4  10  21  35  54  82 114 148 186 229 280 337
#     4  11  23  41  63  86 116 150 193 244 293 350
#     4  10  20  35  55  83 117 155 192 232 284 341
#     4   9  20  38  57  80 114 153 193 241 292 345
#     4  11  23  39  62  89 119 157 197 240 292 351
#     4  11  24  43  65  88 116 149 191 244 302 359
#     4   9  17  30  50  77 112 151 192 235 281 337
#     4   9  18  32  51  80 115 152 190 228 277 333
#
# _framework density 19.654057999999999
#
# number of rings (size 3 to 8) (size 9 to 14) (size 15 to 20)
#    0.000    2.000    1.250    3.000    0.000    7.000 
#    0.000    3.125    0.000    1.500    0.000    0.000 
#    0.000    0.000    0.000    0.000    0.000    0.000 
#
# Total GULP energy -356882.220775 kJ/mol
# GULP energy per Si atom -5576.284700 kJ/mol
# Density = 1.960932 g / cm^3
# Si number density = 19.654058 Si / 1000 Ang^3
#
#
#
# Elastic Constant Matrix: (Units=GPa)
#
#
# Indices 1 2 3 4 5 6 
#
# 1 107.2273 61.0517 27.8207 0.0000 0.0000 0.0000
# 2 61.0517 174.5875 29.9345 0.0000 0.0000 0.0000
# 3 27.8207 29.9345 15.0967 0.0000 0.0000 0.0000
# 4 0.0000 0.0000 0.0000 31.4927 0.0000 0.0000
# 5 0.0000 0.0000 0.0000 0.0000 22.5490 0.0000
# 6 0.0000 0.0000 0.0000 0.0000 0.0000 26.1961
#
#
#
# Elastic Compliance Matrix: (Units=1/GPa)
#
#
# Indices 1 2 3 4 5 6 
#
# 1 0.017967 -0.000918 -0.031290 0.000000 0.000000 0.000000
# 2 -0.000918 0.008725 -0.015609 0.000000 0.000000 0.000000
# 3 -0.031290 -0.015609 0.154852 0.000000 0.000000 0.000000
# 4 0.000000 0.000000 0.000000 0.031753 0.000000 0.000000
# 5 0.000000 0.000000 0.000000 0.000000 0.044348 0.000000
# 6 0.000000 0.000000 0.000000 0.000000 0.000000 0.038174
#
#
# Mechanical properties :
#
#
# Convention : Reuss Voigt Hill
#
# Bulk Modulus (GPa) = 11.64004 59.39171 35.51588
# Shear Modulus (GPa) = 11.90222 27.92119 19.91171
#
# Velocity S-wave (km/s) = 2.46354 3.77322 3.18639
# Velocity P-wave (km/s) = 3.74531 7.01905 5.62558
#
# Compressibility (1/GPa) = 0.08591035
#
# Stress axis : x y z
#
# Youngs Moduli (GPa) = 55.65747 114.61241 6.45778
#
# Poissons Ratio (x) = 0.10521 0.20206
# Poissons Ratio (y) = 0.05109 0.10080
# Poissons Ratio (z) = 1.74153 1.78897
#
# Static dielectric constant tensor:
#      x y z
#    x 1.719210 0.000000 0.000000 
#    y 0.000000 1.717260 0.000000 
#    z 0.000000 0.000000 1.666190 
# 
# From -- ./inp_files/9463.got.cif
#   From: 2010.05.17/outbox.cif.g08.bks.cpg/sg57_5_cif.got.tgz:9463.got - 2010.06.03 13:58:18.
