data_PCOD9437805
_publ_section_title
;
Structure prediction by ZEFSAII (Michael W. Deem and Ramdas Pophale) SiO2 
 PCOD9437805
Probable space group: P B C M
;
_chemical_formula_sum "Si O2"
_cell_formula_units_Z 64
_cell_length_a 23.276092
_cell_length_b 8.422768
_cell_length_c 14.714413
_cell_angle_alpha 90.000000
_cell_angle_beta 90.000000
_cell_angle_gamma 90.000000
_cell_volume 2884.747762
_symmetry_space_group_name_H-M "P B C M"
_symmetry_group_IT_number 57
_symmetry_cell_setting 'orthorhombic'
loop_
_space_group_symop_operation_xyz
x,y,z
-x,-y,1/2+z
x,1/2-y,-z
-x,1/2+y,1/2-z
-x,-y,-z
x,y,1/2-z
-x,1/2+y,z
x,1/2-y,1/2+z
loop_
_atom_site_type_symbol
_atom_site_label
_atom_site_fract_x
_atom_site_fract_y
_atom_site_fract_z
Si Si1 0.627094 0.066068 0.526420
Si Si2 0.844642 0.663020 0.354714
Si Si3 0.472605 0.348289 0.906114
Si Si4 0.196109 0.529064 0.145129
Si Si5 0.962156 0.523298 0.360835
Si Si6 0.922381 0.176308 0.360918
Si Si7 0.258684 0.435176 0.976908
Si Si8 0.583852 0.539903 0.653391
O O1 0.623164 0.250000 0.500000
O O2 0.571670 0.993341 0.577067
O O3 0.686949 0.016193 0.571481
O O4 0.626128 0.972253 0.430636
O O5 0.841002 0.606098 0.250000
O O6 0.826724 0.846938 0.355471
O O7 0.910594 0.642871 0.385082
O O8 0.799078 0.570886 0.416702
O O9 0.442660 0.215331 0.845940
O O10 0.531209 0.419940 0.867968
O O11 0.482351 0.250000 0.000000
O O12 0.211906 0.567350 0.250000
O O13 0.141773 0.631604 0.113175
O O14 0.245050 0.530708 0.069382
O O15 0.965686 0.524833 0.250000
O O16 0.940464 0.351461 0.388869
O O17 0.025957 0.563455 0.393035
O O18 0.921753 0.169371 0.250000
O O19 0.271298 0.250000 0.000000
O O20 0.610291 0.500595 0.750000
#
# Coordination Sequence:
#
# PCOD9437805 Si02
#       8
#     8   8   8   8   8   8   8   8
#     4  11  23  40  59  81 115 157 194 230 278 335
#     4   9  18  34  54  76 101 134 174 222 275 328
#     4  10  20  37  60  86 119 156 189 225 277 334
#     4   9  18  33  54  76 102 135 175 221 273 328
#     4   9  16  27  47  73 103 133 168 213 266 326
#     4   9  16  27  46  74 103 134 169 212 265 325
#     4  10  21  38  57  78 106 143 187 231 276 327
#     4  11  21  36  61  92 121 150 188 234 278 327
#
# _framework density 22.185648
#
# number of rings (size 3 to 8) (size 9 to 14) (size 15 to 20)
#    0.000    2.250    0.000    4.875    0.000    4.500 
#    0.000    5.625    0.000    0.000    0.000    0.000 
#    0.000    0.000    0.000    0.000    0.000    0.000 
#
# Total GULP energy -357510.263398 kJ/mol
# GULP energy per Si atom -5586.097866 kJ/mol
# Density = 2.213515 g / cm^3
# Si number density = 22.185648 Si / 1000 Ang^3
#
#
#
# Elastic Constant Matrix: (Units=GPa)
#
#
# Indices 1 2 3 4 5 6 
#
# 1 64.9376 5.6836 -3.8447 0.0000 0.0000 0.0000
# 2 5.6836 53.5386 -8.1611 0.0000 0.0000 0.0000
# 3 -3.8447 -8.1611 49.6684 0.0000 0.0000 0.0000
# 4 0.0000 0.0000 0.0000 8.4622 0.0000 0.0000
# 5 0.0000 0.0000 0.0000 0.0000 2.4477 0.0000
# 6 0.0000 0.0000 0.0000 0.0000 0.0000 29.9409
#
#
#
# Elastic Compliance Matrix: (Units=1/GPa)
#
#
# Indices 1 2 3 4 5 6 
#
# 1 0.015588 -0.001509 0.000959 0.000000 0.000000 0.000000
# 2 -0.001509 0.019304 0.003055 0.000000 0.000000 0.000000
# 3 0.000959 0.003055 0.020710 0.000000 0.000000 0.000000
# 4 0.000000 0.000000 0.000000 0.118173 0.000000 0.000000
# 5 0.000000 0.000000 0.000000 0.000000 0.408542 0.000000
# 6 0.000000 0.000000 0.000000 0.000000 0.000000 0.033399
#
#
# Mechanical properties :
#
#
# Convention : Reuss Voigt Hill
#
# Bulk Modulus (GPa) = 16.49835 17.27782 16.88809
# Shear Modulus (GPa) = 7.92506 19.80127 13.86317
#
# Velocity S-wave (km/s) = 1.89207 2.99076 2.50245
# Velocity P-wave (km/s) = 3.49655 4.44195 3.99730
#
# Compressibility (1/GPa) = 0.06061213
#
# Stress axis : x y z
#
# Youngs Moduli (GPa) = 64.15109 51.80282 48.28649
#
# Poissons Ratio (x) = 0.07815 -0.04629
# Poissons Ratio (y) = 0.09678 -0.14752
# Poissons Ratio (z) = -0.06150 -0.15826
#
# Static dielectric constant tensor:
#      x y z
#    x 1.796990 0.000000 0.000000 
#    y 0.000000 1.805460 0.000000 
#    z 0.000000 0.000000 1.846210 
# 
# From -- ./inp_files/19495.got.cif
#   From: 2010.05.17/outbox.cif.g08.bks.cpg/sg57_10_cif.got.tgz:19495.got - 2010.06.03 13:58:18.
