data_PCOD9437425
_publ_section_title
;
Structure prediction by ZEFSAII (Michael W. Deem and Ramdas Pophale) SiO2 
 PCOD9437425
Probable space group: P B C M
;
_chemical_formula_sum "Si O2"
_cell_formula_units_Z 64
_cell_length_a 24.341916
_cell_length_b 15.604924
_cell_length_c 8.040144
_cell_angle_alpha 90.000000
_cell_angle_beta 90.000000
_cell_angle_gamma 90.000000
_cell_volume 3054.078842
_symmetry_space_group_name_H-M "P B C M"
_symmetry_group_IT_number 57
_symmetry_cell_setting 'orthorhombic'
loop_
_space_group_symop_operation_xyz
x,y,z
-x,-y,1/2+z
x,1/2-y,-z
-x,1/2+y,1/2-z
-x,-y,-z
x,y,1/2-z
-x,1/2+y,z
x,1/2-y,1/2+z
loop_
_atom_site_type_symbol
_atom_site_label
_atom_site_fract_x
_atom_site_fract_y
_atom_site_fract_z
Si Si1 0.121387 0.374691 0.443570
Si Si2 0.490418 0.350332 0.053885
Si Si3 0.240941 0.159868 0.549299
Si Si4 0.893773 0.063045 0.951481
Si Si5 0.423026 0.508990 0.945339
Si Si6 0.699202 0.489277 0.946021
Si Si7 0.216082 0.654325 0.947702
Si Si8 0.999713 0.657008 0.950225
O O1 0.120048 0.348351 0.250000
O O2 0.178301 0.342039 0.519009
O O3 0.123862 0.476573 0.459611
O O4 0.062197 0.350917 0.519214
O O5 0.498078 0.344334 0.250000
O O6 0.540743 0.410671 0.986119
O O7 0.486273 0.250000 0.000000
O O8 0.439741 0.415914 0.019603
O O9 0.266744 0.250000 0.500000
O O10 0.237693 0.153800 0.750000
O O11 0.273814 0.077348 0.489047
O O12 0.894229 0.050892 0.750000
O O13 0.847168 0.132546 0.991415
O O14 0.954828 0.089355 0.006953
O O15 0.435263 0.502387 0.750000
O O16 0.359171 0.527295 0.971165
O O17 0.689086 0.499244 0.750000
O O18 0.742983 0.414167 0.972904
O O19 0.221024 0.645517 0.750000
O O20 0.229825 0.750000 0.000000
O O21 0.996979 0.649923 0.750000
O O22 0.020914 0.750000 0.000000
#
# Coordination Sequence:
#
# PCOD9437425 Si02
#       8
#     8   8   8   8   8   8   8   8
#     4  10  20  36  56  79 109 144 187 238 297 360
#     4  10  21  39  65  96 130 168 207 249 299 353
#     4  10  22  38  58  84 113 152 198 245 300 358
#     4  10  21  36  55  81 109 143 189 238 297 363
#     4  10  22  40  63  93 129 167 209 254 301 352
#     4  11  23  41  62  87 123 162 206 254 302 356
#     4  11  23  39  60  85 115 154 200 250 305 366
#     4  10  21  35  52  78 109 141 183 236 293 360
#
# _framework density 20.955582
#
# number of rings (size 3 to 8) (size 9 to 14) (size 15 to 20)
#    0.000    1.750    1.250    2.625    0.000    5.500 
#    0.000    2.500    0.000    0.000    0.000    0.000 
#    0.000    0.000    0.000    0.000    0.000    0.000 
#
# Total GULP energy -357220.620500 kJ/mol
# GULP energy per Si atom -5581.572195 kJ/mol
# Density = 2.090789 g / cm^3
# Si number density = 20.955582 Si / 1000 Ang^3
#
#
#
# Elastic Constant Matrix: (Units=GPa)
#
#
# Indices 1 2 3 4 5 6 
#
# 1 73.9830 8.6790 4.7575 0.0000 0.0000 0.0000
# 2 8.6790 117.3975 3.2182 0.0000 0.0000 0.0000
# 3 4.7575 3.2182 17.8444 0.0000 0.0000 0.0000
# 4 0.0000 0.0000 0.0000 27.4691 0.0000 0.0000
# 5 0.0000 0.0000 0.0000 0.0000 43.2435 0.0000
# 6 0.0000 0.0000 0.0000 0.0000 0.0000 8.7534
#
#
#
# Elastic Compliance Matrix: (Units=1/GPa)
#
#
# Indices 1 2 3 4 5 6 
#
# 1 0.013852 -0.000927 -0.003526 0.000000 0.000000 0.000000
# 2 -0.000927 0.008622 -0.001308 0.000000 0.000000 0.000000
# 3 -0.003526 -0.001308 0.057216 0.000000 0.000000 0.000000
# 4 0.000000 0.000000 0.000000 0.036405 0.000000 0.000000
# 5 0.000000 0.000000 0.000000 0.000000 0.023125 0.000000
# 6 0.000000 0.000000 0.000000 0.000000 0.000000 0.114242
#
#
# Mechanical properties :
#
#
# Convention : Reuss Voigt Hill
#
# Bulk Modulus (GPa) = 14.66958 26.94826 20.80892
# Shear Modulus (GPa) = 17.37884 28.73121 23.05503
#
# Velocity S-wave (km/s) = 2.88291 3.70679 3.32050
# Velocity P-wave (km/s) = 4.25407 5.58641 4.96513
#
# Compressibility (1/GPa) = 0.06816828
#
# Stress axis : x y z
#
# Youngs Moduli (GPa) = 72.19101 115.97591 17.47771
#
# Poissons Ratio (x) = 0.10756 0.06162
# Poissons Ratio (y) = 0.06695 0.02286
# Poissons Ratio (z) = 0.25453 0.15167
#
# Static dielectric constant tensor:
#      x y z
#    x 1.760430 0.000000 0.000000 
#    y 0.000000 1.762640 0.000000 
#    z 0.000000 0.000000 1.761330 
# 
# From -- ./inp_files/9403.got.cif
#   From: 2010.05.17/outbox.cif.g08.bks.cpg/sg57_5_cif.got.tgz:9403.got - 2010.06.03 13:58:18.
