data_PCOD9437461
_publ_section_title
;
Structure prediction by ZEFSAII (Michael W. Deem and Ramdas Pophale) SiO2 
 PCOD9437461
Probable space group: P B C M
;
_chemical_formula_sum "Si O2"
_cell_formula_units_Z 64
_cell_length_a 12.156027
_cell_length_b 11.975152
_cell_length_c 23.084942
_cell_angle_alpha 90.000000
_cell_angle_beta 90.000000
_cell_angle_gamma 90.000000
_cell_volume 3360.481264
_symmetry_space_group_name_H-M "P B C M"
_symmetry_group_IT_number 57
_symmetry_cell_setting 'orthorhombic'
loop_
_space_group_symop_operation_xyz
x,y,z
-x,-y,1/2+z
x,1/2-y,-z
-x,1/2+y,1/2-z
-x,-y,-z
x,y,1/2-z
-x,1/2+y,z
x,1/2-y,1/2+z
loop_
_atom_site_type_symbol
_atom_site_label
_atom_site_fract_x
_atom_site_fract_y
_atom_site_fract_z
Si Si1 0.434221 0.070687 0.681537
Si Si2 0.903876 0.520737 0.626511
Si Si3 0.856272 0.557112 0.124035
Si Si4 0.172323 0.383079 0.006495
Si Si5 0.624355 0.040340 0.005955
Si Si6 0.334759 0.884238 0.377811
Si Si7 0.305638 0.870424 0.873095
Si Si8 0.772041 0.716488 0.681782
O O1 0.451902 0.081397 0.750000
O O2 0.548462 0.078753 0.648116
O O3 0.347404 0.167619 0.663069
O O4 0.375398 0.953234 0.667548
O O5 0.896590 0.575699 0.562071
O O6 0.818035 0.418182 0.626121
O O7 0.855384 0.615444 0.668507
O O8 0.023761 0.480149 0.644493
O O9 0.763840 0.466424 0.139396
O O10 0.812810 0.675107 0.147874
O O11 0.867800 0.567762 0.054457
O O12 0.294726 0.433952 0.013850
O O13 0.173027 0.250000 0.000000
O O14 0.643559 0.113416 0.062873
O O15 0.657163 0.104476 0.947487
O O16 0.500000 0.000000 0.000000
O O17 0.311582 0.758633 0.358049
O O18 0.767252 0.739961 0.750000
#
# Coordination Sequence:
#
# PCOD9437461 Si02
#       8
#     8   8   8   8   8   8   8   8
#     4  10  23  43  64  88 122 163 207 253 310 371
#     4  10  22  42  65  90 126 164 205 254 310 367
#     4  11  24  39  64  97 123 157 209 257 303 368
#     4  10  20  36  61  93 122 164 203 243 313 378
#     4  10  20  36  56  92 126 160 201 249 308 371
#     4  11  24  37  62  96 124 157 201 254 310 370
#     4  10  22  40  62  90 125 164 201 249 312 371
#     4  10  23  43  66  88 119 166 210 255 309 365
#
# _framework density 19.044892000000001
#
# number of rings (size 3 to 8) (size 9 to 14) (size 15 to 20)
#    0.000    1.750    2.500    0.750    3.500    2.500 
#    0.000    0.000    0.000    0.000    0.000    0.000 
#    0.000    0.000    0.000    0.000    0.000    0.000 
#
# Total GULP energy -357420.323829 kJ/mol
# GULP energy per Si atom -5584.692560 kJ/mol
# Density = 1.900154 g / cm^3
# Si number density = 19.044892 Si / 1000 Ang^3
#
#
#
# Elastic Constant Matrix: (Units=GPa)
#
#
# Indices 1 2 3 4 5 6 
#
# 1 120.9492 45.8583 7.9042 0.0000 0.0000 0.0000
# 2 45.8583 111.0011 -3.6080 0.0000 0.0000 0.0000
# 3 7.9042 -3.6080 41.1600 0.0000 0.0000 0.0000
# 4 0.0000 0.0000 0.0000 9.1026 0.0000 0.0000
# 5 0.0000 0.0000 0.0000 0.0000 10.4045 0.0000
# 6 0.0000 0.0000 0.0000 0.0000 0.0000 13.4406
#
#
#
# Elastic Compliance Matrix: (Units=1/GPa)
#
#
# Indices 1 2 3 4 5 6 
#
# 1 0.010015 -0.004212 -0.002292 0.000000 0.000000 0.000000
# 2 -0.004212 0.010806 0.001756 0.000000 0.000000 0.000000
# 3 -0.002292 0.001756 0.024890 0.000000 0.000000 0.000000
# 4 0.000000 0.000000 0.000000 0.109859 0.000000 0.000000
# 5 0.000000 0.000000 0.000000 0.000000 0.096112 0.000000
# 6 0.000000 0.000000 0.000000 0.000000 0.000000 0.074402
#
#
# Mechanical properties :
#
#
# Convention : Reuss Voigt Hill
#
# Bulk Modulus (GPa) = 27.61371 41.49104 34.55238
# Shear Modulus (GPa) = 14.38226 21.45326 17.91776
#
# Velocity S-wave (km/s) = 2.75103 3.35992 3.07060
# Velocity P-wave (km/s) = 4.96202 6.07332 5.54558
#
# Compressibility (1/GPa) = 0.03621389
#
# Stress axis : x y z
#
# Youngs Moduli (GPa) = 99.85308 92.54046 40.17746
#
# Poissons Ratio (x) = 0.38977 0.09210
# Poissons Ratio (y) = 0.42057 -0.07055
# Poissons Ratio (z) = 0.22890 -0.16251
#
# Static dielectric constant tensor:
#      x y z
#    x 1.643250 0.000000 0.000000 
#    y 0.000000 1.637680 0.000000 
#    z 0.000000 0.000000 1.673140 
# 
# From -- ./inp_files/27259.got.cif
#   From: 2010.05.17/outbox.cif.g08.bks.cpg/sg57_14_cif.got.tgz:27259.got - 2010.06.03 13:58:18.
