data_PCOD9437442
_publ_section_title
;
Structure prediction by ZEFSAII (Michael W. Deem and Ramdas Pophale) SiO2 
 PCOD9437442
Probable space group: P B C M
;
_chemical_formula_sum "Si O2"
_cell_formula_units_Z 48
_cell_length_a 31.030186
_cell_length_b 9.669799
_cell_length_c 8.680640
_cell_angle_alpha 90.000000
_cell_angle_beta 90.000000
_cell_angle_gamma 90.000000
_cell_volume 2604.675178
_symmetry_space_group_name_H-M "P B C M"
_symmetry_group_IT_number 57
_symmetry_cell_setting 'orthorhombic'
loop_
_space_group_symop_operation_xyz
x,y,z
-x,-y,1/2+z
x,1/2-y,-z
-x,1/2+y,1/2-z
-x,-y,-z
x,y,1/2-z
-x,1/2+y,z
x,1/2-y,1/2+z
loop_
_atom_site_type_symbol
_atom_site_label
_atom_site_fract_x
_atom_site_fract_y
_atom_site_fract_z
Si Si1 0.117243 0.399188 0.065059
Si Si2 0.961968 0.095357 0.065635
Si Si3 0.462892 0.403485 0.065315
Si Si4 0.286261 0.904232 0.564450
Si Si5 0.634467 0.903338 0.435360
Si Si6 0.787409 0.900982 0.565640
O O1 0.121380 0.388721 0.250000
O O2 0.082798 0.517476 0.027487
O O3 0.102544 0.250000 0.000000
O O4 0.163968 0.427437 0.992466
O O5 0.965776 0.101381 0.250000
O O6 0.963641 0.250000 0.000000
O O7 0.000000 0.000000 0.000000
O O8 0.465082 0.401391 0.250000
O O9 0.414125 0.446833 0.019705
O O10 0.468902 0.250000 0.000000
O O11 0.500000 0.500000 0.000000
O O12 0.287680 0.750000 0.500000
O O13 0.284362 0.901771 0.750000
O O14 0.328829 0.989858 0.515988
O O15 0.245148 0.985769 0.499361
O O16 0.642591 0.750000 0.500000
O O17 0.635553 0.894539 0.250000
O O18 0.774916 0.750000 0.500000
O O19 0.786414 0.897627 0.750000
#
# Coordination Sequence:
#
# PCOD9437442 Si02
#       6
#     8   8   8   8   8   8
#     4  10  21  38  60  87 116 150 191 236 282 335
#     4  11  24  40  61  87 118 154 194 237 285 337
#     4  10  20  36  56  82 112 146 185 228 277 331
#     4  11  23  39  57  82 114 148 186 232 282 334
#     4   9  20  37  58  81 108 143 186 229 275 332
#     4  11  22  38  61  87 115 151 190 232 279 335
#
# _framework density 18.428401000000001
#
# number of rings (size 3 to 8) (size 9 to 14) (size 15 to 20)
#    0.000    1.667    0.000    5.500    0.000    8.667 
#    0.000    3.333    0.000    0.000    0.000    0.000 
#    0.000    0.000    0.000    0.000    0.000    0.000 
#
# Total GULP energy -268258.674043 kJ/mol
# GULP energy per Si atom -5588.722376 kJ/mol
# Density = 1.838646 g / cm^3
# Si number density = 18.428401 Si / 1000 Ang^3
#
#
#
# Elastic Constant Matrix: (Units=GPa)
#
#
# Indices 1 2 3 4 5 6 
#
# 1 125.9577 121.8577 59.0130 0.0000 0.0000 0.0000
# 2 121.8577 170.6497 61.8448 0.0000 0.0000 0.0000
# 3 59.0130 61.8448 83.5633 0.0000 0.0000 0.0000
# 4 0.0000 0.0000 0.0000 37.6498 0.0000 0.0000
# 5 0.0000 0.0000 0.0000 0.0000 22.5494 0.0000
# 6 0.0000 0.0000 0.0000 0.0000 0.0000 37.1151
#
#
#
# Elastic Compliance Matrix: (Units=1/GPa)
#
#
# Indices 1 2 3 4 5 6 
#
# 1 0.028301 -0.017718 -0.006873 0.000000 0.000000 0.000000
# 2 -0.017718 0.019101 -0.001624 0.000000 0.000000 0.000000
# 3 -0.006873 -0.001624 0.018022 0.000000 0.000000 0.000000
# 4 0.000000 0.000000 0.000000 0.026561 0.000000 0.000000
# 5 0.000000 0.000000 0.000000 0.000000 0.044347 0.000000
# 6 0.000000 0.000000 0.000000 0.000000 0.000000 0.026943
#
#
# Mechanical properties :
#
#
# Convention : Reuss Voigt Hill
#
# Bulk Modulus (GPa) = 76.95783 96.17796 86.56790
# Shear Modulus (GPa) = 22.72361 28.62652 25.67507
#
# Velocity S-wave (km/s) = 3.51533 3.94558 3.73665
# Velocity P-wave (km/s) = 7.63726 8.54753 8.10518
#
# Compressibility (1/GPa) = 0.01299413
#
# Stress axis : x y z
#
# Youngs Moduli (GPa) = 35.33473 52.35445 55.48675
#
# Poissons Ratio (x) = 0.92763 0.38136
# Poissons Ratio (y) = 0.62607 0.09008
# Poissons Ratio (z) = 0.24286 0.08500
#
# Static dielectric constant tensor:
#      x y z
#    x 1.635200 0.000000 0.000000 
#    y 0.000000 1.591250 0.000000 
#    z 0.000000 0.000000 1.618680 
# 
# From -- ./inp_files/10017.got.cif
#   From: 2010.05.17/outbox.cif.g08.bks.cpg/sg57_6_cif.got.tgz:10017.got - 2010.06.03 13:58:18.
