data_PCOD9437812
_publ_section_title
;
Structure prediction by ZEFSAII (Michael W. Deem and Ramdas Pophale) SiO2 
 PCOD9437812
Probable space group: P B C M
;
_chemical_formula_sum "Si O2"
_cell_formula_units_Z 48
_cell_length_a 31.292541
_cell_length_b 9.317780
_cell_length_c 8.642461
_cell_angle_alpha 90.000000
_cell_angle_beta 90.000000
_cell_angle_gamma 90.000000
_cell_volume 2519.942961
_symmetry_space_group_name_H-M "P B C M"
_symmetry_group_IT_number 57
_symmetry_cell_setting 'orthorhombic'
loop_
_space_group_symop_operation_xyz
x,y,z
-x,-y,1/2+z
x,1/2-y,-z
-x,1/2+y,1/2-z
-x,-y,-z
x,y,1/2-z
-x,1/2+y,z
x,1/2-y,1/2+z
loop_
_atom_site_type_symbol
_atom_site_label
_atom_site_fract_x
_atom_site_fract_y
_atom_site_fract_z
Si Si1 0.376178 0.909321 0.564584
Si Si2 0.119928 0.589694 0.936573
Si Si3 0.460083 0.089211 0.935750
Si Si4 0.298892 0.090982 0.064113
Si Si5 0.201372 0.407801 0.936072
Si Si6 0.959773 0.588633 0.935615
O O1 0.382045 0.750000 0.500000
O O2 0.374414 0.904286 0.750000
O O3 0.416321 0.008685 0.518940
O O4 0.332964 0.979713 0.500771
O O5 0.116898 0.590385 0.750000
O O6 0.165634 0.521898 0.982912
O O7 0.115401 0.750000 0.000000
O O8 0.082817 0.490059 0.005056
O O9 0.462350 0.093221 0.750000
O O10 0.460653 0.250000 0.000000
O O11 0.500000 0.000000 0.000000
O O12 0.301036 0.093540 0.250000
O O13 0.249979 0.056369 0.016401
O O14 0.308588 0.250000 0.000000
O O15 0.200957 0.399664 0.750000
O O16 0.190876 0.250000 0.000000
O O17 0.960794 0.590689 0.750000
O O18 0.961193 0.750000 0.000000
O O19 0.000000 0.500000 0.000000
#
# Coordination Sequence:
#
# PCOD9437812 Si02
#       6
#     8   8   8   8   8   8
#     4  11  24  40  59  86 118 155 195 241 292 347
#     4  11  23  40  60  87 121 158 198 243 293 347
#     4  11  24  41  63  89 119 153 193 238 290 346
#     4  10  20  37  60  87 118 155 197 243 292 348
#     4   9  20  37  59  86 117 153 196 242 293 348
#     4  12  25  43  65  91 121 156 196 241 292 348
#
# _framework density 19.048051000000001
#
# number of rings (size 3 to 8) (size 9 to 14) (size 15 to 20)
#    0.000    1.333    0.000    5.500    0.000    9.333 
#    0.000    1.667    0.000    0.000    0.000    0.000 
#    0.000    0.000    0.000    0.000    0.000    0.000 
#
# Total GULP energy -268479.801983 kJ/mol
# GULP energy per Si atom -5593.329208 kJ/mol
# Density = 1.900470 g / cm^3
# Si number density = 19.048051 Si / 1000 Ang^3
#
#
#
# Elastic Constant Matrix: (Units=GPa)
#
#
# Indices 1 2 3 4 5 6 
#
# 1 131.3891 110.3563 53.1846 0.0000 0.0000 0.0000
# 2 110.3563 195.1488 60.7387 0.0000 0.0000 0.0000
# 3 53.1846 60.7387 83.7036 0.0000 0.0000 0.0000
# 4 0.0000 0.0000 0.0000 39.9806 0.0000 0.0000
# 5 0.0000 0.0000 0.0000 0.0000 29.7842 0.0000
# 6 0.0000 0.0000 0.0000 0.0000 0.0000 43.9115
#
#
#
# Elastic Compliance Matrix: (Units=1/GPa)
#
#
# Indices 1 2 3 4 5 6 
#
# 1 0.015746 -0.007480 -0.004577 0.000000 0.000000 0.000000
# 2 -0.007480 0.010172 -0.002629 0.000000 0.000000 0.000000
# 3 -0.004577 -0.002629 0.016763 0.000000 0.000000 0.000000
# 4 0.000000 0.000000 0.000000 0.025012 0.000000 0.000000
# 5 0.000000 0.000000 0.000000 0.000000 0.033575 0.000000
# 6 0.000000 0.000000 0.000000 0.000000 0.000000 0.022773
#
#
# Mechanical properties :
#
#
# Convention : Reuss Voigt Hill
#
# Bulk Modulus (GPa) = 75.13459 95.42231 85.27845
# Shear Modulus (GPa) = 31.67558 35.13272 33.40415
#
# Velocity S-wave (km/s) = 4.08233 4.29934 4.19224
# Velocity P-wave (km/s) = 7.85818 8.65159 8.26441
#
# Compressibility (1/GPa) = 0.01330945
#
# Stress axis : x y z
#
# Youngs Moduli (GPa) = 63.50691 98.30587 59.65537
#
# Poissons Ratio (x) = 0.73531 0.27307
# Poissons Ratio (y) = 0.47502 0.15682
# Poissons Ratio (z) = 0.29070 0.25843
#
# Static dielectric constant tensor:
#      x y z
#    x 1.656310 0.000000 0.000000 
#    y 0.000000 1.609300 0.000000 
#    z 0.000000 0.000000 1.641380 
# 
# From -- ./inp_files/9934.got.cif
#   From: 2010.05.17/outbox.cif.g08.bks.cpg/sg57_5_cif.got.tgz:9934.got - 2010.06.03 13:58:18.
