data_PCOD9437964
_publ_section_title
;
Structure prediction by ZEFSAII (Michael W. Deem and Ramdas Pophale) SiO2 
 PCOD9437964
Probable space group: P B C M
;
_chemical_formula_sum "Si O2"
_cell_formula_units_Z 56
_cell_length_a 5.288951
_cell_length_b 21.082894
_cell_length_c 24.421780
_cell_angle_alpha 90.000000
_cell_angle_beta 90.000000
_cell_angle_gamma 90.000000
_cell_volume 2723.184606
_symmetry_space_group_name_H-M "P B C M"
_symmetry_group_IT_number 57
_symmetry_cell_setting 'orthorhombic'
loop_
_space_group_symop_operation_xyz
x,y,z
-x,-y,1/2+z
x,1/2-y,-z
-x,1/2+y,1/2-z
-x,-y,-z
x,y,1/2-z
-x,1/2+y,z
x,1/2-y,1/2+z
loop_
_atom_site_type_symbol
_atom_site_label
_atom_site_fract_x
_atom_site_fract_y
_atom_site_fract_z
Si Si1 0.180190 0.124195 0.459526
Si Si2 0.092331 0.802866 0.750000
Si Si3 0.501237 0.755939 0.945524
Si Si4 0.120829 0.684403 0.368585
Si Si5 0.408002 0.219004 0.750000
Si Si6 0.485428 0.008193 0.435029
Si Si7 0.785770 0.685809 0.634726
Si Si8 0.978774 0.932223 0.422320
O O1 0.292770 0.194404 0.468622
O O2 0.064897 0.093866 0.514917
O O3 0.978489 0.134214 0.411889
O O4 0.398331 0.080864 0.432549
O O5 0.133836 0.839014 0.693296
O O6 0.309331 0.747741 0.750000
O O7 0.808994 0.773978 0.750000
O O8 0.378159 0.789943 0.893638
O O9 0.595764 0.692012 0.917029
O O10 0.327770 0.750000 0.000000
O O11 0.943353 0.748049 0.367031
O O12 0.351339 0.182340 0.806701
O O13 0.748343 0.981580 0.412272
O O14 0.247067 0.966008 0.416698
O O15 0.500000 0.000000 0.500000
O O16 0.955495 0.626095 0.619498
#
# Coordination Sequence:
#
# PCOD9437964 Si02
#       8
#     8   4   8   8   4   8   8   8
#     4  10  22  35  53  85 115 154 192 235 295 353
#     4  10  20  40  54  84 113 155 200 230 285 356
#     4  11  21  32  54  88 126 150 183 240 303 360
#     4  10  23  33  59  81 119 156 189 243 293 363
#     4  10  20  38  60  78 121 153 200 236 281 366
#     4  10  23  39  57  83 114 162 198 239 288 356
#     4  10  22  37  54  90 116 158 193 241 303 349
#     4  11  23  37  60  83 121 152 198 246 292 358
#
# _framework density 20.564157999999999
#
# number of rings (size 3 to 8) (size 9 to 14) (size 15 to 20)
#    0.000    1.714    2.857    1.714   10.000    0.000 
#    0.000    0.000    0.000    1.714    0.000    0.000 
#    0.000    0.000    0.000    0.000    0.000    0.000 
#
# Total GULP energy -312243.460448 kJ/mol
# GULP energy per Si atom -5575.776079 kJ/mol
# Density = 2.051735 g / cm^3
# Si number density = 20.564158 Si / 1000 Ang^3
#
#
#
# Elastic Constant Matrix: (Units=GPa)
#
#
# Indices 1 2 3 4 5 6 
#
# 1 63.6470 10.8540 -5.5890 0.0000 0.0000 0.0000
# 2 10.8540 68.1784 4.0626 0.0000 0.0000 0.0000
# 3 -5.5890 4.0626 100.3863 0.0000 0.0000 0.0000
# 4 0.0000 0.0000 0.0000 15.0299 0.0000 0.0000
# 5 0.0000 0.0000 0.0000 0.0000 23.4786 0.0000
# 6 0.0000 0.0000 0.0000 0.0000 0.0000 22.1018
#
#
#
# Elastic Compliance Matrix: (Units=1/GPa)
#
#
# Indices 1 2 3 4 5 6 
#
# 1 0.016252 -0.002648 0.001012 0.000000 0.000000 0.000000
# 2 -0.002648 0.015134 -0.000760 0.000000 0.000000 0.000000
# 3 0.001012 -0.000760 0.010049 0.000000 0.000000 0.000000
# 4 0.000000 0.000000 0.000000 0.066534 0.000000 0.000000
# 5 0.000000 0.000000 0.000000 0.000000 0.042592 0.000000
# 6 0.000000 0.000000 0.000000 0.000000 0.000000 0.045245
#
#
# Mechanical properties :
#
#
# Convention : Reuss Voigt Hill
#
# Bulk Modulus (GPa) = 27.28978 27.87412 27.58195
# Shear Modulus (GPa) = 23.49494 26.98100 25.23797
#
# Velocity S-wave (km/s) = 3.38378 3.62614 3.50706
# Velocity P-wave (km/s) = 5.34472 5.57817 5.46269
#
# Compressibility (1/GPa) = 0.03664375
#
# Stress axis : x y z
#
# Youngs Moduli (GPa) = 61.53077 66.07561 99.51619
#
# Poissons Ratio (x) = 0.17494 -0.10071
# Poissons Ratio (y) = 0.16291 0.07562
# Poissons Ratio (z) = -0.06227 0.05021
#
# Static dielectric constant tensor:
#      x y z
#    x 1.934610 0.000000 0.000000 
#    y 0.000000 1.639110 0.000000 
#    z 0.000000 0.000000 1.749830 
# 
# From -- ./inp_files/26330.got.cif
#   From: 2010.05.17/outbox.cif.g08.bks.cpg/sg57_14_cif.got.tgz:26330.got - 2010.06.03 13:58:18.
