data_PCOD9437494
_publ_section_title
;
Structure prediction by ZEFSAII (Michael W. Deem and Ramdas Pophale) SiO2 
 PCOD9437494
Probable space group: P B C M
;
_chemical_formula_sum "Si O2"
_cell_formula_units_Z 64
_cell_length_a 15.402322
_cell_length_b 24.677805
_cell_length_c 7.645338
_cell_angle_alpha 90.000000
_cell_angle_beta 90.000000
_cell_angle_gamma 90.000000
_cell_volume 2905.958561
_symmetry_space_group_name_H-M "P B C M"
_symmetry_group_IT_number 57
_symmetry_cell_setting 'orthorhombic'
loop_
_space_group_symop_operation_xyz
x,y,z
-x,-y,1/2+z
x,1/2-y,-z
-x,1/2+y,1/2-z
-x,-y,-z
x,y,1/2-z
-x,1/2+y,z
x,1/2-y,1/2+z
loop_
_atom_site_type_symbol
_atom_site_label
_atom_site_fract_x
_atom_site_fract_y
_atom_site_fract_z
Si Si1 0.843719 0.889252 0.456613
Si Si2 0.597157 0.521028 0.041849
Si Si3 0.462352 0.134176 0.951138
Si Si4 0.831903 0.120902 0.039392
Si Si5 0.898217 0.004575 0.039649
Si Si6 0.354738 0.907532 0.458919
Si Si7 0.004968 0.687043 0.458428
Si Si8 0.302017 0.310090 0.460847
O O1 0.827763 0.895642 0.250000
O O2 0.854142 0.949685 0.530171
O O3 0.765842 0.853716 0.531968
O O4 0.931175 0.853830 0.474498
O O5 0.607826 0.528663 0.250000
O O6 0.654826 0.470229 0.977730
O O7 0.500000 0.500000 0.000000
O O8 0.597202 0.579688 0.954997
O O9 0.479894 0.148997 0.750000
O O10 0.555937 0.118736 0.029981
O O11 0.399155 0.179002 0.030433
O O12 0.836259 0.120333 0.250000
O O13 0.901017 0.165585 0.977587
O O14 0.862067 0.061687 0.972902
O O15 0.731204 0.126504 0.992319
O O16 0.888635 0.005323 0.250000
O O17 0.000000 0.000000 0.000000
O O18 0.366769 0.913042 0.250000
O O19 0.989746 0.750000 0.500000
O O20 0.003243 0.681899 0.250000
O O21 0.271286 0.250000 0.500000
O O22 0.305358 0.315427 0.250000
#
# Coordination Sequence:
#
# PCOD9437494 Si02
#       8
#     8   8   8   8   8   8   8   8
#     4  10  21  37  60  87 115 150 188 227 285 345
#     4   9  17  30  49  77 108 140 178 221 270 326
#     4   9  19  36  56  78 109 146 187 232 279 331
#     4  10  22  37  56  84 117 151 189 231 277 335
#     4  10  20  36  57  85 118 151 187 229 284 342
#     4   9  19  34  53  80 112 146 184 226 275 329
#     4  11  23  40  60  83 111 146 190 236 282 333
#     4  10  22  39  58  82 112 149 191 237 285 340
#
# _framework density 22.023713999999998
#
# number of rings (size 3 to 8) (size 9 to 14) (size 15 to 20)
#    0.000    2.250    1.250    1.875    1.750    6.000 
#    0.000    0.625    0.000    3.000    0.000    0.000 
#    0.000    0.000    0.000    0.000    0.000    0.000 
#
# Total GULP energy -357204.696963 kJ/mol
# GULP energy per Si atom -5581.323390 kJ/mol
# Density = 2.197359 g / cm^3
# Si number density = 22.023714 Si / 1000 Ang^3
#
#
#
# Elastic Constant Matrix: (Units=GPa)
#
#
# Indices 1 2 3 4 5 6 
#
# 1 88.8187 8.6946 -2.8719 0.0000 0.0000 0.0000
# 2 8.6946 70.6679 -0.8945 0.0000 0.0000 0.0000
# 3 -2.8719 -0.8945 49.4895 0.0000 0.0000 0.0000
# 4 0.0000 0.0000 0.0000 10.6381 0.0000 0.0000
# 5 0.0000 0.0000 0.0000 0.0000 12.7487 0.0000
# 6 0.0000 0.0000 0.0000 0.0000 0.0000 32.2174
#
#
#
# Elastic Compliance Matrix: (Units=1/GPa)
#
#
# Indices 1 2 3 4 5 6 
#
# 1 0.011416 -0.001397 0.000637 0.000000 0.000000 0.000000
# 2 -0.001397 0.014325 0.000178 0.000000 0.000000 0.000000
# 3 0.000637 0.000178 0.020246 0.000000 0.000000 0.000000
# 4 0.000000 0.000000 0.000000 0.094002 0.000000 0.000000
# 5 0.000000 0.000000 0.000000 0.000000 0.078439 0.000000
# 6 0.000000 0.000000 0.000000 0.000000 0.000000 0.031039
#
#
# Mechanical properties :
#
#
# Convention : Reuss Voigt Hill
#
# Bulk Modulus (GPa) = 22.30915 24.31473 23.31194
# Shear Modulus (GPa) = 18.82729 24.72404 21.77566
#
# Velocity S-wave (km/s) = 2.92698 3.35417 3.14783
# Velocity P-wave (km/s) = 4.64484 5.10537 4.88054
#
# Compressibility (1/GPa) = 0.04482466
#
# Stress axis : x y z
#
# Youngs Moduli (GPa) = 87.59481 69.80915 49.39129
#
# Poissons Ratio (x) = 0.09749 -0.03147
# Poissons Ratio (y) = 0.12233 -0.00879
# Poissons Ratio (z) = -0.05582 -0.01242
#
# Static dielectric constant tensor:
#      x y z
#    x 1.807040 0.000000 0.000000 
#    y 0.000000 1.821570 0.000000 
#    z 0.000000 0.000000 1.811850 
# 
# From -- ./inp_files/5737.got.cif
#   From: 2010.05.17/outbox.cif.g08.bks.cpg/sg57_3_cif.got.tgz:5737.got - 2010.06.03 13:58:18.
