data_PCOD9437022
_publ_section_title
;
Structure prediction by ZEFSAII (Michael W. Deem and Ramdas Pophale) SiO2 
 PCOD9437022
Probable space group: P B C M
;
_chemical_formula_sum "Si O2"
_cell_formula_units_Z 48
_cell_length_a 5.391238
_cell_length_b 27.800375
_cell_length_c 14.578459
_cell_angle_alpha 90.000000
_cell_angle_beta 90.000000
_cell_angle_gamma 90.000000
_cell_volume 2184.996665
_symmetry_space_group_name_H-M "P B C M"
_symmetry_group_IT_number 57
_symmetry_cell_setting 'orthorhombic'
loop_
_space_group_symop_operation_xyz
x,y,z
-x,-y,1/2+z
x,1/2-y,-z
-x,1/2+y,1/2-z
-x,-y,-z
x,y,1/2-z
-x,1/2+y,z
x,1/2-y,1/2+z
loop_
_atom_site_type_symbol
_atom_site_label
_atom_site_fract_x
_atom_site_fract_y
_atom_site_fract_z
Si Si1 0.596181 0.097004 0.349322
Si Si2 0.098806 0.846618 0.970404
Si Si3 0.862631 0.769479 0.649455
Si Si4 0.362118 0.779154 0.405612
Si Si5 0.216357 0.059488 0.009171
Si Si6 0.077717 0.998759 0.852219
O O1 0.467621 0.101236 0.250000
O O2 0.743749 0.144652 0.377214
O O3 0.434411 0.085281 0.437361
O O4 0.777206 0.051384 0.342556
O O5 0.894042 0.807476 0.935412
O O6 0.984790 0.897998 0.995663
O O7 0.272480 0.830266 0.054434
O O8 0.830958 0.792821 0.750000
O O9 0.628821 0.733172 0.637144
O O10 0.123195 0.740934 0.648003
O O11 0.367247 0.750000 0.500000
O O12 0.143200 0.015860 0.078712
O O13 0.242126 0.036544 0.909194
O O14 0.004942 0.014468 0.750000
#
# Coordination Sequence:
#
# PCOD9437022 Si02
#       6
#     8   8   8   8   8   8
#     4  10  20  34  59  93 125 158 207 267 324 385
#     4  10  23  38  60  89 125 159 213 266 329 388
#     4  11  23  40  63  90 121 163 214 269 326 387
#     4  10  22  40  62  86 121 166 206 255 327 394
#     4  10  20  35  61  88 122 169 205 265 322 386
#     4   9  19  37  56  87 125 165 211 254 316 393
#
# _framework density 21.967997
#
# number of rings (size 3 to 8) (size 9 to 14) (size 15 to 20)
#    0.000    2.000    0.000    3.500    7.000    2.000 
#    0.000    1.667    0.000    0.000    0.000    0.000 
#    0.000    0.000    0.000    0.000    0.000    0.000 
#
# Total GULP energy -267375.866091 kJ/mol
# GULP energy per Si atom -5570.330544 kJ/mol
# Density = 2.191800 g / cm^3
# Si number density = 21.967997 Si / 1000 Ang^3
#
#
#
# Elastic Constant Matrix: (Units=GPa)
#
#
# Indices 1 2 3 4 5 6 
#
# 1 81.7074 12.5892 18.3074 0.0000 0.0000 0.0000
# 2 12.5892 58.0343 30.9100 0.0000 0.0000 0.0000
# 3 18.3074 30.9100 114.9795 0.0000 0.0000 0.0000
# 4 0.0000 0.0000 0.0000 41.8215 0.0000 0.0000
# 5 0.0000 0.0000 0.0000 0.0000 14.2904 0.0000
# 6 0.0000 0.0000 0.0000 0.0000 0.0000 17.7209
#
#
#
# Elastic Compliance Matrix: (Units=1/GPa)
#
#
# Indices 1 2 3 4 5 6 
#
# 1 0.012885 -0.001987 -0.001517 0.000000 0.000000 0.000000
# 2 -0.001987 0.020417 -0.005172 0.000000 0.000000 0.000000
# 3 -0.001517 -0.005172 0.010329 0.000000 0.000000 0.000000
# 4 0.000000 0.000000 0.000000 0.023911 0.000000 0.000000
# 5 0.000000 0.000000 0.000000 0.000000 0.069977 0.000000
# 6 0.000000 0.000000 0.000000 0.000000 0.000000 0.056430
#
#
# Mechanical properties :
#
#
# Convention : Reuss Voigt Hill
#
# Bulk Modulus (GPa) = 38.05476 42.03716 40.04596
# Shear Modulus (GPa) = 22.72079 27.62754 25.17416
#
# Velocity S-wave (km/s) = 3.21949 3.55015 3.38886
# Velocity P-wave (km/s) = 5.58396 5.99849 5.79493
#
# Compressibility (1/GPa) = 0.02627792
#
# Stress axis : x y z
#
# Youngs Moduli (GPa) = 77.61005 48.97863 96.81192
#
# Poissons Ratio (x) = 0.09731 0.14691
# Poissons Ratio (y) = 0.15420 0.50075
# Poissons Ratio (z) = 0.11777 0.25334
#
# Static dielectric constant tensor:
#      x y z
#    x 1.926160 0.000000 0.000000 
#    y 0.000000 1.875940 0.000000 
#    z 0.000000 0.000000 1.851140 
# 
# From -- ./inp_files/15115.got.cif
#   From: 2010.05.17/outbox.cif.g08.bks.cpg/sg57_8_cif.got.tgz:15115.got - 2010.06.03 13:58:18.
