data_PCOD9437242
_publ_section_title
;
Structure prediction by ZEFSAII (Michael W. Deem and Ramdas Pophale) SiO2 
 PCOD9437242
Probable space group: P B C M
;
_chemical_formula_sum "Si O2"
_cell_formula_units_Z 48
_cell_length_a 7.422819
_cell_length_b 21.186521
_cell_length_c 11.391537
_cell_angle_alpha 90.000000
_cell_angle_beta 90.000000
_cell_angle_gamma 90.000000
_cell_volume 1791.475378
_symmetry_space_group_name_H-M "P B C M"
_symmetry_group_IT_number 57
_symmetry_cell_setting 'orthorhombic'
loop_
_space_group_symop_operation_xyz
x,y,z
-x,-y,1/2+z
x,1/2-y,-z
-x,1/2+y,1/2-z
-x,-y,-z
x,y,1/2-z
-x,1/2+y,z
x,1/2-y,1/2+z
loop_
_atom_site_type_symbol
_atom_site_label
_atom_site_fract_x
_atom_site_fract_y
_atom_site_fract_z
Si Si1 0.760469 0.094555 0.875744
Si Si2 0.981760 0.721560 0.124304
Si Si3 0.612505 0.261975 0.123877
Si Si4 0.251337 0.405107 0.874926
Si Si5 0.623306 0.565871 0.877472
Si Si6 0.113402 0.946904 0.621590
O O1 0.859226 0.089044 0.750000
O O2 0.674354 0.165066 0.874671
O O3 0.587198 0.048403 0.876064
O O4 0.858090 0.088382 0.998847
O O5 0.941318 0.754947 0.250000
O O6 0.200636 0.721983 0.120282
O O7 0.878650 0.655702 0.129650
O O8 0.926924 0.750000 0.000000
O O9 0.522072 0.247921 0.250000
O O10 0.515393 0.250000 0.000000
O O11 0.352773 0.408024 0.750000
O O12 0.100543 0.460668 0.877575
O O13 0.353470 0.401103 0.996985
O O14 0.655319 0.598501 0.750000
O O15 0.758286 0.507363 0.880332
O O16 0.153182 0.916727 0.750000
#
# Coordination Sequence:
#
# PCOD9437242 Si02
#       6
#     8   8   8   8   8   8
#     4  10  21  36  56  84 114 145 184 227 274 331
#     4   9  17  30  50  76 101 127 168 220 269 319
#     4   9  17  31  52  77 104 133 170 220 271 319
#     4  10  21  36  55  81 110 142 185 231 275 328
#     4  10  22  38  54  79 116 152 186 226 275 330
#     4  10  20  35  57  83 111 147 190 232 272 321
#
# _framework density 26.793558000000001
#
# number of rings (size 3 to 8) (size 9 to 14) (size 15 to 20)
#    0.000    2.333    0.000    3.000    0.000    4.667 
#    0.000    0.833    0.000    4.000    0.000    0.000 
#    0.000    0.000    0.000    0.000    0.000    0.000 
#
# Total GULP energy -268090.626564 kJ/mol
# GULP energy per Si atom -5585.221387 kJ/mol
# Density = 2.673257 g / cm^3
# Si number density = 26.793558 Si / 1000 Ang^3
#
#
#
# Elastic Constant Matrix: (Units=GPa)
#
#
# Indices 1 2 3 4 5 6 
#
# 1 79.8195 10.0865 43.3424 0.0000 0.0000 0.0000
# 2 10.0865 52.3357 40.5592 0.0000 0.0000 0.0000
# 3 43.3424 40.5592 391.4829 0.0000 0.0000 0.0000
# 4 0.0000 0.0000 0.0000 35.7379 0.0000 0.0000
# 5 0.0000 0.0000 0.0000 0.0000 21.0739 0.0000
# 6 0.0000 0.0000 0.0000 0.0000 0.0000 28.4490
#
#
#
# Elastic Compliance Matrix: (Units=1/GPa)
#
#
# Indices 1 2 3 4 5 6 
#
# 1 0.013446 -0.001563 -0.001327 0.000000 0.000000 0.000000
# 2 -0.001563 0.020957 -0.001998 0.000000 0.000000 0.000000
# 3 -0.001327 -0.001998 0.002908 0.000000 0.000000 0.000000
# 4 0.000000 0.000000 0.000000 0.027981 0.000000 0.000000
# 5 0.000000 0.000000 0.000000 0.000000 0.047452 0.000000
# 6 0.000000 0.000000 0.000000 0.000000 0.000000 0.035151
#
#
# Mechanical properties :
#
#
# Convention : Reuss Voigt Hill
#
# Bulk Modulus (GPa) = 36.31683 79.06826 57.69255
# Shear Modulus (GPa) = 29.96689 45.69549 37.83119
#
# Velocity S-wave (km/s) = 3.34793 4.13421 3.76167
# Velocity P-wave (km/s) = 5.34122 7.23624 6.35971
#
# Compressibility (1/GPa) = 0.02753544
#
# Stress axis : x y z
#
# Youngs Moduli (GPa) = 74.37033 47.71619 343.84410
#
# Poissons Ratio (x) = 0.07459 0.45618
# Poissons Ratio (y) = 0.11626 0.68706
# Poissons Ratio (z) = 0.09867 0.09535
#
# Static dielectric constant tensor:
#      x y z
#    x 2.035940 0.000000 0.000000 
#    y 0.000000 2.224910 0.000000 
#    z 0.000000 0.000000 2.134590 
# 
# From -- ./inp_files/11948.got.cif
#   From: 2010.05.17/outbox.cif.g08.bks.cpg/sg57_6_cif.got.tgz:11948.got - 2010.06.03 13:58:18.
