data_PCOD9437580
_publ_section_title
;
Structure prediction by ZEFSAII (Michael W. Deem and Ramdas Pophale) SiO2 
 PCOD9437580
Probable space group: P B C M
;
_chemical_formula_sum "Si O2"
_cell_formula_units_Z 64
_cell_length_a 24.951144
_cell_length_b 15.605489
_cell_length_c 8.466615
_cell_angle_alpha 90.000000
_cell_angle_beta 90.000000
_cell_angle_gamma 90.000000
_cell_volume 3296.686550
_symmetry_space_group_name_H-M "P B C M"
_symmetry_group_IT_number 57
_symmetry_cell_setting 'orthorhombic'
loop_
_space_group_symop_operation_xyz
x,y,z
-x,-y,1/2+z
x,1/2-y,-z
-x,1/2+y,1/2-z
-x,-y,-z
x,y,1/2-z
-x,1/2+y,z
x,1/2-y,1/2+z
loop_
_atom_site_type_symbol
_atom_site_label
_atom_site_fract_x
_atom_site_fract_y
_atom_site_fract_z
Si Si1 0.390551 0.159475 0.561166
Si Si2 0.687406 0.993854 0.441188
Si Si3 0.807661 0.994703 0.560892
Si Si4 0.992849 0.152362 0.440233
Si Si5 0.875069 0.347845 0.560178
Si Si6 0.110349 0.348058 0.941352
Si Si7 0.379838 0.842250 0.559638
Si Si8 0.496758 0.902958 0.560612
O O1 0.369960 0.250000 0.500000
O O2 0.392489 0.158985 0.750000
O O3 0.450560 0.144910 0.498824
O O4 0.351953 0.082745 0.508430
O O5 0.689224 0.993514 0.250000
O O6 0.746952 0.984256 0.504792
O O7 0.659683 0.082395 0.492772
O O8 0.809421 0.995501 0.750000
O O9 0.832035 0.084193 0.499969
O O10 0.844573 0.914974 0.505012
O O11 0.993234 0.250000 0.500000
O O12 0.992608 0.150376 0.250000
O O13 0.050966 0.118384 0.492264
O O14 0.934615 0.119414 0.492920
O O15 0.867678 0.250000 0.500000
O O16 0.873795 0.345268 0.750000
O O17 0.111085 0.345042 0.750000
O O18 0.117588 0.250000 0.000000
O O19 0.362695 0.750000 0.500000
O O20 0.380508 0.842594 0.750000
O O21 0.440641 0.862225 0.505336
O O22 0.496546 0.903219 0.750000
O O23 0.500000 0.000000 0.500000
#
# Coordination Sequence:
#
# PCOD9437580 Si02
#       8
#     8   8   8   8   8   8   8   8
#     4  11  23  41  63  90 121 156 197 242 293 350
#     4  10  23  44  61  78 114 155 197 246 292 340
#     4  11  24  39  57  84 115 150 196 243 291 344
#     4   8  15  30  53  81 112 146 183 227 282 344
#     4  10  20  36  59  85 114 150 190 233 288 346
#     4   9  19  36  57  83 116 149 187 236 287 344
#     4  10  22  40  61  88 117 150 189 232 285 341
#     4  11  21  37  62  92 126 159 191 234 290 347
#
# _framework density 19.413432
#
# number of rings (size 3 to 8) (size 9 to 14) (size 15 to 20)
#    0.000    2.000    1.250    1.875    0.000    6.500 
#    0.000    3.750    0.000    0.000    0.000    0.000 
#    0.000    0.000    0.000    0.000    0.000    0.000 
#
# Total GULP energy -357257.850730 kJ/mol
# GULP energy per Si atom -5582.153918 kJ/mol
# Density = 1.936925 g / cm^3
# Si number density = 19.413432 Si / 1000 Ang^3
#
#
#
# Elastic Constant Matrix: (Units=GPa)
#
#
# Indices 1 2 3 4 5 6 
#
# 1 78.7723 7.1800 14.9358 0.0000 0.0000 0.0000
# 2 7.1800 83.5609 11.0863 0.0000 0.0000 0.0000
# 3 14.9358 11.0863 23.9338 0.0000 0.0000 0.0000
# 4 0.0000 0.0000 0.0000 29.4636 0.0000 0.0000
# 5 0.0000 0.0000 0.0000 0.0000 6.1212 0.0000
# 6 0.0000 0.0000 0.0000 0.0000 0.0000 -175.0142
#
#
#
# Elastic Compliance Matrix: (Units=1/GPa)
#
#
# Indices 1 2 3 4 5 6 
#
# 1 0.014399 -0.000048 -0.008963 0.000000 0.000000 0.000000
# 2 -0.000048 0.012751 -0.005876 0.000000 0.000000 0.000000
# 3 -0.008963 -0.005876 0.050097 0.000000 0.000000 0.000000
# 4 0.000000 0.000000 0.000000 0.033940 0.000000 0.000000
# 5 0.000000 0.000000 0.000000 0.000000 0.163367 0.000000
# 6 0.000000 0.000000 0.000000 0.000000 0.000000 -0.005714
#
#
# Mechanical properties :
#
#
# Convention : Reuss Voigt Hill
#
# Bulk Modulus (GPa) = 21.06509 28.07457 24.56983
# Shear Modulus (GPa) = 15.90131 -17.68155 -0.89012
#
# Velocity S-wave (km/s) = 2.86508 -3.02120 -0.67786
# Velocity P-wave (km/s) = 4.67111 1.52400 3.47432
#
# Compressibility (1/GPa) = 0.04747191
#
# Stress axis : x y z
#
# Youngs Moduli (GPa) = 69.45081 78.42469 19.96111
#
# Poissons Ratio (x) = 0.00377 0.17892
# Poissons Ratio (y) = 0.00334 0.11730
# Poissons Ratio (z) = 0.62250 0.46085
#
# Static dielectric constant tensor:
#      x y z
#    x 1.681560 0.000000 0.000000 
#    y 0.000000 1.655260 0.000000 
#    z 0.000000 0.000000 1.665580 
# 
# From -- ./inp_files/9484.got.cif
#   From: 2010.05.17/outbox.cif.g08.bks.cpg/sg57_5_cif.got.tgz:9484.got - 2010.06.03 13:58:18.
