data_PCOD9437601
_publ_section_title
;
Structure prediction by ZEFSAII (Michael W. Deem and Ramdas Pophale) SiO2 
 PCOD9437601
Probable space group: P B C M
;
_chemical_formula_sum "Si O2"
_cell_formula_units_Z 56
_cell_length_a 21.638430
_cell_length_b 15.703458
_cell_length_c 8.693559
_cell_angle_alpha 90.000000
_cell_angle_beta 90.000000
_cell_angle_gamma 90.000000
_cell_volume 2954.055497
_symmetry_space_group_name_H-M "P B C M"
_symmetry_group_IT_number 57
_symmetry_cell_setting 'orthorhombic'
loop_
_space_group_symop_operation_xyz
x,y,z
-x,-y,1/2+z
x,1/2-y,-z
-x,1/2+y,1/2-z
-x,-y,-z
x,y,1/2-z
-x,1/2+y,z
x,1/2-y,1/2+z
loop_
_atom_site_type_symbol
_atom_site_label
_atom_site_fract_x
_atom_site_fract_y
_atom_site_fract_z
Si Si1 0.429819 0.157789 0.934517
Si Si2 0.869039 0.660076 0.566871
Si Si3 0.873834 0.161031 0.565887
Si Si4 0.207836 0.495653 0.566654
Si Si5 0.001950 0.095824 0.434186
Si Si6 0.566149 0.342272 0.565427
Si Si7 0.344461 0.998037 0.564587
O O1 0.433729 0.162683 0.750000
O O2 0.382421 0.083232 0.976324
O O3 0.411364 0.250000 0.000000
O O4 0.498010 0.138346 0.999842
O O5 0.846899 0.750000 0.500000
O O6 0.873518 0.664336 0.750000
O O7 0.824526 0.583543 0.516662
O O8 0.936447 0.640252 0.496699
O O9 0.849615 0.250000 0.500000
O O10 0.879953 0.165981 0.750000
O O11 0.940677 0.142883 0.492401
O O12 0.829688 0.081665 0.527934
O O13 0.203189 0.483091 0.750000
O O14 0.278400 0.503709 0.515447
O O15 0.003424 0.093316 0.250000
O O16 0.000000 0.000000 0.500000
O O17 0.584489 0.250000 0.500000
O O18 0.562171 0.337571 0.750000
O O19 0.614064 0.416172 0.523388
O O20 0.336207 0.997684 0.750000
#
# Coordination Sequence:
#
# PCOD9437601 Si02
#       7
#     8   8   8   8   8   8   8
#     4  10  20  36  59  88 119 153 193 243 296 354
#     4  12  25  43  67  92 124 162 202 253 307 364
#     4  11  24  42  64  91 123 159 204 253 306 366
#     4  11  25  43  63  88 121 161 207 254 301 361
#     4  12  23  39  65  95 126 160 200 250 309 364
#     4  10  20  36  59  88 120 155 195 245 298 354
#     4  10  23  40  59  84 119 160 201 243 298 358
#
# _framework density 18.956989
#
# number of rings (size 3 to 8) (size 9 to 14) (size 15 to 20)
#    0.000    1.143    1.429    6.000    0.000    5.143 
#    0.000    4.286    0.000    0.000    0.000    0.000 
#    0.000    0.000    0.000    0.000    0.000    0.000 
#
# Total GULP energy -313291.399513 kJ/mol
# GULP energy per Si atom -5594.489277 kJ/mol
# Density = 1.891384 g / cm^3
# Si number density = 18.956989 Si / 1000 Ang^3
#
#
#
# Elastic Constant Matrix: (Units=GPa)
#
#
# Indices 1 2 3 4 5 6 
#
# 1 107.3487 68.7901 52.2675 0.0000 0.0000 0.0000
# 2 68.7901 142.1812 68.3031 0.0000 0.0000 0.0000
# 3 52.2675 68.3031 105.8835 0.0000 0.0000 0.0000
# 4 0.0000 0.0000 0.0000 27.6182 0.0000 0.0000
# 5 0.0000 0.0000 0.0000 0.0000 32.1303 0.0000
# 6 0.0000 0.0000 0.0000 0.0000 0.0000 -14.3558
#
#
#
# Elastic Compliance Matrix: (Units=1/GPa)
#
#
# Indices 1 2 3 4 5 6 
#
# 1 0.014491 -0.005180 -0.003812 0.000000 0.000000 0.000000
# 2 -0.005180 0.012043 -0.005212 0.000000 0.000000 0.000000
# 3 -0.003812 -0.005212 0.014688 0.000000 0.000000 0.000000
# 4 0.000000 0.000000 0.000000 0.036208 0.000000 0.000000
# 5 0.000000 0.000000 0.000000 0.000000 0.031123 0.000000
# 6 0.000000 0.000000 0.000000 0.000000 0.000000 -0.069658
#
#
# Mechanical properties :
#
#
# Convention : Reuss Voigt Hill
#
# Bulk Modulus (GPa) = 78.03299 81.57055 79.80177
# Shear Modulus (GPa) = 69.85885 20.14870 45.00378
#
# Velocity S-wave (km/s) = 6.07711 3.26370 4.87765
# Velocity P-wave (km/s) = 9.51284 7.57133 8.59707
#
# Compressibility (1/GPa) = 0.01281509
#
# Stress axis : x y z
#
# Youngs Moduli (GPa) = 69.01064 83.03529 68.08293
#
# Poissons Ratio (x) = 0.43010 0.25951
# Poissons Ratio (y) = 0.35745 0.35484
# Poissons Ratio (z) = 0.26305 0.43277
#
# Static dielectric constant tensor:
#      x y z
#    x 1.620660 0.000000 0.000000 
#    y 0.000000 1.665970 0.000000 
#    z 0.000000 0.000000 1.636350 
# 
# From -- ./inp_files/8186.got.cif
#   From: 2010.05.17/outbox.cif.g08.bks.cpg/sg57_5_cif.got.tgz:8186.got - 2010.06.03 13:58:18.
