data_PCOD9437147
_publ_section_title
;
Structure prediction by ZEFSAII (Michael W. Deem and Ramdas Pophale) SiO2 
 PCOD9437147
Probable space group: P B C M
;
_chemical_formula_sum "Si O2"
_cell_formula_units_Z 48
_cell_length_a 15.376247
_cell_length_b 18.975196
_cell_length_c 8.474704
_cell_angle_alpha 90.000000
_cell_angle_beta 90.000000
_cell_angle_gamma 90.000000
_cell_volume 2472.641509
_symmetry_space_group_name_H-M "P B C M"
_symmetry_group_IT_number 57
_symmetry_cell_setting 'orthorhombic'
loop_
_space_group_symop_operation_xyz
x,y,z
-x,-y,1/2+z
x,1/2-y,-z
-x,1/2+y,1/2-z
-x,-y,-z
x,y,1/2-z
-x,1/2+y,z
x,1/2-y,1/2+z
loop_
_atom_site_type_symbol
_atom_site_label
_atom_site_fract_x
_atom_site_fract_y
_atom_site_fract_z
Si Si1 0.843229 0.893912 0.061447
Si Si2 0.480390 0.674213 0.561712
Si Si3 0.648105 0.052504 0.558578
Si Si4 0.651170 0.891730 0.561308
Si Si5 0.021134 0.826563 0.059646
Si Si6 0.847497 0.449127 0.059101
O O1 0.836063 0.889687 0.250000
O O2 0.923126 0.845424 0.007554
O O3 0.749919 0.875688 0.987959
O O4 0.865319 0.974381 0.013806
O O5 0.451386 0.750000 0.500000
O O6 0.476024 0.674449 0.750000
O O7 0.419665 0.610482 0.500418
O O8 0.578792 0.658804 0.509538
O O9 0.643287 0.051598 0.750000
O O10 0.747883 0.069964 0.517536
O O11 0.631421 0.972204 0.505778
O O12 0.645589 0.890004 0.750000
O O13 0.022171 0.826394 0.250000
O O14 0.085806 0.888914 0.007923
O O15 0.047540 0.750000 0.000000
O O16 0.851883 0.456030 0.250000
#
# Coordination Sequence:
#
# PCOD9437147 Si02
#       6
#     8   8   8   8   8   8
#     4  10  20  35  55  82 109 139 180 225 267 316
#     4  11  22  36  53  78 110 143 176 216 263 319
#     4   8  17  34  57  80 105 136 174 217 264 313
#     4  10  20  37  59  81 104 138 179 224 272 317
#     4  10  22  36  53  78 111 145 179 218 265 318
#     4   9  18  36  58  81 107 139 178 222 266 315
#
# _framework density 19.412438999999999
#
# number of rings (size 3 to 8) (size 9 to 14) (size 15 to 20)
#    0.000    2.333    0.000    3.500    0.000    3.333 
#    0.000    9.167    0.000    0.000    0.000    0.000 
#    0.000    0.000    0.000    0.000    0.000    0.000 
#
# Total GULP energy -268006.237673 kJ/mol
# GULP energy per Si atom -5583.463285 kJ/mol
# Density = 1.936826 g / cm^3
# Si number density = 19.412439 Si / 1000 Ang^3
#
#
#
# Elastic Constant Matrix: (Units=GPa)
#
#
# Indices 1 2 3 4 5 6 
#
# 1 35.7854 10.5048 2.8231 0.0000 0.0000 0.0000
# 2 10.5048 20.5328 1.8581 0.0000 0.0000 0.0000
# 3 2.8231 1.8581 26.8475 0.0000 0.0000 0.0000
# 4 0.0000 0.0000 0.0000 30.2116 0.0000 0.0000
# 5 0.0000 0.0000 0.0000 0.0000 18.1557 0.0000
# 6 0.0000 0.0000 0.0000 0.0000 0.0000 1.1622
#
#
#
# Elastic Compliance Matrix: (Units=1/GPa)
#
#
# Indices 1 2 3 4 5 6 
#
# 1 0.033025 -0.016686 -0.002318 0.000000 0.000000 0.000000
# 2 -0.016686 0.057440 -0.002221 0.000000 0.000000 0.000000
# 3 -0.002318 -0.002221 0.037645 0.000000 0.000000 0.000000
# 4 0.000000 0.000000 0.000000 0.033100 0.000000 0.000000
# 5 0.000000 0.000000 0.000000 0.000000 0.055079 0.000000
# 6 0.000000 0.000000 0.000000 0.000000 0.000000 0.860474
#
#
# Mechanical properties :
#
#
# Convention : Reuss Voigt Hill
#
# Bulk Modulus (GPa) = 11.67394 12.61527 12.14461
# Shear Modulus (GPa) = 4.35628 14.43787 9.39708
#
# Velocity S-wave (km/s) = 1.49965 2.73012 2.20256
# Velocity P-wave (km/s) = 3.00421 4.05595 3.56904
#
# Compressibility (1/GPa) = 0.08566088
#
# Stress axis : x y z
#
# Youngs Moduli (GPa) = 30.27968 17.40932 26.56403
#
# Poissons Ratio (x) = 0.29050 0.06157
# Poissons Ratio (y) = 0.50526 0.05899
# Poissons Ratio (z) = 0.07018 0.03866
#
# Static dielectric constant tensor:
#      x y z
#    x 1.674430 0.000000 0.000000 
#    y 0.000000 1.661890 0.000000 
#    z 0.000000 0.000000 1.659780 
# 
# From -- ./inp_files/4551.got.cif
#   From: 2010.05.17/outbox.cif.g08.bks.cpg/sg57_3_cif.got.tgz:4551.got - 2010.06.03 13:58:18.
