data_PCOD9437596
_publ_section_title
;
Structure prediction by ZEFSAII (Michael W. Deem and Ramdas Pophale) SiO2 
 PCOD9437596
Probable space group: P B C M
;
_chemical_formula_sum "Si O2"
_cell_formula_units_Z 64
_cell_length_a 24.522425
_cell_length_b 15.365105
_cell_length_c 8.603213
_cell_angle_alpha 90.000000
_cell_angle_beta 90.000000
_cell_angle_gamma 90.000000
_cell_volume 3241.601486
_symmetry_space_group_name_H-M "P B C M"
_symmetry_group_IT_number 57
_symmetry_cell_setting 'orthorhombic'
loop_
_space_group_symop_operation_xyz
x,y,z
-x,-y,1/2+z
x,1/2-y,-z
-x,1/2+y,1/2-z
-x,-y,-z
x,y,1/2-z
-x,1/2+y,z
x,1/2-y,1/2+z
loop_
_atom_site_type_symbol
_atom_site_label
_atom_site_fract_x
_atom_site_fract_y
_atom_site_fract_z
Si Si1 0.895707 0.151112 0.061800
Si Si2 0.804030 0.486875 0.936731
Si Si3 0.493237 0.402578 0.436543
Si Si4 0.864644 0.651321 0.437270
Si Si5 0.628899 0.655576 0.563598
Si Si6 0.014876 0.151632 0.437158
Si Si7 0.315136 0.513246 0.934991
Si Si8 0.394557 0.659836 0.434767
O O1 0.894959 0.155412 0.250000
O O2 0.955922 0.115508 0.012933
O O3 0.848245 0.085535 0.011808
O O4 0.889112 0.250000 0.000000
O O5 0.802934 0.488118 0.750000
O O6 0.822413 0.581517 0.997472
O O7 0.744508 0.465214 0.000805
O O8 0.500000 0.500000 0.500000
O O9 0.496979 0.402847 0.250000
O O10 0.433935 0.366065 0.480564
O O11 0.543594 0.349919 0.506112
O O12 0.857446 0.750000 0.500000
O O13 0.861831 0.653858 0.250000
O O14 0.925636 0.618262 0.486350
O O15 0.643222 0.750000 0.500000
O O16 0.632530 0.653105 0.750000
O O17 0.667140 0.581902 0.492493
O O18 0.014027 0.250000 0.500000
O O19 0.015198 0.151940 0.250000
O O20 0.315561 0.516814 0.750000
O O21 0.359558 0.579981 0.001524
O O22 0.371659 0.750000 0.500000
O O23 0.393890 0.659244 0.250000
#
# Coordination Sequence:
#
# PCOD9437596 Si02
#       8
#     8   8   8   8   8   8   8   8
#     4   9  19  36  59  86 118 156 194 241 297 356
#     4  11  24  41  60  85 119 157 202 251 302 360
#     4  11  22  38  65  98 134 170 204 247 302 361
#     4  10  20  36  59  87 119 155 197 245 298 358
#     4  11  24  42  66  96 128 164 204 249 302 361
#     4   8  15  30  53  83 117 151 190 236 292 355
#     4  12  26  45  66  88 119 159 208 260 311 363
#     4  12  25  43  67  96 129 165 208 254 305 365
#
# _framework density 19.743328000000002
#
# number of rings (size 3 to 8) (size 9 to 14) (size 15 to 20)
#    0.000    1.500    1.250    4.125    0.000    5.500 
#    0.000    3.750    0.000    0.000    0.000    0.000 
#    0.000    0.000    0.000    0.000    0.000    0.000 
#
# Total GULP energy -357607.150164 kJ/mol
# GULP energy per Si atom -5587.611721 kJ/mol
# Density = 1.969839 g / cm^3
# Si number density = 19.743328 Si / 1000 Ang^3
#
#
#
# Elastic Constant Matrix: (Units=GPa)
#
#
# Indices 1 2 3 4 5 6 
#
# 1 52.8803 -15.7986 12.1182 0.0000 0.0000 0.0000
# 2 -15.7986 65.5497 6.8543 0.0000 0.0000 0.0000
# 3 12.1182 6.8543 65.9339 0.0000 0.0000 0.0000
# 4 0.0000 0.0000 0.0000 28.9389 0.0000 0.0000
# 5 0.0000 0.0000 0.0000 0.0000 18.0872 0.0000
# 6 0.0000 0.0000 0.0000 0.0000 0.0000 -15.9538
#
#
#
# Elastic Compliance Matrix: (Units=1/GPa)
#
#
# Indices 1 2 3 4 5 6 
#
# 1 0.021661 0.005699 -0.004574 0.000000 0.000000 0.000000
# 2 0.005699 0.016923 -0.002807 0.000000 0.000000 0.000000
# 3 -0.004574 -0.002807 0.016299 0.000000 0.000000 0.000000
# 4 0.000000 0.000000 0.000000 0.034556 0.000000 0.000000
# 5 0.000000 0.000000 0.000000 0.000000 0.055288 0.000000
# 6 0.000000 0.000000 0.000000 0.000000 0.000000 -0.062681
#
#
# Mechanical properties :
#
#
# Convention : Reuss Voigt Hill
#
# Bulk Modulus (GPa) = 19.40975 21.19020 20.29997
# Shear Modulus (GPa) = 48.74164 18.29378 33.51771
#
# Velocity S-wave (km/s) = 4.97406 3.04728 4.12475
# Velocity P-wave (km/s) = 6.54528 4.81013 5.74361
#
# Compressibility (1/GPa) = 0.05152049
#
# Stress axis : x y z
#
# Youngs Moduli (GPa) = 46.16501 59.09242 61.35307
#
# Poissons Ratio (x) = -0.33677 0.28061
# Poissons Ratio (y) = -0.26310 0.17220
# Poissons Ratio (z) = 0.21114 0.16585
#
# Static dielectric constant tensor:
#      x y z
#    x 1.707070 0.000000 0.000000 
#    y 0.000000 1.660670 0.000000 
#    z 0.000000 0.000000 1.660240 
# 
# From -- ./inp_files/9446.got.cif
#   From: 2010.05.17/outbox.cif.g08.bks.cpg/sg57_5_cif.got.tgz:9446.got - 2010.06.03 13:58:18.
