data_PCOD9437363
_publ_section_title
;
Structure prediction by ZEFSAII (Michael W. Deem and Ramdas Pophale) SiO2 
 PCOD9437363
Probable space group: P B C M
;
_chemical_formula_sum "Si O2"
_cell_formula_units_Z 64
_cell_length_a 12.587817
_cell_length_b 14.164601
_cell_length_c 18.537559
_cell_angle_alpha 90.000000
_cell_angle_beta 90.000000
_cell_angle_gamma 90.000000
_cell_volume 3305.272820
_symmetry_space_group_name_H-M "P B C M"
_symmetry_group_IT_number 57
_symmetry_cell_setting 'orthorhombic'
loop_
_space_group_symop_operation_xyz
x,y,z
-x,-y,1/2+z
x,1/2-y,-z
-x,1/2+y,1/2-z
-x,-y,-z
x,y,1/2-z
-x,1/2+y,z
x,1/2-y,1/2+z
loop_
_atom_site_type_symbol
_atom_site_label
_atom_site_fract_x
_atom_site_fract_y
_atom_site_fract_z
Si Si1 0.035147 0.583097 0.835230
Si Si2 0.043182 0.809807 0.829388
Si Si3 0.202269 0.974943 0.456854
Si Si4 0.561462 0.519280 0.424551
Si Si5 0.827282 0.034775 0.116888
Si Si6 0.868960 0.823362 0.939710
Si Si7 0.646048 0.728963 0.085500
Si Si8 0.615418 0.576972 0.664293
O O1 0.049472 0.558410 0.750000
O O2 0.040699 0.697246 0.838939
O O3 0.126766 0.550978 0.890499
O O4 0.924185 0.536962 0.862699
O O5 0.000458 0.829313 0.750000
O O6 0.965088 0.849932 0.889317
O O7 0.151106 0.869130 0.838259
O O8 0.324383 0.968969 0.433596
O O9 0.175694 0.929699 0.533704
O O10 0.179556 0.084449 0.475821
O O11 0.500000 0.500000 0.500000
O O12 0.585532 0.629537 0.408126
O O13 0.488743 0.478213 0.361782
O O14 0.718354 0.979914 0.134412
O O15 0.770484 0.782545 0.894419
O O16 0.903436 0.750000 0.000000
O O17 0.606731 0.819254 0.128811
O O18 0.645594 0.750000 0.000000
O O19 0.624238 0.583625 0.750000
#
# Coordination Sequence:
#
# PCOD9437363 Si02
#       8
#     8   8   8   8   8   8   8   8
#     4  11  24  41  60  93 135 170 215 271 330 392
#     4  11  24  38  58  90 131 173 212 260 328 398
#     4  11  23  40  67  92 126 172 220 267 323 392
#     4  11  22  45  69  95 129 172 219 278 333 391
#     4  12  23  42  67  94 133 174 218 268 333 397
#     4  10  20  35  62  95 124 161 217 269 314 379
#     4  10  20  40  69  96 127 169 223 275 329 398
#     4  12  25  43  69 101 134 172 224 280 335 389
#
# _framework density 19.363
#
# number of rings (size 3 to 8) (size 9 to 14) (size 15 to 20)
#    0.000    1.000    3.750    4.500    1.750    2.500 
#    2.250    3.750    0.000    0.000    0.000    0.000 
#    0.000    0.000    0.000    0.000    0.000    0.000 
#
# Total GULP energy -357145.785053 kJ/mol
# GULP energy per Si atom -5580.402891 kJ/mol
# Density = 1.931893 g / cm^3
# Si number density = 19.363000 Si / 1000 Ang^3
#
#
#
# Elastic Constant Matrix: (Units=GPa)
#
#
# Indices 1 2 3 4 5 6 
#
# 1 109.0051 34.3880 62.2402 0.0000 0.0000 0.0000
# 2 34.3880 93.3447 23.2725 0.0000 0.0000 0.0000
# 3 62.2402 23.2725 108.6284 0.0000 0.0000 0.0000
# 4 0.0000 0.0000 0.0000 27.4480 0.0000 0.0000
# 5 0.0000 0.0000 0.0000 0.0000 19.9367 0.0000
# 6 0.0000 0.0000 0.0000 0.0000 0.0000 25.2827
#
#
#
# Elastic Compliance Matrix: (Units=1/GPa)
#
#
# Indices 1 2 3 4 5 6 
#
# 1 0.014635 -0.003487 -0.007638 0.000000 0.000000 0.000000
# 2 -0.003487 0.012148 -0.000605 0.000000 0.000000 0.000000
# 3 -0.007638 -0.000605 0.013712 0.000000 0.000000 0.000000
# 4 0.000000 0.000000 0.000000 0.036432 0.000000 0.000000
# 5 0.000000 0.000000 0.000000 0.000000 0.050159 0.000000
# 6 0.000000 0.000000 0.000000 0.000000 0.000000 0.039553
#
#
# Mechanical properties :
#
#
# Convention : Reuss Voigt Hill
#
# Bulk Modulus (GPa) = 58.70268 61.19772 59.95020
# Shear Modulus (GPa) = 25.53905 27.27199 26.40552
#
# Velocity S-wave (km/s) = 3.63569 3.75702 3.69685
# Velocity P-wave (km/s) = 6.92871 7.10594 7.01788
#
# Compressibility (1/GPa) = 0.01703500
#
# Stress axis : x y z
#
# Youngs Moduli (GPa) = 68.32711 82.31524 72.92982
#
# Poissons Ratio (x) = 0.28705 0.55707
# Poissons Ratio (y) = 0.23827 0.04409
# Poissons Ratio (z) = 0.52192 0.04977
#
# Static dielectric constant tensor:
#      x y z
#    x 1.680090 0.000000 0.000000 
#    y 0.000000 1.725350 0.000000 
#    z 0.000000 0.000000 1.720830 
# 
# From -- ./inp_files/22103.got.cif
#   From: 2010.05.17/outbox.cif.g08.bks.cpg/sg57_12_cif.got.tgz:22103.got - 2010.06.03 13:58:18.
