data_PCOD9437836
_publ_section_title
;
Structure prediction by ZEFSAII (Michael W. Deem and Ramdas Pophale) SiO2 
 PCOD9437836
Probable space group: P B C M
;
_chemical_formula_sum "Si O2"
_cell_formula_units_Z 40
_cell_length_a 7.012935
_cell_length_b 15.196845
_cell_length_c 18.471705
_cell_angle_alpha 90.000000
_cell_angle_beta 90.000000
_cell_angle_gamma 90.000000
_cell_volume 1968.612469
_symmetry_space_group_name_H-M "P B C M"
_symmetry_group_IT_number 57
_symmetry_cell_setting 'orthorhombic'
loop_
_space_group_symop_operation_xyz
x,y,z
-x,-y,1/2+z
x,1/2-y,-z
-x,1/2+y,1/2-z
-x,-y,-z
x,y,1/2-z
-x,1/2+y,z
x,1/2-y,1/2+z
loop_
_atom_site_type_symbol
_atom_site_label
_atom_site_fract_x
_atom_site_fract_y
_atom_site_fract_z
Si Si1 0.342834 0.656680 0.520215
Si Si2 0.021135 0.928492 0.937549
Si Si3 0.514403 0.299007 0.164233
Si Si4 0.592451 0.606356 0.102397
Si Si5 0.310425 0.472789 0.166022
O O1 0.430477 0.750000 0.500000
O O2 0.146886 0.646118 0.476730
O O3 0.331410 0.661292 0.606793
O O4 0.491866 0.595759 0.476997
O O5 0.817873 0.898630 0.908297
O O6 0.148017 0.976412 0.877379
O O7 0.000000 0.000000 0.000000
O O8 0.562161 0.302881 0.250000
O O9 0.466398 0.198480 0.141584
O O10 0.342748 0.369088 0.150550
O O11 0.504896 0.525858 0.147845
O O12 0.269503 0.480790 0.250000
#
# Coordination Sequence:
#
# PCOD9437836 Si02
#       5
#     8   8   8   8   8
#     4   9  20  37  57  84 114 149 194 242 289 348
#     4  11  22  36  60  87 115 155 202 249 301 358
#     4  10  20  37  61  86 118 158 195 239 301 363
#     4  10  21  39  63  85 117 159 201 249 301 359
#     4  10  22  39  58  86 121 153 195 251 303 360
#
# _framework density 20.318878000000002
#
# number of rings (size 3 to 8) (size 9 to 14) (size 15 to 20)
#    0.000    2.000    0.000    3.000    0.000    8.800 
#    0.000    3.000    0.000   18.000    0.000    0.000 
#    0.000    0.000    0.000    0.000    0.000    0.000 
#
# Total GULP energy -222719.738153 kJ/mol
# GULP energy per Si atom -5567.993454 kJ/mol
# Density = 2.027263 g / cm^3
# Si number density = 20.318878 Si / 1000 Ang^3
#
#
#
# Elastic Constant Matrix: (Units=GPa)
#
#
# Indices 1 2 3 4 5 6 
#
# 1 81.5050 -4.5678 10.8492 0.0000 0.0000 0.0000
# 2 -4.5678 96.1723 16.5124 0.0000 0.0000 0.0000
# 3 10.8492 16.5124 99.9835 0.0000 0.0000 0.0000
# 4 0.0000 0.0000 0.0000 29.4317 0.0000 0.0000
# 5 0.0000 0.0000 0.0000 0.0000 8.0464 0.0000
# 6 0.0000 0.0000 0.0000 0.0000 0.0000 10.1253
#
#
#
# Elastic Compliance Matrix: (Units=1/GPa)
#
#
# Indices 1 2 3 4 5 6 
#
# 1 0.012516 0.000852 -0.001499 0.000000 0.000000 0.000000
# 2 0.000852 0.010759 -0.001869 0.000000 0.000000 0.000000
# 3 -0.001499 -0.001869 0.010473 0.000000 0.000000 0.000000
# 4 0.000000 0.000000 0.000000 0.033977 0.000000 0.000000
# 5 0.000000 0.000000 0.000000 0.000000 0.124279 0.000000
# 6 0.000000 0.000000 0.000000 0.000000 0.000000 0.098762
#
#
# Mechanical properties :
#
#
# Convention : Reuss Voigt Hill
#
# Bulk Modulus (GPa) = 34.82360 35.91646 35.37003
# Shear Modulus (GPa) = 16.37348 26.51182 21.44265
#
# Velocity S-wave (km/s) = 2.84179 3.61610 3.25207
# Velocity P-wave (km/s) = 5.28615 5.92872 5.61663
#
# Compressibility (1/GPa) = 0.02871615
#
# Stress axis : x y z
#
# Youngs Moduli (GPa) = 79.89492 92.94178 95.48352
#
# Poissons Ratio (x) = -0.07917 0.14311
# Poissons Ratio (y) = -0.06806 0.17849
# Poissons Ratio (z) = 0.11975 0.17374
#
# Static dielectric constant tensor:
#      x y z
#    x 1.562470 0.000000 0.000000 
#    y 0.000000 1.748620 0.000000 
#    z 0.000000 0.000000 1.819200 
# 
# From -- ./inp_files/19987.got.cif
#   From: 2010.05.17/outbox.cif.g08.bks.cpg/sg57_10_cif.got.tgz:19987.got - 2010.06.03 13:58:18.
