data_PCOD9437333
_publ_section_title
;
Structure prediction by ZEFSAII (Michael W. Deem and Ramdas Pophale) SiO2 
 PCOD9437333
Probable space group: P B C M
;
_chemical_formula_sum "Si O2"
_cell_formula_units_Z 64
_cell_length_a 24.408131
_cell_length_b 15.449607
_cell_length_c 8.797814
_cell_angle_alpha 90.000000
_cell_angle_beta 90.000000
_cell_angle_gamma 90.000000
_cell_volume 3317.620746
_symmetry_space_group_name_H-M "P B C M"
_symmetry_group_IT_number 57
_symmetry_cell_setting 'orthorhombic'
loop_
_space_group_symop_operation_xyz
x,y,z
-x,-y,1/2+z
x,1/2-y,-z
-x,1/2+y,1/2-z
-x,-y,-z
x,y,1/2-z
-x,1/2+y,z
x,1/2-y,1/2+z
loop_
_atom_site_type_symbol
_atom_site_label
_atom_site_fract_x
_atom_site_fract_y
_atom_site_fract_z
Si Si1 0.498156 0.340676 0.567719
Si Si2 0.992910 0.348781 0.066967
Si Si3 0.602789 0.918548 0.075708
Si Si4 0.378419 0.878454 0.924970
Si Si5 0.079299 0.484019 0.566287
Si Si6 0.264136 0.837726 0.430357
Si Si7 0.290214 0.158632 0.431807
Si Si8 0.205368 0.011180 0.064819
O O1 0.478161 0.250000 0.500000
O O2 0.497003 0.341747 0.750000
O O3 0.456075 0.410406 0.503030
O O4 0.561254 0.352198 0.519125
O O5 0.995092 0.340771 0.250000
O O6 0.944748 0.419644 0.028914
O O7 0.988818 0.250000 0.000000
O O8 0.044961 0.404967 0.006892
O O9 0.598379 0.888974 0.250000
O O10 0.621395 0.017798 0.074902
O O11 0.649238 0.865298 0.989356
O O12 0.371967 0.848287 0.750000
O O13 0.327542 0.847050 0.022224
O O14 0.075207 0.475733 0.750000
O O15 0.142581 0.478046 0.518769
O O16 0.241691 0.750000 0.500000
O O17 0.260551 0.834676 0.250000
O O18 0.231022 0.920750 0.487385
O O19 0.274032 0.250000 0.500000
O O20 0.290724 0.161348 0.250000
O O21 0.246607 0.086647 0.483215
O O22 0.205722 0.010460 0.250000
#
# Coordination Sequence:
#
# PCOD9437333 Si02
#       8
#     8   8   8   8   8   8   8   8
#     4  11  23  38  55  79 109 142 183 232 288 350
#     4  10  20  35  59  90 124 162 200 242 293 345
#     4  11  22  38  59  83 110 142 185 236 291 351
#     4  10  22  39  59  83 110 143 187 237 290 349
#     4   9  19  38  61  86 120 159 202 249 291 341
#     4  11  22  38  60  86 116 153 194 238 291 349
#     4  11  22  39  60  84 113 151 194 238 292 349
#     4   9  20  39  61  85 117 156 197 242 292 341
#
# _framework density 19.290932999999999
#
# number of rings (size 3 to 8) (size 9 to 14) (size 15 to 20)
#    0.000    1.750    1.250    3.000    0.000    4.000 
#    0.000    3.750    0.000    0.000    0.000    0.000 
#    0.000    0.000    0.000    0.000    0.000    0.000 
#
# Total GULP energy -357304.949377 kJ/mol
# GULP energy per Si atom -5582.889834 kJ/mol
# Density = 1.924703 g / cm^3
# Si number density = 19.290933 Si / 1000 Ang^3
#
#
#
# Elastic Constant Matrix: (Units=GPa)
#
#
# Indices 1 2 3 4 5 6 
#
# 1 101.2267 35.4651 23.9034 0.0000 0.0000 0.0000
# 2 35.4651 124.2358 30.9743 0.0000 0.0000 0.0000
# 3 23.9034 30.9743 53.1576 0.0000 0.0000 0.0000
# 4 0.0000 0.0000 0.0000 29.2568 0.0000 0.0000
# 5 0.0000 0.0000 0.0000 0.0000 23.4658 0.0000
# 6 0.0000 0.0000 0.0000 0.0000 0.0000 -10.6941
#
#
#
# Elastic Compliance Matrix: (Units=1/GPa)
#
#
# Indices 1 2 3 4 5 6 
#
# 1 0.011613 -0.002355 -0.003850 0.000000 0.000000 0.000000
# 2 -0.002355 0.009895 -0.004707 0.000000 0.000000 0.000000
# 3 -0.003850 -0.004707 0.023285 0.000000 0.000000 0.000000
# 4 0.000000 0.000000 0.000000 0.034180 0.000000 0.000000
# 5 0.000000 0.000000 0.000000 0.000000 0.042615 0.000000
# 6 0.000000 0.000000 0.000000 0.000000 0.000000 -0.093509
#
#
# Mechanical properties :
#
#
# Convention : Reuss Voigt Hill
#
# Bulk Modulus (GPa) = 43.53410 51.03397 47.28403
# Shear Modulus (GPa) = 86.86652 20.95752 53.91202
#
# Velocity S-wave (km/s) = 6.71770 3.29962 5.29221
# Velocity P-wave (km/s) = 9.09869 6.40539 7.86813
#
# Compressibility (1/GPa) = 0.02297050
#
# Stress axis : x y z
#
# Youngs Moduli (GPa) = 86.11001 101.06093 42.94522
#
# Poissons Ratio (x) = 0.23803 0.16532
# Poissons Ratio (y) = 0.20282 0.20212
# Poissons Ratio (z) = 0.33149 0.47565
#
# Static dielectric constant tensor:
#      x y z
#    x 1.657080 0.000000 0.000000 
#    y 0.000000 1.680080 0.000000 
#    z 0.000000 0.000000 1.666370 
# 
# From -- ./inp_files/9387.got.cif
#   From: 2010.05.17/outbox.cif.g08.bks.cpg/sg57_5_cif.got.tgz:9387.got - 2010.06.03 13:58:18.
