data_PCOD9437822
_publ_section_title
;
Structure prediction by ZEFSAII (Michael W. Deem and Ramdas Pophale) SiO2 
 PCOD9437822
Probable space group: P B C M
;
_chemical_formula_sum "Si O2"
_cell_formula_units_Z 48
_cell_length_a 14.727204
_cell_length_b 20.818170
_cell_length_c 8.701006
_cell_angle_alpha 90.000000
_cell_angle_beta 90.000000
_cell_angle_gamma 90.000000
_cell_volume 2667.671331
_symmetry_space_group_name_H-M "P B C M"
_symmetry_group_IT_number 57
_symmetry_cell_setting 'orthorhombic'
loop_
_space_group_symop_operation_xyz
x,y,z
-x,-y,1/2+z
x,1/2-y,-z
-x,1/2+y,1/2-z
-x,-y,-z
x,y,1/2-z
-x,1/2+y,z
x,1/2-y,1/2+z
loop_
_atom_site_type_symbol
_atom_site_label
_atom_site_fract_x
_atom_site_fract_y
_atom_site_fract_z
Si Si1 0.941908 0.680420 0.565031
Si Si2 0.445630 0.938880 0.066413
Si Si3 0.745495 0.022942 0.066176
Si Si4 0.939515 0.058182 0.564829
Si Si5 0.743410 0.630039 0.934558
Si Si6 0.556292 0.819690 0.933000
O O1 0.964290 0.750000 0.500000
O O2 0.941982 0.682982 0.750000
O O3 0.840039 0.659547 0.517811
O O4 0.011942 0.624709 0.518938
O O5 0.451188 0.940107 0.250000
O O6 0.342357 0.945623 0.010652
O O7 0.492549 0.874789 0.003154
O O8 0.500000 0.000000 0.000000
O O9 0.741861 0.030925 0.250000
O O10 0.743713 0.946271 0.034478
O O11 0.838733 0.051130 0.000847
O O12 0.938268 0.054513 0.750000
O O13 0.000000 0.000000 0.500000
O O14 0.732866 0.638404 0.750000
O O15 0.659126 0.662809 0.018005
O O16 0.548787 0.819556 0.750000
O O17 0.533445 0.750000 0.000000
#
# Coordination Sequence:
#
# PCOD9437822 Si02
#       6
#     8   8   8   8   8   8
#     4  10  22  39  58  86 122 160 200 248 301 359
#     4  12  24  41  64  92 124 162 206 254 305 366
#     4  11  22  39  63  93 125 157 202 256 307 360
#     4  11  22  39  61  88 122 160 205 253 305 364
#     4  10  20  37  60  89 126 160 197 252 307 366
#     4  12  25  41  62  91 126 166 206 252 309 369
#
# _framework density 17.993220999999998
#
# number of rings (size 3 to 8) (size 9 to 14) (size 15 to 20)
#    0.000    1.000    3.333    4.500    0.000    4.000 
#    0.000    0.833    0.000    2.000    0.000    0.000 
#    0.000    0.000    0.000    0.000    0.000    0.000 
#
# Total GULP energy -268484.119594 kJ/mol
# GULP energy per Si atom -5593.419158 kJ/mol
# Density = 1.795227 g / cm^3
# Si number density = 17.993221 Si / 1000 Ang^3
#
#
#
# Elastic Constant Matrix: (Units=GPa)
#
#
# Indices 1 2 3 4 5 6 
#
# 1 159.6705 93.9643 64.2921 0.0000 0.0000 0.0000
# 2 93.9643 179.0088 76.9236 0.0000 0.0000 0.0000
# 3 64.2921 76.9236 104.3893 0.0000 0.0000 0.0000
# 4 0.0000 0.0000 0.0000 31.6020 0.0000 0.0000
# 5 0.0000 0.0000 0.0000 0.0000 33.4653 0.0000
# 6 0.0000 0.0000 0.0000 0.0000 0.0000 17.8101
#
#
#
# Elastic Compliance Matrix: (Units=1/GPa)
#
#
# Indices 1 2 3 4 5 6 
#
# 1 0.009772 -0.003722 -0.003276 0.000000 0.000000 0.000000
# 2 -0.003722 0.009592 -0.004776 0.000000 0.000000 0.000000
# 3 -0.003276 -0.004776 0.015117 0.000000 0.000000 0.000000
# 4 0.000000 0.000000 0.000000 0.031644 0.000000 0.000000
# 5 0.000000 0.000000 0.000000 0.000000 0.029882 0.000000
# 6 0.000000 0.000000 0.000000 0.000000 0.000000 0.056148
#
#
# Mechanical properties :
#
#
# Convention : Reuss Voigt Hill
#
# Bulk Modulus (GPa) = 91.46521 101.49206 96.47863
# Shear Modulus (GPa) = 27.87883 30.43472 29.15677
#
# Velocity S-wave (km/s) = 3.94052 4.11719 4.02982
# Velocity P-wave (km/s) = 8.46446 8.89550 8.68265
#
# Compressibility (1/GPa) = 0.01093312
#
# Stress axis : x y z
#
# Youngs Moduli (GPa) = 102.33042 104.24859 66.15128
#
# Poissons Ratio (x) = 0.38800 0.21671
# Poissons Ratio (y) = 0.38086 0.31596
# Poissons Ratio (z) = 0.33524 0.49793
#
# Static dielectric constant tensor:
#      x y z
#    x 1.593430 0.000000 0.000000 
#    y 0.000000 1.591130 0.000000 
#    z 0.000000 0.000000 1.611660 
# 
# From -- ./inp_files/4696.got.cif
#   From: 2010.05.17/outbox.cif.g08.bks.cpg/sg57_3_cif.got.tgz:4696.got - 2010.06.03 13:58:18.
