data_PCOD9437374
_publ_section_title
;
Structure prediction by ZEFSAII (Michael W. Deem and Ramdas Pophale) SiO2 
 PCOD9437374
Probable space group: P B C M
;
_chemical_formula_sum "Si O2"
_cell_formula_units_Z 48
_cell_length_a 12.154381
_cell_length_b 8.236762
_cell_length_c 24.803193
_cell_angle_alpha 90.000000
_cell_angle_beta 90.000000
_cell_angle_gamma 90.000000
_cell_volume 2483.115700
_symmetry_space_group_name_H-M "P B C M"
_symmetry_group_IT_number 57
_symmetry_cell_setting 'orthorhombic'
loop_
_space_group_symop_operation_xyz
x,y,z
-x,-y,1/2+z
x,1/2-y,-z
-x,1/2+y,1/2-z
-x,-y,-z
x,y,1/2-z
-x,1/2+y,z
x,1/2-y,1/2+z
loop_
_atom_site_type_symbol
_atom_site_label
_atom_site_fract_x
_atom_site_fract_y
_atom_site_fract_z
Si Si1 0.851542 0.160455 0.250000
Si Si2 0.578610 0.183292 0.582329
Si Si3 0.097407 0.226553 0.750000
Si Si4 0.649400 0.641273 0.450951
Si Si5 0.698056 0.395972 0.656002
Si Si6 0.457695 0.476813 0.808562
Si Si7 0.256142 0.271990 0.657031
O O1 0.781119 0.194746 0.303871
O O2 0.967916 0.247952 0.250000
O O3 0.872657 0.965058 0.250000
O O4 0.465238 0.270538 0.566869
O O5 0.671770 0.310597 0.599382
O O6 0.616530 0.046572 0.540024
O O7 0.559221 0.086587 0.638623
O O8 0.154853 0.302880 0.696945
O O9 0.690320 0.750000 0.500000
O O10 0.735090 0.646288 0.401460
O O11 0.580718 0.411315 0.685804
O O12 0.737142 0.579660 0.647791
O O13 0.444613 0.556055 0.750000
O O14 0.366579 0.335562 0.813388
#
# Coordination Sequence:
#
# PCOD9437374 Si02
#       7
#     4   8   4   8   8   8   8
#     4  10  24  35  56  78 111 150 180 221 277 326
#     4  11  21  32  49  80 113 148 182 217 265 325
#     4  10  22  39  54  78 109 144 180 229 273 330
#     4  11  21  35  52  78 112 151 187 223 267 321
#     4  11  19  33  51  79 112 140 184 213 267 331
#     4  11  19  29  51  80 111 147 174 210 263 334
#     4  10  20  36  54  75 111 146 177 222 275 321
#
# _framework density 19.330553999999999
#
# number of rings (size 3 to 8) (size 9 to 14) (size 15 to 20)
#    0.000    1.333    6.667    0.500    1.167    4.000 
#    0.000    0.000    0.000    0.000    0.000   11.667 
#    0.000    0.000    0.000    0.000    0.000    0.000 
#
# Total GULP energy -267998.088943 kJ/mol
# GULP energy per Si atom -5583.293520 kJ/mol
# Density = 1.928656 g / cm^3
# Si number density = 19.330554 Si / 1000 Ang^3
#
#
#
# Elastic Constant Matrix: (Units=GPa)
#
#
# Indices 1 2 3 4 5 6 
#
# 1 69.0743 -4.2110 12.2262 0.0000 0.0000 0.0000
# 2 -4.2110 37.1757 -9.7099 0.0000 0.0000 0.0000
# 3 12.2262 -9.7099 46.3663 0.0000 0.0000 0.0000
# 4 0.0000 0.0000 0.0000 16.9465 0.0000 0.0000
# 5 0.0000 0.0000 0.0000 0.0000 9.6255 0.0000
# 6 0.0000 0.0000 0.0000 0.0000 0.0000 23.0121
#
#
#
# Elastic Compliance Matrix: (Units=1/GPa)
#
#
# Indices 1 2 3 4 5 6 
#
# 1 0.015204 0.000714 -0.003860 0.000000 0.000000 0.000000
# 2 0.000714 0.028489 0.005778 0.000000 0.000000 0.000000
# 3 -0.003860 0.005778 0.023795 0.000000 0.000000 0.000000
# 4 0.000000 0.000000 0.000000 0.059009 0.000000 0.000000
# 5 0.000000 0.000000 0.000000 0.000000 0.103891 0.000000
# 6 0.000000 0.000000 0.000000 0.000000 0.000000 0.043455
#
#
# Mechanical properties :
#
#
# Convention : Reuss Voigt Hill
#
# Bulk Modulus (GPa) = 13.74509 16.58076 15.16292
# Shear Modulus (GPa) = 17.07478 20.20422 18.63950
#
# Velocity S-wave (km/s) = 2.97527 3.23646 3.10861
# Velocity P-wave (km/s) = 4.35074 4.74998 4.55474
#
# Compressibility (1/GPa) = 0.07275323
#
# Stress axis : x y z
#
# Youngs Moduli (GPa) = 65.77286 35.10085 42.02543
#
# Poissons Ratio (x) = -0.02507 0.16220
# Poissons Ratio (y) = -0.04697 -0.24282
# Poissons Ratio (z) = 0.25385 -0.20281
#
# Static dielectric constant tensor:
#      x y z
#    x 1.637590 0.000000 0.000000 
#    y 0.000000 1.780120 0.000000 
#    z 0.000000 0.000000 1.743700 
# 
# From -- ./inp_files/28528.got.cif
#   From: 2010.05.17/outbox.cif.g08.bks.cpg/sg57_15_cif.got.tgz:28528.got - 2010.06.03 13:58:18.
