data_PCOD9437736
_publ_section_title
;
Structure prediction by ZEFSAII (Michael W. Deem and Ramdas Pophale) SiO2 
 PCOD9437736
Probable space group: P B C M
;
_chemical_formula_sum "Si O2"
_cell_formula_units_Z 48
_cell_length_a 11.812710
_cell_length_b 22.246923
_cell_length_c 10.180521
_cell_angle_alpha 90.000000
_cell_angle_beta 90.000000
_cell_angle_gamma 90.000000
_cell_volume 2675.404776
_symmetry_space_group_name_H-M "P B C M"
_symmetry_group_IT_number 57
_symmetry_cell_setting 'orthorhombic'
loop_
_space_group_symop_operation_xyz
x,y,z
-x,-y,1/2+z
x,1/2-y,-z
-x,1/2+y,1/2-z
-x,-y,-z
x,y,1/2-z
-x,1/2+y,z
x,1/2-y,1/2+z
loop_
_atom_site_type_symbol
_atom_site_label
_atom_site_fract_x
_atom_site_fract_y
_atom_site_fract_z
Si Si1 0.273978 0.001151 0.250000
Si Si2 0.449294 0.391909 0.750000
Si Si3 0.835600 0.019087 0.028986
Si Si4 0.994306 0.590407 0.900132
Si Si5 0.473214 0.902137 0.250000
Si Si6 0.557309 0.820564 0.019981
Si Si7 0.351672 0.987734 0.750000
Si Si8 0.183674 0.304406 0.402721
O O1 0.201514 0.999597 0.382627
O O2 0.362420 0.944850 0.250000
O O3 0.344355 0.062563 0.250000
O O4 0.447736 0.351723 0.620806
O O5 0.557659 0.434880 0.750000
O O6 0.904305 0.080775 0.003261
O O7 0.727435 0.019325 0.122616
O O8 0.921112 0.970656 0.090477
O O9 0.035761 0.598097 0.750000
O O10 0.906073 0.643124 0.928371
O O11 0.483343 0.858753 0.123428
O O12 0.579525 0.949194 0.250000
O O13 0.686824 0.824025 0.071821
O O14 0.528655 0.750000 0.000000
O O15 0.160608 0.250000 0.500000
O O16 0.174886 0.286690 0.250000
#
# Coordination Sequence:
#
# PCOD9437736 Si02
#       8
#     4   4   8   8   4   8   4   8
#     4  11  22  35  58  87 114 149 186 230 279 341
#     4  11  23  36  56  87 115 145 194 232 273 338
#     4  11  21  36  56  86 112 147 185 223 284 337
#     4  10  20  37  58  82 116 148 181 228 284 338
#     4  11  21  38  58  83 117 153 180 226 297 334
#     4  11  22  37  58  83 113 152 185 231 280 334
#     4  11  22  37  58  83 118 149 182 238 285 333
#     4  10  21  37  58  84 112 146 182 229 285 330
#
# _framework density 17.941210999999999
#
# number of rings (size 3 to 8) (size 9 to 14) (size 15 to 20)
#    0.000    1.333    2.500    4.500    3.500    2.667 
#    3.000    0.000    0.000    6.000    0.000    0.000 
#    0.000    0.000    0.000    0.000    0.000    0.000 
#
# Total GULP energy -267982.236763 kJ/mol
# GULP energy per Si atom -5582.963266 kJ/mol
# Density = 1.790038 g / cm^3
# Si number density = 17.941211 Si / 1000 Ang^3
#
#
#
# Elastic Constant Matrix: (Units=GPa)
#
#
# Indices 1 2 3 4 5 6 
#
# 1 24.3000 5.0618 4.6853 0.0000 0.0000 0.0000
# 2 5.0618 89.1599 35.1462 0.0000 0.0000 0.0000
# 3 4.6853 35.1462 112.6608 0.0000 0.0000 0.0000
# 4 0.0000 0.0000 0.0000 29.4245 0.0000 0.0000
# 5 0.0000 0.0000 0.0000 0.0000 -46.7606 0.0000
# 6 0.0000 0.0000 0.0000 0.0000 0.0000 23.1561
#
#
#
# Elastic Compliance Matrix: (Units=1/GPa)
#
#
# Indices 1 2 3 4 5 6 
#
# 1 0.041772 -0.001923 -0.001137 0.000000 0.000000 0.000000
# 2 -0.001923 0.012877 -0.003937 0.000000 0.000000 0.000000
# 3 -0.001137 -0.003937 0.010152 0.000000 0.000000 0.000000
# 4 0.000000 0.000000 0.000000 0.033985 0.000000 0.000000
# 5 0.000000 0.000000 0.000000 0.000000 -0.021386 0.000000
# 6 0.000000 0.000000 0.000000 0.000000 0.000000 0.043185
#
#
# Mechanical properties :
#
#
# Convention : Reuss Voigt Hill
#
# Bulk Modulus (GPa) = 19.68282 35.10080 27.39181
# Shear Modulus (GPa) = 32.99973 13.24583 23.12278
#
# Velocity S-wave (km/s) = 4.29339 2.72010 3.59389
# Velocity P-wave (km/s) = 5.96424 5.42882 5.70281
#
# Compressibility (1/GPa) = 0.05080574
#
# Stress axis : x y z
#
# Youngs Moduli (GPa) = 23.93935 77.65787 98.50505
#
# Poissons Ratio (x) = 0.14935 0.11202
# Poissons Ratio (y) = 0.04604 0.38783
# Poissons Ratio (z) = 0.02722 0.30575
#
# Static dielectric constant tensor:
#      x y z
#    x 1.630780 0.000000 0.000000 
#    y 0.000000 1.598720 0.000000 
#    z 0.000000 0.000000 1.604240 
# 
# From -- ./inp_files/3234.got.cif
#   From: 2010.05.17/outbox.cif.g08.bks.cpg/sg57_2_cif.got.tgz:3234.got - 2010.06.03 13:58:18.
