data_PCOD9437277
_publ_section_title
;
Structure prediction by ZEFSAII (Michael W. Deem and Ramdas Pophale) SiO2 
 PCOD9437277
Probable space group: P B C M
;
_chemical_formula_sum "Si O2"
_cell_formula_units_Z 48
_cell_length_a 13.665048
_cell_length_b 16.062793
_cell_length_c 10.766823
_cell_angle_alpha 90.000000
_cell_angle_beta 90.000000
_cell_angle_gamma 90.000000
_cell_volume 2363.305131
_symmetry_space_group_name_H-M "P B C M"
_symmetry_group_IT_number 57
_symmetry_cell_setting 'orthorhombic'
loop_
_space_group_symop_operation_xyz
x,y,z
-x,-y,1/2+z
x,1/2-y,-z
-x,1/2+y,1/2-z
-x,-y,-z
x,y,1/2-z
-x,1/2+y,z
x,1/2-y,1/2+z
loop_
_atom_site_type_symbol
_atom_site_label
_atom_site_fract_x
_atom_site_fract_y
_atom_site_fract_z
Si Si1 0.011702 0.191501 0.382677
Si Si2 0.900524 0.446864 0.992923
Si Si3 0.568674 0.100485 0.888492
Si Si4 0.790565 0.586179 0.106594
Si Si5 0.780309 0.314443 0.112940
Si Si6 0.427475 0.101696 0.109226
O O1 0.999982 0.250000 0.500000
O O2 0.007536 0.235297 0.250000
O O3 0.118119 0.148630 0.394268
O O4 0.929677 0.118795 0.386959
O O5 0.815777 0.516147 0.003595
O O6 0.865929 0.383137 0.099920
O O7 0.000000 0.500000 0.000000
O O8 0.531093 0.122211 0.750000
O O9 0.676862 0.137992 0.899924
O O10 0.574445 0.999777 0.893846
O O11 0.500332 0.129690 0.001268
O O12 0.787314 0.551704 0.250000
O O13 0.685082 0.626439 0.085582
O O14 0.782896 0.275729 0.250000
O O15 0.786204 0.250000 0.000000
O O16 0.456039 0.126390 0.250000
#
# Coordination Sequence:
#
# PCOD9437277 Si02
#       6
#     8   8   8   8   8   8
#     4  10  22  38  55  79 111 147 189 233 283 344
#     4  10  20  35  58  84 109 142 189 241 288 338
#     4   9  18  33  54  82 113 146 182 227 280 334
#     4   9  17  34  59  84 110 146 189 232 284 343
#     4  11  23  39  59  84 120 160 195 236 292 353
#     4   9  16  31  58  85 109 141 183 231 280 331
#
# _framework density 20.310538999999999
#
# number of rings (size 3 to 8) (size 9 to 14) (size 15 to 20)
#    0.000    2.333    1.667    1.000    0.000    4.667 
#    0.000    5.000    0.000    4.000    0.000    0.000 
#    0.000    0.000    0.000    0.000    0.000    0.000 
#
# Total GULP energy -267221.575524 kJ/mol
# GULP energy per Si atom -5567.116157 kJ/mol
# Density = 2.026431 g / cm^3
# Si number density = 20.310539 Si / 1000 Ang^3
#
#
#
# Elastic Constant Matrix: (Units=GPa)
#
#
# Indices 1 2 3 4 5 6 
#
# 1 118.0454 17.2044 67.9841 0.0000 0.0000 0.0000
# 2 17.2044 42.5609 47.5437 0.0000 0.0000 0.0000
# 3 67.9841 47.5437 157.2246 0.0000 0.0000 0.0000
# 4 0.0000 0.0000 0.0000 16.5745 0.0000 0.0000
# 5 0.0000 0.0000 0.0000 0.0000 24.8145 0.0000
# 6 0.0000 0.0000 0.0000 0.0000 0.0000 24.0216
#
#
#
# Elastic Compliance Matrix: (Units=1/GPa)
#
#
# Indices 1 2 3 4 5 6 
#
# 1 0.011331 0.001348 -0.005307 0.000000 0.000000 0.000000
# 2 0.001348 0.035642 -0.011361 0.000000 0.000000 0.000000
# 3 -0.005307 -0.011361 0.012091 0.000000 0.000000 0.000000
# 4 0.000000 0.000000 0.000000 0.060334 0.000000 0.000000
# 5 0.000000 0.000000 0.000000 0.000000 0.040299 0.000000
# 6 0.000000 0.000000 0.000000 0.000000 0.000000 0.041629
#
#
# Mechanical properties :
#
#
# Convention : Reuss Voigt Hill
#
# Bulk Modulus (GPa) = 35.18178 64.81059 49.99619
# Shear Modulus (GPa) = 20.70909 25.42204 23.06557
#
# Velocity S-wave (km/s) = 3.19662 3.54173 3.37359
# Velocity P-wave (km/s) = 5.56633 6.97884 6.31222
#
# Compressibility (1/GPa) = 0.02842381
#
# Stress axis : x y z
#
# Youngs Moduli (GPa) = 88.25003 28.05717 82.70824
#
# Poissons Ratio (x) = -0.03783 0.43897
# Poissons Ratio (y) = -0.11899 0.93963
# Poissons Ratio (z) = 0.46838 0.31875
#
# Static dielectric constant tensor:
#      x y z
#    x 1.734200 0.000000 0.000000 
#    y 0.000000 1.745510 0.000000 
#    z 0.000000 0.000000 1.719710 
# 
# From -- ./inp_files/12929.got.cif
#   From: 2010.05.17/outbox.cif.g08.bks.cpg/sg57_7_cif.got.tgz:12929.got - 2010.06.03 13:58:18.
