data_PCOD9437313
_publ_section_title
;
Structure prediction by ZEFSAII (Michael W. Deem and Ramdas Pophale) SiO2 
 PCOD9437313
Probable space group: P B C M
;
_chemical_formula_sum "Si O2"
_cell_formula_units_Z 56
_cell_length_a 9.765248
_cell_length_b 16.406407
_cell_length_c 14.020955
_cell_angle_alpha 90.000000
_cell_angle_beta 90.000000
_cell_angle_gamma 90.000000
_cell_volume 2246.334120
_symmetry_space_group_name_H-M "P B C M"
_symmetry_group_IT_number 57
_symmetry_cell_setting 'orthorhombic'
loop_
_space_group_symop_operation_xyz
x,y,z
-x,-y,1/2+z
x,1/2-y,-z
-x,1/2+y,1/2-z
-x,-y,-z
x,y,1/2-z
-x,1/2+y,z
x,1/2-y,1/2+z
loop_
_atom_site_type_symbol
_atom_site_label
_atom_site_fract_x
_atom_site_fract_y
_atom_site_fract_z
Si Si1 0.841385 0.080841 0.546605
Si Si2 0.124428 0.019215 0.635278
Si Si3 0.490912 0.801179 0.634945
Si Si4 0.798835 0.246069 0.643030
Si Si5 0.297614 0.434132 0.864068
Si Si6 0.900062 0.787438 0.894680
Si Si7 0.329084 0.159175 0.645206
O O1 0.804499 0.172794 0.568582
O O2 0.982127 0.063110 0.605794
O O3 0.865997 0.055789 0.437424
O O4 0.726881 0.020343 0.587962
O O5 0.126952 0.004206 0.750000
O O6 0.251331 0.079403 0.608256
O O7 0.516502 0.799203 0.750000
O O8 0.329869 0.803125 0.622112
O O9 0.573617 0.880293 0.601519
O O10 0.553419 0.714844 0.598164
O O11 0.773326 0.211807 0.750000
O O12 0.948431 0.284847 0.644968
O O13 0.304249 0.444500 0.750000
O O14 0.167613 0.375954 0.887545
O O15 0.793517 0.725412 0.846619
O O16 0.906382 0.750000 0.000000
O O17 0.380377 0.134966 0.750000
#
# Coordination Sequence:
#
# PCOD9437313 Si02
#       7
#     8   8   8   8   8   8   8
#     4  11  22  35  62  99 128 165 217 268 320 384
#     4  10  20  35  58  91 131 167 207 262 322 379
#     4   8  18  35  61  87 120 168 217 256 315 385
#     4  11  21  39  63  90 127 173 215 263 320 387
#     4  10  20  37  60  92 126 164 212 272 326 375
#     4  11  21  33  55  86 120 166 214 263 313 381
#     4   9  16  34  59  84 110 157 213 254 303 384
#
# _framework density 24.929506
#
# number of rings (size 3 to 8) (size 9 to 14) (size 15 to 20)
#    0.000    2.000    1.429    4.286    2.000    0.000 
#    0.000    5.000    3.143    0.000    0.000    1.000 
#    0.000    1.143    0.000    0.000    0.000    0.000 
#
# Total GULP energy -313432.357551 kJ/mol
# GULP energy per Si atom -5597.006385 kJ/mol
# Density = 2.487277 g / cm^3
# Si number density = 24.929506 Si / 1000 Ang^3
#
#
#
# Elastic Constant Matrix: (Units=GPa)
#
#
# Indices 1 2 3 4 5 6 
#
# 1 122.4485 12.8645 9.4520 0.0000 0.0000 0.0000
# 2 12.8645 71.7277 10.9502 0.0000 0.0000 0.0000
# 3 9.4520 10.9502 133.6142 0.0000 0.0000 0.0000
# 4 0.0000 0.0000 0.0000 24.5432 0.0000 0.0000
# 5 0.0000 0.0000 0.0000 0.0000 193.5213 0.0000
# 6 0.0000 0.0000 0.0000 0.0000 0.0000 29.6654
#
#
#
# Elastic Compliance Matrix: (Units=1/GPa)
#
#
# Indices 1 2 3 4 5 6 
#
# 1 0.008353 -0.001426 -0.000474 0.000000 0.000000 0.000000
# 2 -0.001426 0.014362 -0.001076 0.000000 0.000000 0.000000
# 3 -0.000474 -0.001076 0.007606 0.000000 0.000000 0.000000
# 4 0.000000 0.000000 0.000000 0.040745 0.000000 0.000000
# 5 0.000000 0.000000 0.000000 0.000000 0.005167 0.000000
# 6 0.000000 0.000000 0.000000 0.000000 0.000000 0.033709
#
#
# Mechanical properties :
#
#
# Convention : Reuss Voigt Hill
#
# Bulk Modulus (GPa) = 41.03617 43.81376 42.42496
# Shear Modulus (GPa) = 40.31714 69.18089 54.74902
#
# Velocity S-wave (km/s) = 4.02586 5.27360 4.69140
# Velocity P-wave (km/s) = 6.17306 7.39556 6.81179
#
# Compressibility (1/GPa) = 0.02436874
#
# Stress axis : x y z
#
# Youngs Moduli (GPa) = 119.71627 69.63007 131.47581
#
# Poissons Ratio (x) = 0.09928 0.06233
# Poissons Ratio (y) = 0.17069 0.14149
# Poissons Ratio (z) = 0.05675 0.07493
#
# Static dielectric constant tensor:
#      x y z
#    x 1.942800 0.000000 0.000000 
#    y 0.000000 1.943240 0.000000 
#    z 0.000000 0.000000 2.046950 
# 
# From -- ./inp_files/16700.got.cif
#   From: 2010.05.17/outbox.cif.g08.bks.cpg/sg57_9_cif.got.tgz:16700.got - 2010.06.03 13:58:18.
