data_PCOD9437981
_publ_section_title
;
Structure prediction by ZEFSAII (Michael W. Deem and Ramdas Pophale) SiO2 
 PCOD9437981
Probable space group: P B C M
;
_chemical_formula_sum "Si O2"
_cell_formula_units_Z 40
_cell_length_a 7.526592
_cell_length_b 13.479951
_cell_length_c 15.994458
_cell_angle_alpha 90.000000
_cell_angle_beta 90.000000
_cell_angle_gamma 90.000000
_cell_volume 1622.767181
_symmetry_space_group_name_H-M "P B C M"
_symmetry_group_IT_number 57
_symmetry_cell_setting 'orthorhombic'
loop_
_space_group_symop_operation_xyz
x,y,z
-x,-y,1/2+z
x,1/2-y,-z
-x,1/2+y,1/2-z
-x,-y,-z
x,y,1/2-z
-x,1/2+y,z
x,1/2-y,1/2+z
loop_
_atom_site_type_symbol
_atom_site_label
_atom_site_fract_x
_atom_site_fract_y
_atom_site_fract_z
Si Si1 0.231470 0.169441 0.935053
Si Si2 0.706613 0.969101 0.922745
Si Si3 0.583393 0.346874 0.344329
Si Si4 0.020985 0.331681 0.654350
Si Si5 0.357164 0.887734 0.847836
O O1 0.374367 0.142989 0.865071
O O2 0.069125 0.232713 0.897715
O O3 0.316344 0.250000 0.000000
O O4 0.207841 0.073793 0.992848
O O5 0.812547 0.905450 0.853668
O O6 0.500975 0.936884 0.908518
O O7 0.699917 0.085443 0.905700
O O8 0.621054 0.379340 0.250000
O O9 0.616551 0.230713 0.350926
O O10 0.992873 0.301510 0.750000
O O11 0.849092 0.394476 0.628255
O O12 0.382096 0.918849 0.750000
#
# Coordination Sequence:
#
# PCOD9437981 Si02
#       5
#     8   8   8   8   8
#     4  10  20  38  60  86 122 161 196 248 311 359
#     4  11  22  41  61  92 126 159 203 259 310 363
#     4  11  21  38  66  91 118 164 209 251 307 367
#     4  10  20  39  62  86 122 164 208 253 301 365
#     4  10  21  39  64  91 121 165 208 250 308 363
#
# _framework density 24.649253999999999
#
# number of rings (size 3 to 8) (size 9 to 14) (size 15 to 20)
#    0.000    1.600    4.000    3.000    0.000    0.000 
#   14.400    1.000    0.000    0.000    0.000    0.000 
#    0.000    0.000    0.000    0.000    0.000    0.000 
#
# Total GULP energy -223619.258004 kJ/mol
# GULP energy per Si atom -5590.481450 kJ/mol
# Density = 2.459315 g / cm^3
# Si number density = 24.649254 Si / 1000 Ang^3
#
#
#
# Elastic Constant Matrix: (Units=GPa)
#
#
# Indices 1 2 3 4 5 6 
#
# 1 88.3732 9.0054 11.7189 0.0000 0.0000 0.0000
# 2 9.0054 96.7668 20.7967 0.0000 0.0000 0.0000
# 3 11.7189 20.7967 74.2178 0.0000 0.0000 0.0000
# 4 0.0000 0.0000 0.0000 21.5730 0.0000 0.0000
# 5 0.0000 0.0000 0.0000 0.0000 18.5251 0.0000
# 6 0.0000 0.0000 0.0000 0.0000 0.0000 23.9458
#
#
#
# Elastic Compliance Matrix: (Units=1/GPa)
#
#
# Indices 1 2 3 4 5 6 
#
# 1 0.011606 -0.000730 -0.001628 0.000000 0.000000 0.000000
# 2 -0.000730 0.011042 -0.002979 0.000000 0.000000 0.000000
# 3 -0.001628 -0.002979 0.014566 0.000000 0.000000 0.000000
# 4 0.000000 0.000000 0.000000 0.046354 0.000000 0.000000
# 5 0.000000 0.000000 0.000000 0.000000 0.053981 0.000000
# 6 0.000000 0.000000 0.000000 0.000000 0.000000 0.041761
#
#
# Mechanical properties :
#
#
# Convention : Reuss Voigt Hill
#
# Bulk Modulus (GPa) = 37.67930 38.04442 37.86186
# Shear Modulus (GPa) = 25.14706 27.33125 26.23916
#
# Velocity S-wave (km/s) = 3.19752 3.33349 3.26621
# Velocity P-wave (km/s) = 5.38066 5.50309 5.44222
#
# Compressibility (1/GPa) = 0.02653977
#
# Stress axis : x y z
#
# Youngs Moduli (GPa) = 86.16284 90.56100 68.65483
#
# Poissons Ratio (x) = 0.06613 0.11177
# Poissons Ratio (y) = 0.06292 0.20451
# Poissons Ratio (z) = 0.14027 0.26977
#
# Static dielectric constant tensor:
#      x y z
#    x 2.003620 0.000000 0.000000 
#    y 0.000000 1.967260 0.000000 
#    z 0.000000 0.000000 1.979460 
# 
# From -- ./inp_files/20731.got.cif
#   From: 2010.05.17/outbox.cif.g08.bks.cpg/sg57_11_cif.got.tgz:20731.got - 2010.06.03 13:58:18.
