data_PCOD9437877
_publ_section_title
;
Structure prediction by ZEFSAII (Michael W. Deem and Ramdas Pophale) SiO2 
 PCOD9437877
Probable space group: P B C M
;
_chemical_formula_sum "Si O2"
_cell_formula_units_Z 64
_cell_length_a 12.296086
_cell_length_b 15.467625
_cell_length_c 15.982447
_cell_angle_alpha 90.000000
_cell_angle_beta 90.000000
_cell_angle_gamma 90.000000
_cell_volume 3039.721528
_symmetry_space_group_name_H-M "P B C M"
_symmetry_group_IT_number 57
_symmetry_cell_setting 'orthorhombic'
loop_
_space_group_symop_operation_xyz
x,y,z
-x,-y,1/2+z
x,1/2-y,-z
-x,1/2+y,1/2-z
-x,-y,-z
x,y,1/2-z
-x,1/2+y,z
x,1/2-y,1/2+z
loop_
_atom_site_type_symbol
_atom_site_label
_atom_site_fract_x
_atom_site_fract_y
_atom_site_fract_z
Si Si1 0.242140 0.291245 0.091052
Si Si2 0.445642 0.369132 0.154688
Si Si3 0.401496 0.790643 0.851542
Si Si4 0.990650 0.566770 0.352142
Si Si5 0.746412 0.891293 0.846033
Si Si6 0.850189 0.279585 0.852152
Si Si7 0.014521 0.368873 0.148474
Si Si8 0.471373 0.459443 0.588773
O O1 0.338088 0.360331 0.099010
O O2 0.273895 0.210977 0.150274
O O3 0.126705 0.328354 0.117416
O O4 0.237467 0.250000 0.000000
O O5 0.413915 0.350632 0.250000
O O6 0.532988 0.296869 0.127581
O O7 0.495171 0.464027 0.150998
O O8 0.404630 0.800452 0.750000
O O9 0.275430 0.783825 0.877845
O O10 0.461436 0.872635 0.891760
O O11 0.993273 0.568023 0.250000
O O12 0.869233 0.594791 0.376776
O O13 0.079748 0.636873 0.379930
O O14 0.007872 0.468254 0.379408
O O15 0.738829 0.921707 0.750000
O O16 0.654998 0.937997 0.899442
O O17 0.850459 0.279882 0.750000
O O18 0.914726 0.192893 0.878184
O O19 0.015559 0.368463 0.250000
O O20 0.500000 0.500000 0.500000
#
# Coordination Sequence:
#
# PCOD9437877 Si02
#       8
#     8   8   8   8   8   8   8   8
#     4  12  24  40  62  91 128 162 203 258 316 370
#     4  11  24  41  66  93 119 165 219 260 304 370
#     4  10  22  40  63  91 126 164 211 263 310 368
#     4   9  19  34  61  94 119 152 205 259 300 350
#     4  11  21  42  68  87 117 165 215 258 302 369
#     4   9  18  35  58  89 123 154 199 258 303 348
#     4  10  20  37  62  90 119 158 204 250 302 364
#     4  12  26  42  62  92 131 165 203 259 326 379
#
# _framework density 21.054559999999999
#
# number of rings (size 3 to 8) (size 9 to 14) (size 15 to 20)
#    0.000    1.500    2.500    3.000    3.500    0.000 
#    0.000    1.875    0.000    0.000    0.000    0.000 
#    0.000    0.000    0.000    0.000    0.000    0.000 
#
# Total GULP energy -357825.785847 kJ/mol
# GULP energy per Si atom -5591.027904 kJ/mol
# Density = 2.100664 g / cm^3
# Si number density = 21.054560 Si / 1000 Ang^3
#
#
#
# Elastic Constant Matrix: (Units=GPa)
#
#
# Indices 1 2 3 4 5 6 
#
# 1 90.2675 -3.9315 15.4402 0.0000 0.0000 0.0000
# 2 -3.9315 69.3505 4.2707 0.0000 0.0000 0.0000
# 3 15.4402 4.2707 38.7046 0.0000 0.0000 0.0000
# 4 0.0000 0.0000 0.0000 7.8273 0.0000 0.0000
# 5 0.0000 0.0000 0.0000 0.0000 9.1733 0.0000
# 6 0.0000 0.0000 0.0000 0.0000 0.0000 20.0956
#
#
#
# Elastic Compliance Matrix: (Units=1/GPa)
#
#
# Indices 1 2 3 4 5 6 
#
# 1 0.011955 0.000978 -0.004877 0.000000 0.000000 0.000000
# 2 0.000978 0.014598 -0.002001 0.000000 0.000000 0.000000
# 3 -0.004877 -0.002001 0.028003 0.000000 0.000000 0.000000
# 4 0.000000 0.000000 0.000000 0.127758 0.000000 0.000000
# 5 0.000000 0.000000 0.000000 0.000000 0.109012 0.000000
# 6 0.000000 0.000000 0.000000 0.000000 0.000000 0.049762
#
#
# Mechanical properties :
#
#
# Convention : Reuss Voigt Hill
#
# Bulk Modulus (GPa) = 23.38832 25.54237 24.46535
# Shear Modulus (GPa) = 13.61876 19.58879 16.60377
#
# Velocity S-wave (km/s) = 2.54605 3.05353 2.81126
# Velocity P-wave (km/s) = 4.44699 4.95882 4.70986
#
# Compressibility (1/GPa) = 0.04275639
#
# Stress axis : x y z
#
# Youngs Moduli (GPa) = 83.64707 68.50174 35.71037
#
# Poissons Ratio (x) = -0.06700 0.17416
# Poissons Ratio (y) = -0.08181 0.07145
# Poissons Ratio (z) = 0.40795 0.13707
#
# Static dielectric constant tensor:
#      x y z
#    x 1.724310 0.000000 0.000000 
#    y 0.000000 1.755140 0.000000 
#    z 0.000000 0.000000 1.814880 
# 
# From -- ./inp_files/22019.got.cif
#   From: 2010.05.17/outbox.cif.g08.bks.cpg/sg57_12_cif.got.tgz:22019.got - 2010.06.03 13:58:18.
