data_PCOD9437359
_publ_section_title
;
Structure prediction by ZEFSAII (Michael W. Deem and Ramdas Pophale) SiO2 
 PCOD9437359
Probable space group: P B C M
;
_chemical_formula_sum "Si O2"
_cell_formula_units_Z 56
_cell_length_a 8.995568
_cell_length_b 13.962155
_cell_length_c 18.871391
_cell_angle_alpha 90.000000
_cell_angle_beta 90.000000
_cell_angle_gamma 90.000000
_cell_volume 2370.199809
_symmetry_space_group_name_H-M "P B C M"
_symmetry_group_IT_number 57
_symmetry_cell_setting 'orthorhombic'
loop_
_space_group_symop_operation_xyz
x,y,z
-x,-y,1/2+z
x,1/2-y,-z
-x,1/2+y,1/2-z
-x,-y,-z
x,y,1/2-z
-x,1/2+y,z
x,1/2-y,1/2+z
loop_
_atom_site_type_symbol
_atom_site_label
_atom_site_fract_x
_atom_site_fract_y
_atom_site_fract_z
Si Si1 0.254826 0.233404 0.386529
Si Si2 0.752435 0.290845 0.173859
Si Si3 0.993453 0.149065 0.014833
Si Si4 0.512213 0.581578 0.100647
Si Si5 0.184405 0.583912 0.359252
Si Si6 0.524705 0.138683 0.939560
Si Si7 0.045865 0.109938 0.647375
O O1 0.138978 0.179396 0.439637
O O2 0.362788 0.147204 0.362794
O O3 0.365703 0.313474 0.420341
O O4 0.152283 0.299326 0.336484
O O5 0.672322 0.295210 0.250000
O O6 0.840679 0.190271 0.169487
O O7 0.644169 0.303334 0.107207
O O8 0.879177 0.370752 0.171083
O O9 0.880565 0.088245 0.060888
O O10 0.913854 0.250000 0.000000
O O11 0.037276 0.109454 0.938814
O O12 0.360693 0.575104 0.143691
O O13 0.551357 0.471521 0.084315
O O14 0.474830 0.632077 0.024732
O O15 0.109134 0.490638 0.327614
#
# Coordination Sequence:
#
# PCOD9437359 Si02
#       7
#     8   8   8   8   8   8   8
#     4  11  21  38  62 101 142 167 198 262 345 408
#     4  12  28  47  65  88 128 182 234 272 313 384
#     4  10  20  35  62 100 137 169 196 260 342 408
#     4  11  23  35  68 104 135 168 202 269 347 409
#     4  12  23  39  66  96 129 168 221 269 328 393
#     4  11  23  40  63 101 139 169 211 267 338 395
#     4  11  23  41  64  95 133 170 215 273 331 388
#
# _framework density 23.6267
#
# number of rings (size 3 to 8) (size 9 to 14) (size 15 to 20)
#    0.000    0.857    5.714    4.286    4.000    0.571 
#    0.000    1.429    0.000    0.000    0.000    0.000 
#    0.000    0.000    0.000    0.000    0.000    0.000 
#
# Total GULP energy -312772.621246 kJ/mol
# GULP energy per Si atom -5585.225379 kJ/mol
# Density = 2.357292 g / cm^3
# Si number density = 23.626700 Si / 1000 Ang^3
#
#
#
# Elastic Constant Matrix: (Units=GPa)
#
#
# Indices 1 2 3 4 5 6 
#
# 1 76.0797 -3.8155 20.4331 0.0000 0.0000 0.0000
# 2 -3.8155 89.1414 27.2439 0.0000 0.0000 0.0000
# 3 20.4331 27.2439 64.0058 0.0000 0.0000 0.0000
# 4 0.0000 0.0000 0.0000 -22.2216 0.0000 0.0000
# 5 0.0000 0.0000 0.0000 0.0000 -13.3008 0.0000
# 6 0.0000 0.0000 0.0000 0.0000 0.0000 17.2601
#
#
#
# Elastic Compliance Matrix: (Units=1/GPa)
#
#
# Indices 1 2 3 4 5 6 
#
# 1 0.014807 0.002389 -0.005744 0.000000 0.000000 0.000000
# 2 0.002389 0.013281 -0.006416 0.000000 0.000000 0.000000
# 3 -0.005744 -0.006416 0.020188 0.000000 0.000000 0.000000
# 4 0.000000 0.000000 0.000000 -0.045001 0.000000 0.000000
# 5 0.000000 0.000000 0.000000 0.000000 -0.075183 0.000000
# 6 0.000000 0.000000 0.000000 0.000000 0.000000 0.057937
#
#
# Mechanical properties :
#
#
# Convention : Reuss Voigt Hill
#
# Bulk Modulus (GPa) = 34.80067 35.21665 35.00866
# Shear Modulus (GPa) = 330.07912 8.70521 169.39217
#
# Velocity S-wave (km/s) = 11.83255 1.92158 8.47649
# Velocity P-wave (km/s) = 14.19297 4.45658 10.51907
#
# Compressibility (1/GPa) = 0.02873508
#
# Stress axis : x y z
#
# Youngs Moduli (GPa) = 67.53757 75.29418 49.53417
#
# Poissons Ratio (x) = -0.17989 0.28451
# Poissons Ratio (y) = -0.16136 0.31780
# Poissons Ratio (z) = 0.38792 0.48308
#
# Static dielectric constant tensor:
#      x y z
#    x 1.878450 0.000000 0.000000 
#    y 0.000000 1.944790 0.000000 
#    z 0.000000 0.000000 1.927800 
# 
# From -- ./inp_files/24415.got.cif
#   From: 2010.05.17/outbox.cif.g08.bks.cpg/sg57_13_cif.got.tgz:24415.got - 2010.06.03 13:58:18.
