data_PCOD9437638
_publ_section_title
;
Structure prediction by ZEFSAII (Michael W. Deem and Ramdas Pophale) SiO2 
 PCOD9437638
Probable space group: P B C M
;
_chemical_formula_sum "Si O2"
_cell_formula_units_Z 48
_cell_length_a 17.727033
_cell_length_b 8.263511
_cell_length_c 14.669274
_cell_angle_alpha 90.000000
_cell_angle_beta 90.000000
_cell_angle_gamma 90.000000
_cell_volume 2148.865747
_symmetry_space_group_name_H-M "P B C M"
_symmetry_group_IT_number 57
_symmetry_cell_setting 'orthorhombic'
loop_
_space_group_symop_operation_xyz
x,y,z
-x,-y,1/2+z
x,1/2-y,-z
-x,1/2+y,1/2-z
-x,-y,-z
x,y,1/2-z
-x,1/2+y,z
x,1/2-y,1/2+z
loop_
_atom_site_type_symbol
_atom_site_label
_atom_site_fract_x
_atom_site_fract_y
_atom_site_fract_z
Si Si1 0.483453 0.512495 0.250000
Si Si2 0.594675 0.896296 0.435801
Si Si3 0.095255 0.304144 0.643668
Si Si4 0.257932 0.221442 0.360710
Si Si5 0.614401 0.321221 0.250000
Si Si6 0.315716 0.885236 0.063173
Si Si7 0.047762 0.620335 0.562796
O O1 0.453113 0.438622 0.154095
O O2 0.573692 0.495993 0.250000
O O3 0.453212 0.693907 0.250000
O O4 0.564629 0.750000 0.500000
O O5 0.675912 0.835586 0.397403
O O6 0.613589 0.045502 0.503371
O O7 0.096778 0.283168 0.750000
O O8 0.173547 0.226981 0.609535
O O9 0.094870 0.496054 0.622519
O O10 0.018146 0.220851 0.612221
O O11 0.261664 0.212865 0.250000
O O12 0.272141 0.045377 0.404685
O O13 0.659778 0.302605 0.342392
O O14 0.277905 0.750000 0.000000
O O15 0.090418 0.750000 0.500000
O O16 0.000000 0.500000 0.500000
#
# Coordination Sequence:
#
# PCOD9437638 Si02
#       7
#     4   8   8   8   4   8   8
#     4  12  26  44  66  94 128 164 203 259 307 379
#     4  10  23  40  66  90 126 165 208 257 308 368
#     4  10  20  36  60  90 119 164 205 251 306 364
#     4  10  21  39  66  89 123 163 211 261 312 368
#     4  12  28  42  68  94 130 162 205 257 315 377
#     4  11  23  43  62  92 127 164 206 265 308 370
#     4   9  19  34  55  80 125 158 198 253 297 358
#
# _framework density 22.337367
#
# number of rings (size 3 to 8) (size 9 to 14) (size 15 to 20)
#    0.000    1.667    3.333    0.500    4.667    8.000 
#    0.000    1.667    0.000    8.000    0.000    0.000 
#    0.000    0.000    0.000    0.000    0.000    0.000 
#
# Total GULP energy -267967.381014 kJ/mol
# GULP energy per Si atom -5582.653771 kJ/mol
# Density = 2.228653 g / cm^3
# Si number density = 22.337367 Si / 1000 Ang^3
#
#
#
# Elastic Constant Matrix: (Units=GPa)
#
#
# Indices 1 2 3 4 5 6 
#
# 1 63.5055 -2.3704 21.4348 0.0000 0.0000 0.0000
# 2 -2.3704 54.6191 19.5968 0.0000 0.0000 0.0000
# 3 21.4348 19.5968 143.8390 0.0000 0.0000 0.0000
# 4 0.0000 0.0000 0.0000 30.6235 0.0000 0.0000
# 5 0.0000 0.0000 0.0000 0.0000 1.3226 0.0000
# 6 0.0000 0.0000 0.0000 0.0000 0.0000 138.3970
#
#
#
# Elastic Compliance Matrix: (Units=1/GPa)
#
#
# Indices 1 2 3 4 5 6 
#
# 1 0.016730 0.001704 -0.002725 0.000000 0.000000 0.000000
# 2 0.001704 0.019423 -0.002900 0.000000 0.000000 0.000000
# 3 -0.002725 -0.002900 0.007753 0.000000 0.000000 0.000000
# 4 0.000000 0.000000 0.000000 0.032655 0.000000 0.000000
# 5 0.000000 0.000000 0.000000 0.000000 0.756089 0.000000
# 6 0.000000 0.000000 0.000000 0.000000 0.000000 0.007226
#
#
# Mechanical properties :
#
#
# Convention : Reuss Voigt Hill
#
# Bulk Modulus (GPa) = 27.72878 37.69845 32.71361
# Shear Modulus (GPa) = 5.81571 48.95544 27.38557
#
# Velocity S-wave (km/s) = 1.61531 4.68657 3.50522
# Velocity P-wave (km/s) = 3.98993 6.79697 5.57307
#
# Compressibility (1/GPa) = 0.03606362
#
# Stress axis : x y z
#
# Youngs Moduli (GPa) = 59.77249 51.48505 128.97486
#
# Poissons Ratio (x) = -0.08772 0.35149
# Poissons Ratio (y) = -0.10184 0.37404
# Poissons Ratio (z) = 0.16289 0.14931
#
# Static dielectric constant tensor:
#      x y z
#    x 1.550610 0.000000 0.000000 
#    y 0.000000 1.833350 0.000000 
#    z 0.000000 0.000000 1.845950 
# 
# From -- ./inp_files/19273.got.cif
#   From: 2010.05.17/outbox.cif.g08.bks.cpg/sg57_10_cif.got.tgz:19273.got - 2010.06.03 13:58:18.
