data_PCOD9437554
_publ_section_title
;
Structure prediction by ZEFSAII (Michael W. Deem and Ramdas Pophale) SiO2 
 PCOD9437554
Probable space group: P B C M
;
_chemical_formula_sum "Si O2"
_cell_formula_units_Z 56
_cell_length_a 15.482424
_cell_length_b 9.412327
_cell_length_c 19.361223
_cell_angle_alpha 90.000000
_cell_angle_beta 90.000000
_cell_angle_gamma 90.000000
_cell_volume 2821.426563
_symmetry_space_group_name_H-M "P B C M"
_symmetry_group_IT_number 57
_symmetry_cell_setting 'orthorhombic'
loop_
_space_group_symop_operation_xyz
x,y,z
-x,-y,1/2+z
x,1/2-y,-z
-x,1/2+y,1/2-z
-x,-y,-z
x,y,1/2-z
-x,1/2+y,z
x,1/2-y,1/2+z
loop_
_atom_site_type_symbol
_atom_site_label
_atom_site_fract_x
_atom_site_fract_y
_atom_site_fract_z
Si Si1 0.977147 0.912092 0.405176
Si Si2 0.601467 0.628363 0.045730
Si Si3 0.284955 0.472831 0.672418
Si Si4 0.595229 0.136190 0.444606
Si Si5 0.093500 0.350076 0.830242
Si Si6 0.879893 0.327715 0.560561
Si Si7 0.266834 0.686446 0.330195
O O1 0.915649 0.806441 0.362523
O O2 0.046098 0.793710 0.430526
O O3 0.919609 0.015426 0.454191
O O4 0.030124 0.031474 0.363055
O O5 0.653896 0.580457 0.111996
O O6 0.505113 0.673861 0.070066
O O7 0.645030 0.750000 0.000000
O O8 0.593505 0.505661 0.989150
O O9 0.314762 0.433781 0.750000
O O10 0.190055 0.407973 0.662187
O O11 0.277483 0.643015 0.669748
O O12 0.628720 0.250000 0.500000
O O13 0.654791 0.127811 0.377164
O O14 0.071190 0.339549 0.750000
O O15 0.826028 0.250000 0.500000
O O16 0.822245 0.343809 0.629003
O O17 0.266043 0.638973 0.250000
#
# Coordination Sequence:
#
# PCOD9437554 Si02
#       7
#     8   8   8   8   8   8   8
#     4  10  22  38  58  87 119 159 209 255 308 364
#     4  10  22  39  64  95 120 158 203 250 306 369
#     4  10  21  39  60  89 127 164 205 253 312 370
#     4  10  20  40  66  90 121 155 201 247 299 366
#     4  10  20  36  58  86 121 161 201 249 306 368
#     4  11  23  40  62  88 122 162 206 259 309 365
#     4  11  23  39  63  93 123 161 208 253 309 373
#
# _framework density 19.848116000000001
#
# number of rings (size 3 to 8) (size 9 to 14) (size 15 to 20)
#    0.000    1.714    2.857    1.286    0.000    4.571 
#    0.000    2.857    0.000    0.000    0.000    0.000 
#    0.000    0.000    0.000    0.000    0.000    0.000 
#
# Total GULP energy -312180.241708 kJ/mol
# GULP energy per Si atom -5574.647173 kJ/mol
# Density = 1.980294 g / cm^3
# Si number density = 19.848116 Si / 1000 Ang^3
#
#
#
# Elastic Constant Matrix: (Units=GPa)
#
#
# Indices 1 2 3 4 5 6 
#
# 1 51.6452 19.3920 42.8626 0.0000 0.0000 0.0000
# 2 19.3920 94.3845 22.3375 0.0000 0.0000 0.0000
# 3 42.8626 22.3375 102.4404 0.0000 0.0000 0.0000
# 4 0.0000 0.0000 0.0000 32.3796 0.0000 0.0000
# 5 0.0000 0.0000 0.0000 0.0000 38.9876 0.0000
# 6 0.0000 0.0000 0.0000 0.0000 0.0000 21.7397
#
#
#
# Elastic Compliance Matrix: (Units=1/GPa)
#
#
# Indices 1 2 3 4 5 6 
#
# 1 0.030690 -0.003444 -0.012090 0.000000 0.000000 0.000000
# 2 -0.003444 0.011558 -0.001079 0.000000 0.000000 0.000000
# 3 -0.012090 -0.001079 0.015056 0.000000 0.000000 0.000000
# 4 0.000000 0.000000 0.000000 0.030884 0.000000 0.000000
# 5 0.000000 0.000000 0.000000 0.000000 0.025649 0.000000
# 6 0.000000 0.000000 0.000000 0.000000 0.000000 0.045999
#
#
# Mechanical properties :
#
#
# Convention : Reuss Voigt Hill
#
# Bulk Modulus (GPa) = 41.53359 46.40604 43.96982
# Shear Modulus (GPa) = 24.86464 29.54658 27.20561
#
# Velocity S-wave (km/s) = 3.54325 3.86247 3.70630
# Velocity P-wave (km/s) = 6.14090 6.58201 6.36528
#
# Compressibility (1/GPa) = 0.02407690
#
# Stress axis : x y z
#
# Youngs Moduli (GPa) = 32.58349 86.52017 66.41943
#
# Poissons Ratio (x) = 0.29800 0.80303
# Poissons Ratio (y) = 0.11223 0.07168
# Poissons Ratio (z) = 0.39394 0.09337
#
# Static dielectric constant tensor:
#      x y z
#    x 1.736280 0.000000 0.000000 
#    y 0.000000 1.675290 0.000000 
#    z 0.000000 0.000000 1.737720 
# 
# From -- ./inp_files/25408.got.cif
#   From: 2010.05.17/outbox.cif.g08.bks.cpg/sg57_13_cif.got.tgz:25408.got - 2010.06.03 13:58:18.
