data_PCOD9437300
_publ_section_title
;
Structure prediction by ZEFSAII (Michael W. Deem and Ramdas Pophale) SiO2 
 PCOD9437300
Probable space group: P B C M
;
_chemical_formula_sum "Si O2"
_cell_formula_units_Z 36
_cell_length_a 6.216506
_cell_length_b 22.211254
_cell_length_c 13.331609
_cell_angle_alpha 90.000000
_cell_angle_beta 90.000000
_cell_angle_gamma 90.000000
_cell_volume 1840.780494
_symmetry_space_group_name_H-M "P B C M"
_symmetry_group_IT_number 57
_symmetry_cell_setting 'orthorhombic'
loop_
_space_group_symop_operation_xyz
x,y,z
-x,-y,1/2+z
x,1/2-y,-z
-x,1/2+y,1/2-z
-x,-y,-z
x,y,1/2-z
-x,1/2+y,z
x,1/2-y,1/2+z
loop_
_atom_site_type_symbol
_atom_site_label
_atom_site_fract_x
_atom_site_fract_y
_atom_site_fract_z
Si Si1 0.411507 0.438374 0.132675
Si Si2 0.513830 0.825725 0.633818
Si Si3 0.887126 0.855647 0.013098
Si Si4 0.795880 0.250000 0.500000
Si Si5 0.739111 0.437735 0.548598
O O1 0.462697 0.437606 0.250000
O O2 0.266307 0.381564 0.099465
O O3 0.279262 0.498371 0.102478
O O4 0.619274 0.440070 0.059601
O O5 0.550792 0.815965 0.750000
O O6 0.733653 0.828136 0.571865
O O7 0.356084 0.776555 0.586032
O O8 0.396228 0.889524 0.613352
O O9 0.057164 0.804246 0.040885
O O10 0.024509 0.911020 0.967536
#
# Coordination Sequence:
#
# PCOD9437300 Si02
#       5
#     8   8   8   4   8
#     4  10  20  35  58  87 118 151 184 225 281 337
#     4  10  21  38  60  82 108 148 192 232 279 334
#     4  10  21  38  58  83 114 147 189 236 277 330
#     4  10  22  40  56  80 116 146 184 240 286 328
#     4   9  20  38  56  84 120 148 184 232 276 333
#
# _framework density 19.556923000000001
#
# number of rings (size 3 to 8) (size 9 to 14) (size 15 to 20)
#    0.000    2.222    0.000    2.000    0.000    6.222 
#    0.000   15.556    0.000    0.000    0.000    0.000 
#    0.000    0.000    0.000    0.000    0.000    0.000 
#
# Total GULP energy -201080.174508 kJ/mol
# GULP energy per Si atom -5585.560403 kJ/mol
# Density = 1.951241 g / cm^3
# Si number density = 19.556923 Si / 1000 Ang^3
#
#
#
# Elastic Constant Matrix: (Units=GPa)
#
#
# Indices 1 2 3 4 5 6 
#
# 1 83.1158 27.3041 45.2102 0.0000 0.0000 0.0000
# 2 27.3041 80.7855 55.0306 0.0000 0.0000 0.0000
# 3 45.2102 55.0306 141.9897 0.0000 0.0000 0.0000
# 4 0.0000 0.0000 0.0000 14.2911 0.0000 0.0000
# 5 0.0000 0.0000 0.0000 0.0000 2.6206 0.0000
# 6 0.0000 0.0000 0.0000 0.0000 0.0000 14.0219
#
#
#
# Elastic Compliance Matrix: (Units=1/GPa)
#
#
# Indices 1 2 3 4 5 6 
#
# 1 0.014901 -0.002451 -0.003794 0.000000 0.000000 0.000000
# 2 -0.002451 0.017222 -0.005894 0.000000 0.000000 0.000000
# 3 -0.003794 -0.005894 0.010535 0.000000 0.000000 0.000000
# 4 0.000000 0.000000 0.000000 0.069974 0.000000 0.000000
# 5 0.000000 0.000000 0.000000 0.000000 0.381599 0.000000
# 6 0.000000 0.000000 0.000000 0.000000 0.000000 0.071317
#
#
# Mechanical properties :
#
#
# Convention : Reuss Voigt Hill
#
# Bulk Modulus (GPa) = 54.41267 62.33118 58.37193
# Shear Modulus (GPa) = 8.38992 18.07644 13.23318
#
# Velocity S-wave (km/s) = 2.07348 3.04353 2.60407
# Velocity P-wave (km/s) = 5.79789 6.65519 6.24128
#
# Compressibility (1/GPa) = 0.01837807
#
# Stress axis : x y z
#
# Youngs Moduli (GPa) = 67.11130 58.06504 94.91926
#
# Poissons Ratio (x) = 0.14235 0.36015
# Poissons Ratio (y) = 0.16452 0.55947
# Poissons Ratio (z) = 0.25464 0.34224
#
# Static dielectric constant tensor:
#      x y z
#    x 1.694450 0.000000 0.000000 
#    y 0.000000 1.709880 0.000000 
#    z 0.000000 0.000000 1.625370 
# 
# From -- ./inp_files/10813.got.cif
#   From: 2010.05.17/outbox.cif.g08.bks.cpg/sg57_6_cif.got.tgz:10813.got - 2010.06.03 13:58:18.
