data_PCOD9437528
_publ_section_title
;
Structure prediction by ZEFSAII (Michael W. Deem and Ramdas Pophale) SiO2 
 PCOD9437528
Probable space group: P B C M
;
_chemical_formula_sum "Si O2"
_cell_formula_units_Z 48
_cell_length_a 19.440324
_cell_length_b 15.362134
_cell_length_c 8.526705
_cell_angle_alpha 90.000000
_cell_angle_beta 90.000000
_cell_angle_gamma 90.000000
_cell_volume 2546.456641
_symmetry_space_group_name_H-M "P B C M"
_symmetry_group_IT_number 57
_symmetry_cell_setting 'orthorhombic'
loop_
_space_group_symop_operation_xyz
x,y,z
-x,-y,1/2+z
x,1/2-y,-z
-x,1/2+y,1/2-z
-x,-y,-z
x,y,1/2-z
-x,1/2+y,z
x,1/2-y,1/2+z
loop_
_atom_site_type_symbol
_atom_site_label
_atom_site_fract_x
_atom_site_fract_y
_atom_site_fract_z
Si Si1 0.847936 0.843055 0.561822
Si Si2 0.499683 0.149935 0.061918
Si Si3 0.998681 0.901822 0.939416
Si Si4 0.852504 0.158421 0.061330
Si Si5 0.602003 0.005345 0.937714
Si Si6 0.756215 0.500539 0.561841
O O1 0.825505 0.750000 0.500000
O O2 0.846122 0.846551 0.750000
O O3 0.798646 0.915806 0.492124
O O4 0.927021 0.859224 0.509191
O O5 0.499653 0.155405 0.250000
O O6 0.436928 0.084650 0.012851
O O7 0.497569 0.250000 0.000000
O O8 0.564787 0.091182 0.007725
O O9 0.999393 0.902062 0.750000
O O10 0.069086 0.857004 0.994948
O O11 0.000000 0.000000 0.000000
O O12 0.853995 0.158531 0.250000
O O13 0.802565 0.081315 0.010209
O O14 0.826965 0.250000 0.000000
O O15 0.596419 0.010526 0.750000
O O16 0.680701 0.001970 0.989619
O O17 0.750752 0.499192 0.750000
#
# Coordination Sequence:
#
# PCOD9437528 Si02
#       6
#     8   8   8   8   8   8
#     4  11  23  38  59  85 114 153 198 248 302 357
#     4  10  21  39  65  94 122 155 194 238 288 344
#     4  10  20  36  58  83 111 147 194 246 301 354
#     4  10  22  38  57  83 113 150 195 243 296 350
#     4  10  22  40  62  90 124 158 197 241 288 346
#     4  11  23  40  60  84 121 159 197 244 293 351
#
# _framework density 18.849722
#
# number of rings (size 3 to 8) (size 9 to 14) (size 15 to 20)
#    0.000    1.667    1.667    2.500    0.000    6.000 
#    0.000    3.333    0.000    0.000    0.000    0.000 
#    0.000    0.000    0.000    0.000    0.000    0.000 
#
# Total GULP energy -268038.652292 kJ/mol
# GULP energy per Si atom -5584.138589 kJ/mol
# Density = 1.880682 g / cm^3
# Si number density = 18.849722 Si / 1000 Ang^3
#
#
#
# Elastic Constant Matrix: (Units=GPa)
#
#
# Indices 1 2 3 4 5 6 
#
# 1 146.1634 77.9461 22.7003 0.0000 0.0000 0.0000
# 2 77.9461 192.2767 27.2940 0.0000 0.0000 0.0000
# 3 22.7003 27.2940 24.0275 0.0000 0.0000 0.0000
# 4 0.0000 0.0000 0.0000 35.0563 0.0000 0.0000
# 5 0.0000 0.0000 0.0000 0.0000 86.4188 0.0000
# 6 0.0000 0.0000 0.0000 0.0000 0.0000-1177.3153
#
#
#
# Elastic Compliance Matrix: (Units=1/GPa)
#
#
# Indices 1 2 3 4 5 6 
#
# 1 0.009272 -0.002999 -0.005354 0.000000 0.000000 0.000000
# 2 -0.002999 0.007171 -0.005312 0.000000 0.000000 0.000000
# 3 -0.005354 -0.005312 0.052711 0.000000 0.000000 0.000000
# 4 0.000000 0.000000 0.000000 0.028526 0.000000 0.000000
# 5 0.000000 0.000000 0.000000 0.000000 0.011572 0.000000
# 6 0.000000 0.000000 0.000000 0.000000 0.000000 -0.000849
#
#
# Mechanical properties :
#
#
# Convention : Reuss Voigt Hill
#
# Bulk Modulus (GPa) = 23.90927 68.70537 46.30732
# Shear Modulus (GPa) = 33.40622 -195.53288 -81.06333
#
# Velocity S-wave (km/s) = 4.21436 -10.19596 -6.56494
# Velocity P-wave (km/s) = 6.03265 10.10357 5.73102
#
# Compressibility (1/GPa) = 0.04182479
#
# Stress axis : x y z
#
# Youngs Moduli (GPa) = 107.84717 139.45772 18.97134
#
# Poissons Ratio (x) = 0.41823 0.10156
# Poissons Ratio (y) = 0.32343 0.10078
# Poissons Ratio (z) = 0.57737 0.74082
#
# Static dielectric constant tensor:
#      x y z
#    x 1.650140 0.000000 0.000000 
#    y 0.000000 1.621430 0.000000 
#    z 0.000000 0.000000 1.645280 
# 
# From -- ./inp_files/6479.got.cif
#   From: 2010.05.17/outbox.cif.g08.bks.cpg/sg57_4_cif.got.tgz:6479.got - 2010.06.03 13:58:18.
