data_PCOD9437907
_publ_section_title
;
Structure prediction by ZEFSAII (Michael W. Deem and Ramdas Pophale) SiO2 
 PCOD9437907
Probable space group: P B C M
;
_chemical_formula_sum "Si O2"
_cell_formula_units_Z 56
_cell_length_a 21.262525
_cell_length_b 14.146067
_cell_length_c 9.347122
_cell_angle_alpha 90.000000
_cell_angle_beta 90.000000
_cell_angle_gamma 90.000000
_cell_volume 2811.437667
_symmetry_space_group_name_H-M "P B C M"
_symmetry_group_IT_number 57
_symmetry_cell_setting 'orthorhombic'
loop_
_space_group_symop_operation_xyz
x,y,z
-x,-y,1/2+z
x,1/2-y,-z
-x,1/2+y,1/2-z
-x,-y,-z
x,y,1/2-z
-x,1/2+y,z
x,1/2-y,1/2+z
loop_
_atom_site_type_symbol
_atom_site_label
_atom_site_fract_x
_atom_site_fract_y
_atom_site_fract_z
Si Si1 0.837420 0.347087 0.920564
Si Si2 0.508897 0.652310 0.419923
Si Si3 0.069678 0.954199 0.396917
Si Si4 0.203507 0.345823 0.413549
Si Si5 0.057991 0.358197 0.471658
Si Si6 0.740673 0.026137 0.921529
Si Si7 0.408261 0.968810 0.418125
O O1 0.831456 0.338780 0.750000
O O2 0.853550 0.250000 0.000000
O O3 0.892963 0.419094 0.964925
O O4 0.775458 0.388702 0.996700
O O5 0.522443 0.750000 0.500000
O O6 0.503004 0.667350 0.250000
O O7 0.445899 0.605386 0.485059
O O8 0.562459 0.572779 0.444668
O O9 0.102567 0.922973 0.250000
O O10 0.000865 0.908513 0.397077
O O11 0.066837 0.067254 0.400286
O O12 0.217630 0.250000 0.500000
O O13 0.227358 0.344908 0.250000
O O14 0.127500 0.353771 0.405490
O O15 0.231130 0.432512 0.504158
O O16 0.039956 0.250000 0.500000
O O17 0.751982 0.026272 0.750000
O O18 0.665945 0.031118 0.943517
O O19 0.419777 0.946927 0.250000
#
# Coordination Sequence:
#
# PCOD9437907 Si02
#       7
#     8   8   8   8   8   8   8
#     4  12  26  44  65  89 121 161 208 260 317 377
#     4  10  20  37  63  94 128 165 204 248 300 355
#     4  11  23  40  64  92 124 162 206 262 324 378
#     4  11  23  40  62  89 124 163 207 256 310 373
#     4  10  23  39  62  91 126 160 209 257 320 379
#     4  11  23  42  65  91 125 163 208 257 309 367
#     4   9  21  40  62  91 126 164 206 253 301 357
#
# _framework density 19.918634999999998
#
# number of rings (size 3 to 8) (size 9 to 14) (size 15 to 20)
#    0.000    1.429    1.429    3.429    0.000    8.000 
#    0.000    1.429    0.000    0.000    0.000    0.000 
#    0.000    0.000    0.000    0.000    0.000    0.000 
#
# Total GULP energy -312521.476267 kJ/mol
# GULP energy per Si atom -5580.740648 kJ/mol
# Density = 1.987330 g / cm^3
# Si number density = 19.918635 Si / 1000 Ang^3
#
#
#
# Elastic Constant Matrix: (Units=GPa)
#
#
# Indices 1 2 3 4 5 6 
#
# 1 75.9244 -3.2985 29.9710 0.0000 0.0000 0.0000
# 2 -3.2985 97.8863 43.5206 0.0000 0.0000 0.0000
# 3 29.9710 43.5206 151.0078 0.0000 0.0000 0.0000
# 4 0.0000 0.0000 0.0000 26.8897 0.0000 0.0000
# 5 0.0000 0.0000 0.0000 0.0000 24.0848 0.0000
# 6 0.0000 0.0000 0.0000 0.0000 0.0000 7.6374
#
#
#
# Elastic Compliance Matrix: (Units=1/GPa)
#
#
# Indices 1 2 3 4 5 6 
#
# 1 0.014640 0.002048 -0.003496 0.000000 0.000000 0.000000
# 2 0.002048 0.012004 -0.003866 0.000000 0.000000 0.000000
# 3 -0.003496 -0.003866 0.008430 0.000000 0.000000 0.000000
# 4 0.000000 0.000000 0.000000 0.037189 0.000000 0.000000
# 5 0.000000 0.000000 0.000000 0.000000 0.041520 0.000000
# 6 0.000000 0.000000 0.000000 0.000000 0.000000 0.130935
#
#
# Mechanical properties :
#
#
# Convention : Reuss Voigt Hill
#
# Bulk Modulus (GPa) = 40.90712 51.68940 46.29826
# Shear Modulus (GPa) = 18.97576 28.69740 23.83658
#
# Velocity S-wave (km/s) = 3.08987 3.79981 3.46308
# Velocity P-wave (km/s) = 5.77161 6.72741 6.26776
#
# Compressibility (1/GPa) = 0.02444562
#
# Stress axis : x y z
#
# Youngs Moduli (GPa) = 68.30653 83.30765 118.62216
#
# Poissons Ratio (x) = -0.17058 0.41467
# Poissons Ratio (y) = -0.13986 0.45858
# Poissons Ratio (z) = 0.23878 0.32206
#
# Static dielectric constant tensor:
#      x y z
#    x 1.682340 0.000000 0.000000 
#    y 0.000000 1.712610 0.000000 
#    z 0.000000 0.000000 1.717230 
# 
# From -- ./inp_files/8073.got.cif
#   From: 2010.05.17/outbox.cif.g08.bks.cpg/sg57_5_cif.got.tgz:8073.got - 2010.06.03 13:58:18.
