data_PCOD9437603
_publ_section_title
;
Structure prediction by ZEFSAII (Michael W. Deem and Ramdas Pophale) SiO2 
 PCOD9437603
Probable space group: P B C M
;
_chemical_formula_sum "Si O2"
_cell_formula_units_Z 40
_cell_length_a 26.672664
_cell_length_b 9.214415
_cell_length_c 8.623460
_cell_angle_alpha 90.000000
_cell_angle_beta 90.000000
_cell_angle_gamma 90.000000
_cell_volume 2119.413594
_symmetry_space_group_name_H-M "P B C M"
_symmetry_group_IT_number 57
_symmetry_cell_setting 'orthorhombic'
loop_
_space_group_symop_operation_xyz
x,y,z
-x,-y,1/2+z
x,1/2-y,-z
-x,1/2+y,1/2-z
-x,-y,-z
x,y,1/2-z
-x,1/2+y,z
x,1/2-y,1/2+z
loop_
_atom_site_type_symbol
_atom_site_label
_atom_site_fract_x
_atom_site_fract_y
_atom_site_fract_z
Si Si1 0.253114 0.914265 0.435703
Si Si2 0.452238 0.087034 0.064215
Si Si3 0.858241 0.085617 0.936172
Si Si4 0.047439 0.087717 0.564928
Si Si5 0.642900 0.085091 0.064677
O O1 0.251261 0.750000 0.500000
O O2 0.259278 0.911507 0.250000
O O3 0.197772 0.974288 0.472063
O O4 0.303060 0.977967 0.512112
O O5 0.453393 0.088136 0.250000
O O6 0.453692 0.250000 0.000000
O O7 0.500000 0.000000 0.000000
O O8 0.402215 0.007556 0.004973
O O9 0.863416 0.089956 0.750000
O O10 0.861858 0.250000 0.000000
O O11 0.901927 0.990558 0.009102
O O12 0.045916 0.250000 0.500000
O O13 0.045356 0.089756 0.750000
O O14 0.000000 0.000000 0.500000
O O15 0.640028 0.089372 0.250000
O O16 0.639364 0.250000 0.000000
#
# Coordination Sequence:
#
# PCOD9437603 Si02
#       5
#     8   8   8   8   8
#     4   9  17  31  54  84 117 153 193 237 282 335
#     4  12  25  43  63  87 117 151 192 238 290 345
#     4  10  20  36  59  88 120 154 194 237 285 338
#     4  12  25  42  62  85 115 150 191 237 289 344
#     4  11  21  36  59  88 120 156 196 239 286 338
#
# _framework density 18.873145999999998
#
# number of rings (size 3 to 8) (size 9 to 14) (size 15 to 20)
#    0.000    1.200    0.000    9.000    0.000    2.400 
#    0.000    1.000    0.000    4.800    0.000    0.000 
#    0.000    0.000    0.000    0.000    0.000    0.000 
#
# Total GULP energy -223584.656698 kJ/mol
# GULP energy per Si atom -5589.616417 kJ/mol
# Density = 1.883019 g / cm^3
# Si number density = 18.873146 Si / 1000 Ang^3
#
#
#
# Elastic Constant Matrix: (Units=GPa)
#
#
# Indices 1 2 3 4 5 6 
#
# 1 222.1146 96.3731 104.9756 0.0000 0.0000 0.0000
# 2 96.3731 114.3143 64.0687 0.0000 0.0000 0.0000
# 3 104.9756 64.0687 195.1070 0.0000 0.0000 0.0000
# 4 0.0000 0.0000 0.0000 32.3382 0.0000 0.0000
# 5 0.0000 0.0000 0.0000 0.0000 36.8512 0.0000
# 6 0.0000 0.0000 0.0000 0.0000 0.0000 35.7507
#
#
#
# Elastic Compliance Matrix: (Units=1/GPa)
#
#
# Indices 1 2 3 4 5 6 
#
# 1 0.008029 -0.005328 -0.002570 0.000000 0.000000 0.000000
# 2 -0.005328 0.014257 -0.001815 0.000000 0.000000 0.000000
# 3 -0.002570 -0.001815 0.007104 0.000000 0.000000 0.000000
# 4 0.000000 0.000000 0.000000 0.030923 0.000000 0.000000
# 5 0.000000 0.000000 0.000000 0.000000 0.027136 0.000000
# 6 0.000000 0.000000 0.000000 0.000000 0.000000 0.027971
#
#
# Mechanical properties :
#
#
# Convention : Reuss Voigt Hill
#
# Bulk Modulus (GPa) = 100.36661 118.04119 109.20390
# Shear Modulus (GPa) = 36.18779 38.72925 37.45852
#
# Velocity S-wave (km/s) = 4.38359 4.53491 4.45989
# Velocity P-wave (km/s) = 8.88348 9.49214 9.19285
#
# Compressibility (1/GPa) = 0.00996347
#
# Stress axis : x y z
#
# Youngs Moduli (GPa) = 124.55298 70.14142 140.76213
#
# Poissons Ratio (x) = 0.37373 0.36178
# Poissons Ratio (y) = 0.66364 0.25546
# Poissons Ratio (z) = 0.32012 0.12730
#
# Static dielectric constant tensor:
#      x y z
#    x 1.677330 0.000000 0.000000 
#    y 0.000000 1.615310 0.000000 
#    z 0.000000 0.000000 1.627400 
# 
# From -- ./inp_files/8929.got.cif
#   From: 2010.05.17/outbox.cif.g08.bks.cpg/sg57_5_cif.got.tgz:8929.got - 2010.06.03 13:58:18.
