data_PCOD9437438
_publ_section_title
;
Structure prediction by ZEFSAII (Michael W. Deem and Ramdas Pophale) SiO2 
 PCOD9437438
Probable space group: P B C M
;
_chemical_formula_sum "Si O2"
_cell_formula_units_Z 40
_cell_length_a 26.400207
_cell_length_b 9.265995
_cell_length_c 8.743882
_cell_angle_alpha 90.000000
_cell_angle_beta 90.000000
_cell_angle_gamma 90.000000
_cell_volume 2138.965017
_symmetry_space_group_name_H-M "P B C M"
_symmetry_group_IT_number 57
_symmetry_cell_setting 'orthorhombic'
loop_
_space_group_symop_operation_xyz
x,y,z
-x,-y,1/2+z
x,1/2-y,-z
-x,1/2+y,1/2-z
-x,-y,-z
x,y,1/2-z
-x,1/2+y,z
x,1/2-y,1/2+z
loop_
_atom_site_type_symbol
_atom_site_label
_atom_site_fract_x
_atom_site_fract_y
_atom_site_fract_z
Si Si1 0.546172 0.910239 0.933326
Si Si2 0.659332 0.910690 0.565987
Si Si3 0.148727 0.089397 0.566542
Si Si4 0.952980 0.089016 0.433124
Si Si5 0.242448 0.589577 0.565891
O O1 0.542907 0.907494 0.750000
O O2 0.602808 0.963564 0.976510
O O3 0.542693 0.750000 0.000000
O O4 0.500000 0.000000 0.000000
O O5 0.666679 0.750000 0.500000
O O6 0.660837 0.899313 0.750000
O O7 0.704333 0.016465 0.518289
O O8 0.144230 0.250000 0.500000
O O9 0.153703 0.096716 0.750000
O O10 0.098674 0.996403 0.529720
O O11 0.197135 0.009240 0.496264
O O12 0.951811 0.250000 0.500000
O O13 0.957594 0.096944 0.250000
O O14 0.000000 0.000000 0.500000
O O15 0.237939 0.750000 0.500000
O O16 0.240315 0.594515 0.750000
#
# Coordination Sequence:
#
# PCOD9437438 Si02
#       5
#     8   8   8   8   8
#     4  10  20  36  56  81 112 147 187 232 282 337
#     4   9  20  37  57  81 110 145 187 232 281 337
#     4  11  24  41  62  89 119 154 193 237 286 340
#     4  11  24  41  63  90 122 157 196 240 288 339
#     4  11  23  39  59  85 116 151 190 235 285 339
#
# _framework density 18.700633
#
# number of rings (size 3 to 8) (size 9 to 14) (size 15 to 20)
#    0.000    1.600    0.000    4.200    0.000   11.200 
#    0.000    2.000    0.000    0.000    0.000    0.000 
#    0.000    0.000    0.000    0.000    0.000    0.000 
#
# Total GULP energy -223572.143488 kJ/mol
# GULP energy per Si atom -5589.303587 kJ/mol
# Density = 1.865807 g / cm^3
# Si number density = 18.700633 Si / 1000 Ang^3
#
#
#
# Elastic Constant Matrix: (Units=GPa)
#
#
# Indices 1 2 3 4 5 6 
#
# 1 201.5369 117.7178 75.8681 0.0000 0.0000 0.0000
# 2 117.7178 166.0354 57.6228 0.0000 0.0000 0.0000
# 3 75.8681 57.6228 60.5825 0.0000 0.0000 0.0000
# 4 0.0000 0.0000 0.0000 38.8848 0.0000 0.0000
# 5 0.0000 0.0000 0.0000 0.0000 30.3415 0.0000
# 6 0.0000 0.0000 0.0000 0.0000 0.0000 39.5743
#
#
#
# Elastic Compliance Matrix: (Units=1/GPa)
#
#
# Indices 1 2 3 4 5 6 
#
# 1 0.011381 -0.004661 -0.009819 0.000000 0.000000 0.000000
# 2 -0.004661 0.010900 -0.004530 0.000000 0.000000 0.000000
# 3 -0.009819 -0.004530 0.033111 0.000000 0.000000 0.000000
# 4 0.000000 0.000000 0.000000 0.025717 0.000000 0.000000
# 5 0.000000 0.000000 0.000000 0.000000 0.032958 0.000000
# 6 0.000000 0.000000 0.000000 0.000000 0.000000 0.025269
#
#
# Mechanical properties :
#
#
# Convention : Reuss Voigt Hill
#
# Bulk Modulus (GPa) = 57.56436 103.39690 80.48063
# Shear Modulus (GPa) = 27.30065 33.55651 30.42858
#
# Velocity S-wave (km/s) = 3.82498 4.24064 4.03816
# Velocity P-wave (km/s) = 7.09621 8.90999 8.05432
#
# Compressibility (1/GPa) = 0.01737186
#
# Stress axis : x y z
#
# Youngs Moduli (GPa) = 87.86777 91.74558 30.20142
#
# Poissons Ratio (x) = 0.42765 0.29654
# Poissons Ratio (y) = 0.40958 0.13681
# Poissons Ratio (z) = 0.86275 0.41559
#
# Static dielectric constant tensor:
#      x y z
#    x 1.649090 0.000000 0.000000 
#    y 0.000000 1.591760 0.000000 
#    z 0.000000 0.000000 1.628970 
# 
# From -- ./inp_files/8876.got.cif
#   From: 2010.05.17/outbox.cif.g08.bks.cpg/sg57_5_cif.got.tgz:8876.got - 2010.06.03 13:58:18.
