data_PCOD9437585
_publ_section_title
;
Structure prediction by ZEFSAII (Michael W. Deem and Ramdas Pophale) SiO2 
 PCOD9437585
Probable space group: P B C M
;
_chemical_formula_sum "Si O2"
_cell_formula_units_Z 40
_cell_length_a 8.928721
_cell_length_b 14.215471
_cell_length_c 15.836964
_cell_angle_alpha 90.000000
_cell_angle_beta 90.000000
_cell_angle_gamma 90.000000
_cell_volume 2010.122088
_symmetry_space_group_name_H-M "P B C M"
_symmetry_group_IT_number 57
_symmetry_cell_setting 'orthorhombic'
loop_
_space_group_symop_operation_xyz
x,y,z
-x,-y,1/2+z
x,1/2-y,-z
-x,1/2+y,1/2-z
-x,-y,-z
x,y,1/2-z
-x,1/2+y,z
x,1/2-y,1/2+z
loop_
_atom_site_type_symbol
_atom_site_label
_atom_site_fract_x
_atom_site_fract_y
_atom_site_fract_z
Si Si1 0.091081 0.849111 0.503523
Si Si2 0.314623 0.985360 0.923742
Si Si3 0.959126 0.570560 0.840795
Si Si4 0.132252 0.379236 0.846912
Si Si5 0.572370 0.647833 0.042948
O O1 0.174769 0.750000 0.500000
O O2 0.200359 0.937093 0.510282
O O3 0.985735 0.866485 0.423037
O O4 0.994099 0.843509 0.588510
O O5 0.433843 0.902406 0.908518
O O6 0.202589 0.020373 0.851074
O O7 0.391384 0.075089 0.966592
O O8 0.967163 0.619088 0.750000
O O9 0.087014 0.489882 0.842369
O O10 0.127870 0.345338 0.750000
O O11 0.287700 0.354924 0.892772
O O12 0.550250 0.750000 0.000000
#
# Coordination Sequence:
#
# PCOD9437585 Si02
#       5
#     8   8   8   8   8
#     4  11  20  37  59  89 122 156 196 249 296 358
#     4  10  21  38  58  84 119 154 200 239 299 354
#     4  10  20  37  60  86 117 158 200 248 301 353
#     4  10  20  36  59  85 118 155 199 251 299 350
#     4  11  21  37  60  86 114 158 199 244 296 352
#
# _framework density 19.899289
#
# number of rings (size 3 to 8) (size 9 to 14) (size 15 to 20)
#    0.000    1.600    4.000    2.400    0.000    1.600 
#    0.000    0.000    0.000    4.800    0.000    0.000 
#    0.000    0.000    0.000    0.000    0.000    0.000 
#
# Total GULP energy -222814.894266 kJ/mol
# GULP energy per Si atom -5570.372357 kJ/mol
# Density = 1.985400 g / cm^3
# Si number density = 19.899289 Si / 1000 Ang^3
#
#
#
# Elastic Constant Matrix: (Units=GPa)
#
#
# Indices 1 2 3 4 5 6 
#
# 1 70.7181 19.8425 3.6991 0.0000 0.0000 0.0000
# 2 19.8425 116.5580 30.4437 0.0000 0.0000 0.0000
# 3 3.6991 30.4437 87.0416 0.0000 0.0000 0.0000
# 4 0.0000 0.0000 0.0000 -12.0022 0.0000 0.0000
# 5 0.0000 0.0000 0.0000 0.0000 10.4403 0.0000
# 6 0.0000 0.0000 0.0000 0.0000 0.0000 11.1681
#
#
#
# Elastic Compliance Matrix: (Units=1/GPa)
#
#
# Indices 1 2 3 4 5 6 
#
# 1 0.014856 -0.002602 0.000279 0.000000 0.000000 0.000000
# 2 -0.002602 0.009898 -0.003351 0.000000 0.000000 0.000000
# 3 0.000279 -0.003351 0.012649 0.000000 0.000000 0.000000
# 4 0.000000 0.000000 0.000000 -0.083318 0.000000 0.000000
# 5 0.000000 0.000000 0.000000 0.000000 0.095783 0.000000
# 6 0.000000 0.000000 0.000000 0.000000 0.000000 0.089541
#
#
# Mechanical properties :
#
#
# Convention : Reuss Voigt Hill
#
# Bulk Modulus (GPa) = 38.38183 42.47647 40.42915
# Shear Modulus (GPa) = 31.35940 16.61007 23.98474
#
# Velocity S-wave (km/s) = 3.97407 2.89226 3.47552
# Velocity P-wave (km/s) = 6.35512 5.70488 6.03876
#
# Compressibility (1/GPa) = 0.02605400
#
# Stress axis : x y z
#
# Youngs Moduli (GPa) = 67.31234 101.03401 79.05733
#
# Poissons Ratio (x) = 0.26288 -0.02203
# Poissons Ratio (y) = 0.17514 0.26494
# Poissons Ratio (z) = -0.01876 0.33859
#
# Static dielectric constant tensor:
#      x y z
#    x 1.737650 0.000000 0.000000 
#    y 0.000000 1.742160 0.000000 
#    z 0.000000 0.000000 1.695310 
# 
# From -- ./inp_files/15897.got.cif
#   From: 2010.05.17/outbox.cif.g08.bks.cpg/sg57_8_cif.got.tgz:15897.got - 2010.06.03 13:58:18.
