data_PCOD9437746
_publ_section_title
;
Structure prediction by ZEFSAII (Michael W. Deem and Ramdas Pophale) SiO2 
 PCOD9437746
Probable space group: P B C M
;
_chemical_formula_sum "Si O2"
_cell_formula_units_Z 48
_cell_length_a 14.822809
_cell_length_b 20.913907
_cell_length_c 8.687676
_cell_angle_alpha 90.000000
_cell_angle_beta 90.000000
_cell_angle_gamma 90.000000
_cell_volume 2693.204310
_symmetry_space_group_name_H-M "P B C M"
_symmetry_group_IT_number 57
_symmetry_cell_setting 'orthorhombic'
loop_
_space_group_symop_operation_xyz
x,y,z
-x,-y,1/2+z
x,1/2-y,-z
-x,1/2+y,1/2-z
-x,-y,-z
x,y,1/2-z
-x,1/2+y,z
x,1/2-y,1/2+z
loop_
_atom_site_type_symbol
_atom_site_label
_atom_site_fract_x
_atom_site_fract_y
_atom_site_fract_z
Si Si1 0.746955 0.485191 0.935250
Si Si2 0.940706 0.819575 0.935547
Si Si3 0.558611 0.680973 0.566635
Si Si4 0.056488 0.940493 0.935776
Si Si5 0.256076 0.371761 0.934463
Si Si6 0.449261 0.562243 0.434483
O O1 0.748135 0.495285 0.750000
O O2 0.839186 0.449644 0.979697
O O3 0.656372 0.446322 0.971773
O O4 0.743435 0.554330 0.014608
O O5 0.942713 0.817338 0.750000
O O6 0.839459 0.840893 0.981062
O O7 0.010103 0.874601 0.987154
O O8 0.961608 0.750000 0.000000
O O9 0.533609 0.750000 0.500000
O O10 0.556487 0.682201 0.750000
O O11 0.659443 0.663376 0.510769
O O12 0.493670 0.625273 0.504685
O O13 0.051342 0.942340 0.750000
O O14 0.000000 0.000000 0.000000
O O15 0.264561 0.367787 0.750000
O O16 0.500000 0.500000 0.500000
O O17 0.459736 0.563438 0.250000
#
# Coordination Sequence:
#
# PCOD9437746 Si02
#       6
#     8   8   8   8   8   8
#     4  10  21  36  59  87 117 151 192 240 292 345
#     4  10  22  37  55  83 117 153 191 234 287 344
#     4  12  25  41  60  86 119 158 197 242 298 353
#     4  10  20  37  58  84 115 151 193 239 285 341
#     4  11  21  35  58  88 120 151 189 240 292 351
#     4  11  22  38  60  88 118 155 197 244 293 346
#
# _framework density 17.822635999999999
#
# number of rings (size 3 to 8) (size 9 to 14) (size 15 to 20)
#    0.000    1.333    3.333    3.000    0.000    4.000 
#    0.000    0.833    0.000    2.000    0.000    0.000 
#    0.000    0.000    0.000    0.000    0.000    0.000 
#
# Total GULP energy -268271.717163 kJ/mol
# GULP energy per Si atom -5588.994108 kJ/mol
# Density = 1.778207 g / cm^3
# Si number density = 17.822636 Si / 1000 Ang^3
#
#
#
# Elastic Constant Matrix: (Units=GPa)
#
#
# Indices 1 2 3 4 5 6 
#
# 1 151.6278 91.5105 51.9408 0.0000 0.0000 0.0000
# 2 91.5105 183.1483 51.4601 0.0000 0.0000 0.0000
# 3 51.9408 51.4601 54.4930 0.0000 0.0000 0.0000
# 4 0.0000 0.0000 0.0000 35.3357 0.0000 0.0000
# 5 0.0000 0.0000 0.0000 0.0000 10.3716 0.0000
# 6 0.0000 0.0000 0.0000 0.0000 0.0000 18.1873
#
#
#
# Elastic Compliance Matrix: (Units=1/GPa)
#
#
# Indices 1 2 3 4 5 6 
#
# 1 0.011271 -0.003557 -0.007385 0.000000 0.000000 0.000000
# 2 -0.003557 0.008555 -0.004688 0.000000 0.000000 0.000000
# 3 -0.007385 -0.004688 0.029817 0.000000 0.000000 0.000000
# 4 0.000000 0.000000 0.000000 0.028300 0.000000 0.000000
# 5 0.000000 0.000000 0.000000 0.000000 0.096417 0.000000
# 6 0.000000 0.000000 0.000000 0.000000 0.000000 0.054984
#
#
# Mechanical properties :
#
#
# Convention : Reuss Voigt Hill
#
# Bulk Modulus (GPa) = 54.39609 86.56574 70.48091
# Shear Modulus (GPa) = 18.74553 25.73609 22.24081
#
# Velocity S-wave (km/s) = 3.24664 3.80414 3.53639
# Velocity P-wave (km/s) = 6.68141 8.24448 7.50375
#
# Compressibility (1/GPa) = 0.01838368
#
# Stress axis : x y z
#
# Youngs Moduli (GPa) = 88.72039 116.89754 33.53808
#
# Poissons Ratio (x) = 0.41579 0.24766
# Poissons Ratio (y) = 0.31557 0.15723
# Poissons Ratio (z) = 0.65516 0.54803
#
# Static dielectric constant tensor:
#      x y z
#    x 1.606990 0.000000 0.000000 
#    y 0.000000 1.549650 0.000000 
#    z 0.000000 0.000000 1.602140 
# 
# From -- ./inp_files/4561.got.cif
#   From: 2010.05.17/outbox.cif.g08.bks.cpg/sg57_3_cif.got.tgz:4561.got - 2010.06.03 13:58:18.
