data_PCOD9437949
_publ_section_title
;
Structure prediction by ZEFSAII (Michael W. Deem and Ramdas Pophale) SiO2 
 PCOD9437949
Probable space group: P B C M
;
_chemical_formula_sum "Si O2"
_cell_formula_units_Z 48
_cell_length_a 29.498015
_cell_length_b 9.225148
_cell_length_c 9.019367
_cell_angle_alpha 90.000000
_cell_angle_beta 90.000000
_cell_angle_gamma 90.000000
_cell_volume 2454.382204
_symmetry_space_group_name_H-M "P B C M"
_symmetry_group_IT_number 57
_symmetry_cell_setting 'orthorhombic'
loop_
_space_group_symop_operation_xyz
x,y,z
-x,-y,1/2+z
x,1/2-y,-z
-x,1/2+y,1/2-z
-x,-y,-z
x,y,1/2-z
-x,1/2+y,z
x,1/2-y,1/2+z
loop_
_atom_site_type_symbol
_atom_site_label
_atom_site_fract_x
_atom_site_fract_y
_atom_site_fract_z
Si Si1 0.041371 0.589330 0.568833
Si Si2 0.136721 0.911346 0.931026
Si Si3 0.608728 0.915865 0.972120
Si Si4 0.532078 0.671079 0.250000
Si Si5 0.304713 0.601882 0.585269
Si Si6 0.440988 0.504310 0.250000
Si Si7 0.219315 0.409408 0.568955
O O1 0.037089 0.750000 0.500000
O O2 0.041750 0.590202 0.750000
O O3 0.089115 0.534621 0.500932
O O4 0.000000 0.500000 0.500000
O O5 0.135370 0.906541 0.750000
O O6 0.143387 0.750000 0.000000
O O7 0.176625 0.011146 0.994161
O O8 0.561894 0.891722 0.883879
O O9 0.650101 0.004920 0.907719
O O10 0.624462 0.750000 0.000000
O O11 0.592249 0.005412 0.112348
O O12 0.480789 0.619847 0.250000
O O13 0.535927 0.844366 0.250000
O O14 0.312458 0.750000 0.500000
O O15 0.290801 0.644947 0.750000
O O16 0.263928 0.502361 0.526962
O O17 0.223277 0.250000 0.500000
O O18 0.215667 0.403706 0.750000
#
# Coordination Sequence:
#
# PCOD9437949 Si02
#       7
#     8   8   8   4   8   4   8
#     4  11  22  39  62  92 128 171 217 268 321 377
#     4  11  22  40  64  93 127 168 212 262 317 373
#     4  10  21  40  60  86 118 158 197 244 297 354
#     4  10  20  38  58  84 122 150 200 238 299 346
#     4  11  25  42  63  90 121 155 198 249 300 362
#     4  10  22  34  60  88 114 160 190 244 291 360
#     4  11  24  43  65  93 124 161 204 253 310 373
#
# _framework density 19.556854999999999
#
# number of rings (size 3 to 8) (size 9 to 14) (size 15 to 20)
#    0.000    1.333    0.833    6.000    1.167    4.667 
#    0.000    3.333    0.000    0.000    0.000    0.000 
#    0.000    0.000    0.000    0.000    0.000    0.000 
#
# Total GULP energy -267845.629879 kJ/mol
# GULP energy per Si atom -5580.117289 kJ/mol
# Density = 1.951234 g / cm^3
# Si number density = 19.556855 Si / 1000 Ang^3
#
#
#
# Elastic Constant Matrix: (Units=GPa)
#
#
# Indices 1 2 3 4 5 6 
#
# 1 125.3249 60.2703 40.2117 0.0000 0.0000 0.0000
# 2 60.2703 81.7722 32.1344 0.0000 0.0000 0.0000
# 3 40.2117 32.1344 133.9532 0.0000 0.0000 0.0000
# 4 0.0000 0.0000 0.0000 27.4014 0.0000 0.0000
# 5 0.0000 0.0000 0.0000 0.0000 8.4090 0.0000
# 6 0.0000 0.0000 0.0000 0.0000 0.0000 24.1270
#
#
#
# Elastic Compliance Matrix: (Units=1/GPa)
#
#
# Indices 1 2 3 4 5 6 
#
# 1 0.012714 -0.008691 -0.001732 0.000000 0.000000 0.000000
# 2 -0.008691 0.019442 -0.002055 0.000000 0.000000 0.000000
# 3 -0.001732 -0.002055 0.008478 0.000000 0.000000 0.000000
# 4 0.000000 0.000000 0.000000 0.036495 0.000000 0.000000
# 5 0.000000 0.000000 0.000000 0.000000 0.118921 0.000000
# 6 0.000000 0.000000 0.000000 0.000000 0.000000 0.041447
#
#
# Mechanical properties :
#
#
# Convention : Reuss Voigt Hill
#
# Bulk Modulus (GPa) = 63.77815 67.36481 65.57148
# Shear Modulus (GPa) = 18.67909 25.88305 22.28107
#
# Velocity S-wave (km/s) = 3.09385 3.64191 3.37901
# Velocity P-wave (km/s) = 6.74129 7.22531 6.98749
#
# Compressibility (1/GPa) = 0.01567935
#
# Stress axis : x y z
#
# Youngs Moduli (GPa) = 78.65127 51.43477 117.94896
#
# Poissons Ratio (x) = 0.44699 0.20428
# Poissons Ratio (y) = 0.68352 0.24241
# Poissons Ratio (z) = 0.13622 0.10571
#
# Static dielectric constant tensor:
#      x y z
#    x 1.657300 0.000000 0.000000 
#    y 0.000000 1.719080 0.000000 
#    z 0.000000 0.000000 1.649930 
# 
# From -- ./inp_files/10163.got.cif
#   From: 2010.05.17/outbox.cif.g08.bks.cpg/sg57_6_cif.got.tgz:10163.got - 2010.06.03 13:58:18.
