data_PCOD9437816
_publ_section_title
;
Structure prediction by ZEFSAII (Michael W. Deem and Ramdas Pophale) SiO2 
 PCOD9437816
Probable space group: P B C M
;
_chemical_formula_sum "Si O2"
_cell_formula_units_Z 48
_cell_length_a 29.297535
_cell_length_b 9.228166
_cell_length_c 9.251130
_cell_angle_alpha 90.000000
_cell_angle_beta 90.000000
_cell_angle_gamma 90.000000
_cell_volume 2501.158786
_symmetry_space_group_name_H-M "P B C M"
_symmetry_group_IT_number 57
_symmetry_cell_setting 'orthorhombic'
loop_
_space_group_symop_operation_xyz
x,y,z
-x,-y,1/2+z
x,1/2-y,-z
-x,1/2+y,1/2-z
-x,-y,-z
x,y,1/2-z
-x,1/2+y,z
x,1/2-y,1/2+z
loop_
_atom_site_type_symbol
_atom_site_label
_atom_site_fract_x
_atom_site_fract_y
_atom_site_fract_z
Si Si1 0.723172 0.596990 0.078808
Si Si2 0.540438 0.090951 0.427115
Si Si3 0.940544 0.998205 0.250000
Si Si4 0.805141 0.396404 0.087051
Si Si5 0.032193 0.334429 0.750000
Si Si6 0.891683 0.916015 0.527296
Si Si7 0.366997 0.595554 0.923408
O O1 0.730672 0.621478 0.250000
O O2 0.764620 0.495918 0.024783
O O3 0.676037 0.509747 0.061900
O O4 0.722124 0.750000 0.000000
O O5 0.536948 0.250000 0.500000
O O6 0.538967 0.093346 0.250000
O O7 0.589066 0.035789 0.489614
O O8 0.500000 0.000000 0.500000
O O9 0.964007 0.838852 0.250000
O O10 0.907718 0.999794 0.386090
O O11 0.980558 0.114128 0.250000
O O12 0.791573 0.356540 0.250000
O O13 0.850708 0.493106 0.092224
O O14 0.812348 0.250000 0.000000
O O15 0.061826 0.395519 0.882451
O O16 0.875979 0.750000 0.500000
O O17 0.376521 0.614803 0.750000
O O18 0.356779 0.750000 0.000000
#
# Coordination Sequence:
#
# PCOD9437816 Si02
#       7
#     8   8   4   8   4   8   8
#     4  10  23  41  62  89 120 155 195 242 293 355
#     4  11  22  38  60  88 123 164 210 257 310 364
#     4  10  22  34  60  84 116 150 194 226 297 334
#     4  11  24  41  61  88 118 150 193 241 290 347
#     4  10  20  38  56  86 114 154 186 244 277 348
#     4  10  21  39  60  83 117 153 193 237 288 343
#     4  10  20  37  60  87 121 158 202 252 303 357
#
# _framework density 19.191103999999999
#
# number of rings (size 3 to 8) (size 9 to 14) (size 15 to 20)
#    0.000    1.667    0.833    4.500    1.167    4.000 
#    0.000    1.667    0.000    0.000    0.000    0.000 
#    0.000    0.000    0.000    0.000    0.000    0.000 
#
# Total GULP energy -267856.072033 kJ/mol
# GULP energy per Si atom -5580.334834 kJ/mol
# Density = 1.914742 g / cm^3
# Si number density = 19.191104 Si / 1000 Ang^3
#
#
#
# Elastic Constant Matrix: (Units=GPa)
#
#
# Indices 1 2 3 4 5 6 
#
# 1 97.5953 49.2802 33.1180 0.0000 0.0000 0.0000
# 2 49.2802 75.8061 33.8503 0.0000 0.0000 0.0000
# 3 33.1180 33.8503 114.3392 0.0000 0.0000 0.0000
# 4 0.0000 0.0000 0.0000 30.6994 0.0000 0.0000
# 5 0.0000 0.0000 0.0000 0.0000 33.3261 0.0000
# 6 0.0000 0.0000 0.0000 0.0000 0.0000 27.7338
#
#
#
# Elastic Compliance Matrix: (Units=1/GPa)
#
#
# Indices 1 2 3 4 5 6 
#
# 1 0.015549 -0.009330 -0.001741 0.000000 0.000000 0.000000
# 2 -0.009330 0.020800 -0.003455 0.000000 0.000000 0.000000
# 3 -0.001741 -0.003455 0.010273 0.000000 0.000000 0.000000
# 4 0.000000 0.000000 0.000000 0.032574 0.000000 0.000000
# 5 0.000000 0.000000 0.000000 0.000000 0.030007 0.000000
# 6 0.000000 0.000000 0.000000 0.000000 0.000000 0.036057
#
#
# Mechanical properties :
#
#
# Convention : Reuss Voigt Hill
#
# Bulk Modulus (GPa) = 56.92239 57.80417 57.36328
# Shear Modulus (GPa) = 27.75168 29.78466 28.76817
#
# Velocity S-wave (km/s) = 3.80685 3.94382 3.87594
# Velocity P-wave (km/s) = 7.00343 7.13610 7.07008
#
# Compressibility (1/GPa) = 0.01756778
#
# Stress axis : x y z
#
# Youngs Moduli (GPa) = 64.31459 48.07700 97.34009
#
# Poissons Ratio (x) = 0.44857 0.16950
# Poissons Ratio (y) = 0.60007 0.33635
# Poissons Ratio (z) = 0.11199 0.16612
#
# Static dielectric constant tensor:
#      x y z
#    x 1.652700 0.000000 0.000000 
#    y 0.000000 1.646500 0.000000 
#    z 0.000000 0.000000 0.448270 
# 
# From -- ./inp_files/10165.got.cif
#   From: 2010.05.17/outbox.cif.g08.bks.cpg/sg57_6_cif.got.tgz:10165.got - 2010.06.03 13:58:18.
