data_PCOD9437452
_publ_section_title
;
Structure prediction by ZEFSAII (Michael W. Deem and Ramdas Pophale) SiO2 
 PCOD9437452
Probable space group: P B C M
;
_chemical_formula_sum "Si O2"
_cell_formula_units_Z 56
_cell_length_a 16.803730
_cell_length_b 8.595133
_cell_length_c 15.463649
_cell_angle_alpha 90.000000
_cell_angle_beta 90.000000
_cell_angle_gamma 90.000000
_cell_volume 2233.419375
_symmetry_space_group_name_H-M "P B C M"
_symmetry_group_IT_number 57
_symmetry_cell_setting 'orthorhombic'
loop_
_space_group_symop_operation_xyz
x,y,z
-x,-y,1/2+z
x,1/2-y,-z
-x,1/2+y,1/2-z
-x,-y,-z
x,y,1/2-z
-x,1/2+y,z
x,1/2-y,1/2+z
loop_
_atom_site_type_symbol
_atom_site_label
_atom_site_fract_x
_atom_site_fract_y
_atom_site_fract_z
Si Si1 0.469649 0.633359 0.564967
Si Si2 0.178372 0.852521 0.345427
Si Si3 0.025819 0.823090 0.906686
Si Si4 0.266997 0.974691 0.654836
Si Si5 0.095772 0.124335 0.845511
Si Si6 0.602960 0.644170 0.350151
Si Si7 0.747662 0.590738 0.025539
O O1 0.423915 0.750000 0.500000
O O2 0.500000 0.500000 0.500000
O O3 0.538894 0.735779 0.609381
O O4 0.424975 0.534861 0.637236
O O5 0.187856 0.926698 0.250000
O O6 0.091750 0.774349 0.353198
O O7 0.237611 0.703497 0.348978
O O8 0.199513 0.963992 0.425229
O O9 0.938757 0.792525 0.867444
O O10 0.054721 0.999184 0.907464
O O11 0.028892 0.750000 0.000000
O O12 0.307835 0.993933 0.750000
O O13 0.188334 0.084216 0.657040
O O14 0.296906 0.018008 0.558805
O O15 0.065903 0.083179 0.750000
O O16 0.615198 0.677126 0.250000
O O17 0.682068 0.649067 0.406673
O O18 0.792976 0.750000 0.000000
#
# Coordination Sequence:
#
# PCOD9437452 Si02
#       7
#     8   8   8   8   8   8   8
#     4   9  19  39  66  96 130 168 205 249 302 360
#     4  10  21  41  64  87 120 168 218 264 318 387
#     4  11  21  35  58  87 118 156 204 263 325 384
#     4   9  21  41  63  85 120 171 225 273 319 376
#     4  10  20  36  56  83 116 154 203 262 323 381
#     4  11  23  42  68 100 134 170 208 254 313 380
#     4  12  25  40  60  92 130 165 205 263 318 376
#
# _framework density 25.073661000000001
#
# number of rings (size 3 to 8) (size 9 to 14) (size 15 to 20)
#    0.000    1.714    0.000    6.857    0.000    4.000 
#    0.000    1.429    0.000    2.571    0.000    0.000 
#    0.000    0.000    0.000    0.000    0.000    0.000 
#
# Total GULP energy -313074.270561 kJ/mol
# GULP energy per Si atom -5590.611974 kJ/mol
# Density = 2.501659 g / cm^3
# Si number density = 25.073661 Si / 1000 Ang^3
#
#
#
# Elastic Constant Matrix: (Units=GPa)
#
#
# Indices 1 2 3 4 5 6 
#
# 1 50.0907 32.3160 10.3310 0.0000 0.0000 0.0000
# 2 32.3160 101.3202 43.4295 0.0000 0.0000 0.0000
# 3 10.3310 43.4295 183.1607 0.0000 0.0000 0.0000
# 4 0.0000 0.0000 0.0000 20.2455 0.0000 0.0000
# 5 0.0000 0.0000 0.0000 0.0000 30.5361 0.0000
# 6 0.0000 0.0000 0.0000 0.0000 0.0000 40.8840
#
#
#
# Elastic Compliance Matrix: (Units=1/GPa)
#
#
# Indices 1 2 3 4 5 6 
#
# 1 0.025184 -0.008263 0.000539 0.000000 0.000000 0.000000
# 2 -0.008263 0.013698 -0.002782 0.000000 0.000000 0.000000
# 3 0.000539 -0.002782 0.006089 0.000000 0.000000 0.000000
# 4 0.000000 0.000000 0.000000 0.049394 0.000000 0.000000
# 5 0.000000 0.000000 0.000000 0.000000 0.032748 0.000000
# 6 0.000000 0.000000 0.000000 0.000000 0.000000 0.024459
#
#
# Mechanical properties :
#
#
# Convention : Reuss Voigt Hill
#
# Bulk Modulus (GPa) = 41.74007 56.30275 49.02141
# Shear Modulus (GPa) = 27.69010 34.89946 31.29478
#
# Velocity S-wave (km/s) = 3.32678 3.73483 3.53670
# Velocity P-wave (km/s) = 5.60712 6.41111 6.02254
#
# Compressibility (1/GPa) = 0.02395779
#
# Stress axis : x y z
#
# Youngs Moduli (GPa) = 39.70817 73.00526 164.23371
#
# Poissons Ratio (x) = 0.60326 -0.08850
# Poissons Ratio (y) = 0.32812 0.45686
# Poissons Ratio (z) = -0.02140 0.20308
#
# Static dielectric constant tensor:
#      x y z
#    x 1.998980 0.000000 0.000000 
#    y 0.000000 2.044270 0.000000 
#    z 0.000000 0.000000 2.042350 
# 
# From -- ./inp_files/19326.got.cif
#   From: 2010.05.17/outbox.cif.g08.bks.cpg/sg57_10_cif.got.tgz:19326.got - 2010.06.03 13:58:18.
