data_PCOD9437194
_publ_section_title
;
Structure prediction by ZEFSAII (Michael W. Deem and Ramdas Pophale) SiO2 
 PCOD9437194
Probable space group: P B C M
;
_chemical_formula_sum "Si O2"
_cell_formula_units_Z 64
_cell_length_a 8.955731
_cell_length_b 20.543636
_cell_length_c 17.945345
_cell_angle_alpha 90.000000
_cell_angle_beta 90.000000
_cell_angle_gamma 90.000000
_cell_volume 3301.643394
_symmetry_space_group_name_H-M "P B C M"
_symmetry_group_IT_number 57
_symmetry_cell_setting 'orthorhombic'
loop_
_space_group_symop_operation_xyz
x,y,z
-x,-y,1/2+z
x,1/2-y,-z
-x,1/2+y,1/2-z
-x,-y,-z
x,y,1/2-z
-x,1/2+y,z
x,1/2-y,1/2+z
loop_
_atom_site_type_symbol
_atom_site_label
_atom_site_fract_x
_atom_site_fract_y
_atom_site_fract_z
Si Si1 0.620388 0.402653 0.337945
Si Si2 0.373421 0.136820 0.337430
Si Si3 0.069164 0.179488 0.407123
Si Si4 0.441931 0.218597 0.660179
Si Si5 0.135268 0.178478 0.917636
Si Si6 0.936314 0.442455 0.402554
Si Si7 0.535389 0.018449 0.085110
Si Si8 0.873427 0.062773 0.079685
O O1 0.613434 0.405411 0.250000
O O2 0.577864 0.328951 0.360354
O O3 0.782222 0.426146 0.363197
O O4 0.500158 0.453000 0.370087
O O5 0.394444 0.122433 0.250000
O O6 0.201026 0.153519 0.354570
O O7 0.457981 0.204740 0.356423
O O8 0.429370 0.076496 0.386033
O O9 0.131520 0.172861 0.492295
O O10 0.044571 0.256118 0.396473
O O11 0.924198 0.134991 0.398503
O O12 0.415157 0.214297 0.750000
O O13 0.298517 0.191587 0.615555
O O14 0.056775 0.114002 0.887868
O O15 0.898198 0.442190 0.490627
O O16 0.011344 0.511348 0.384557
O O17 0.704594 0.042496 0.095074
O O18 0.500000 0.000000 0.000000
#
# Coordination Sequence:
#
# PCOD9437194 Si02
#       8
#     8   8   8   8   8   8   8   8
#     4  11  23  39  58  86 120 156 197 245 298 355
#     4  10  22  41  61  86 120 159 196 240 297 358
#     4   9  19  35  59  86 115 150 190 241 287 352
#     4   9  20  38  60  85 119 157 196 241 293 358
#     4   9  18  33  57  88 116 146 191 238 292 343
#     4  10  20  35  56  81 114 150 187 239 292 348
#     4  12  24  38  60  88 114 157 200 246 297 346
#     4  10  21  36  56  82 113 148 192 241 291 345
#
# _framework density 19.384285999999999
#
# number of rings (size 3 to 8) (size 9 to 14) (size 15 to 20)
#    0.000    2.000    1.250    1.875    5.250    1.500 
#    0.000    2.500    0.000    0.000    0.000    0.000 
#    0.000    0.000    0.000    0.000    0.000    0.000 
#
# Total GULP energy -357219.623745 kJ/mol
# GULP energy per Si atom -5581.556621 kJ/mol
# Density = 1.934017 g / cm^3
# Si number density = 19.384286 Si / 1000 Ang^3
#
#
#
# Elastic Constant Matrix: (Units=GPa)
#
#
# Indices 1 2 3 4 5 6 
#
# 1 30.8747 7.8815 17.6997 0.0000 0.0000 0.0000
# 2 7.8815 93.0440 40.8199 0.0000 0.0000 0.0000
# 3 17.6997 40.8199 38.1253 0.0000 0.0000 0.0000
# 4 0.0000 0.0000 0.0000 25.7308 0.0000 0.0000
# 5 0.0000 0.0000 0.0000 0.0000 14.0129 0.0000
# 6 0.0000 0.0000 0.0000 0.0000 0.0000 35.3300
#
#
#
# Elastic Compliance Matrix: (Units=1/GPa)
#
#
# Indices 1 2 3 4 5 6 
#
# 1 0.049568 0.011120 -0.034918 0.000000 0.000000 0.000000
# 2 0.011120 0.022763 -0.029534 0.000000 0.000000 0.000000
# 3 -0.034918 -0.029534 0.074061 0.000000 0.000000 0.000000
# 4 0.000000 0.000000 0.000000 0.038864 0.000000 0.000000
# 5 0.000000 0.000000 0.000000 0.000000 0.071363 0.000000
# 6 0.000000 0.000000 0.000000 0.000000 0.000000 0.028305
#
#
# Mechanical properties :
#
#
# Convention : Reuss Voigt Hill
#
# Bulk Modulus (GPa) = 25.17101 32.76068 28.96585
# Shear Modulus (GPa) = 12.35087 21.39096 16.87092
#
# Velocity S-wave (km/s) = 2.52694 3.32553 2.95335
# Velocity P-wave (km/s) = 4.63976 5.62875 5.15801
#
# Compressibility (1/GPa) = 0.03972824
#
# Stress axis : x y z
#
# Youngs Moduli (GPa) = 20.17437 43.93152 13.50231
#
# Poissons Ratio (x) = -0.48854 0.47148
# Poissons Ratio (y) = -0.22435 0.39878
# Poissons Ratio (z) = 0.70445 1.29748
#
# Static dielectric constant tensor:
#      x y z
#    x 1.658030 0.000000 0.000000 
#    y 0.000000 1.694270 0.000000 
#    z 0.000000 0.000000 1.676860 
# 
# From -- ./inp_files/21458.got.cif
#   From: 2010.05.17/outbox.cif.g08.bks.cpg/sg57_11_cif.got.tgz:21458.got - 2010.06.03 13:58:18.
