data_PCOD9437145
_publ_section_title
;
Structure prediction by ZEFSAII (Michael W. Deem and Ramdas Pophale) SiO2 
 PCOD9437145
Probable space group: P B C M
;
_chemical_formula_sum "Si O2"
_cell_formula_units_Z 64
_cell_length_a 14.693374
_cell_length_b 26.216177
_cell_length_c 8.613360
_cell_angle_alpha 90.000000
_cell_angle_beta 90.000000
_cell_angle_gamma 90.000000
_cell_volume 3317.901531
_symmetry_space_group_name_H-M "P B C M"
_symmetry_group_IT_number 57
_symmetry_cell_setting 'orthorhombic'
loop_
_space_group_symop_operation_xyz
x,y,z
-x,-y,1/2+z
x,1/2-y,-z
-x,1/2+y,1/2-z
-x,-y,-z
x,y,1/2-z
-x,1/2+y,z
x,1/2-y,1/2+z
loop_
_atom_site_type_symbol
_atom_site_label
_atom_site_fract_x
_atom_site_fract_y
_atom_site_fract_z
Si Si1 0.618148 0.901284 0.938968
Si Si2 0.904593 0.979943 0.435812
Si Si3 0.086417 0.137976 0.935767
Si Si4 0.260886 0.193983 0.063924
Si Si5 0.408465 0.903335 0.561769
Si Si6 0.915030 0.193520 0.436453
Si Si7 0.284604 0.994257 0.436164
Si Si8 0.294126 0.694276 0.063283
O O1 0.618533 0.901012 0.750000
O O2 0.667492 0.849299 0.989381
O O3 0.513445 0.905187 0.988885
O O4 0.674174 0.951170 0.988563
O O5 0.905129 0.983145 0.250000
O O6 0.894358 0.920452 0.481613
O O7 0.817717 0.009962 0.500748
O O8 0.000000 0.000000 0.500000
O O9 0.090323 0.141797 0.750000
O O10 0.162188 0.174818 0.008134
O O11 0.987374 0.154628 0.994110
O O12 0.261733 0.195656 0.250000
O O13 0.280866 0.250000 0.000000
O O14 0.406454 0.905572 0.750000
O O15 0.349777 0.949898 0.497176
O O16 0.361277 0.850430 0.512559
O O17 0.936576 0.250000 0.500000
O O18 0.921119 0.193455 0.250000
O O19 0.810470 0.182398 0.482245
O O20 0.282854 0.993461 0.250000
O O21 0.296144 0.696575 0.250000
O O22 0.317903 0.750000 0.000000
#
# Coordination Sequence:
#
# PCOD9437145 Si02
#       8
#     8   8   8   8   8   8   8   8
#     4   9  20  39  62  86 120 159 200 251 306 356
#     4  11  25  42  62  90 123 159 197 244 299 360
#     4  11  23  39  59  86 116 153 196 244 295 356
#     4  11  22  39  61  88 122 163 204 254 307 365
#     4  10  21  39  62  90 119 157 202 250 305 361
#     4  10  20  35  55  81 112 151 192 236 286 346
#     4  11  22  40  63  91 121 159 203 246 299 361
#     4   9  20  37  58  84 117 154 193 238 295 352
#
# _framework density 19.289301999999999
#
# number of rings (size 3 to 8) (size 9 to 14) (size 15 to 20)
#    0.000    1.750    1.250    2.625    1.750    3.000 
#    0.000    1.875    0.000    0.000    0.000    0.000 
#    0.000    0.000    0.000    0.000    0.000    0.000 
#
# Total GULP energy -357681.519429 kJ/mol
# GULP energy per Si atom -5588.773741 kJ/mol
# Density = 1.924540 g / cm^3
# Si number density = 19.289302 Si / 1000 Ang^3
#
#
#
# Elastic Constant Matrix: (Units=GPa)
#
#
# Indices 1 2 3 4 5 6 
#
# 1 141.5737 74.3724 24.7615 0.0000 0.0000 0.0000
# 2 74.3724 117.6010 25.0223 0.0000 0.0000 0.0000
# 3 24.7615 25.0223 30.5004 0.0000 0.0000 0.0000
# 4 0.0000 0.0000 0.0000 27.9348 0.0000 0.0000
# 5 0.0000 0.0000 0.0000 0.0000 13.5868 0.0000
# 6 0.0000 0.0000 0.0000 0.0000 0.0000 16.5462
#
#
#
# Elastic Compliance Matrix: (Units=1/GPa)
#
#
# Indices 1 2 3 4 5 6 
#
# 1 0.010945 -0.006095 -0.003885 0.000000 0.000000 0.000000
# 2 -0.006095 0.013696 -0.006288 0.000000 0.000000 0.000000
# 3 -0.003885 -0.006288 0.041099 0.000000 0.000000 0.000000
# 4 0.000000 0.000000 0.000000 0.035798 0.000000 0.000000
# 5 0.000000 0.000000 0.000000 0.000000 0.073601 0.000000
# 6 0.000000 0.000000 0.000000 0.000000 0.000000 0.060437
#
#
# Mechanical properties :
#
#
# Convention : Reuss Voigt Hill
#
# Bulk Modulus (GPa) = 30.11700 59.77640 44.94670
# Shear Modulus (GPa) = 17.90968 22.64815 20.27892
#
# Velocity S-wave (km/s) = 3.05040 3.43028 3.24590
# Velocity P-wave (km/s) = 5.29658 6.83709 6.11553
#
# Compressibility (1/GPa) = 0.03320384
#
# Stress axis : x y z
#
# Youngs Moduli (GPa) = 91.36713 73.01536 24.33142
#
# Poissons Ratio (x) = 0.44503 0.09453
# Poissons Ratio (y) = 0.55688 0.15299
# Poissons Ratio (z) = 0.35498 0.45910
#
# Static dielectric constant tensor:
#      x y z
#    x 1.650880 0.000000 0.000000 
#    y 0.000000 1.662010 0.000000 
#    z 0.000000 0.000000 1.648710 
# 
# From -- ./inp_files/5715.got.cif
#   From: 2010.05.17/outbox.cif.g08.bks.cpg/sg57_3_cif.got.tgz:5715.got - 2010.06.03 13:58:18.
