data_PCOD9437922
_publ_section_title
;
Structure prediction by ZEFSAII (Michael W. Deem and Ramdas Pophale) SiO2 
 PCOD9437922
Probable space group: P B C M
;
_chemical_formula_sum "Si O2"
_cell_formula_units_Z 36
_cell_length_a 7.385089
_cell_length_b 15.968908
_cell_length_c 14.173359
_cell_angle_alpha 90.000000
_cell_angle_beta 90.000000
_cell_angle_gamma 90.000000
_cell_volume 1671.489835
_symmetry_space_group_name_H-M "P B C M"
_symmetry_group_IT_number 57
_symmetry_cell_setting 'orthorhombic'
loop_
_space_group_symop_operation_xyz
x,y,z
-x,-y,1/2+z
x,1/2-y,-z
-x,1/2+y,1/2-z
-x,-y,-z
x,y,1/2-z
-x,1/2+y,z
x,1/2-y,1/2+z
loop_
_atom_site_type_symbol
_atom_site_label
_atom_site_fract_x
_atom_site_fract_y
_atom_site_fract_z
Si Si1 0.693145 0.963294 0.464316
Si Si2 0.729184 0.618332 0.352119
Si Si3 0.873117 0.250000 0.500000
Si Si4 0.160641 0.187460 0.860376
Si Si5 0.706382 0.377289 0.855847
O O1 0.791783 0.937823 0.561028
O O2 0.693594 0.878051 0.402498
O O3 0.500000 0.000000 0.500000
O O4 0.774128 0.035204 0.398667
O O5 0.795898 0.589620 0.250000
O O6 0.777863 0.715631 0.365004
O O7 0.510989 0.616496 0.350782
O O8 0.758993 0.305209 0.572075
O O9 0.992635 0.189184 0.567188
O O10 0.122531 0.168751 0.750000
O O11 0.774810 0.360976 0.750000
#
# Coordination Sequence:
#
# PCOD9437922 Si02
#       5
#     8   8   4   8   8
#     4  10  20  37  65  90 118 151 206 257 311 348
#     4   9  19  38  64  91 121 157 207 257 302 359
#     4  12  24  38  64  84 130 172 206 242 306 380
#     4  11  22  40  63  90 123 163 205 251 306 367
#     4  10  23  40  60  90 125 162 204 257 307 361
#
# _framework density 21.537673000000002
#
# number of rings (size 3 to 8) (size 9 to 14) (size 15 to 20)
#    0.000    1.778    2.222    1.333    6.222    1.778 
#    0.000    2.222    0.000    0.000    0.000    0.000 
#    0.000    0.000    0.000    0.000    0.000    0.000 
#
# Total GULP energy -200869.202267 kJ/mol
# GULP energy per Si atom -5579.700063 kJ/mol
# Density = 2.148865 g / cm^3
# Si number density = 21.537673 Si / 1000 Ang^3
#
#
#
# Elastic Constant Matrix: (Units=GPa)
#
#
# Indices 1 2 3 4 5 6 
#
# 1 36.4442 -25.0517 9.5192 0.0000 0.0000 0.0000
# 2 -25.0517 39.7791 47.1766 0.0000 0.0000 0.0000
# 3 9.5192 47.1766 205.1188 0.0000 0.0000 0.0000
# 4 0.0000 0.0000 0.0000 48.2757 0.0000 0.0000
# 5 0.0000 0.0000 0.0000 0.0000 5.4799 0.0000
# 6 0.0000 0.0000 0.0000 0.0000 0.0000 -8.5743
#
#
#
# Elastic Compliance Matrix: (Units=1/GPa)
#
#
# Indices 1 2 3 4 5 6 
#
# 1 0.096613 0.090977 -0.025408 0.000000 0.000000 0.000000
# 2 0.090977 0.120238 -0.031876 0.000000 0.000000 0.000000
# 3 -0.025408 -0.031876 0.013386 0.000000 0.000000 0.000000
# 4 0.000000 0.000000 0.000000 0.020714 0.000000 0.000000
# 5 0.000000 0.000000 0.000000 0.000000 0.182487 0.000000
# 6 0.000000 0.000000 0.000000 0.000000 0.000000 -0.116628
#
#
# Mechanical properties :
#
#
# Convention : Reuss Voigt Hill
#
# Bulk Modulus (GPa) = 3.35996 38.29226 20.82611
# Shear Modulus (GPa) = 14.34179 25.68278 20.01229
#
# Velocity S-wave (km/s) = 2.58329 3.45695 3.05155
# Velocity P-wave (km/s) = 3.23439 5.80963 4.70176
#
# Compressibility (1/GPa) = 0.29762215
#
# Stress axis : x y z
#
# Youngs Moduli (GPa) = 10.35055 8.31687 74.70605
#
# Poissons Ratio (x) = -0.75664 1.89814
# Poissons Ratio (y) = -0.94166 2.38135
# Poissons Ratio (z) = 0.26299 0.26511
#
# Static dielectric constant tensor:
#      x y z
#    x 1.830080 0.000000 0.000000 
#    y 0.000000 1.772020 0.000000 
#    z 0.000000 0.000000 1.160860 
# 
# From -- ./inp_files/15787.got.cif
#   From: 2010.05.17/outbox.cif.g08.bks.cpg/sg57_8_cif.got.tgz:15787.got - 2010.06.03 13:58:18.
