data_PCOD9437371
_publ_section_title
;
Structure prediction by ZEFSAII (Michael W. Deem and Ramdas Pophale) SiO2 
 PCOD9437371
Probable space group: P B C M
;
_chemical_formula_sum "Si O2"
_cell_formula_units_Z 64
_cell_length_a 5.110005
_cell_length_b 21.833011
_cell_length_c 28.464002
_cell_angle_alpha 90.000000
_cell_angle_beta 90.000000
_cell_angle_gamma 90.000000
_cell_volume 3175.637487
_symmetry_space_group_name_H-M "P B C M"
_symmetry_group_IT_number 57
_symmetry_cell_setting 'orthorhombic'
loop_
_space_group_symop_operation_xyz
x,y,z
-x,-y,1/2+z
x,1/2-y,-z
-x,1/2+y,1/2-z
-x,-y,-z
x,y,1/2-z
-x,1/2+y,z
x,1/2-y,1/2+z
loop_
_atom_site_type_symbol
_atom_site_label
_atom_site_fract_x
_atom_site_fract_y
_atom_site_fract_z
Si Si1 0.585287 0.213073 0.853136
Si Si2 0.153414 0.317315 0.010435
Si Si3 0.232605 0.931479 0.010701
Si Si4 0.061202 0.128642 0.380173
Si Si5 0.114920 0.991741 0.921381
Si Si6 0.374131 0.115808 0.911263
Si Si7 0.077776 0.230080 0.305655
Si Si8 0.439879 0.684059 0.426963
O O1 0.532225 0.143762 0.868335
O O2 0.854515 0.226297 0.827130
O O3 0.574887 0.250149 0.902285
O O4 0.353992 0.241787 0.821864
O O5 0.416500 0.314420 0.977601
O O6 0.029408 0.250000 0.000000
O O7 0.195025 0.330355 0.066076
O O8 0.982821 0.378536 0.000831
O O9 0.452327 0.902635 0.043614
O O10 0.109879 0.984028 0.043553
O O11 0.307280 0.959276 0.959980
O O12 0.036123 0.164317 0.331083
O O13 0.849898 0.160302 0.415069
O O14 0.352883 0.142811 0.397890
O O15 0.990312 0.057611 0.384791
O O16 0.227919 0.053238 0.899038
O O17 0.060195 0.225463 0.250000
#
# Coordination Sequence:
#
# PCOD9437371 Si02
#       8
#     8   8   8   8   8   8   8   8
#     4  10  22  38  63  90 124 147 191 247 305 374
#     4  11  21  32  50  77 122 160 206 252 283 331
#     4  10  22  35  52  76 120 173 214 240 282 324
#     4  10  21  36  62  83 114 147 198 245 293 354
#     4  10  21  36  52  80 117 170 209 244 273 338
#     4  11  23  34  53  83 121 167 208 238 284 347
#     4  10  22  42  68  94 114 143 185 253 327 379
#     4  10  20  36  52  85 114 158 195 240 296 327
#
# _framework density 20.153431999999999
#
# number of rings (size 3 to 8) (size 9 to 14) (size 15 to 20)
#    0.000    1.750    2.500    1.500    5.250    1.500 
#    0.000    0.000    0.000    1.500    0.000    0.000 
#    0.000    0.000    0.000    0.000    0.000    0.000 
#
# Total GULP energy -356998.585987 kJ/mol
# GULP energy per Si atom -5578.102906 kJ/mol
# Density = 2.010756 g / cm^3
# Si number density = 20.153432 Si / 1000 Ang^3
#
#
#
# Elastic Constant Matrix: (Units=GPa)
#
#
# Indices 1 2 3 4 5 6 
#
# 1 40.1775 -13.2313 -19.0357 0.0000 0.0000 0.0000
# 2 -13.2313 83.1839 10.9550 0.0000 0.0000 0.0000
# 3 -19.0357 10.9550 44.8050 0.0000 0.0000 0.0000
# 4 0.0000 0.0000 0.0000 10.4571 0.0000 0.0000
# 5 0.0000 0.0000 0.0000 0.0000 17.9898 0.0000
# 6 0.0000 0.0000 0.0000 0.0000 0.0000 20.6734
#
#
#
# Elastic Compliance Matrix: (Units=1/GPa)
#
#
# Indices 1 2 3 4 5 6 
#
# 1 0.032076 0.003417 0.012792 0.000000 0.000000 0.000000
# 2 0.003417 0.012786 -0.001674 0.000000 0.000000 0.000000
# 3 0.012792 -0.001674 0.028163 0.000000 0.000000 0.000000
# 4 0.000000 0.000000 0.000000 0.095629 0.000000 0.000000
# 5 0.000000 0.000000 0.000000 0.000000 0.055587 0.000000
# 6 0.000000 0.000000 0.000000 0.000000 0.000000 0.048371
#
#
# Mechanical properties :
#
#
# Convention : Reuss Voigt Hill
#
# Bulk Modulus (GPa) = 9.79483 13.94915 11.87199
# Shear Modulus (GPa) = 18.01327 22.45595 20.23461
#
# Velocity S-wave (km/s) = 2.99290 3.34166 3.17208
# Velocity P-wave (km/s) = 4.10048 4.67177 4.39542
#
# Compressibility (1/GPa) = 0.10209462
#
# Stress axis : x y z
#
# Youngs Moduli (GPa) = 31.17627 78.21289 35.50743
#
# Poissons Ratio (x) = -0.26728 -0.45421
# Poissons Ratio (y) = -0.10654 0.05945
# Poissons Ratio (z) = -0.39881 0.13095
#
# Static dielectric constant tensor:
#      x y z
#    x 1.843310 0.000000 0.000000 
#    y 0.000000 1.811960 0.000000 
#    z 0.000000 0.000000 1.689520 
# 
# From -- ./inp_files/28142.got.cif
#   From: 2010.05.17/outbox.cif.g08.bks.cpg/sg57_15_cif.got.tgz:28142.got - 2010.06.03 13:58:18.
