data_PCOD9437825
_publ_section_title
;
Structure prediction by ZEFSAII (Michael W. Deem and Ramdas Pophale) SiO2 
 PCOD9437825
Probable space group: P B C M
;
_chemical_formula_sum "Si O2"
_cell_formula_units_Z 32
_cell_length_a 19.883834
_cell_length_b 8.618941
_cell_length_c 9.887242
_cell_angle_alpha 90.000000
_cell_angle_beta 90.000000
_cell_angle_gamma 90.000000
_cell_volume 1694.451726
_symmetry_space_group_name_H-M "P B C M"
_symmetry_group_IT_number 57
_symmetry_cell_setting 'orthorhombic'
loop_
_space_group_symop_operation_xyz
x,y,z
-x,-y,1/2+z
x,1/2-y,-z
-x,1/2+y,1/2-z
-x,-y,-z
x,y,1/2-z
-x,1/2+y,z
x,1/2-y,1/2+z
loop_
_atom_site_type_symbol
_atom_site_label
_atom_site_fract_x
_atom_site_fract_y
_atom_site_fract_z
Si Si1 0.796369 0.099263 0.094143
Si Si2 0.410621 0.069948 0.250000
Si Si3 0.944423 0.409018 0.913972
Si Si4 0.558567 0.565472 0.750000
Si Si5 0.348661 0.562832 0.016078
O O1 0.793397 0.150604 0.250000
O O2 0.868953 0.018553 0.076879
O O3 0.726396 0.015068 0.062649
O O4 0.796558 0.250000 0.000000
O O5 0.429064 0.250798 0.250000
O O6 0.480119 0.973934 0.250000
O O7 0.367686 0.020686 0.378641
O O8 0.958803 0.391714 0.750000
O O9 0.940105 0.250000 0.000000
O O10 0.000000 0.500000 0.000000
O O11 0.595487 0.488917 0.622621
O O12 0.350314 0.750000 0.000000
#
# Coordination Sequence:
#
# PCOD9437825 Si02
#       5
#     8   4   8   4   8
#     4   9  19  35  61  89 119 155 202 251 298 361
#     4  12  26  40  62  90 119 162 199 252 311 366
#     4  10  20  37  60  90 123 163 207 253 305 365
#     4  12  24  44  62  86 125 156 201 252 307 370
#     4  11  22  40  64  91 118 156 205 252 305 364
#
# _framework density 18.885165000000001
#
# number of rings (size 3 to 8) (size 9 to 14) (size 15 to 20)
#    0.000    1.500    1.250    4.500    5.250    1.000 
#    0.000    2.500    0.000    0.000    0.000    0.000 
#    0.000    0.000    0.000    0.000    0.000    0.000 
#
# Total GULP energy -178383.701793 kJ/mol
# GULP energy per Si atom -5574.490681 kJ/mol
# Density = 1.884218 g / cm^3
# Si number density = 18.885165 Si / 1000 Ang^3
#
#
#
# Elastic Constant Matrix: (Units=GPa)
#
#
# Indices 1 2 3 4 5 6 
#
# 1 129.5174 16.9728 57.6352 0.0000 0.0000 0.0000
# 2 16.9728 70.0042 14.2177 0.0000 0.0000 0.0000
# 3 57.6352 14.2177 156.2067 0.0000 0.0000 0.0000
# 4 0.0000 0.0000 0.0000 31.3507 0.0000 0.0000
# 5 0.0000 0.0000 0.0000 0.0000 38.3087 0.0000
# 6 0.0000 0.0000 0.0000 0.0000 0.0000 41.6885
#
#
#
# Elastic Compliance Matrix: (Units=1/GPa)
#
#
# Indices 1 2 3 4 5 6 
#
# 1 0.009412 -0.001606 -0.003326 0.000000 0.000000 0.000000
# 2 -0.001606 0.014828 -0.000757 0.000000 0.000000 0.000000
# 3 -0.003326 -0.000757 0.007698 0.000000 0.000000 0.000000
# 4 0.000000 0.000000 0.000000 0.031897 0.000000 0.000000
# 5 0.000000 0.000000 0.000000 0.000000 0.026104 0.000000
# 6 0.000000 0.000000 0.000000 0.000000 0.000000 0.023987
#
#
# Mechanical properties :
#
#
# Convention : Reuss Voigt Hill
#
# Bulk Modulus (GPa) = 48.64188 59.26441 53.95315
# Shear Modulus (GPa) = 37.83341 40.06310 38.94825
#
# Velocity S-wave (km/s) = 4.48072 4.61087 4.54626
# Velocity P-wave (km/s) = 7.25133 7.73281 7.49594
#
# Compressibility (1/GPa) = 0.02055842
#
# Stress axis : x y z
#
# Youngs Moduli (GPa) = 106.25049 67.43974 129.90374
#
# Poissons Ratio (x) = 0.10833 0.43211
# Poissons Ratio (y) = 0.17067 0.09833
# Poissons Ratio (z) = 0.35343 0.05105
#
# Static dielectric constant tensor:
#      x y z
#    x 1.697920 0.000000 0.000000 
#    y 0.000000 1.645440 0.000000 
#    z 0.000000 0.000000 1.609220 
# 
# From -- ./inp_files/7551.got.cif
#   From: 2010.05.17/outbox.cif.g08.bks.cpg/sg57_4_cif.got.tgz:7551.got - 2010.06.03 13:58:18.
