data_PCOD9437806
_publ_section_title
;
Structure prediction by ZEFSAII (Michael W. Deem and Ramdas Pophale) SiO2 
 PCOD9437806
Probable space group: P B C M
;
_chemical_formula_sum "Si O2"
_cell_formula_units_Z 64
_cell_length_a 15.995236
_cell_length_b 24.435744
_cell_length_c 7.968029
_cell_angle_alpha 90.000000
_cell_angle_beta 90.000000
_cell_angle_gamma 90.000000
_cell_volume 3114.347896
_symmetry_space_group_name_H-M "P B C M"
_symmetry_group_IT_number 57
_symmetry_cell_setting 'orthorhombic'
loop_
_space_group_symop_operation_xyz
x,y,z
-x,-y,1/2+z
x,1/2-y,-z
-x,1/2+y,1/2-z
-x,-y,-z
x,y,1/2-z
-x,1/2+y,z
x,1/2-y,1/2+z
loop_
_atom_site_type_symbol
_atom_site_label
_atom_site_fract_x
_atom_site_fract_y
_atom_site_fract_z
Si Si1 0.589546 0.875457 0.447933
Si Si2 0.846962 0.002455 0.453511
Si Si3 0.092988 0.385914 0.450792
Si Si4 0.247910 0.313052 0.046897
Si Si5 0.405581 0.887588 0.455951
Si Si6 0.909296 0.119927 0.449248
Si Si7 0.347302 0.006991 0.450198
Si Si8 0.251962 0.812876 0.050098
O O1 0.585189 0.863215 0.250000
O O2 0.665469 0.839318 0.518165
O O3 0.496151 0.867503 0.516034
O O4 0.614295 0.938917 0.468866
O O5 0.848941 0.003443 0.250000
O O6 0.884631 0.059592 0.517157
O O7 0.750741 0.997007 0.507191
O O8 0.895604 0.948316 0.513107
O O9 0.101440 0.388049 0.250000
O O10 0.168733 0.348357 0.514875
O O11 0.001134 0.364256 0.489911
O O12 0.248606 0.317242 0.250000
O O13 0.240565 0.250000 0.000000
O O14 0.405565 0.887258 0.250000
O O15 0.389884 0.950410 0.506884
O O16 0.328907 0.849945 0.514239
O O17 0.913326 0.115758 0.250000
O O18 0.835765 0.161606 0.493293
O O19 0.357024 0.011575 0.250000
O O20 0.253970 0.816302 0.250000
O O21 0.260568 0.750000 0.000000
#
# Coordination Sequence:
#
# PCOD9437806 Si02
#       8
#     8   8   8   8   8   8   8   8
#     4  10  20  39  61  84 118 158 192 234 292 354
#     4  10  20  37  60  86 119 156 193 232 290 356
#     4  10  21  39  60  85 117 157 194 235 291 348
#     4  10  22  39  60  82 111 152 195 238 288 337
#     4   9  20  37  60  87 118 154 192 236 293 346
#     4  11  23  38  61  92 118 152 193 239 295 350
#     4  11  20  33  57  91 121 152 191 237 290 343
#     4  11  23  42  62  85 117 156 199 247 293 345
#
# _framework density 20.550049999999999
#
# number of rings (size 3 to 8) (size 9 to 14) (size 15 to 20)
#    0.000    1.750    2.500    1.875    0.000    3.000 
#    0.000    3.125    0.000    0.000    0.000    0.000 
#    0.000    0.000    0.000    0.000    0.000    0.000 
#
# Total GULP energy -357624.544221 kJ/mol
# GULP energy per Si atom -5587.883503 kJ/mol
# Density = 2.050328 g / cm^3
# Si number density = 20.550050 Si / 1000 Ang^3
#
#
#
# Elastic Constant Matrix: (Units=GPa)
#
#
# Indices 1 2 3 4 5 6 
#
# 1 122.0167 14.7142 -8.3226 0.0000 0.0000 0.0000
# 2 14.7142 79.7277 -10.7818 0.0000 0.0000 0.0000
# 3 -8.3226 -10.7818 13.3108 0.0000 0.0000 0.0000
# 4 0.0000 0.0000 0.0000 18.7982 0.0000 0.0000
# 5 0.0000 0.0000 0.0000 0.0000 8.7936 0.0000
# 6 0.0000 0.0000 0.0000 0.0000 0.0000 3.2413
#
#
#
# Elastic Compliance Matrix: (Units=1/GPa)
#
#
# Indices 1 2 3 4 5 6 
#
# 1 0.008627 -0.000969 0.004609 0.000000 0.000000 0.000000
# 2 -0.000969 0.014194 0.010892 0.000000 0.000000 0.000000
# 3 0.004609 0.010892 0.086831 0.000000 0.000000 0.000000
# 4 0.000000 0.000000 0.000000 0.053196 0.000000 0.000000
# 5 0.000000 0.000000 0.000000 0.000000 0.113719 0.000000
# 6 0.000000 0.000000 0.000000 0.000000 0.000000 0.308515
#
#
# Mechanical properties :
#
#
# Convention : Reuss Voigt Hill
#
# Bulk Modulus (GPa) = 7.20893 22.91943 15.06418
# Shear Modulus (GPa) = 8.30208 20.79631 14.54920
#
# Velocity S-wave (km/s) = 2.01214 3.18462 2.66369
# Velocity P-wave (km/s) = 2.98561 4.96987 4.09960
#
# Compressibility (1/GPa) = 0.13871682
#
# Stress axis : x y z
#
# Youngs Moduli (GPa) = 115.91761 70.45023 11.51658
#
# Poissons Ratio (x) = 0.06825 -0.05308
# Poissons Ratio (y) = 0.11230 -0.12544
# Poissons Ratio (z) = -0.53429 -0.76733
#
# Static dielectric constant tensor:
#      x y z
#    x 1.736020 0.000000 0.000000 
#    y 0.000000 1.704450 0.000000 
#    z 0.000000 0.000000 1.733990 
# 
# From -- ./inp_files/5718.got.cif
#   From: 2010.05.17/outbox.cif.g08.bks.cpg/sg57_3_cif.got.tgz:5718.got - 2010.06.03 13:58:18.
