data_PCOD9437864
_publ_section_title
;
Structure prediction by ZEFSAII (Michael W. Deem and Ramdas Pophale) SiO2 
 PCOD9437864
Probable space group: P B C M
;
_chemical_formula_sum "Si O2"
_cell_formula_units_Z 60
_cell_length_a 12.479141
_cell_length_b 30.304721
_cell_length_c 7.591253
_cell_angle_alpha 90.000000
_cell_angle_beta 90.000000
_cell_angle_gamma 90.000000
_cell_volume 2870.836423
_symmetry_space_group_name_H-M "P B C M"
_symmetry_group_IT_number 57
_symmetry_cell_setting 'orthorhombic'
loop_
_space_group_symop_operation_xyz
x,y,z
-x,-y,1/2+z
x,1/2-y,-z
-x,1/2+y,1/2-z
-x,-y,-z
x,y,1/2-z
-x,1/2+y,z
x,1/2-y,1/2+z
loop_
_atom_site_type_symbol
_atom_site_label
_atom_site_fract_x
_atom_site_fract_y
_atom_site_fract_z
Si Si1 0.630260 0.199227 0.458649
Si Si2 0.518797 0.389510 0.041988
Si Si3 0.684039 0.037192 0.536138
Si Si4 0.050227 0.369905 0.047033
Si Si5 0.686051 0.940375 0.456004
Si Si6 0.128513 0.801147 0.960203
Si Si7 0.180902 0.100520 0.250000
Si Si8 0.929073 0.457334 0.039582
O O1 0.602331 0.250000 0.500000
O O2 0.637109 0.196250 0.250000
O O3 0.549424 0.161214 0.516570
O O4 0.750581 0.189561 0.528703
O O5 0.513019 0.397828 0.250000
O O6 0.612266 0.421835 0.973347
O O7 0.403361 0.405632 0.976610
O O8 0.684288 0.037482 0.750000
O O9 0.807315 0.040287 0.473619
O O10 0.641213 0.989925 0.473463
O O11 0.083628 0.375898 0.250000
O O12 0.989228 0.413682 0.974135
O O13 0.144690 0.364645 0.907665
O O14 0.962020 0.331713 0.040745
O O15 0.712901 0.933328 0.250000
O O16 0.782153 0.934725 0.593114
O O17 0.127376 0.808014 0.750000
O O18 0.108128 0.750000 0.000000
O O19 0.923097 0.452574 0.250000
O O20 0.000000 0.500000 0.000000
#
# Coordination Sequence:
#
# PCOD9437864 Si02
#       8
#     8   8   8   8   8   8   4   8
#     4  10  21  36  62  96 133 166 202 247 314 384
#     4  10  22  39  62  91 123 162 212 263 320 380
#     4  10  20  38  60  87 126 168 207 264 313 370
#     4  11  23  40  62  92 123 168 210 258 312 378
#     4  11  24  41  63  90 119 166 216 271 323 373
#     4  10  20  37  61  97 133 166 200 250 311 382
#     4  12  24  42  64  84 126 158 222 260 324 368
#     4  10  22  34  54  84 122 162 207 246 301 363
#
# _framework density 20.899832
#
# number of rings (size 3 to 8) (size 9 to 14) (size 15 to 20)
#    0.000    1.600    1.333    3.200    3.733    4.800 
#    0.000    0.000    0.000    0.800    3.467    0.000 
#    0.000    0.000    0.000    0.000    0.000    0.000 
#
# Total GULP energy -334206.955249 kJ/mol
# GULP energy per Si atom -5570.115921 kJ/mol
# Density = 2.085226 g / cm^3
# Si number density = 20.899832 Si / 1000 Ang^3
#
#
#
# Elastic Constant Matrix: (Units=GPa)
#
#
# Indices 1 2 3 4 5 6 
#
# 1 43.3468 30.9482 13.0086 0.0000 0.0000 0.0000
# 2 30.9482 78.5536 -3.5361 0.0000 0.0000 0.0000
# 3 13.0086 -3.5361 106.7673 0.0000 0.0000 0.0000
# 4 0.0000 0.0000 0.0000 109.4211 0.0000 0.0000
# 5 0.0000 0.0000 0.0000 0.0000 -0.7622 0.0000
# 6 0.0000 0.0000 0.0000 0.0000 0.0000 39.6041
#
#
#
# Elastic Compliance Matrix: (Units=1/GPa)
#
#
# Indices 1 2 3 4 5 6 
#
# 1 0.034237 -0.013697 -0.004625 0.000000 0.000000 0.000000
# 2 -0.013697 0.018229 0.002273 0.000000 0.000000 0.000000
# 3 -0.004625 0.002273 0.010005 0.000000 0.000000 0.000000
# 4 0.000000 0.000000 0.000000 0.009139 0.000000 0.000000
# 5 0.000000 0.000000 0.000000 0.000000 -1.311967 0.000000
# 6 0.000000 0.000000 0.000000 0.000000 0.000000 0.025250
#
#
# Mechanical properties :
#
#
# Convention : Reuss Voigt Hill
#
# Bulk Modulus (GPa) = 32.92511 34.38989 33.65750
# Shear Modulus (GPa) = -4.26299 42.20240 18.96971
#
# Velocity S-wave (km/s) = -1.42974 4.49850 3.01599
# Velocity P-wave (km/s) = 3.61420 6.59336 5.31671
#
# Compressibility (1/GPa) = 0.03037196
#
# Stress axis : x y z
#
# Youngs Moduli (GPa) = 29.20842 54.85882 99.95055
#
# Poissons Ratio (x) = 0.75138 0.46228
# Poissons Ratio (y) = 0.40006 -0.22714
# Poissons Ratio (z) = 0.13509 -0.12467
#
# Static dielectric constant tensor:
#      x y z
#    x 1.865550 0.000000 0.000000 
#    y 0.000000 1.716140 0.000000 
#    z 0.000000 0.000000 1.785260 
# 
# From -- ./inp_files/3697.got.cif
#   From: 2010.05.17/outbox.cif.g08.bks.cpg/sg57_2_cif.got.tgz:3697.got - 2010.06.03 13:58:18.
