data_PCOD9437501
_publ_section_title
;
Structure prediction by ZEFSAII (Michael W. Deem and Ramdas Pophale) SiO2 
 PCOD9437501
Probable space group: P B C M
;
_chemical_formula_sum "Si O2"
_cell_formula_units_Z 40
_cell_length_a 7.568745
_cell_length_b 13.786460
_cell_length_c 19.136001
_cell_angle_alpha 90.000000
_cell_angle_beta 90.000000
_cell_angle_gamma 90.000000
_cell_volume 1996.768991
_symmetry_space_group_name_H-M "P B C M"
_symmetry_group_IT_number 57
_symmetry_cell_setting 'orthorhombic'
loop_
_space_group_symop_operation_xyz
x,y,z
-x,-y,1/2+z
x,1/2-y,-z
-x,1/2+y,1/2-z
-x,-y,-z
x,y,1/2-z
-x,1/2+y,z
x,1/2-y,1/2+z
loop_
_atom_site_type_symbol
_atom_site_label
_atom_site_fract_x
_atom_site_fract_y
_atom_site_fract_z
Si Si1 0.105873 0.211127 0.831211
Si Si2 0.458523 0.110753 0.512027
Si Si3 0.898191 0.547434 0.934637
Si Si4 0.494415 0.752313 0.620843
Si Si5 0.175069 0.875056 0.829361
O O1 0.082530 0.185222 0.750000
O O2 0.025338 0.125673 0.879697
O O3 0.315740 0.231018 0.843998
O O4 0.997444 0.309769 0.844113
O O5 0.253796 0.112375 0.530916
O O6 0.483871 0.172663 0.443097
O O7 0.560070 0.154841 0.578843
O O8 0.500000 0.000000 0.500000
O O9 0.820306 0.460799 0.886292
O O10 0.000000 0.500000 0.000000
O O11 0.342214 0.802037 0.665962
O O12 0.166113 0.913716 0.750000
#
# Coordination Sequence:
#
# PCOD9437501 Si02
#       5
#     8   8   8   8   8
#     4  10  23  42  59  87 126 159 203 253 301 364
#     4  10  20  36  57  91 120 148 197 254 294 359
#     4  11  23  38  64  89 122 160 203 251 311 353
#     4  10  21  38  63  86 121 159 197 249 309 354
#     4  11  23  40  63  88 119 163 206 246 304 369
#
# _framework density 20.032363
#
# number of rings (size 3 to 8) (size 9 to 14) (size 15 to 20)
#    0.000    1.600    2.000    2.400    2.800    2.400 
#    0.000    0.000    0.000    0.000    0.000    0.000 
#    0.000    0.000    0.000    0.000    0.000    0.000 
#
# Total GULP energy -222903.592190 kJ/mol
# GULP energy per Si atom -5572.589805 kJ/mol
# Density = 1.998677 g / cm^3
# Si number density = 20.032363 Si / 1000 Ang^3
#
#
#
# Elastic Constant Matrix: (Units=GPa)
#
#
# Indices 1 2 3 4 5 6 
#
# 1 42.2596 1.5016 11.6551 0.0000 0.0000 0.0000
# 2 1.5016 66.4320 20.5998 0.0000 0.0000 0.0000
# 3 11.6551 20.5998 85.5937 0.0000 0.0000 0.0000
# 4 0.0000 0.0000 0.0000 22.5134 0.0000 0.0000
# 5 0.0000 0.0000 0.0000 0.0000 25.9898 0.0000
# 6 0.0000 0.0000 0.0000 0.0000 0.0000 28.1045
#
#
#
# Elastic Compliance Matrix: (Units=1/GPa)
#
#
# Indices 1 2 3 4 5 6 
#
# 1 0.024603 0.000522 -0.003476 0.000000 0.000000 0.000000
# 2 0.000522 0.016278 -0.003989 0.000000 0.000000 0.000000
# 3 -0.003476 -0.003989 0.013116 0.000000 0.000000 0.000000
# 4 0.000000 0.000000 0.000000 0.044418 0.000000 0.000000
# 5 0.000000 0.000000 0.000000 0.000000 0.038477 0.000000
# 6 0.000000 0.000000 0.000000 0.000000 0.000000 0.035582
#
#
# Mechanical properties :
#
#
# Convention : Reuss Voigt Hill
#
# Bulk Modulus (GPa) = 24.93008 29.08873 27.00940
# Shear Modulus (GPa) = 25.03379 26.02345 25.52862
#
# Velocity S-wave (km/s) = 3.53890 3.60817 3.57370
# Velocity P-wave (km/s) = 5.40096 5.64898 5.52636
#
# Compressibility (1/GPa) = 0.04011219
#
# Stress axis : x y z
#
# Youngs Moduli (GPa) = 40.64491 61.43253 76.24085
#
# Poissons Ratio (x) = -0.03205 0.26499
# Poissons Ratio (y) = -0.02120 0.30410
# Poissons Ratio (z) = 0.14127 0.24503
#
# Static dielectric constant tensor:
#      x y z
#    x 2.018170 0.000000 0.000000 
#    y 0.000000 1.760690 0.000000 
#    z 0.000000 0.000000 1.761030 
# 
# From -- ./inp_files/20534.got.cif
#   From: 2010.05.17/outbox.cif.g08.bks.cpg/sg57_11_cif.got.tgz:20534.got - 2010.06.03 13:58:18.
