data_PCOD9437525
_publ_section_title
;
Structure prediction by ZEFSAII (Michael W. Deem and Ramdas Pophale) SiO2 
 PCOD9437525
Probable space group: P B C M
;
_chemical_formula_sum "Si O2"
_cell_formula_units_Z 64
_cell_length_a 26.661979
_cell_length_b 15.114112
_cell_length_c 8.612756
_cell_angle_alpha 90.000000
_cell_angle_beta 90.000000
_cell_angle_gamma 90.000000
_cell_volume 3470.700689
_symmetry_space_group_name_H-M "P B C M"
_symmetry_group_IT_number 57
_symmetry_cell_setting 'orthorhombic'
loop_
_space_group_symop_operation_xyz
x,y,z
-x,-y,1/2+z
x,1/2-y,-z
-x,1/2+y,1/2-z
-x,-y,-z
x,y,1/2-z
-x,1/2+y,z
x,1/2-y,1/2+z
loop_
_atom_site_type_symbol
_atom_site_label
_atom_site_fract_x
_atom_site_fract_y
_atom_site_fract_z
Si Si1 0.633714 0.649383 0.436255
Si Si2 0.111213 0.343452 0.063812
Si Si3 0.708605 0.995703 0.435909
Si Si4 0.891948 0.158221 0.936547
Si Si5 0.000824 0.099030 0.562517
Si Si6 0.820518 0.998748 0.936257
Si Si7 0.368554 0.850611 0.563431
Si Si8 0.556087 0.495651 0.436552
O O1 0.631768 0.750000 0.500000
O O2 0.635235 0.654595 0.250000
O O3 0.680843 0.590750 0.494751
O O4 0.586830 0.585194 0.481091
O O5 0.112599 0.347119 0.250000
O O6 0.053365 0.358591 0.012387
O O7 0.127919 0.250000 0.000000
O O8 0.147666 0.415689 0.993021
O O9 0.706477 0.989140 0.250000
O O10 0.765417 0.000468 0.492667
O O11 0.678488 0.085602 0.481262
O O12 0.893350 0.158774 0.750000
O O13 0.949173 0.143428 0.992489
O O14 0.854667 0.081378 0.986449
O O15 0.872888 0.250000 0.000000
O O16 0.000214 0.098379 0.750000
O O17 0.000000 0.000000 0.500000
O O18 0.816689 0.998758 0.750000
O O19 0.366494 0.750000 0.500000
O O20 0.370634 0.845979 0.750000
O O21 0.415378 0.909081 0.502333
O O22 0.500000 0.500000 0.500000
O O23 0.556228 0.490593 0.250000
#
# Coordination Sequence:
#
# PCOD9437525 Si02
#       8
#     8   8   8   8   8   8   8   8
#     4  10  21  38  61  88 117 154 197 240 289 341
#     4  11  23  38  59  85 113 147 186 230 281 340
#     4  10  22  40  61  85 114 148 191 240 290 344
#     4  10  22  38  57  83 113 146 184 226 277 335
#     4  10  20  36  58  83 111 146 184 225 277 335
#     4  11  23  40  60  83 115 148 186 236 286 340
#     4  10  21  38  61  87 117 155 198 244 292 345
#     4  10  21  37  58  87 125 163 201 244 289 340
#
# _framework density 18.440080999999999
#
# number of rings (size 3 to 8) (size 9 to 14) (size 15 to 20)
#    0.000    1.750    1.250    2.625    0.000    6.500 
#    0.000    6.250    0.000    0.000    0.000    0.000 
#    0.000    0.000    0.000    0.000    0.000    0.000 
#
# Total GULP energy -357300.259348 kJ/mol
# GULP energy per Si atom -5582.816552 kJ/mol
# Density = 1.839811 g / cm^3
# Si number density = 18.440081 Si / 1000 Ang^3
#
#
#
# Elastic Constant Matrix: (Units=GPa)
#
#
# Indices 1 2 3 4 5 6 
#
# 1 163.2545 90.3543 36.7497 0.0000 0.0000 0.0000
# 2 90.3543 201.7302 41.5928 0.0000 0.0000 0.0000
# 3 36.7497 41.5928 34.8496 0.0000 0.0000 0.0000
# 4 0.0000 0.0000 0.0000 34.5535 0.0000 0.0000
# 5 0.0000 0.0000 0.0000 0.0000 38.9857 0.0000
# 6 0.0000 0.0000 0.0000 0.0000 0.0000 27.5579
#
#
#
# Elastic Compliance Matrix: (Units=1/GPa)
#
#
# Indices 1 2 3 4 5 6 
#
# 1 0.009067 -0.002772 -0.006253 0.000000 0.000000 0.000000
# 2 -0.002772 0.007422 -0.005936 0.000000 0.000000 0.000000
# 3 -0.006253 -0.005936 0.042373 0.000000 0.000000 0.000000
# 4 0.000000 0.000000 0.000000 0.028941 0.000000 0.000000
# 5 0.000000 0.000000 0.000000 0.000000 0.025650 0.000000
# 6 0.000000 0.000000 0.000000 0.000000 0.000000 0.036287
#
#
# Mechanical properties :
#
#
# Convention : Reuss Voigt Hill
#
# Bulk Modulus (GPa) = 34.55289 81.91422 58.23356
# Shear Modulus (GPa) = 26.41169 35.62857 31.02013
#
# Velocity S-wave (km/s) = 3.78868 4.40036 4.10593
# Velocity P-wave (km/s) = 6.15771 8.38665 7.35708
#
# Compressibility (1/GPa) = 0.02894114
#
# Stress axis : x y z
#
# Youngs Moduli (GPa) = 110.28799 134.72663 23.59975
#
# Poissons Ratio (x) = 0.37344 0.14758
# Poissons Ratio (y) = 0.30570 0.14008
# Poissons Ratio (z) = 0.68967 0.79970
#
# Static dielectric constant tensor:
#      x y z
#    x 1.630390 0.000000 0.000000 
#    y 0.000000 1.604020 0.000000 
#    z 0.000000 0.000000 1.623550 
# 
# From -- ./inp_files/9423.got.cif
#   From: 2010.05.17/outbox.cif.g08.bks.cpg/sg57_5_cif.got.tgz:9423.got - 2010.06.03 13:58:18.
