data_PCOD9437975
_publ_section_title
;
Structure prediction by ZEFSAII (Michael W. Deem and Ramdas Pophale) SiO2 
 PCOD9437975
Probable space group: P B C M
;
_chemical_formula_sum "Si O2"
_cell_formula_units_Z 48
_cell_length_a 17.886551
_cell_length_b 16.223825
_cell_length_c 8.683559
_cell_angle_alpha 90.000000
_cell_angle_beta 90.000000
_cell_angle_gamma 90.000000
_cell_volume 2519.866992
_symmetry_space_group_name_H-M "P B C M"
_symmetry_group_IT_number 57
_symmetry_cell_setting 'orthorhombic'
loop_
_space_group_symop_operation_xyz
x,y,z
-x,-y,1/2+z
x,1/2-y,-z
-x,1/2+y,1/2-z
-x,-y,-z
x,y,1/2-z
-x,1/2+y,z
x,1/2-y,1/2+z
loop_
_atom_site_type_symbol
_atom_site_label
_atom_site_fract_x
_atom_site_fract_y
_atom_site_fract_z
Si Si1 0.083700 0.002402 0.064150
Si Si2 0.498473 0.410003 0.567217
Si Si3 0.654999 0.840840 0.066286
Si Si4 0.182281 0.843918 0.064390
Si Si5 0.822144 0.844350 0.064634
Si Si6 0.347963 0.659284 0.565958
O O1 0.084069 0.004896 0.250000
O O2 0.125641 0.916783 0.016988
O O3 0.123490 0.085685 0.002357
O O4 0.000000 0.000000 0.000000
O O5 0.500000 0.500000 0.500000
O O6 0.498756 0.406776 0.750000
O O7 0.420210 0.374787 0.507541
O O8 0.575453 0.371926 0.506389
O O9 0.646226 0.841912 0.250000
O O10 0.737236 0.875873 0.029213
O O11 0.660610 0.750000 0.000000
O O12 0.178992 0.835821 0.250000
O O13 0.266324 0.876994 0.025720
O O14 0.170502 0.750000 0.000000
O O15 0.829561 0.839385 0.250000
O O16 0.832181 0.750000 0.000000
O O17 0.340349 0.750000 0.500000
O O18 0.355847 0.657208 0.750000
#
# Coordination Sequence:
#
# PCOD9437975 Si02
#       6
#     8   8   8   8   8   8
#     4  11  24  42  64  94 128 164 205 254 312 374
#     4  12  25  38  54  82 118 158 201 250 299 353
#     4  10  21  39  61  87 117 156 202 248 301 359
#     4   9  21  40  64  92 122 160 204 251 306 364
#     4  10  22  41  66  95 125 163 208 256 311 372
#     4  10  20  38  60  85 115 154 198 246 299 356
#
# _framework density 19.048625999999999
#
# number of rings (size 3 to 8) (size 9 to 14) (size 15 to 20)
#    0.000    1.667    0.000    4.000    2.333    4.667 
#    0.000    1.667    0.000    0.000    0.000    0.000 
#    0.000    0.000    0.000    0.000    0.000    0.000 
#
# Total GULP energy -267562.743458 kJ/mol
# GULP energy per Si atom -5574.223822 kJ/mol
# Density = 1.900527 g / cm^3
# Si number density = 19.048626 Si / 1000 Ang^3
#
#
#
# Elastic Constant Matrix: (Units=GPa)
#
#
# Indices 1 2 3 4 5 6 
#
# 1 211.4308 95.5582 80.3576 0.0000 0.0000 0.0000
# 2 95.5582 97.2084 40.8156 0.0000 0.0000 0.0000
# 3 80.3576 40.8156 91.6309 0.0000 0.0000 0.0000
# 4 0.0000 0.0000 0.0000 33.7821 0.0000 0.0000
# 5 0.0000 0.0000 0.0000 0.0000 11.3315 0.0000
# 6 0.0000 0.0000 0.0000 0.0000 0.0000 47.1305
#
#
#
# Elastic Compliance Matrix: (Units=1/GPa)
#
#
# Indices 1 2 3 4 5 6 
#
# 1 0.010442 -0.007897 -0.005640 0.000000 0.000000 0.000000
# 2 -0.007897 0.018626 -0.001371 0.000000 0.000000 0.000000
# 3 -0.005640 -0.001371 0.016470 0.000000 0.000000 0.000000
# 4 0.000000 0.000000 0.000000 0.029601 0.000000 0.000000
# 5 0.000000 0.000000 0.000000 0.000000 0.088250 0.000000
# 6 0.000000 0.000000 0.000000 0.000000 0.000000 0.021218
#
#
# Mechanical properties :
#
#
# Convention : Reuss Voigt Hill
#
# Bulk Modulus (GPa) = 63.60498 92.63700 78.12099
# Shear Modulus (GPa) = 22.76197 30.68473 26.72335
#
# Velocity S-wave (km/s) = 3.46054 4.01791 3.74960
# Velocity P-wave (km/s) = 7.03068 8.38226 7.73604
#
# Compressibility (1/GPa) = 0.01572204
#
# Stress axis : x y z
#
# Youngs Moduli (GPa) = 95.76343 53.68889 60.71540
#
# Poissons Ratio (x) = 0.42398 0.34244
# Poissons Ratio (y) = 0.75624 0.08325
# Poissons Ratio (z) = 0.54011 0.07362
#
# Static dielectric constant tensor:
#      x y z
#    x 1.252380 0.000000 0.000000 
#    y 0.000000 1.640350 0.000000 
#    z 0.000000 0.000000 1.638990 
# 
# From -- ./inp_files/6570.got.cif
#   From: 2010.05.17/outbox.cif.g08.bks.cpg/sg57_4_cif.got.tgz:6570.got - 2010.06.03 13:58:18.
