data_PCOD9437265
_publ_section_title
;
Structure prediction by ZEFSAII (Michael W. Deem and Ramdas Pophale) SiO2 
 PCOD9437265
Probable space group: P B C M
;
_chemical_formula_sum "Si O2"
_cell_formula_units_Z 64
_cell_length_a 24.575268
_cell_length_b 15.945639
_cell_length_c 8.327194
_cell_angle_alpha 90.000000
_cell_angle_beta 90.000000
_cell_angle_gamma 90.000000
_cell_volume 3263.163788
_symmetry_space_group_name_H-M "P B C M"
_symmetry_group_IT_number 57
_symmetry_cell_setting 'orthorhombic'
loop_
_space_group_symop_operation_xyz
x,y,z
-x,-y,1/2+z
x,1/2-y,-z
-x,1/2+y,1/2-z
-x,-y,-z
x,y,1/2-z
-x,1/2+y,z
x,1/2-y,1/2+z
loop_
_atom_site_type_symbol
_atom_site_label
_atom_site_fract_x
_atom_site_fract_y
_atom_site_fract_z
Si Si1 0.383555 0.158722 0.941799
Si Si2 0.687647 0.999498 0.446432
Si Si3 0.812649 0.999126 0.444161
Si Si4 0.000342 0.096178 0.444135
Si Si5 0.883077 0.341357 0.556239
Si Si6 0.117578 0.341447 0.942039
Si Si7 0.383105 0.841306 0.556342
Si Si8 0.499474 0.096105 0.442559
O O1 0.382809 0.157634 0.750000
O O2 0.345114 0.083020 0.999931
O O3 0.365825 0.250000 0.000000
O O4 0.445086 0.140506 0.996851
O O5 0.687265 0.999170 0.250000
O O6 0.655568 0.082883 0.498094
O O7 0.750156 0.999251 0.498824
O O8 0.812717 0.000192 0.250000
O O9 0.844186 0.916240 0.498539
O O10 0.845022 0.082093 0.499075
O O11 0.000227 0.097036 0.250000
O O12 0.055871 0.139878 0.500703
O O13 0.944915 0.140560 0.499915
O O14 0.000000 0.000000 0.500000
O O15 0.865008 0.250000 0.500000
O O16 0.883209 0.342299 0.750000
O O17 0.117027 0.342370 0.750000
O O18 0.135225 0.250000 0.000000
O O19 0.365273 0.750000 0.500000
O O20 0.383411 0.842449 0.750000
O O21 0.444853 0.859998 0.500722
O O22 0.499339 0.096983 0.250000
O O23 0.500000 0.000000 0.500000
#
# Coordination Sequence:
#
# PCOD9437265 Si02
#       8
#     8   8   8   8   8   8   8   8
#     4  11  22  39  60  86 118 152 193 239 290 349
#     4   9  20  40  61  81 113 155 194 239 291 338
#     4  10  21  40  63  83 112 154 198 243 290 339
#     4  10  20  35  57  86 116 150 187 231 286 343
#     4  10  21  36  57  86 116 150 190 231 284 342
#     4  11  23  38  59  87 119 152 190 237 290 347
#     4  10  21  38  58  85 117 151 188 230 283 342
#     4  11  21  36  60  88 119 154 190 233 290 348
#
# _framework density 19.612867000000001
#
# number of rings (size 3 to 8) (size 9 to 14) (size 15 to 20)
#    0.000    1.750    2.500    1.875    0.000    4.500 
#    0.000    3.125    0.000    0.000    0.000    0.000 
#    0.000    0.000    0.000    0.000    0.000    0.000 
#
# Total GULP energy -357626.278854 kJ/mol
# GULP energy per Si atom -5587.910607 kJ/mol
# Density = 1.956823 g / cm^3
# Si number density = 19.612867 Si / 1000 Ang^3
#
#
#
# Elastic Constant Matrix: (Units=GPa)
#
#
# Indices 1 2 3 4 5 6 
#
# 1 168.5223 98.4472 21.4833 0.0000 0.0000 0.0000
# 2 98.4472 206.1973 16.8994 0.0000 0.0000 0.0000
# 3 21.4833 16.8994 15.9903 0.0000 0.0000 0.0000
# 4 0.0000 0.0000 0.0000 36.1289 0.0000 0.0000
# 5 0.0000 0.0000 0.0000 0.0000 16.4640 0.0000
# 6 0.0000 0.0000 0.0000 0.0000 0.0000 -0.0663
#
#
#
# Elastic Compliance Matrix: (Units=1/GPa)
#
#
# Indices 1 2 3 4 5 6 
#
# 1 0.009158 -0.003683 -0.008411 0.000000 0.000000 0.000000
# 2 -0.003683 0.006791 -0.002229 0.000000 0.000000 0.000000
# 3 -0.008411 -0.002229 0.076194 0.000000 0.000000 0.000000
# 4 0.000000 0.000000 0.000000 0.027679 0.000000 0.000000
# 5 0.000000 0.000000 0.000000 0.000000 0.060739 0.000000
# 6 0.000000 0.000000 0.000000 0.000000 0.000000-15.076636
#
#
# Mechanical properties :
#
#
# Convention : Reuss Voigt Hill
#
# Bulk Modulus (GPa) = 15.74885 73.81885 44.78385
# Shear Modulus (GPa) = -0.33679 27.43066 13.54694
#
# Velocity S-wave (km/s) = -0.41484 3.74385 2.63100
# Velocity P-wave (km/s) = 2.79604 7.51054 5.66684
#
# Compressibility (1/GPa) = 0.06349668
#
# Stress axis : x y z
#
# Youngs Moduli (GPa) = 109.19809 147.25896 13.12438
#
# Poissons Ratio (x) = 0.54234 0.11039
# Poissons Ratio (y) = 0.40216 0.02925
# Poissons Ratio (z) = 0.91849 0.32821
#
# Static dielectric constant tensor:
#      x y z
#    x 1.680190 0.000000 0.000000 
#    y 0.000000 1.668520 0.000000 
#    z 0.000000 0.000000 1.675010 
# 
# From -- ./inp_files/9485.got.cif
#   From: 2010.05.17/outbox.cif.g08.bks.cpg/sg57_5_cif.got.tgz:9485.got - 2010.06.03 13:58:18.
