data_PCOD9437769
_publ_section_title
;
Structure prediction by ZEFSAII (Michael W. Deem and Ramdas Pophale) SiO2 
 PCOD9437769
Probable space group: P B C M
;
_chemical_formula_sum "Si O2"
_cell_formula_units_Z 32
_cell_length_a 9.900979
_cell_length_b 17.205351
_cell_length_c 9.783012
_cell_angle_alpha 90.000000
_cell_angle_beta 90.000000
_cell_angle_gamma 90.000000
_cell_volume 1666.534323
_symmetry_space_group_name_H-M "P B C M"
_symmetry_group_IT_number 57
_symmetry_cell_setting 'orthorhombic'
loop_
_space_group_symop_operation_xyz
x,y,z
-x,-y,1/2+z
x,1/2-y,-z
-x,1/2+y,1/2-z
-x,-y,-z
x,y,1/2-z
-x,1/2+y,z
x,1/2-y,1/2+z
loop_
_atom_site_type_symbol
_atom_site_label
_atom_site_fract_x
_atom_site_fract_y
_atom_site_fract_z
Si Si1 0.729538 0.651768 0.750000
Si Si2 0.037777 0.651523 0.750000
Si Si3 0.434068 0.508442 0.250000
Si Si4 0.382268 0.250000 0.500000
Si Si5 0.620297 0.359027 0.545874
Si Si6 0.854115 0.250000 0.000000
Si Si7 0.318255 0.582437 0.750000
O O1 0.634115 0.575964 0.750000
O O2 0.699836 0.703605 0.884718
O O3 0.884427 0.624236 0.750000
O O4 0.063440 0.703070 0.613884
O O5 0.155748 0.585896 0.750000
O O6 0.388418 0.559273 0.121068
O O7 0.596069 0.496562 0.250000
O O8 0.485291 0.310385 0.572504
O O9 0.752510 0.308718 0.579203
O O10 0.633877 0.372599 0.384430
#
# Coordination Sequence:
#
# PCOD9437769 Si02
#       7
#     4   4   4   4   8   4   4
#     4  12  25  37  60  87 126 154 197 244 300 347
#     4  10  21  39  56  84 119 159 196 234 290 363
#     4  12  22  37  61  93 119 152 191 255 296 345
#     4  11  21  40  60  92 114 154 198 256 292 342
#     4  10  20  37  65  90 114 146 207 247 294 340
#     4   9  19  38  66  84 112 160 200 242 286 354
#     4  10  20  37  59  84 114 155 188 239 292 351
#
# _framework density 19.201523000000002
#
# number of rings (size 3 to 8) (size 9 to 14) (size 15 to 20)
#    0.000    1.500    2.500    3.000    0.000    2.000 
#    0.000    5.000   11.000    0.000    0.000    0.000 
#    0.000    0.000    0.000    0.000    0.000    0.000 
#
# Total GULP energy -178587.700115 kJ/mol
# GULP energy per Si atom -5580.865629 kJ/mol
# Density = 1.915782 g / cm^3
# Si number density = 19.201523 Si / 1000 Ang^3
#
#
#
# Elastic Constant Matrix: (Units=GPa)
#
#
# Indices 1 2 3 4 5 6 
#
# 1 119.9912 31.0487 25.8499 0.0000 0.0000 0.0000
# 2 31.0487 85.2256 36.2738 0.0000 0.0000 0.0000
# 3 25.8499 36.2738 97.0445 0.0000 0.0000 0.0000
# 4 0.0000 0.0000 0.0000 104.8979 0.0000 0.0000
# 5 0.0000 0.0000 0.0000 0.0000 17.7405 0.0000
# 6 0.0000 0.0000 0.0000 0.0000 0.0000 9.9144
#
#
#
# Elastic Compliance Matrix: (Units=1/GPa)
#
#
# Indices 1 2 3 4 5 6 
#
# 1 0.009370 -0.002796 -0.001451 0.000000 0.000000 0.000000
# 2 -0.002796 0.014788 -0.004783 0.000000 0.000000 0.000000
# 3 -0.001451 -0.004783 0.012479 0.000000 0.000000 0.000000
# 4 0.000000 0.000000 0.000000 0.009533 0.000000 0.000000
# 5 0.000000 0.000000 0.000000 0.000000 0.056368 0.000000
# 6 0.000000 0.000000 0.000000 0.000000 0.000000 0.100864
#
#
# Mechanical properties :
#
#
# Convention : Reuss Voigt Hill
#
# Bulk Modulus (GPa) = 53.82880 54.28958 54.05919
# Shear Modulus (GPa) = 21.96324 40.44982 31.20653
#
# Velocity S-wave (km/s) = 3.38572 4.59474 4.03576
# Velocity P-wave (km/s) = 6.58624 7.51557 7.06620
#
# Compressibility (1/GPa) = 0.01857742
#
# Stress axis : x y z
#
# Youngs Moduli (GPa) = 106.72357 67.62320 80.13674
#
# Poissons Ratio (x) = 0.18908 0.11626
# Poissons Ratio (y) = 0.29841 0.38327
# Poissons Ratio (z) = 0.15483 0.32342
#
# Static dielectric constant tensor:
#      x y z
#    x 1.670950 0.000000 0.000000 
#    y 0.000000 1.660780 0.000000 
#    z 0.000000 0.000000 1.684930 
# 
# From -- ./inp_files/11387.got.cif
#   From: 2010.05.17/outbox.cif.g08.bks.cpg/sg57_6_cif.got.tgz:11387.got - 2010.06.03 13:58:18.
