data_PCOD9437406
_publ_section_title
;
Structure prediction by ZEFSAII (Michael W. Deem and Ramdas Pophale) SiO2 
 PCOD9437406
Probable space group: P B C M
;
_chemical_formula_sum "Si O2"
_cell_formula_units_Z 64
_cell_length_a 12.418137
_cell_length_b 18.266360
_cell_length_c 14.798711
_cell_angle_alpha 90.000000
_cell_angle_beta 90.000000
_cell_angle_gamma 90.000000
_cell_volume 3356.853193
_symmetry_space_group_name_H-M "P B C M"
_symmetry_group_IT_number 57
_symmetry_cell_setting 'orthorhombic'
loop_
_space_group_symop_operation_xyz
x,y,z
-x,-y,1/2+z
x,1/2-y,-z
-x,1/2+y,1/2-z
-x,-y,-z
x,y,1/2-z
-x,1/2+y,z
x,1/2-y,1/2+z
loop_
_atom_site_type_symbol
_atom_site_label
_atom_site_fract_x
_atom_site_fract_y
_atom_site_fract_z
Si Si1 0.760559 0.421811 0.642276
Si Si2 0.638093 0.888138 0.853374
Si Si3 0.915618 0.543839 0.936633
Si Si4 0.896126 0.132355 0.643665
Si Si5 0.928230 0.204455 0.140707
Si Si6 0.159381 0.325269 0.944799
Si Si7 0.452516 0.919630 0.520532
Si Si8 0.325379 0.563570 0.855262
O O1 0.740153 0.422034 0.750000
O O2 0.836943 0.489266 0.614866
O O3 0.831408 0.350285 0.618388
O O4 0.650251 0.424826 0.586544
O O5 0.602623 0.875140 0.750000
O O6 0.743256 0.841010 0.876532
O O7 0.544710 0.875275 0.927155
O O8 0.665850 0.975280 0.860068
O O9 0.994197 0.589655 0.872311
O O10 0.847204 0.603494 0.991470
O O11 0.000000 0.500000 0.000000
O O12 0.879351 0.140296 0.750000
O O13 0.905138 0.213860 0.605371
O O14 0.793067 0.087085 0.611154
O O15 0.936677 0.205704 0.250000
O O16 0.042772 0.178784 0.102638
O O17 0.175011 0.250000 0.000000
O O18 0.408995 0.896958 0.422071
O O19 0.500000 0.000000 0.500000
O O20 0.341273 0.583141 0.750000
#
# Coordination Sequence:
#
# PCOD9437406 Si02
#       8
#     8   8   8   8   8   8   8   8
#     4  11  23  38  61  93 121 158 206 259 312 364
#     4  10  21  39  62  85 115 161 208 255 299 359
#     4  12  21  34  56  86 123 157 197 241 296 369
#     4  10  20  36  55  84 124 159 189 234 300 370
#     4  10  22  39  58  85 123 158 194 245 304 368
#     4  12  23  38  57  84 121 161 204 243 305 367
#     4  10  20  39  62  87 120 154 205 260 311 357
#     4   9  19  35  62  92 119 154 199 248 305 365
#
# _framework density 19.065474999999999
#
# number of rings (size 3 to 8) (size 9 to 14) (size 15 to 20)
#    0.000    1.500    2.500    4.125    0.000    0.500 
#    0.000    1.250    0.000    3.000    0.000    0.000 
#    0.000    0.000    0.000    0.000    0.000    0.000 
#
# Total GULP energy -357296.771485 kJ/mol
# GULP energy per Si atom -5582.762054 kJ/mol
# Density = 1.902208 g / cm^3
# Si number density = 19.065475 Si / 1000 Ang^3
#
#
#
# Elastic Constant Matrix: (Units=GPa)
#
#
# Indices 1 2 3 4 5 6 
#
# 1 102.2006 24.5731 45.9109 0.0000 0.0000 0.0000
# 2 24.5731 69.6578 19.4892 0.0000 0.0000 0.0000
# 3 45.9109 19.4892 83.4871 0.0000 0.0000 0.0000
# 4 0.0000 0.0000 0.0000 25.3984 0.0000 0.0000
# 5 0.0000 0.0000 0.0000 0.0000 40.5624 0.0000
# 6 0.0000 0.0000 0.0000 0.0000 0.0000 10.6578
#
#
#
# Elastic Compliance Matrix: (Units=1/GPa)
#
#
# Indices 1 2 3 4 5 6 
#
# 1 0.013513 -0.002876 -0.006760 0.000000 0.000000 0.000000
# 2 -0.002876 0.015971 -0.002147 0.000000 0.000000 0.000000
# 3 -0.006760 -0.002147 0.016196 0.000000 0.000000 0.000000
# 4 0.000000 0.000000 0.000000 0.039373 0.000000 0.000000
# 5 0.000000 0.000000 0.000000 0.000000 0.024653 0.000000
# 6 0.000000 0.000000 0.000000 0.000000 0.000000 0.093828
#
#
# Mechanical properties :
#
#
# Convention : Reuss Voigt Hill
#
# Bulk Modulus (GPa) = 45.21665 48.36576 46.79121
# Shear Modulus (GPa) = 21.32469 26.34852 23.83660
#
# Velocity S-wave (km/s) = 3.34802 3.72156 3.53972
# Velocity P-wave (km/s) = 6.22203 6.62495 6.42665
#
# Compressibility (1/GPa) = 0.02211575
#
# Stress axis : x y z
#
# Youngs Moduli (GPa) = 74.00477 62.61345 61.74266
#
# Poissons Ratio (x) = 0.18005 0.41735
# Poissons Ratio (y) = 0.21281 0.13256
# Poissons Ratio (z) = 0.50024 0.13443
#
# Static dielectric constant tensor:
#      x y z
#    x 1.719410 0.000000 0.000000 
#    y 0.000000 1.655790 0.000000 
#    z 0.000000 0.000000 1.753210 
# 
# From -- ./inp_files/18008.got.cif
#   From: 2010.05.17/outbox.cif.g08.bks.cpg/sg57_10_cif.got.tgz:18008.got - 2010.06.03 13:58:18.
