data_PCOD9437895
_publ_section_title
;
Structure prediction by ZEFSAII (Michael W. Deem and Ramdas Pophale) SiO2 
 PCOD9437895
Probable space group: P B C M
;
_chemical_formula_sum "Si O2"
_cell_formula_units_Z 48
_cell_length_a 10.015192
_cell_length_b 18.479520
_cell_length_c 14.151229
_cell_angle_alpha 90.000000
_cell_angle_beta 90.000000
_cell_angle_gamma 90.000000
_cell_volume 2619.052022
_symmetry_space_group_name_H-M "P B C M"
_symmetry_group_IT_number 57
_symmetry_cell_setting 'orthorhombic'
loop_
_space_group_symop_operation_xyz
x,y,z
-x,-y,1/2+z
x,1/2-y,-z
-x,1/2+y,1/2-z
-x,-y,-z
x,y,1/2-z
-x,1/2+y,z
x,1/2-y,1/2+z
loop_
_atom_site_type_symbol
_atom_site_label
_atom_site_fract_x
_atom_site_fract_y
_atom_site_fract_z
Si Si1 0.296627 0.417023 0.361162
Si Si2 0.979234 0.916654 0.472148
Si Si3 0.085247 0.668341 0.358163
Si Si4 0.478881 0.668769 0.968993
Si Si5 0.368616 0.584894 0.142476
Si Si6 0.804626 0.328930 0.137802
O O1 0.274611 0.404429 0.250000
O O2 0.159157 0.408252 0.417440
O O3 0.408536 0.364631 0.402737
O O4 0.346971 0.499750 0.372308
O O5 0.987992 0.866746 0.565469
O O6 0.100024 0.889717 0.405788
O O7 0.000000 0.000000 0.500000
O O8 0.036743 0.663102 0.250000
O O9 0.223897 0.623490 0.364355
O O10 0.124010 0.751321 0.378422
O O11 0.337256 0.670318 0.914335
O O12 0.511087 0.750000 0.000000
O O13 0.459711 0.619869 0.062362
O O14 0.417473 0.596994 0.250000
O O15 0.786716 0.337505 0.250000
#
# Coordination Sequence:
#
# PCOD9437895 Si02
#       6
#     8   8   8   8   8   8
#     4  11  25  41  60  89 130 165 198 252 322 375
#     4  12  22  39  61  90 121 163 205 255 311 372
#     4  10  20  37  63  89 114 154 209 261 301 352
#     4  12  22  39  62  95 125 165 205 257 309 372
#     4  10  20  39  63  87 119 162 206 251 303 361
#     4  11  22  38  64  92 120 159 217 261 297 361
#
# _framework density 18.327241999999998
#
# number of rings (size 3 to 8) (size 9 to 14) (size 15 to 20)
#    0.000    1.000    5.000    2.000    0.000    2.667 
#    0.000    0.833    0.000    0.000    0.000    0.000 
#    0.000    0.000    0.000    0.000    0.000    0.000 
#
# Total GULP energy -268348.925594 kJ/mol
# GULP energy per Si atom -5590.602617 kJ/mol
# Density = 1.828553 g / cm^3
# Si number density = 18.327242 Si / 1000 Ang^3
#
#
#
# Elastic Constant Matrix: (Units=GPa)
#
#
# Indices 1 2 3 4 5 6 
#
# 1 84.0124 66.4798 70.7483 0.0000 0.0000 0.0000
# 2 66.4798 123.0611 66.9904 0.0000 0.0000 0.0000
# 3 70.7483 66.9904 146.9148 0.0000 0.0000 0.0000
# 4 0.0000 0.0000 0.0000 31.2989 0.0000 0.0000
# 5 0.0000 0.0000 0.0000 0.0000 29.7228 0.0000
# 6 0.0000 0.0000 0.0000 0.0000 0.0000 19.7710
#
#
#
# Elastic Compliance Matrix: (Units=1/GPa)
#
#
# Indices 1 2 3 4 5 6 
#
# 1 0.026820 -0.009920 -0.008392 0.000000 0.000000 0.000000
# 2 -0.009920 0.014479 -0.001825 0.000000 0.000000 0.000000
# 3 -0.008392 -0.001825 0.011680 0.000000 0.000000 0.000000
# 4 0.000000 0.000000 0.000000 0.031950 0.000000 0.000000
# 5 0.000000 0.000000 0.000000 0.000000 0.033644 0.000000
# 6 0.000000 0.000000 0.000000 0.000000 0.000000 0.050579
#
#
# Mechanical properties :
#
#
# Convention : Reuss Voigt Hill
#
# Bulk Modulus (GPa) = 78.71246 84.71395 81.71320
# Shear Modulus (GPa) = 23.40158 26.14320 24.77239
#
# Velocity S-wave (km/s) = 3.57721 3.78096 3.68050
# Velocity P-wave (km/s) = 7.75265 8.08605 7.92110
#
# Compressibility (1/GPa) = 0.01270447
#
# Stress axis : x y z
#
# Youngs Moduli (GPa) = 37.28539 69.06789 85.61688
#
# Poissons Ratio (x) = 0.68518 0.71850
# Poissons Ratio (y) = 0.36989 0.15622
# Poissons Ratio (z) = 0.31290 0.12603
#
# Static dielectric constant tensor:
#      x y z
#    x 1.589540 0.000000 0.000000 
#    y 0.000000 1.621840 0.000000 
#    z 0.000000 0.000000 1.643630 
# 
# From -- ./inp_files/16293.got.cif
#   From: 2010.05.17/outbox.cif.g08.bks.cpg/sg57_9_cif.got.tgz:16293.got - 2010.06.03 13:58:18.
