data_PCOD9437727
_publ_section_title
;
Structure prediction by ZEFSAII (Michael W. Deem and Ramdas Pophale) SiO2 
 PCOD9437727
Probable space group: P B C M
;
_chemical_formula_sum "Si O2"
_cell_formula_units_Z 40
_cell_length_a 5.229205
_cell_length_b 27.380228
_cell_length_c 14.199214
_cell_angle_alpha 90.000000
_cell_angle_beta 90.000000
_cell_angle_gamma 90.000000
_cell_volume 2032.998380
_symmetry_space_group_name_H-M "P B C M"
_symmetry_group_IT_number 57
_symmetry_cell_setting 'orthorhombic'
loop_
_space_group_symop_operation_xyz
x,y,z
-x,-y,1/2+z
x,1/2-y,-z
-x,1/2+y,1/2-z
-x,-y,-z
x,y,1/2-z
-x,1/2+y,z
x,1/2-y,1/2+z
loop_
_atom_site_type_symbol
_atom_site_label
_atom_site_fract_x
_atom_site_fract_y
_atom_site_fract_z
Si Si1 0.939995 0.227654 0.135962
Si Si2 0.029476 0.057669 0.500446
Si Si3 0.790341 0.628379 0.139423
Si Si4 0.558243 0.785087 0.363773
Si Si5 0.478003 0.613880 0.532443
O O1 0.937312 0.226357 0.250000
O O2 0.037116 0.174257 0.107084
O O3 0.162120 0.265744 0.107820
O O4 0.662050 0.246585 0.107478
O O5 0.070565 0.079100 0.394750
O O6 0.283131 0.077643 0.552524
O O7 0.783210 0.084804 0.541523
O O8 0.000000 0.000000 0.500000
O O9 0.742689 0.631239 0.250000
O O10 0.534715 0.628955 0.076452
O O11 0.554895 0.787946 0.250000
O O12 0.495214 0.837504 0.406589
#
# Coordination Sequence:
#
# PCOD9437727 Si02
#       5
#     8   8   8   8   8
#     4   9  19  34  56  83 121 158 191 232 284 348
#     4  10  22  41  61  82 118 150 195 260 303 344
#     4   9  22  39  60  89 119 156 197 246 298 353
#     4  10  20  37  57  85 124 158 190 234 286 348
#     4  10  22  38  61  88 114 156 195 246 288 363
#
# _framework density 19.675371999999999
#
# number of rings (size 3 to 8) (size 9 to 14) (size 15 to 20)
#    1.200    1.200    0.000    1.800    2.800    1.600 
#    0.000    2.000    0.000    0.000    0.000    0.000 
#    0.000    0.000    0.000    0.000    0.000    0.000 
#
# Total GULP energy -223127.332471 kJ/mol
# GULP energy per Si atom -5578.183312 kJ/mol
# Density = 1.963059 g / cm^3
# Si number density = 19.675372 Si / 1000 Ang^3
#
#
#
# Elastic Constant Matrix: (Units=GPa)
#
#
# Indices 1 2 3 4 5 6 
#
# 1 78.7444 -10.7246 -1.5644 0.0000 0.0000 0.0000
# 2 -10.7246 95.2519 20.5709 0.0000 0.0000 0.0000
# 3 -1.5644 20.5709 65.2754 0.0000 0.0000 0.0000
# 4 0.0000 0.0000 0.0000 25.6580 0.0000 0.0000
# 5 0.0000 0.0000 0.0000 0.0000 5.3436 0.0000
# 6 0.0000 0.0000 0.0000 0.0000 0.0000 -4.3192
#
#
#
# Elastic Compliance Matrix: (Units=1/GPa)
#
#
# Indices 1 2 3 4 5 6 
#
# 1 0.012899 0.001487 -0.000159 0.000000 0.000000 0.000000
# 2 0.001487 0.011437 -0.003568 0.000000 0.000000 0.000000
# 3 -0.000159 -0.003568 0.016440 0.000000 0.000000 0.000000
# 4 0.000000 0.000000 0.000000 0.038974 0.000000 0.000000
# 5 0.000000 0.000000 0.000000 0.000000 0.187139 0.000000
# 6 0.000000 0.000000 0.000000 0.000000 0.000000 -0.231526
#
#
# Mechanical properties :
#
#
# Convention : Reuss Voigt Hill
#
# Bulk Modulus (GPa) = 27.55329 28.42615 27.98972
# Shear Modulus (GPa) = 96.25992 20.73581 58.49786
#
# Velocity S-wave (km/s) = 7.00216 3.24990 5.45858
# Velocity P-wave (km/s) = 8.91112 5.34429 7.34743
#
# Compressibility (1/GPa) = 0.03629331
#
# Stress axis : x y z
#
# Youngs Moduli (GPa) = 77.52759 87.43907 60.82553
#
# Poissons Ratio (x) = -0.13000 0.00970
# Poissons Ratio (y) = -0.11526 0.21705
# Poissons Ratio (z) = 0.01236 0.31202
#
# Static dielectric constant tensor:
#      x y z
#    x 1.716000 0.000000 0.000000 
#    y 0.000000 1.655710 0.000000 
#    z 0.000000 0.000000 1.704260 
# 
# From -- ./inp_files/20113.got.cif
#   From: 2010.05.17/outbox.cif.g08.bks.cpg/sg57_11_cif.got.tgz:20113.got - 2010.06.03 13:58:18.
