data_PCOD9437343
_publ_section_title
;
Structure prediction by ZEFSAII (Michael W. Deem and Ramdas Pophale) SiO2 
 PCOD9437343
Probable space group: P B C M
;
_chemical_formula_sum "Si O2"
_cell_formula_units_Z 48
_cell_length_a 9.244070
_cell_length_b 18.491454
_cell_length_c 15.664517
_cell_angle_alpha 90.000000
_cell_angle_beta 90.000000
_cell_angle_gamma 90.000000
_cell_volume 2677.634502
_symmetry_space_group_name_H-M "P B C M"
_symmetry_group_IT_number 57
_symmetry_cell_setting 'orthorhombic'
loop_
_space_group_symop_operation_xyz
x,y,z
-x,-y,1/2+z
x,1/2-y,-z
-x,1/2+y,1/2-z
-x,-y,-z
x,y,1/2-z
-x,1/2+y,z
x,1/2-y,1/2+z
loop_
_atom_site_type_symbol
_atom_site_label
_atom_site_fract_x
_atom_site_fract_y
_atom_site_fract_z
Si Si1 0.779339 0.145644 0.155415
Si Si2 0.707551 0.565083 0.998079
Si Si3 0.845359 0.205729 0.913072
Si Si4 0.940227 0.915627 0.150235
Si Si5 0.084400 0.429918 0.849321
Si Si6 0.614764 0.398998 0.492810
O O1 0.744873 0.119834 0.250000
O O2 0.800899 0.231430 0.151468
O O3 0.933413 0.110359 0.130756
O O4 0.659016 0.122777 0.088610
O O5 0.796824 0.591082 0.080935
O O6 0.665259 0.481788 0.017315
O O7 0.809506 0.570384 0.915182
O O8 0.556707 0.605506 0.981738
O O9 0.709963 0.153900 0.934432
O O10 0.973800 0.155608 0.879299
O O11 0.882678 0.250000 0.000000
O O12 0.897000 0.910857 0.250000
O O13 0.046515 0.984985 0.142775
O O14 0.122318 0.414967 0.750000
#
# Coordination Sequence:
#
# PCOD9437343 Si02
#       6
#     8   8   8   8   8   8
#     4  10  20  37  58  81 112 149 192 234 280 340
#     4  11  20  36  57  83 118 147 180 242 288 336
#     4  10  20  37  58  82 111 155 193 229 279 341
#     4  11  21  36  60  88 115 146 191 242 288 332
#     4  10  20  35  60  89 113 146 192 241 287 334
#     4  10  21  34  55  82 113 150 188 224 288 343
#
# _framework density 17.926271
#
# number of rings (size 3 to 8) (size 9 to 14) (size 15 to 20)
#    0.000    1.667    3.333    3.000    0.000    0.667 
#    0.000   11.667    0.000    0.000    0.000    0.000 
#    0.000    0.000    0.000    0.000    0.000    0.000 
#
# Total GULP energy -267831.920127 kJ/mol
# GULP energy per Si atom -5579.831669 kJ/mol
# Density = 1.788547 g / cm^3
# Si number density = 17.926271 Si / 1000 Ang^3
#
#
#
# Elastic Constant Matrix: (Units=GPa)
#
#
# Indices 1 2 3 4 5 6 
#
# 1 85.2617 7.8670 52.8225 0.0000 0.0000 0.0000
# 2 7.8670 54.5093 -0.0418 0.0000 0.0000 0.0000
# 3 52.8225 -0.0418 86.8058 0.0000 0.0000 0.0000
# 4 0.0000 0.0000 0.0000 12.0337 0.0000 0.0000
# 5 0.0000 0.0000 0.0000 0.0000 9.7781 0.0000
# 6 0.0000 0.0000 0.0000 0.0000 0.0000 24.7596
#
#
#
# Elastic Compliance Matrix: (Units=1/GPa)
#
#
# Indices 1 2 3 4 5 6 
#
# 1 0.019240 -0.002786 -0.011709 0.000000 0.000000 0.000000
# 2 -0.002786 0.018749 0.001704 0.000000 0.000000 0.000000
# 3 -0.011709 0.001704 0.018646 0.000000 0.000000 0.000000
# 4 0.000000 0.000000 0.000000 0.083100 0.000000 0.000000
# 5 0.000000 0.000000 0.000000 0.000000 0.102269 0.000000
# 6 0.000000 0.000000 0.000000 0.000000 0.000000 0.040388
#
#
# Mechanical properties :
#
#
# Convention : Reuss Voigt Hill
#
# Bulk Modulus (GPa) = 32.20262 38.65248 35.42755
# Shear Modulus (GPa) = 15.70725 20.37622 18.04174
#
# Velocity S-wave (km/s) = 2.96330 3.37511 3.17589
# Velocity P-wave (km/s) = 5.45079 6.06607 5.76664
#
# Compressibility (1/GPa) = 0.03105338
#
# Stress axis : x y z
#
# Youngs Moduli (GPa) = 51.97565 53.33662 53.63112
#
# Poissons Ratio (x) = 0.14858 0.62797
# Poissons Ratio (y) = 0.14479 -0.09140
# Poissons Ratio (z) = 0.60858 -0.09090
#
# Static dielectric constant tensor:
#      x y z
#    x 1.586680 0.000000 0.000000 
#    y 0.000000 1.623580 0.000000 
#    z 0.000000 0.000000 1.626380 
# 
# From -- ./inp_files/16297.got.cif
#   From: 2010.05.17/outbox.cif.g08.bks.cpg/sg57_9_cif.got.tgz:16297.got - 2010.06.03 13:58:18.
