data_PCOD9437289
_publ_section_title
;
Structure prediction by ZEFSAII (Michael W. Deem and Ramdas Pophale) SiO2 
 PCOD9437289
Probable space group: P B C M
;
_chemical_formula_sum "Si O2"
_cell_formula_units_Z 48
_cell_length_a 5.176725
_cell_length_b 19.847355
_cell_length_c 22.516183
_cell_angle_alpha 90.000000
_cell_angle_beta 90.000000
_cell_angle_gamma 90.000000
_cell_volume 2313.409434
_symmetry_space_group_name_H-M "P B C M"
_symmetry_group_IT_number 57
_symmetry_cell_setting 'orthorhombic'
loop_
_space_group_symop_operation_xyz
x,y,z
-x,-y,1/2+z
x,1/2-y,-z
-x,1/2+y,1/2-z
-x,-y,-z
x,y,1/2-z
-x,1/2+y,z
x,1/2-y,1/2+z
loop_
_atom_site_type_symbol
_atom_site_label
_atom_site_fract_x
_atom_site_fract_y
_atom_site_fract_z
Si Si1 0.590347 0.888474 0.000614
Si Si2 0.485475 0.890630 0.183118
Si Si3 0.037900 0.295293 0.559100
Si Si4 0.810618 0.486882 0.943609
Si Si5 0.009917 0.020131 0.818023
Si Si6 0.539949 0.274051 0.090248
O O1 0.844631 0.865667 0.964041
O O2 0.388108 0.927922 0.960032
O O3 0.657012 0.941335 0.052727
O O4 0.476476 0.820799 0.030428
O O5 0.445723 0.866304 0.250000
O O6 0.774467 0.920607 0.179896
O O7 0.423758 0.829695 0.140008
O O8 0.275990 0.949856 0.174009
O O9 0.024837 0.250000 0.500000
O O10 0.266480 0.262335 0.597345
O O11 0.764552 0.281441 0.588958
O O12 0.928568 0.478481 0.878059
O O13 0.000000 0.500000 0.000000
O O14 0.028262 0.991437 0.750000
#
# Coordination Sequence:
#
# PCOD9437289 Si02
#       6
#     8   8   8   8   8   8
#     4  10  23  37  53  93 119 156 199 238 319 356
#     4  10  20  35  58  85 115 149 200 255 299 357
#     4  10  22  34  55  80 113 155 185 235 288 366
#     4  11  23  36  63  87 129 160 195 269 301 370
#     4  10  21  38  58  85 119 160 200 244 306 365
#     4  11  20  36  58  80 119 151 190 241 297 357
#
# _framework density 20.748598000000001
#
# number of rings (size 3 to 8) (size 9 to 14) (size 15 to 20)
#    0.000    1.667    1.667    3.500   11.667    0.000 
#    0.000    0.000    0.000    2.000    0.000    0.000 
#    0.000    0.000    0.000    0.000    0.000    0.000 
#
# Total GULP energy -267826.237592 kJ/mol
# GULP energy per Si atom -5579.713283 kJ/mol
# Density = 2.070137 g / cm^3
# Si number density = 20.748598 Si / 1000 Ang^3
#
#
#
# Elastic Constant Matrix: (Units=GPa)
#
#
# Indices 1 2 3 4 5 6 
#
# 1 95.3217 15.1518 3.7758 0.0000 0.0000 0.0000
# 2 15.1518 70.3147 11.6586 0.0000 0.0000 0.0000
# 3 3.7758 11.6586 104.7308 0.0000 0.0000 0.0000
# 4 0.0000 0.0000 0.0000 29.3348 0.0000 0.0000
# 5 0.0000 0.0000 0.0000 0.0000 25.8670 0.0000
# 6 0.0000 0.0000 0.0000 0.0000 0.0000 29.8607
#
#
#
# Elastic Compliance Matrix: (Units=1/GPa)
#
#
# Indices 1 2 3 4 5 6 
#
# 1 0.010865 -0.002319 -0.000134 0.000000 0.000000 0.000000
# 2 -0.002319 0.014984 -0.001584 0.000000 0.000000 0.000000
# 3 -0.000134 -0.001584 0.009729 0.000000 0.000000 0.000000
# 4 0.000000 0.000000 0.000000 0.034089 0.000000 0.000000
# 5 0.000000 0.000000 0.000000 0.000000 0.038659 0.000000
# 6 0.000000 0.000000 0.000000 0.000000 0.000000 0.033489
#
#
# Mechanical properties :
#
#
# Convention : Reuss Voigt Hill
#
# Bulk Modulus (GPa) = 36.35789 36.83775 36.59782
# Shear Modulus (GPa) = 31.43510 32.99791 32.21650
#
# Velocity S-wave (km/s) = 3.89658 3.99227 3.94472
# Velocity P-wave (km/s) = 6.14862 6.24851 6.19877
#
# Compressibility (1/GPa) = 0.02750434
#
# Stress axis : x y z
#
# Youngs Moduli (GPa) = 92.04120 66.73698 102.78042
#
# Poissons Ratio (x) = 0.15477 0.01373
# Poissons Ratio (y) = 0.21345 0.16285
# Poissons Ratio (z) = 0.01229 0.10574
#
# Static dielectric constant tensor:
#      x y z
#    x 1.806840 0.000000 0.000000 
#    y 0.000000 1.802580 0.000000 
#    z 0.000000 0.000000 1.777290 
# 
# From -- ./inp_files/23669.got.cif
#   From: 2010.05.17/outbox.cif.g08.bks.cpg/sg57_12_cif.got.tgz:23669.got - 2010.06.03 13:58:18.
