data_PCOD9437013
_publ_section_title
;
Structure prediction by ZEFSAII (Michael W. Deem and Ramdas Pophale) SiO2 
 PCOD9437013
Probable space group: P B C M
;
_chemical_formula_sum "Si O2"
_cell_formula_units_Z 40
_cell_length_a 9.115761
_cell_length_b 9.529190
_cell_length_c 18.746008
_cell_angle_alpha 90.000000
_cell_angle_beta 90.000000
_cell_angle_gamma 90.000000
_cell_volume 1628.387330
_symmetry_space_group_name_H-M "P B C M"
_symmetry_group_IT_number 57
_symmetry_cell_setting 'orthorhombic'
loop_
_space_group_symop_operation_xyz
x,y,z
-x,-y,1/2+z
x,1/2-y,-z
-x,1/2+y,1/2-z
-x,-y,-z
x,y,1/2-z
-x,1/2+y,z
x,1/2-y,1/2+z
loop_
_atom_site_type_symbol
_atom_site_label
_atom_site_fract_x
_atom_site_fract_y
_atom_site_fract_z
Si Si1 0.093891 0.387932 0.577465
Si Si2 0.673637 0.396785 0.097360
Si Si3 0.757025 0.663065 0.671191
Si Si4 0.472814 0.862219 0.668149
Si Si5 0.771224 0.469302 0.546091
O O1 0.164290 0.533359 0.610537
O O2 0.130598 0.263859 0.630424
O O3 0.180454 0.396095 0.502415
O O4 0.923800 0.389745 0.558122
O O5 0.643871 0.242734 0.128877
O O6 0.559822 0.509979 0.129368
O O7 0.662827 0.399015 0.010887
O O8 0.809312 0.628044 0.750000
O O9 0.608783 0.751787 0.674652
O O10 0.727032 0.527931 0.622533
O O11 0.430730 0.899827 0.750000
#
# Coordination Sequence:
#
# PCOD9437013 Si02
#       5
#     8   8   8   8   8
#     4   8  18  36  61  85 116 156 214 267 313 386
#     4   9  19  36  61  88 121 168 214 264 324 384
#     4  10  20  34  58  87 122 163 203 261 331 386
#     4  10  20  35  58  90 130 171 213 263 319 390
#     4   9  18  37  61  87 116 160 213 266 319 387
#
# _framework density 24.56418
#
# number of rings (size 3 to 8) (size 9 to 14) (size 15 to 20)
#    1.200    1.600    0.000    1.200    0.000    2.400 
#    0.000    2.000    4.400    0.000    0.000    0.000 
#    0.000    0.000    0.000    0.000    0.000    0.000 
#
# Total GULP energy -223085.776975 kJ/mol
# GULP energy per Si atom -5577.144424 kJ/mol
# Density = 2.450827 g / cm^3
# Si number density = 24.564180 Si / 1000 Ang^3
#
#
#
# Elastic Constant Matrix: (Units=GPa)
#
#
# Indices 1 2 3 4 5 6 
#
# 1 62.4491 31.4681 46.0860 0.0000 0.0000 0.0000
# 2 31.4681 171.7293 71.6554 0.0000 0.0000 0.0000
# 3 46.0860 71.6554 197.8433 0.0000 0.0000 0.0000
# 4 0.0000 0.0000 0.0000 27.1090 0.0000 0.0000
# 5 0.0000 0.0000 0.0000 0.0000 13.3017 0.0000
# 6 0.0000 0.0000 0.0000 0.0000 0.0000 3.7605
#
#
#
# Elastic Compliance Matrix: (Units=1/GPa)
#
#
# Indices 1 2 3 4 5 6 
#
# 1 0.019914 -0.002019 -0.003908 0.000000 0.000000 0.000000
# 2 -0.002019 0.007064 -0.002088 0.000000 0.000000 0.000000
# 3 -0.003908 -0.002088 0.006721 0.000000 0.000000 0.000000
# 4 0.000000 0.000000 0.000000 0.036888 0.000000 0.000000
# 5 0.000000 0.000000 0.000000 0.000000 0.075178 0.000000
# 6 0.000000 0.000000 0.000000 0.000000 0.000000 0.265923
#
#
# Mechanical properties :
#
#
# Convention : Reuss Voigt Hill
#
# Bulk Modulus (GPa) = 56.59242 81.16007 68.87624
# Shear Modulus (GPa) = 11.53115 27.68838 19.60977
#
# Velocity S-wave (km/s) = 2.16898 3.36100 2.82850
# Velocity P-wave (km/s) = 5.41860 6.94071 6.22635
#
# Compressibility (1/GPa) = 0.01767021
#
# Stress axis : x y z
#
# Youngs Moduli (GPa) = 50.21592 141.55472 148.78385
#
# Poissons Ratio (x) = 0.28574 0.58141
# Poissons Ratio (y) = 0.10136 0.31072
# Poissons Ratio (z) = 0.19623 0.29562
#
# Static dielectric constant tensor:
#      x y z
#    x 2.021470 0.000000 0.000000 
#    y 0.000000 2.064470 0.000000 
#    z 0.000000 0.000000 2.028220 
# 
# From -- ./inp_files/20544.got.cif
#   From: 2010.05.17/outbox.cif.g08.bks.cpg/sg57_11_cif.got.tgz:20544.got - 2010.06.03 13:58:18.
