data_PCOD9437057
_publ_section_title
;
Structure prediction by ZEFSAII (Michael W. Deem and Ramdas Pophale) SiO2 
 PCOD9437057
Probable space group: P B C M
;
_chemical_formula_sum "Si O2"
_cell_formula_units_Z 64
_cell_length_a 15.742909
_cell_length_b 24.095473
_cell_length_c 8.968973
_cell_angle_alpha 90.000000
_cell_angle_beta 90.000000
_cell_angle_gamma 90.000000
_cell_volume 3402.225989
_symmetry_space_group_name_H-M "P B C M"
_symmetry_group_IT_number 57
_symmetry_cell_setting 'orthorhombic'
loop_
_space_group_symop_operation_xyz
x,y,z
-x,-y,1/2+z
x,1/2-y,-z
-x,1/2+y,1/2-z
-x,-y,-z
x,y,1/2-z
-x,1/2+y,z
x,1/2-y,1/2+z
loop_
_atom_site_type_symbol
_atom_site_label
_atom_site_fract_x
_atom_site_fract_y
_atom_site_fract_z
Si Si1 0.875333 0.024669 0.422072
Si Si2 0.679421 0.192576 0.073460
Si Si3 0.515729 0.808254 0.929191
Si Si4 0.406980 0.499030 0.929511
Si Si5 0.835811 0.811909 0.929740
Si Si6 0.944478 0.916794 0.575676
Si Si7 0.328545 0.384693 0.930688
Si Si8 0.271035 0.912978 0.075475
O O1 0.847136 0.025229 0.250000
O O2 0.804649 0.046488 0.533275
O O3 0.956774 0.065813 0.434078
O O4 0.900154 0.962646 0.471887
O O5 0.680510 0.197500 0.250000
O O6 0.581514 0.180882 0.025073
O O7 0.705284 0.250000 0.000000
O O8 0.736163 0.142526 0.018425
O O9 0.517065 0.804094 0.750000
O O10 0.584546 0.853510 0.973105
O O11 0.541327 0.750000 0.000000
O O12 0.415495 0.494400 0.750000
O O13 0.346094 0.447898 0.979467
O O14 0.357670 0.555350 0.964807
O O15 0.500000 0.500000 0.000000
O O16 0.831036 0.804866 0.750000
O O17 0.914635 0.854183 0.961668
O O18 0.752629 0.848127 0.979419
O O19 0.839501 0.750000 0.000000
O O20 0.919005 0.925633 0.750000
O O21 0.321991 0.386015 0.750000
O O22 0.271922 0.900480 0.250000
#
# Coordination Sequence:
#
# PCOD9437057 Si02
#       8
#     8   8   8   8   8   8   8   8
#     4  10  20  35  59  86 109 139 182 230 276 329
#     4  10  20  35  54  75 102 136 176 222 268 316
#     4   9  17  29  47  69  95 130 172 215 256 300
#     4  10  21  36  54  77 108 146 186 228 277 328
#     4  10  20  35  55  79 111 148 184 224 273 332
#     4   9  19  37  58  81 111 144 178 223 281 336
#     4   9  17  31  50  72 102 141 178 215 264 318
#     4  11  22  36  55  80 110 143 178 218 270 328
#
# _framework density 18.811214
#
# number of rings (size 3 to 8) (size 9 to 14) (size 15 to 20)
#    0.000    2.250    0.000    3.000    0.000    5.500 
#    0.000    1.875    0.000    1.500    0.000    0.000 
#    0.000    0.000    0.000    0.000    0.000    0.000 
#
# Total GULP energy -356884.083141 kJ/mol
# GULP energy per Si atom -5576.313799 kJ/mol
# Density = 1.876840 g / cm^3
# Si number density = 18.811214 Si / 1000 Ang^3
#
#
#
# Elastic Constant Matrix: (Units=GPa)
#
#
# Indices 1 2 3 4 5 6 
#
# 1 29.1506 24.9626 7.4040 0.0000 0.0000 0.0000
# 2 24.9626 121.7122 25.7255 0.0000 0.0000 0.0000
# 3 7.4040 25.7255 12.0327 0.0000 0.0000 0.0000
# 4 0.0000 0.0000 0.0000 31.1518 0.0000 0.0000
# 5 0.0000 0.0000 0.0000 0.0000 20.7320 0.0000
# 6 0.0000 0.0000 0.0000 0.0000 0.0000 22.0781
#
#
#
# Elastic Compliance Matrix: (Units=1/GPa)
#
#
# Indices 1 2 3 4 5 6 
#
# 1 0.042837 -0.005865 -0.013820 0.000000 0.000000 0.000000
# 2 -0.005865 0.015793 -0.030155 0.000000 0.000000 0.000000
# 3 -0.013820 -0.030155 0.156081 0.000000 0.000000 0.000000
# 4 0.000000 0.000000 0.000000 0.032101 0.000000 0.000000
# 5 0.000000 0.000000 0.000000 0.000000 0.048235 0.000000
# 6 0.000000 0.000000 0.000000 0.000000 0.000000 0.045294
#
#
# Mechanical properties :
#
#
# Convention : Reuss Voigt Hill
#
# Bulk Modulus (GPa) = 8.69335 31.00885 19.85110
# Shear Modulus (GPa) = 10.45230 21.77929 16.11580
#
# Velocity S-wave (km/s) = 2.35976 3.40631 2.93014
# Velocity P-wave (km/s) = 3.47218 5.65603 4.69290
#
# Compressibility (1/GPa) = 0.11503048
#
# Stress axis : x y z
#
# Youngs Moduli (GPa) = 23.34444 63.32064 6.40691
#
# Poissons Ratio (x) = 0.37135 0.08854
# Poissons Ratio (y) = 0.13690 0.19320
# Poissons Ratio (z) = 0.32262 1.90946
#
# Static dielectric constant tensor:
#      x y z
#    x 1.665380 0.000000 0.000000 
#    y 0.000000 1.724690 0.000000 
#    z 0.000000 0.000000 1.628030 
# 
# From -- ./inp_files/5638.got.cif
#   From: 2010.05.17/outbox.cif.g08.bks.cpg/sg57_3_cif.got.tgz:5638.got - 2010.06.03 13:58:18.
