data_PCOD9437030
_publ_section_title
;
Structure prediction by ZEFSAII (Michael W. Deem and Ramdas Pophale) SiO2 
 PCOD9437030
Probable space group: P B C M
;
_chemical_formula_sum "Si O2"
_cell_formula_units_Z 60
_cell_length_a 5.571371
_cell_length_b 14.238132
_cell_length_c 29.990954
_cell_angle_alpha 90.000000
_cell_angle_beta 90.000000
_cell_angle_gamma 90.000000
_cell_volume 2379.059889
_symmetry_space_group_name_H-M "P B C M"
_symmetry_group_IT_number 57
_symmetry_cell_setting 'orthorhombic'
loop_
_space_group_symop_operation_xyz
x,y,z
-x,-y,1/2+z
x,1/2-y,-z
-x,1/2+y,1/2-z
-x,-y,-z
x,y,1/2-z
-x,1/2+y,z
x,1/2-y,1/2+z
loop_
_atom_site_type_symbol
_atom_site_label
_atom_site_fract_x
_atom_site_fract_y
_atom_site_fract_z
Si Si1 0.631364 0.333892 0.068667
Si Si2 0.732331 0.582367 0.995815
Si Si3 0.898998 0.069148 0.171014
Si Si4 0.380438 0.288149 0.343355
Si Si5 0.900484 0.250000 0.500000
Si Si6 0.049597 0.494174 0.575919
Si Si7 0.603155 0.916997 0.698589
Si Si8 0.116921 0.790708 0.302491
O O1 0.433679 0.309245 0.105081
O O2 0.753555 0.243986 0.046074
O O3 0.827722 0.405890 0.088121
O O4 0.512447 0.382326 0.025348
O O5 0.741076 0.556686 0.047653
O O6 0.926010 0.663957 0.992691
O O7 0.841102 0.507396 0.960916
O O8 0.141911 0.031097 0.193883
O O9 0.881265 0.178008 0.186742
O O10 0.638316 0.029820 0.184195
O O11 0.948892 0.056888 0.118852
O O12 0.376527 0.176004 0.332480
O O13 0.123985 0.326004 0.327045
O O14 0.620728 0.323662 0.318285
O O15 0.576947 0.886566 0.750000
O O16 0.088497 0.803527 0.250000
#
# Coordination Sequence:
#
# PCOD9437030 Si02
#       8
#     8   8   8   8   4   8   8   8
#     4  11  24  40  61  92 129 167 218 269 328 392
#     4  10  23  44  65  86 133 168 213 274 325 392
#     4  10  20  34  63  92 122 164 215 264 312 400
#     4  10  21  34  64  91 127 163 207 271 321 383
#     4  10  24  38  64  94 122 162 212 274 320 384
#     4  10  24  41  62  90 126 176 219 258 334 390
#     4  10  20  37  62  96 127 162 213 276 329 379
#     4  10  20  38  63  97 127 165 214 274 331 382
#
# _framework density 25.220047999999998
#
# number of rings (size 3 to 8) (size 9 to 14) (size 15 to 20)
#    0.000    1.867    0.000    4.800    9.333    3.200 
#    0.000    0.000    0.000    8.800    0.000    0.000 
#    0.000    0.000    0.000    0.000    0.000    0.000 
#
# Total GULP energy -335504.910982 kJ/mol
# GULP energy per Si atom -5591.748516 kJ/mol
# Density = 2.516265 g / cm^3
# Si number density = 25.220048 Si / 1000 Ang^3
#
#
#
# Elastic Constant Matrix: (Units=GPa)
#
#
# Indices 1 2 3 4 5 6 
#
# 1 194.9317 21.1595 38.4107 0.0000 0.0000 0.0000
# 2 21.1595 34.9485 19.4587 0.0000 0.0000 0.0000
# 3 38.4107 19.4587 124.3792 0.0000 0.0000 0.0000
# 4 0.0000 0.0000 0.0000 22.4926 0.0000 0.0000
# 5 0.0000 0.0000 0.0000 0.0000 35.9772 0.0000
# 6 0.0000 0.0000 0.0000 0.0000 0.0000 26.5094
#
#
#
# Elastic Compliance Matrix: (Units=1/GPa)
#
#
# Indices 1 2 3 4 5 6 
#
# 1 0.005686 -0.002700 -0.001333 0.000000 0.000000 0.000000
# 2 -0.002700 0.032626 -0.004270 0.000000 0.000000 0.000000
# 3 -0.001333 -0.004270 0.009120 0.000000 0.000000 0.000000
# 4 0.000000 0.000000 0.000000 0.044459 0.000000 0.000000
# 5 0.000000 0.000000 0.000000 0.000000 0.027795 0.000000
# 6 0.000000 0.000000 0.000000 0.000000 0.000000 0.037722
#
#
# Mechanical properties :
#
#
# Convention : Reuss Voigt Hill
#
# Bulk Modulus (GPa) = 32.44249 56.92413 44.68331
# Shear Modulus (GPa) = 27.13104 35.34456 31.23780
#
# Velocity S-wave (km/s) = 3.28346 3.74765 3.52321
# Velocity P-wave (km/s) = 5.22173 6.43013 5.85717
#
# Compressibility (1/GPa) = 0.03082377
#
# Stress axis : x y z
#
# Youngs Moduli (GPa) = 175.87539 30.65047 109.65122
#
# Poissons Ratio (x) = 0.08276 0.14622
# Poissons Ratio (y) = 0.47487 0.46825
# Poissons Ratio (z) = 0.23453 0.13089
#
# Static dielectric constant tensor:
#      x y z
#    x 2.040380 0.000000 0.000000 
#    y 0.000000 2.080950 0.000000 
#    z 0.000000 0.000000 1.916630 
# 
# From -- ./inp_files/28073.got.cif
#   From: 2010.05.17/outbox.cif.g08.bks.cpg/sg57_15_cif.got.tgz:28073.got - 2010.06.03 13:58:18.
