data_PCOD9437767
_publ_section_title
;
Structure prediction by ZEFSAII (Michael W. Deem and Ramdas Pophale) SiO2 
 PCOD9437767
Probable space group: P B C M
;
_chemical_formula_sum "Si O2"
_cell_formula_units_Z 48
_cell_length_a 9.305314
_cell_length_b 31.871993
_cell_length_c 8.474688
_cell_angle_alpha 90.000000
_cell_angle_beta 90.000000
_cell_angle_gamma 90.000000
_cell_volume 2513.413668
_symmetry_space_group_name_H-M "P B C M"
_symmetry_group_IT_number 57
_symmetry_cell_setting 'orthorhombic'
loop_
_space_group_symop_operation_xyz
x,y,z
-x,-y,1/2+z
x,1/2-y,-z
-x,1/2+y,1/2-z
-x,-y,-z
x,y,1/2-z
-x,1/2+y,z
x,1/2-y,1/2+z
loop_
_atom_site_type_symbol
_atom_site_label
_atom_site_fract_x
_atom_site_fract_y
_atom_site_fract_z
Si Si1 0.582112 0.621306 0.941447
Si Si2 0.415660 0.795402 0.440167
Si Si3 0.912106 0.039971 0.560415
Si Si4 0.082880 0.704596 0.940438
Si Si5 0.913234 0.622385 0.942548
Si Si6 0.586927 0.459820 0.562127
O O1 0.578375 0.619959 0.750000
O O2 0.510992 0.665295 0.992139
O O3 0.747943 0.618658 0.992405
O O4 0.491464 0.582265 0.003917
O O5 0.465275 0.750000 0.500000
O O6 0.417153 0.794683 0.250000
O O7 0.249290 0.801164 0.491077
O O8 0.910654 0.039562 0.750000
O O9 0.749565 0.039092 0.500099
O O10 0.992938 0.082439 0.507678
O O11 0.000000 0.000000 0.500000
O O12 0.081350 0.704966 0.750000
O O13 0.986383 0.665766 0.994897
O O14 0.033610 0.750000 0.000000
O O15 0.913711 0.622747 0.750000
O O16 0.500000 0.500000 0.500000
O O17 0.588484 0.460942 0.750000
#
# Coordination Sequence:
#
# PCOD9437767 Si02
#       6
#     8   8   8   8   8   8
#     4  10  20  37  59  84 113 149 190 236 287 342
#     4   9  18  32  53  78 110 149 190 234 283 338
#     4  11  22  39  62  88 117 151 190 235 284 341
#     4   9  17  32  51  75 105 143 186 228 274 328
#     4   9  19  35  57  81 110 146 185 226 278 338
#     4  12  25  41  61  86 115 150 190 237 289 347
#
# _framework density 19.097534
#
# number of rings (size 3 to 8) (size 9 to 14) (size 15 to 20)
#    0.000    2.000    0.000    4.000    0.000    5.333 
#    0.000    6.667    0.000    0.000    0.000    0.000 
#    0.000    0.000    0.000    0.000    0.000    0.000 
#
# Total GULP energy -268171.405095 kJ/mol
# GULP energy per Si atom -5586.904273 kJ/mol
# Density = 1.905407 g / cm^3
# Si number density = 19.097534 Si / 1000 Ang^3
#
#
#
# Elastic Constant Matrix: (Units=GPa)
#
#
# Indices 1 2 3 4 5 6 
#
# 1 183.0003 137.1890 37.1430 0.0000 0.0000 0.0000
# 2 137.1890 220.6953 39.8931 0.0000 0.0000 0.0000
# 3 37.1430 39.8931 37.7336 0.0000 0.0000 0.0000
# 4 0.0000 0.0000 0.0000 33.9019 0.0000 0.0000
# 5 0.0000 0.0000 0.0000 0.0000 23.3093 0.0000
# 6 0.0000 0.0000 0.0000 0.0000 0.0000 43.0790
#
#
#
# Elastic Compliance Matrix: (Units=1/GPa)
#
#
# Indices 1 2 3 4 5 6 
#
# 1 0.010784 -0.005915 -0.004362 0.000000 0.000000 0.000000
# 2 -0.005915 0.008846 -0.003530 0.000000 0.000000 0.000000
# 3 -0.004362 -0.003530 0.034527 0.000000 0.000000 0.000000
# 4 0.000000 0.000000 0.000000 0.029497 0.000000 0.000000
# 5 0.000000 0.000000 0.000000 0.000000 0.042901 0.000000
# 6 0.000000 0.000000 0.000000 0.000000 0.000000 0.023213
#
#
# Mechanical properties :
#
#
# Convention : Reuss Voigt Hill
#
# Bulk Modulus (GPa) = 37.67364 96.65325 67.16344
# Shear Modulus (GPa) = 26.84855 35.20500 31.02677
#
# Velocity S-wave (km/s) = 3.75355 4.29818 4.03507
# Velocity P-wave (km/s) = 6.20929 8.68059 7.54679
#
# Compressibility (1/GPa) = 0.02654376
#
# Stress axis : x y z
#
# Youngs Moduli (GPa) = 92.72798 113.04202 28.96311
#
# Poissons Ratio (x) = 0.66868 0.12633
# Poissons Ratio (y) = 0.54851 0.10223
# Poissons Ratio (z) = 0.40444 0.39902
#
# Static dielectric constant tensor:
#      x y z
#    x 1.640530 0.000000 0.000000 
#    y 0.000000 1.636330 0.000000 
#    z 0.000000 0.000000 1.660740 
# 
# From -- ./inp_files/2002.got.cif
#   From: 2010.05.17/outbox.cif.g08.bks.cpg/sg57_2_cif.got.tgz:2002.got - 2010.06.03 13:58:18.
