data_PCOD9437347
_publ_section_title
;
Structure prediction by ZEFSAII (Michael W. Deem and Ramdas Pophale) SiO2 
 PCOD9437347
Probable space group: P B C M
;
_chemical_formula_sum "Si O2"
_cell_formula_units_Z 48
_cell_length_a 9.741431
_cell_length_b 28.149478
_cell_length_c 8.435935
_cell_angle_alpha 90.000000
_cell_angle_beta 90.000000
_cell_angle_gamma 90.000000
_cell_volume 2313.270019
_symmetry_space_group_name_H-M "P B C M"
_symmetry_group_IT_number 57
_symmetry_cell_setting 'orthorhombic'
loop_
_space_group_symop_operation_xyz
x,y,z
-x,-y,1/2+z
x,1/2-y,-z
-x,1/2+y,1/2-z
-x,-y,-z
x,y,1/2-z
-x,1/2+y,z
x,1/2-y,1/2+z
loop_
_atom_site_type_symbol
_atom_site_label
_atom_site_fract_x
_atom_site_fract_y
_atom_site_fract_z
Si Si1 0.847847 0.301230 0.062135
Si Si2 0.069002 0.452402 0.065796
Si Si3 0.319439 0.396459 0.563188
Si Si4 0.178509 0.600609 0.433684
Si Si5 0.434234 0.951601 0.064856
Si Si6 0.839309 0.800287 0.940328
O O1 0.832128 0.304048 0.250000
O O2 0.799876 0.250000 0.000000
O O3 0.777618 0.346144 0.978550
O O4 0.009566 0.304541 0.016539
O O5 0.103688 0.457708 0.250000
O O6 0.202392 0.435723 0.970938
O O7 0.000000 0.500000 0.000000
O O8 0.952206 0.412796 0.039799
O O9 0.352912 0.396460 0.750000
O O10 0.452160 0.411068 0.464650
O O11 0.253629 0.345669 0.519860
O O12 0.137901 0.598245 0.250000
O O13 0.298680 0.563667 0.470925
O O14 0.401791 0.956390 0.250000
O O15 0.500000 0.000000 0.000000
O O16 0.856642 0.799287 0.750000
O O17 0.781168 0.750000 0.000000
#
# Coordination Sequence:
#
# PCOD9437347 Si02
#       6
#     8   8   8   8   8   8
#     4  11  21  36  61  93 128 164 206 254 312 372
#     4  12  24  39  61  90 122 159 204 259 313 368
#     4  11  23  41  63  91 125 163 207 256 310 367
#     4  12  24  42  64  91 125 163 209 260 313 371
#     4  12  26  45  66  90 123 166 211 257 315 379
#     4  10  20  35  60  91 127 163 203 252 307 365
#
# _framework density 20.749846999999999
#
# number of rings (size 3 to 8) (size 9 to 14) (size 15 to 20)
#    0.000    0.667    1.667    9.000    0.000    2.000 
#    0.000    0.833    0.000    2.000    0.000    0.000 
#    0.000    0.000    0.000    0.000    0.000    0.000 
#
# Total GULP energy -268700.202812 kJ/mol
# GULP energy per Si atom -5597.920892 kJ/mol
# Density = 2.070262 g / cm^3
# Si number density = 20.749847 Si / 1000 Ang^3
#
#
#
# Elastic Constant Matrix: (Units=GPa)
#
#
# Indices 1 2 3 4 5 6 
#
# 1 30.9993 -15.0706 -14.8654 0.0000 0.0000 0.0000
# 2 -15.0706 94.9407 13.7427 0.0000 0.0000 0.0000
# 3 -14.8654 13.7427 80.1321 0.0000 0.0000 0.0000
# 4 0.0000 0.0000 0.0000 37.6859 0.0000 0.0000
# 5 0.0000 0.0000 0.0000 0.0000 29.3495 0.0000
# 6 0.0000 0.0000 0.0000 0.0000 0.0000 30.7926
#
#
#
# Elastic Compliance Matrix: (Units=1/GPa)
#
#
# Indices 1 2 3 4 5 6 
#
# 1 0.037667 0.005094 0.006114 0.000000 0.000000 0.000000
# 2 0.005094 0.011490 -0.001026 0.000000 0.000000 0.000000
# 3 0.006114 -0.001026 0.013789 0.000000 0.000000 0.000000
# 4 0.000000 0.000000 0.000000 0.026535 0.000000 0.000000
# 5 0.000000 0.000000 0.000000 0.000000 0.034072 0.000000
# 6 0.000000 0.000000 0.000000 0.000000 0.000000 0.032475
#
#
# Mechanical properties :
#
#
# Convention : Reuss Voigt Hill
#
# Bulk Modulus (GPa) = 12.00306 19.29841 15.65074
# Shear Modulus (GPa) = 30.59329 34.38331 32.48830
#
# Velocity S-wave (km/s) = 3.84394 4.07509 3.96120
# Velocity P-wave (km/s) = 5.04959 5.60915 5.33671
#
# Compressibility (1/GPa) = 0.08331208
#
# Stress axis : x y z
#
# Youngs Moduli (GPa) = 26.54825 87.03242 72.51906
#
# Poissons Ratio (x) = -0.44336 -0.44338
# Poissons Ratio (y) = -0.13524 0.07437
# Poissons Ratio (z) = -0.16232 0.08925
#
# Static dielectric constant tensor:
#      x y z
#    x 1.720850 0.000000 0.000000 
#    y 0.000000 1.801490 0.000000 
#    z 0.000000 0.000000 1.729180 
# 
# From -- ./inp_files/2101.got.cif
#   From: 2010.05.17/outbox.cif.g08.bks.cpg/sg57_2_cif.got.tgz:2101.got - 2010.06.03 13:58:18.
