data_PCOD9437712
_publ_section_title
;
Structure prediction by ZEFSAII (Michael W. Deem and Ramdas Pophale) SiO2 
 PCOD9437712
Probable space group: P B C M
;
_chemical_formula_sum "Si O2"
_cell_formula_units_Z 36
_cell_length_a 4.922120
_cell_length_b 22.026267
_cell_length_c 14.789958
_cell_angle_alpha 90.000000
_cell_angle_beta 90.000000
_cell_angle_gamma 90.000000
_cell_volume 1603.467041
_symmetry_space_group_name_H-M "P B C M"
_symmetry_group_IT_number 57
_symmetry_cell_setting 'orthorhombic'
loop_
_space_group_symop_operation_xyz
x,y,z
-x,-y,1/2+z
x,1/2-y,-z
-x,1/2+y,1/2-z
-x,-y,-z
x,y,1/2-z
-x,1/2+y,z
x,1/2-y,1/2+z
loop_
_atom_site_type_symbol
_atom_site_label
_atom_site_fract_x
_atom_site_fract_y
_atom_site_fract_z
Si Si1 0.750094 0.158856 0.750000
Si Si2 0.435147 0.827724 0.853741
Si Si3 0.439388 0.570693 0.005853
Si Si4 0.770492 0.742956 0.750000
Si Si5 0.910831 0.250000 0.000000
Si Si6 0.937990 0.624690 0.575338
O O1 0.927016 0.220461 0.750000
O O2 0.878657 0.124228 0.835085
O O3 0.441402 0.184963 0.750000
O O4 0.326784 0.838409 0.750000
O O5 0.698273 0.786632 0.833087
O O6 0.503939 0.890901 0.903227
O O7 0.268976 0.785936 0.924652
O O8 0.634713 0.600234 0.929299
O O9 0.122102 0.584600 0.991453
O O10 0.500000 0.500000 0.000000
O O11 0.070672 0.194523 0.955257
#
# Coordination Sequence:
#
# PCOD9437712 Si02
#       6
#     4   8   8   4   4   8
#     4  12  22  40  58 104 130 162 204 266 336 400
#     4   9  21  41  63  97 127 172 211 266 328 393
#     4  11  25  45  65  90 129 177 226 264 314 381
#     4  10  22  36  60  92 136 156 214 252 332 402
#     4  10  20  36  70  96 136 158 212 268 346 390
#     4  11  24  40  68  94 131 166 210 272 330 386
#
# _framework density 22.451350999999999
#
# number of rings (size 3 to 8) (size 9 to 14) (size 15 to 20)
#    0.667    0.889    2.222    2.000    6.222    0.889 
#    4.000    0.000    0.000    0.000    0.000    0.000 
#    0.000    0.000    0.000    0.000    0.000    0.000 
#
# Total GULP energy -200773.077257 kJ/mol
# GULP energy per Si atom -5577.029924 kJ/mol
# Density = 2.240025 g / cm^3
# Si number density = 22.451351 Si / 1000 Ang^3
#
#
#
# Elastic Constant Matrix: (Units=GPa)
#
#
# Indices 1 2 3 4 5 6 
#
# 1 91.6574 25.3125 16.4089 0.0000 0.0000 0.0000
# 2 25.3125 152.3628 54.8408 0.0000 0.0000 0.0000
# 3 16.4089 54.8408 107.8098 0.0000 0.0000 0.0000
# 4 0.0000 0.0000 0.0000 19.8782 0.0000 0.0000
# 5 0.0000 0.0000 0.0000 0.0000 17.9053 0.0000
# 6 0.0000 0.0000 0.0000 0.0000 0.0000 34.4162
#
#
#
# Elastic Compliance Matrix: (Units=1/GPa)
#
#
# Indices 1 2 3 4 5 6 
#
# 1 0.011514 -0.001569 -0.000954 0.000000 0.000000 0.000000
# 2 -0.001569 0.008248 -0.003957 0.000000 0.000000 0.000000
# 3 -0.000954 -0.003957 0.011434 0.000000 0.000000 0.000000
# 4 0.000000 0.000000 0.000000 0.050306 0.000000 0.000000
# 5 0.000000 0.000000 0.000000 0.000000 0.055849 0.000000
# 6 0.000000 0.000000 0.000000 0.000000 0.000000 0.029056
#
#
# Mechanical properties :
#
#
# Convention : Reuss Voigt Hill
#
# Bulk Modulus (GPa) = 54.83872 60.55050 57.69461
# Shear Modulus (GPa) = 26.96181 31.45780 29.20980
#
# Velocity S-wave (km/s) = 3.46916 3.74726 3.61089
# Velocity P-wave (km/s) = 6.36595 6.76393 6.56796
#
# Compressibility (1/GPa) = 0.01823529
#
# Stress axis : x y z
#
# Youngs Moduli (GPa) = 86.84737 121.23812 87.46161
#
# Poissons Ratio (x) = 0.19028 0.08345
# Poissons Ratio (y) = 0.13631 0.34607
# Poissons Ratio (z) = 0.08287 0.47972
#
# Static dielectric constant tensor:
#      x y z
#    x 1.826890 0.000000 0.000000 
#    y 0.000000 1.801430 0.000000 
#    z 0.000000 0.000000 2.021740 
# 
# From -- ./inp_files/14896.got.cif
#   From: 2010.05.17/outbox.cif.g08.bks.cpg/sg57_8_cif.got.tgz:14896.got - 2010.06.03 13:58:18.
