data_PCOD9437421
_publ_section_title
;
Structure prediction by ZEFSAII (Michael W. Deem and Ramdas Pophale) SiO2 
 PCOD9437421
Probable space group: P B C M
;
_chemical_formula_sum "Si O2"
_cell_formula_units_Z 40
_cell_length_a 16.601983
_cell_length_b 14.498282
_cell_length_c 8.727553
_cell_angle_alpha 90.000000
_cell_angle_beta 90.000000
_cell_angle_gamma 90.000000
_cell_volume 2100.724026
_symmetry_space_group_name_H-M "P B C M"
_symmetry_group_IT_number 57
_symmetry_cell_setting 'orthorhombic'
loop_
_space_group_symop_operation_xyz
x,y,z
-x,-y,1/2+z
x,1/2-y,-z
-x,1/2+y,1/2-z
-x,-y,-z
x,y,1/2-z
-x,1/2+y,z
x,1/2-y,1/2+z
loop_
_atom_site_type_symbol
_atom_site_label
_atom_site_fract_x
_atom_site_fract_y
_atom_site_fract_z
Si Si1 0.964439 0.852700 0.066271
Si Si2 0.121221 0.529272 0.933150
Si Si3 0.292478 0.530087 0.066235
Si Si4 0.379522 0.149114 0.933674
Si Si5 0.439060 0.647070 0.934390
O O1 0.957983 0.848919 0.250000
O O2 0.954320 0.750000 0.000000
O O3 0.902776 0.929834 0.003330
O O4 0.051814 0.896744 0.025067
O O5 0.122300 0.521557 0.750000
O O6 0.207900 0.558863 0.994968
O O7 0.288408 0.535194 0.250000
O O8 0.313612 0.425207 0.019017
O O9 0.367765 0.588684 0.007098
O O10 0.378689 0.155398 0.750000
O O11 0.469941 0.116230 0.977182
O O12 0.366030 0.250000 0.000000
O O13 0.432579 0.646650 0.750000
O O14 0.432290 0.750000 0.000000
#
# Coordination Sequence:
#
# PCOD9437421 Si02
#       5
#     8   8   8   8   8
#     4  10  21  39  63  86 110 143 181 223 275 332
#     4  10  22  39  58  84 115 146 184 227 272 327
#     4  11  22  36  55  82 115 148 184 229 278 327
#     4   9  20  36  55  79 108 145 188 232 277 327
#     4  10  20  36  56  79 108 145 189 233 279 329
#
# _framework density 19.041053000000002
#
# number of rings (size 3 to 8) (size 9 to 14) (size 15 to 20)
#    0.000    2.000    0.000    3.000    0.000    6.400 
#    0.000    4.000    0.000    0.000    0.000    0.000 
#    0.000    0.000    0.000    0.000    0.000    0.000 
#
# Total GULP energy -223372.388607 kJ/mol
# GULP energy per Si atom -5584.309715 kJ/mol
# Density = 1.899772 g / cm^3
# Si number density = 19.041053 Si / 1000 Ang^3
#
#
#
# Elastic Constant Matrix: (Units=GPa)
#
#
# Indices 1 2 3 4 5 6 
#
# 1 37.3943 -17.9565 6.5307 0.0000 0.0000 0.0000
# 2 -17.9565 39.2551 6.2109 0.0000 0.0000 0.0000
# 3 6.5307 6.2109 33.2284 0.0000 0.0000 0.0000
# 4 0.0000 0.0000 0.0000 32.3475 0.0000 0.0000
# 5 0.0000 0.0000 0.0000 0.0000 26.5434 0.0000
# 6 0.0000 0.0000 0.0000 0.0000 0.0000 13.3297
#
#
#
# Elastic Compliance Matrix: (Units=1/GPa)
#
#
# Indices 1 2 3 4 5 6 
#
# 1 0.037798 0.019028 -0.010985 0.000000 0.000000 0.000000
# 2 0.019028 0.035830 -0.010437 0.000000 0.000000 0.000000
# 3 -0.010985 -0.010437 0.034205 0.000000 0.000000 0.000000
# 4 0.000000 0.000000 0.000000 0.030914 0.000000 0.000000
# 5 0.000000 0.000000 0.000000 0.000000 0.037674 0.000000
# 6 0.000000 0.000000 0.000000 0.000000 0.000000 0.075020
#
#
# Mechanical properties :
#
#
# Convention : Reuss Voigt Hill
#
# Bulk Modulus (GPa) = 9.70467 11.04979 10.37723
# Shear Modulus (GPa) = 17.20714 22.11698 19.66206
#
# Velocity S-wave (km/s) = 3.00940 3.41184 3.21692
# Velocity P-wave (km/s) = 4.14525 4.61915 4.38860
#
# Compressibility (1/GPa) = 0.10304321
#
# Stress axis : x y z
#
# Youngs Moduli (GPa) = 26.45667 27.90984 29.23582
#
# Poissons Ratio (x) = -0.53107 0.32117
# Poissons Ratio (y) = -0.50342 0.30513
# Poissons Ratio (z) = 0.29064 0.29129
#
# Static dielectric constant tensor:
#      x y z
#    x 1.653430 0.000000 0.000000 
#    y 0.000000 1.590660 0.000000 
#    z 0.000000 0.000000 1.615250 
# 
# From -- ./inp_files/4266.got.cif
#   From: 2010.05.17/outbox.cif.g08.bks.cpg/sg57_3_cif.got.tgz:4266.got - 2010.06.03 13:58:18.
