data_PCOD9437931
_publ_section_title
;
Structure prediction by ZEFSAII (Michael W. Deem and Ramdas Pophale) SiO2 
 PCOD9437931
Probable space group: P B C M
;
_chemical_formula_sum "Si O2"
_cell_formula_units_Z 48
_cell_length_a 28.245228
_cell_length_b 8.638073
_cell_length_c 10.264625
_cell_angle_alpha 90.000000
_cell_angle_beta 90.000000
_cell_angle_gamma 90.000000
_cell_volume 2504.407770
_symmetry_space_group_name_H-M "P B C M"
_symmetry_group_IT_number 57
_symmetry_cell_setting 'orthorhombic'
loop_
_space_group_symop_operation_xyz
x,y,z
-x,-y,1/2+z
x,1/2-y,-z
-x,1/2+y,1/2-z
-x,-y,-z
x,y,1/2-z
-x,1/2+y,z
x,1/2-y,1/2+z
loop_
_atom_site_type_symbol
_atom_site_label
_atom_site_fract_x
_atom_site_fract_y
_atom_site_fract_z
Si Si1 0.607437 0.566452 0.519410
Si Si2 0.959047 0.072145 0.250000
Si Si3 0.300726 0.888306 0.898460
Si Si4 0.806522 0.106036 0.401180
Si Si5 0.539315 0.884800 0.250000
Si Si6 0.898134 0.566536 0.515940
Si Si7 0.436132 0.482055 0.750000
Si Si8 0.936839 0.436704 0.250000
O O1 0.611865 0.750000 0.500000
O O2 0.656567 0.504041 0.574537
O O3 0.565276 0.544772 0.623457
O O4 0.593559 0.491821 0.381336
O O5 0.949151 0.255170 0.250000
O O6 0.934867 0.996899 0.376910
O O7 0.014377 0.033506 0.250000
O O8 0.304282 0.831184 0.750000
O O9 0.247449 0.953612 0.914042
O O10 0.305257 0.750000 0.000000
O O11 0.811979 0.250000 0.500000
O O12 0.813215 0.155094 0.250000
O O13 0.846065 0.980811 0.435393
O O14 0.548844 0.700109 0.250000
O O15 0.484058 0.920117 0.250000
O O16 0.903088 0.750000 0.500000
O O17 0.908598 0.483008 0.379351
#
# Coordination Sequence:
#
# PCOD9437931 Si02
#       8
#     8   4   8   8   4   8   4   4
#     4  10  21  38  59  84 118 158 198 246 302 359
#     4  12  24  46  65  94 129 170 215 258 314 374
#     4  10  22  40  63  91 122 157 201 251 301 362
#     4  10  22  42  66  92 124 163 205 254 312 373
#     4  10  20  38  55  82 115 154 197 246 300 358
#     4  12  25  42  65  97 130 165 212 262 310 372
#     4  10  22  34  57  84 115 152 197 244 300 362
#     4  12  26  42  69  94 129 172 211 260 316 370
#
# _framework density 19.166208999999998
#
# number of rings (size 3 to 8) (size 9 to 14) (size 15 to 20)
#    0.000    1.333    1.667    4.000    2.333    2.000 
#    0.000    0.000    0.000    0.000    0.000    0.000 
#    0.000    0.000    0.000    0.000    0.000    0.000 
#
# Total GULP energy -268302.696133 kJ/mol
# GULP energy per Si atom -5589.639503 kJ/mol
# Density = 1.912259 g / cm^3
# Si number density = 19.166209 Si / 1000 Ang^3
#
#
#
# Elastic Constant Matrix: (Units=GPa)
#
#
# Indices 1 2 3 4 5 6 
#
# 1 92.6996 22.8133 43.4431 0.0000 0.0000 0.0000
# 2 22.8133 64.8999 31.0447 0.0000 0.0000 0.0000
# 3 43.4431 31.0447 152.2390 0.0000 0.0000 0.0000
# 4 0.0000 0.0000 0.0000 22.9396 0.0000 0.0000
# 5 0.0000 0.0000 0.0000 0.0000 37.8308 0.0000
# 6 0.0000 0.0000 0.0000 0.0000 0.0000 26.3465
#
#
#
# Elastic Compliance Matrix: (Units=1/GPa)
#
#
# Indices 1 2 3 4 5 6 
#
# 1 0.012991 -0.003095 -0.003076 0.000000 0.000000 0.000000
# 2 -0.003095 0.017811 -0.002749 0.000000 0.000000 0.000000
# 3 -0.003076 -0.002749 0.008007 0.000000 0.000000 0.000000
# 4 0.000000 0.000000 0.000000 0.043593 0.000000 0.000000
# 5 0.000000 0.000000 0.000000 0.000000 0.026434 0.000000
# 6 0.000000 0.000000 0.000000 0.000000 0.000000 0.037956
#
#
# Mechanical properties :
#
#
# Convention : Reuss Voigt Hill
#
# Bulk Modulus (GPa) = 47.68906 56.04896 51.86901
# Shear Modulus (GPa) = 29.13412 31.59256 30.36334
#
# Velocity S-wave (km/s) = 3.90305 4.06439 3.98453
# Velocity P-wave (km/s) = 6.72663 7.16469 6.94911
#
# Compressibility (1/GPa) = 0.02096917
#
# Stress axis : x y z
#
# Youngs Moduli (GPa) = 76.97797 56.14444 124.89214
#
# Poissons Ratio (x) = 0.17377 0.38416
# Poissons Ratio (y) = 0.23825 0.34331
# Poissons Ratio (z) = 0.23678 0.15433
#
# Static dielectric constant tensor:
#      x y z
#    x 1.652530 0.000000 0.000000 
#    y 0.000000 1.631260 0.000000 
#    z 0.000000 0.000000 1.668040 
# 
# From -- ./inp_files/10210.got.cif
#   From: 2010.05.17/outbox.cif.g08.bks.cpg/sg57_6_cif.got.tgz:10210.got - 2010.06.03 13:58:18.
