data_PCOD9437381
_publ_section_title
;
Structure prediction by ZEFSAII (Michael W. Deem and Ramdas Pophale) SiO2 
 PCOD9437381
Probable space group: P B C M
;
_chemical_formula_sum "Si O2"
_cell_formula_units_Z 48
_cell_length_a 17.051766
_cell_length_b 7.101141
_cell_length_c 14.454505
_cell_angle_alpha 90.000000
_cell_angle_beta 90.000000
_cell_angle_gamma 90.000000
_cell_volume 1750.252570
_symmetry_space_group_name_H-M "P B C M"
_symmetry_group_IT_number 57
_symmetry_cell_setting 'orthorhombic'
loop_
_space_group_symop_operation_xyz
x,y,z
-x,-y,1/2+z
x,1/2-y,-z
-x,1/2+y,1/2-z
-x,-y,-z
x,y,1/2-z
-x,1/2+y,z
x,1/2-y,1/2+z
loop_
_atom_site_type_symbol
_atom_site_label
_atom_site_fract_x
_atom_site_fract_y
_atom_site_fract_z
Si Si1 0.731388 0.742752 0.610089
Si Si2 0.607048 0.236467 0.111379
Si Si3 0.226905 0.697863 0.110498
Si Si4 0.434245 0.306967 0.391050
Si Si5 0.101669 0.263328 0.646119
Si Si6 0.063207 0.870977 0.907798
O O1 0.724229 0.750000 0.500000
O O2 0.753364 0.523790 0.630328
O O3 0.644064 0.801498 0.643568
O O4 0.811762 0.850728 0.634791
O O5 0.693160 0.295641 0.144802
O O6 0.523595 0.314482 0.144175
O O7 0.594487 0.016292 0.125617
O O8 0.610381 0.250000 0.000000
O O9 0.137775 0.722210 0.143906
O O10 0.223246 0.750000 0.000000
O O11 0.442282 0.250000 0.500000
O O12 0.099651 0.182943 0.750000
O O13 0.022644 0.382971 0.636478
O O14 0.091293 0.085868 0.576927
O O15 0.055009 0.750000 0.000000
#
# Coordination Sequence:
#
# PCOD9437381 Si02
#       6
#     8   8   8   8   8   8
#     4   9  18  31  47  69  98 131 166 201 242 294
#     4   9  14  22  36  60  94 124 151 192 243 285
#     4   8  16  28  44  67  96 126 159 200 245 291
#     4   9  15  23  38  62  92 124 156 194 240 284
#     4  11  22  36  53  76 103 133 168 212 260 307
#     4  10  20  36  55  76 101 134 172 211 254 307
#
# _framework density 27.424613000000001
#
# number of rings (size 3 to 8) (size 9 to 14) (size 15 to 20)
#    0.000    2.667    0.000    3.500    0.000    4.000 
#    0.000    0.000    0.000    0.000    0.000   11.667 
#    0.000    0.000    0.000    0.000    0.000    0.000 
#
# Total GULP energy -267647.784759 kJ/mol
# GULP energy per Si atom -5575.995516 kJ/mol
# Density = 2.736219 g / cm^3
# Si number density = 27.424613 Si / 1000 Ang^3
#
#
#
# Elastic Constant Matrix: (Units=GPa)
#
#
# Indices 1 2 3 4 5 6 
#
# 1 407.5012 22.2687 23.1373 0.0000 0.0000 0.0000
# 2 22.2687 43.8805 -12.8570 0.0000 0.0000 0.0000
# 3 23.1373 -12.8570 103.3208 0.0000 0.0000 0.0000
# 4 0.0000 0.0000 0.0000 -8.7635 0.0000 0.0000
# 5 0.0000 0.0000 0.0000 0.0000 -26.9894 0.0000
# 6 0.0000 0.0000 0.0000 0.0000 0.0000 41.8907
#
#
#
# Elastic Compliance Matrix: (Units=1/GPa)
#
#
# Indices 1 2 3 4 5 6 
#
# 1 0.002582 -0.001535 -0.000769 0.000000 0.000000 0.000000
# 2 -0.001535 0.024565 0.003401 0.000000 0.000000 0.000000
# 3 -0.000769 0.003401 0.010274 0.000000 0.000000 0.000000
# 4 0.000000 0.000000 0.000000 -0.114109 0.000000 0.000000
# 5 0.000000 0.000000 0.000000 0.000000 -0.037052 0.000000
# 6 0.000000 0.000000 0.000000 0.000000 0.000000 0.023872
#
#
# Mechanical properties :
#
#
# Convention : Reuss Voigt Hill
#
# Bulk Modulus (GPa) = 25.24466 68.86673 47.05570
# Shear Modulus (GPa) = -63.40633 36.03778 -13.68427
#
# Velocity S-wave (km/s) = -4.81357 3.62894 -2.23620
# Velocity P-wave (km/s) = 4.65498 6.53642 3.24468
#
# Compressibility (1/GPa) = 0.03961234
#
# Stress axis : x y z
#
# Youngs Moduli (GPa) = 387.36226 40.70865 97.33303
#
# Poissons Ratio (x) = 0.06251 0.07487
# Poissons Ratio (y) = 0.59479 -0.33099
# Poissons Ratio (z) = 0.29795 -0.13844
#
# Static dielectric constant tensor:
#      x y z
#    x 2.275480 0.000000 0.000000 
#    y 0.000000 2.225660 0.000000 
#    z 0.000000 0.000000 2.130640 
# 
# From -- ./inp_files/22831.got.cif
#   From: 2010.05.17/outbox.cif.g08.bks.cpg/sg57_12_cif.got.tgz:22831.got - 2010.06.03 13:58:18.
