data_PCOD9437815
_publ_section_title
;
Structure prediction by ZEFSAII (Michael W. Deem and Ramdas Pophale) SiO2 
 PCOD9437815
Probable space group: P B C M
;
_chemical_formula_sum "Si O2"
_cell_formula_units_Z 48
_cell_length_a 12.858820
_cell_length_b 24.088656
_cell_length_c 8.730110
_cell_angle_alpha 90.000000
_cell_angle_beta 90.000000
_cell_angle_gamma 90.000000
_cell_volume 2704.166340
_symmetry_space_group_name_H-M "P B C M"
_symmetry_group_IT_number 57
_symmetry_cell_setting 'orthorhombic'
loop_
_space_group_symop_operation_xyz
x,y,z
-x,-y,1/2+z
x,1/2-y,-z
-x,1/2+y,1/2-z
-x,-y,-z
x,y,1/2-z
-x,1/2+y,z
x,1/2-y,1/2+z
loop_
_atom_site_type_symbol
_atom_site_label
_atom_site_fract_x
_atom_site_fract_y
_atom_site_fract_z
Si Si1 0.992639 0.311759 0.066884
Si Si2 0.620635 0.689348 0.434057
Si Si3 0.808172 0.387067 0.934175
Si Si4 0.198457 0.383935 0.067299
Si Si5 0.883246 0.998333 0.567139
Si Si6 0.380559 0.810003 0.934033
O O1 0.976839 0.310062 0.250000
O O2 0.101799 0.342541 0.036429
O O3 0.993382 0.250000 0.000000
O O4 0.901792 0.347801 0.990317
O O5 0.648686 0.750000 0.500000
O O6 0.627815 0.690569 0.250000
O O7 0.698235 0.643988 0.501062
O O8 0.500184 0.678741 0.478444
O O9 0.811441 0.391758 0.750000
O O10 0.700786 0.357124 0.980522
O O11 0.824366 0.447120 0.007677
O O12 0.206606 0.390803 0.250000
O O13 0.171839 0.442604 0.991154
O O14 0.889276 0.998831 0.750000
O O15 0.000000 0.000000 0.500000
O O16 0.377468 0.806114 0.750000
O O17 0.350010 0.750000 0.000000
#
# Coordination Sequence:
#
# PCOD9437815 Si02
#       6
#     8   8   8   8   8   8
#     4  11  23  36  54  82 117 150 187 236 291 346
#     4  10  20  37  60  87 119 154 195 239 290 345
#     4  11  22  38  60  85 116 152 195 240 289 345
#     4  11  23  39  59  85 116 151 196 241 289 344
#     4  12  24  40  61  85 115 154 196 238 289 346
#     4   9  20  37  59  87 118 154 193 239 289 343
#
# _framework density 17.750387
#
# number of rings (size 3 to 8) (size 9 to 14) (size 15 to 20)
#    0.000    1.333    1.667    4.500    0.000    6.667 
#    0.000    0.833    0.000    0.000    0.000    0.000 
#    0.000    0.000    0.000    0.000    0.000    0.000 
#
# Total GULP energy -268347.454634 kJ/mol
# GULP energy per Si atom -5590.571972 kJ/mol
# Density = 1.770999 g / cm^3
# Si number density = 17.750387 Si / 1000 Ang^3
#
#
#
# Elastic Constant Matrix: (Units=GPa)
#
#
# Indices 1 2 3 4 5 6 
#
# 1 104.1130 80.2406 49.4394 0.0000 0.0000 0.0000
# 2 80.2406 162.2745 63.2411 0.0000 0.0000 0.0000
# 3 49.4394 63.2411 81.5069 0.0000 0.0000 0.0000
# 4 0.0000 0.0000 0.0000 34.2362 0.0000 0.0000
# 5 0.0000 0.0000 0.0000 0.0000 21.5903 0.0000
# 6 0.0000 0.0000 0.0000 0.0000 0.0000 20.5798
#
#
#
# Elastic Compliance Matrix: (Units=1/GPa)
#
#
# Indices 1 2 3 4 5 6 
#
# 1 0.017056 -0.006310 -0.005450 0.000000 0.000000 0.000000
# 2 -0.006310 0.011168 -0.004838 0.000000 0.000000 0.000000
# 3 -0.005450 -0.004838 0.019328 0.000000 0.000000 0.000000
# 4 0.000000 0.000000 0.000000 0.029209 0.000000 0.000000
# 5 0.000000 0.000000 0.000000 0.000000 0.046317 0.000000
# 6 0.000000 0.000000 0.000000 0.000000 0.000000 0.048591
#
#
# Mechanical properties :
#
#
# Convention : Reuss Voigt Hill
#
# Bulk Modulus (GPa) = 69.65161 81.52627 75.58894
# Shear Modulus (GPa) = 23.84935 25.61283 24.73109
#
# Velocity S-wave (km/s) = 3.66949 3.80273 3.73670
# Velocity P-wave (km/s) = 7.56824 8.08146 7.82906
#
# Compressibility (1/GPa) = 0.01435717
#
# Stress axis : x y z
#
# Youngs Moduli (GPa) = 58.63093 89.54326 51.73812
#
# Poissons Ratio (x) = 0.56500 0.28196
# Poissons Ratio (y) = 0.36995 0.25030
# Poissons Ratio (z) = 0.31952 0.43319
#
# Static dielectric constant tensor:
#      x y z
#    x 1.597220 0.000000 0.000000 
#    y 0.000000 1.573080 0.000000 
#    z 0.000000 0.000000 1.593640 
# 
# From -- ./inp_files/3100.got.cif
#   From: 2010.05.17/outbox.cif.g08.bks.cpg/sg57_2_cif.got.tgz:3100.got - 2010.06.03 13:58:18.
