data_PCOD9437706
_publ_section_title
;
Structure prediction by ZEFSAII (Michael W. Deem and Ramdas Pophale) SiO2 
 PCOD9437706
Probable space group: P B C M
;
_chemical_formula_sum "Si O2"
_cell_formula_units_Z 32
_cell_length_a 10.316502
_cell_length_b 9.837248
_cell_length_c 15.737115
_cell_angle_alpha 90.000000
_cell_angle_beta 90.000000
_cell_angle_gamma 90.000000
_cell_volume 1597.096675
_symmetry_space_group_name_H-M "P B C M"
_symmetry_group_IT_number 57
_symmetry_cell_setting 'orthorhombic'
loop_
_space_group_symop_operation_xyz
x,y,z
-x,-y,1/2+z
x,1/2-y,-z
-x,1/2+y,1/2-z
-x,-y,-z
x,y,1/2-z
-x,1/2+y,z
x,1/2-y,1/2+z
loop_
_atom_site_type_symbol
_atom_site_label
_atom_site_fract_x
_atom_site_fract_y
_atom_site_fract_z
Si Si1 0.594353 0.137163 0.426565
Si Si2 0.136680 0.712181 0.400005
Si Si3 0.317302 0.392445 0.954319
Si Si4 0.927329 0.996186 0.651834
O O1 0.577185 0.250000 0.500000
O O2 0.714461 0.189531 0.370896
O O3 0.447419 0.117177 0.395950
O O4 0.644609 0.000786 0.472647
O O5 0.140984 0.750000 0.500000
O O6 0.053673 0.577498 0.385343
O O7 0.070504 0.841011 0.356050
O O8 0.195847 0.445466 0.901848
O O9 0.287685 0.250000 0.000000
O O10 0.914741 0.957618 0.750000
#
# Coordination Sequence:
#
# PCOD9437706 Si02
#       4
#     8   8   8   8
#     4   9  18  37  64  91 111 145 209 245 286 337
#     4  11  22  41  64  88 113 164 207 245 286 355
#     4  10  20  36  65  92 114 151 199 248 286 356
#     4  12  25  40  57  89 128 157 193 250 306 350
#
# _framework density 20.036356999999999
#
# number of rings (size 3 to 8) (size 9 to 14) (size 15 to 20)
#    0.000    1.500    5.000    2.250    3.500    0.000 
#    0.000    2.500    0.000    0.000    0.000    0.000 
#    0.000    0.000    0.000    0.000    0.000    0.000 
#
# Total GULP energy -178593.557488 kJ/mol
# GULP energy per Si atom -5581.048672 kJ/mol
# Density = 1.999075 g / cm^3
# Si number density = 20.036357 Si / 1000 Ang^3
#
#
#
# Elastic Constant Matrix: (Units=GPa)
#
#
# Indices 1 2 3 4 5 6 
#
# 1 101.1732 -8.9427 -9.9166 0.0000 0.0000 0.0000
# 2 -8.9427 89.4564 -12.8549 0.0000 0.0000 0.0000
# 3 -9.9166 -12.8549 35.3125 0.0000 0.0000 0.0000
# 4 0.0000 0.0000 0.0000 18.7256 0.0000 0.0000
# 5 0.0000 0.0000 0.0000 0.0000 -20.5399 0.0000
# 6 0.0000 0.0000 0.0000 0.0000 0.0000 30.4078
#
#
#
# Elastic Compliance Matrix: (Units=1/GPa)
#
#
# Indices 1 2 3 4 5 6 
#
# 1 0.010360 0.001534 0.003468 0.000000 0.000000 0.000000
# 2 0.001534 0.012023 0.004807 0.000000 0.000000 0.000000
# 3 0.003468 0.004807 0.031042 0.000000 0.000000 0.000000
# 4 0.000000 0.000000 0.000000 0.053403 0.000000 0.000000
# 5 0.000000 0.000000 0.000000 0.000000 -0.048686 0.000000
# 6 0.000000 0.000000 0.000000 0.000000 0.000000 0.032886
#
#
# Mechanical properties :
#
#
# Convention : Reuss Voigt Hill
#
# Bulk Modulus (GPa) = 13.69064 18.05707 15.87385
# Shear Modulus (GPa) = 52.21501 22.89577 37.55539
#
# Velocity S-wave (km/s) = 5.11045 3.38407 4.33409
# Velocity P-wave (km/s) = 6.45523 4.92960 5.74330
#
# Compressibility (1/GPa) = 0.07304263
#
# Stress axis : x y z
#
# Youngs Moduli (GPa) = 96.52970 83.17527 32.21396
#
# Poissons Ratio (x) = -0.12758 -0.11170
# Poissons Ratio (y) = -0.14807 -0.15487
# Poissons Ratio (z) = -0.33473 -0.39986
#
# Static dielectric constant tensor:
#      x y z
#    x 1.764850 0.000000 0.000000 
#    y 0.000000 1.835300 0.000000 
#    z 0.000000 0.000000 1.688380 
# 
# From -- ./inp_files/17177.got.cif
#   From: 2010.05.17/outbox.cif.g08.bks.cpg/sg57_9_cif.got.tgz:17177.got - 2010.06.03 13:58:18.
