data_PCOD9437654
_publ_section_title
;
Structure prediction by ZEFSAII (Michael W. Deem and Ramdas Pophale) SiO2 
 PCOD9437654
Probable space group: P B C M
;
_chemical_formula_sum "Si O2"
_cell_formula_units_Z 60
_cell_length_a 13.773812
_cell_length_b 9.252090
_cell_length_c 24.730489
_cell_angle_alpha 90.000000
_cell_angle_beta 90.000000
_cell_angle_gamma 90.000000
_cell_volume 3151.568155
_symmetry_space_group_name_H-M "P B C M"
_symmetry_group_IT_number 57
_symmetry_cell_setting 'orthorhombic'
loop_
_space_group_symop_operation_xyz
x,y,z
-x,-y,1/2+z
x,1/2-y,-z
-x,1/2+y,1/2-z
-x,-y,-z
x,y,1/2-z
-x,1/2+y,z
x,1/2-y,1/2+z
loop_
_atom_site_type_symbol
_atom_site_label
_atom_site_fract_x
_atom_site_fract_y
_atom_site_fract_z
Si Si1 0.180231 0.779167 0.687147
Si Si2 0.638424 0.668110 0.598228
Si Si3 0.770758 0.750000 0.000000
Si Si4 0.799196 0.877632 0.314042
Si Si5 0.379908 0.661720 0.814237
Si Si6 0.999463 0.328320 0.378762
Si Si7 0.502629 0.412427 0.630325
Si Si8 0.056449 0.080697 0.452302
O O1 0.167458 0.743144 0.750000
O O2 0.270402 0.686313 0.665317
O O3 0.081267 0.747030 0.657316
O O4 0.206602 0.948041 0.683748
O O5 0.707451 0.678779 0.546877
O O6 0.706483 0.679564 0.652079
O O7 0.579028 0.517890 0.600715
O O8 0.563061 0.801560 0.596229
O O9 0.837640 0.625640 0.026879
O O10 0.800599 0.835699 0.250000
O O11 0.899028 0.838962 0.345950
O O12 0.377373 0.648245 0.750000
O O13 0.439449 0.805673 0.829793
O O14 0.432055 0.523580 0.839190
O O15 0.013449 0.232465 0.432304
O O16 0.956403 0.479881 0.399638
O O17 0.000000 0.000000 0.500000
#
# Coordination Sequence:
#
# PCOD9437654 Si02
#       8
#     8   8   4   8   8   8   8   8
#     4  10  22  38  60  94 132 170 209 255 310 377
#     4  11  24  45  67  94 125 167 216 271 330 386
#     4  12  26  44  70  90 128 168 222 276 326 380
#     4  11  22  40  65  98 137 176 208 255 320 386
#     4  10  20  36  60  92 128 166 209 258 314 383
#     4  12  23  41  65  92 134 171 215 258 316 384
#     4  10  23  40  64  90 123 164 214 271 327 384
#     4  12  23  41  64  94 124 169 221 269 313 371
#
# _framework density 19.038142000000001
#
# number of rings (size 3 to 8) (size 9 to 14) (size 15 to 20)
#    0.000    1.067    5.333    0.800    1.867    3.200 
#    0.000    1.333    0.000    0.000    0.000    0.000 
#    0.000    0.000    0.000    0.000    0.000    0.000 
#
# Total GULP energy -334865.880763 kJ/mol
# GULP energy per Si atom -5581.098013 kJ/mol
# Density = 1.899481 g / cm^3
# Si number density = 19.038142 Si / 1000 Ang^3
#
#
#
# Elastic Constant Matrix: (Units=GPa)
#
#
# Indices 1 2 3 4 5 6 
#
# 1 108.6070 25.7110 36.2656 0.0000 0.0000 0.0000
# 2 25.7110 82.5340 21.8723 0.0000 0.0000 0.0000
# 3 36.2656 21.8723 66.6825 0.0000 0.0000 0.0000
# 4 0.0000 0.0000 0.0000 20.5969 0.0000 0.0000
# 5 0.0000 0.0000 0.0000 0.0000 40.1318 0.0000
# 6 0.0000 0.0000 0.0000 0.0000 0.0000 36.3717
#
#
#
# Elastic Compliance Matrix: (Units=1/GPa)
#
#
# Indices 1 2 3 4 5 6 
#
# 1 0.011581 -0.002123 -0.005602 0.000000 0.000000 0.000000
# 2 -0.002123 0.013659 -0.003326 0.000000 0.000000 0.000000
# 3 -0.005602 -0.003326 0.019134 0.000000 0.000000 0.000000
# 4 0.000000 0.000000 0.000000 0.048551 0.000000 0.000000
# 5 0.000000 0.000000 0.000000 0.000000 0.024918 0.000000
# 6 0.000000 0.000000 0.000000 0.000000 0.000000 0.027494
#
#
# Mechanical properties :
#
#
# Convention : Reuss Voigt Hill
#
# Bulk Modulus (GPa) = 44.89849 47.28016 46.08933
# Shear Modulus (GPa) = 28.59410 31.01837 29.80623
#
# Velocity S-wave (km/s) = 3.87969 4.04081 3.96107
# Velocity P-wave (km/s) = 6.61090 6.83075 6.72172
#
# Compressibility (1/GPa) = 0.02227246
#
# Stress axis : x y z
#
# Youngs Moduli (GPa) = 86.35089 73.21225 52.26348
#
# Poissons Ratio (x) = 0.15544 0.29277
# Poissons Ratio (y) = 0.18333 0.17381
# Poissons Ratio (z) = 0.48372 0.24347
#
# Static dielectric constant tensor:
#      x y z
#    x 1.667390 0.000000 0.000000 
#    y 0.000000 1.662920 0.000000 
#    z 0.000000 0.000000 1.666730 
# 
# From -- ./inp_files/28629.got.cif
#   From: 2010.05.17/outbox.cif.g08.bks.cpg/sg57_15_cif.got.tgz:28629.got - 2010.06.03 13:58:18.
