data_PCOD9437778
_publ_section_title
;
Structure prediction by ZEFSAII (Michael W. Deem and Ramdas Pophale) SiO2 
 PCOD9437778
Probable space group: P B C M
;
_chemical_formula_sum "Si O2"
_cell_formula_units_Z 40
_cell_length_a 9.868098
_cell_length_b 13.639123
_cell_length_c 16.621952
_cell_angle_alpha 90.000000
_cell_angle_beta 90.000000
_cell_angle_gamma 90.000000
_cell_volume 2237.185128
_symmetry_space_group_name_H-M "P B C M"
_symmetry_group_IT_number 57
_symmetry_cell_setting 'orthorhombic'
loop_
_space_group_symop_operation_xyz
x,y,z
-x,-y,1/2+z
x,1/2-y,-z
-x,1/2+y,1/2-z
-x,-y,-z
x,y,1/2-z
-x,1/2+y,z
x,1/2-y,1/2+z
loop_
_atom_site_type_symbol
_atom_site_label
_atom_site_fract_x
_atom_site_fract_y
_atom_site_fract_z
Si Si1 0.835684 0.829804 0.931710
Si Si2 0.899151 0.409604 0.844903
Si Si3 0.345259 0.816969 0.923646
Si Si4 0.397974 0.286145 0.154999
Si Si5 0.700332 0.533921 0.941280
O O1 0.736227 0.773342 0.871022
O O2 0.963192 0.876412 0.887185
O O3 0.876786 0.750000 0.000000
O O4 0.750312 0.912909 0.978501
O O5 0.914470 0.423474 0.750000
O O6 0.783541 0.328486 0.864856
O O7 0.833872 0.504903 0.888323
O O8 0.473842 0.772937 0.878735
O O9 0.370487 0.928891 0.952748
O O10 0.312880 0.750000 0.000000
O O11 0.405526 0.298539 0.250000
O O12 0.387576 0.390014 0.109681
#
# Coordination Sequence:
#
# PCOD9437778 Si02
#       5
#     8   8   8   8   8
#     4  10  20  37  61  86 116 156 200 236 293 358
#     4  10  20  37  59  85 117 152 193 247 298 340
#     4  10  22  38  61  83 116 158 197 240 295 355
#     4  11  22  37  59  87 118 154 197 246 296 351
#     4   9  22  38  62  83 119 156 199 238 295 355
#
# _framework density 17.879611000000001
#
# number of rings (size 3 to 8) (size 9 to 14) (size 15 to 20)
#    1.200    0.800    0.000    4.800    0.000    3.200 
#    0.000    0.000    0.000    2.400    0.000    0.000 
#    0.000    0.000    0.000    0.000    0.000    0.000 
#
# Total GULP energy -223023.684124 kJ/mol
# GULP energy per Si atom -5575.592103 kJ/mol
# Density = 1.783892 g / cm^3
# Si number density = 17.879611 Si / 1000 Ang^3
#
#
#
# Elastic Constant Matrix: (Units=GPa)
#
#
# Indices 1 2 3 4 5 6 
#
# 1 36.2389 25.9514 12.3736 0.0000 0.0000 0.0000
# 2 25.9514 126.4208 32.0930 0.0000 0.0000 0.0000
# 3 12.3736 32.0930 48.9887 0.0000 0.0000 0.0000
# 4 0.0000 0.0000 0.0000 18.4599 0.0000 0.0000
# 5 0.0000 0.0000 0.0000 0.0000 7.2428 0.0000
# 6 0.0000 0.0000 0.0000 0.0000 0.0000 14.3178
#
#
#
# Elastic Compliance Matrix: (Units=1/GPa)
#
#
# Indices 1 2 3 4 5 6 
#
# 1 0.033231 -0.005627 -0.004708 0.000000 0.000000 0.000000
# 2 -0.005627 0.010441 -0.005419 0.000000 0.000000 0.000000
# 3 -0.004708 -0.005419 0.025152 0.000000 0.000000 0.000000
# 4 0.000000 0.000000 0.000000 0.054171 0.000000 0.000000
# 5 0.000000 0.000000 0.000000 0.000000 0.138068 0.000000
# 6 0.000000 0.000000 0.000000 0.000000 0.000000 0.069843
#
#
# Mechanical properties :
#
#
# Convention : Reuss Voigt Hill
#
# Bulk Modulus (GPa) = 26.79660 39.16494 32.98077
# Shear Modulus (GPa) = 13.33863 17.41947 15.37905
#
# Velocity S-wave (km/s) = 2.73431 3.12471 2.93600
# Velocity P-wave (km/s) = 4.99884 5.91361 5.47536
#
# Compressibility (1/GPa) = 0.03731817
#
# Stress axis : x y z
#
# Youngs Moduli (GPa) = 30.09205 95.77930 39.75870
#
# Poissons Ratio (x) = 0.53891 0.18717
# Poissons Ratio (y) = 0.16932 0.21544
# Poissons Ratio (z) = 0.14166 0.51899
#
# Static dielectric constant tensor:
#      x y z
#    x 1.609560 0.000000 0.000000 
#    y 0.000000 1.608720 0.000000 
#    z 0.000000 0.000000 1.577720 
# 
# From -- ./inp_files/20703.got.cif
#   From: 2010.05.17/outbox.cif.g08.bks.cpg/sg57_11_cif.got.tgz:20703.got - 2010.06.03 13:58:18.
