data_PCOD9437451
_publ_section_title
;
Structure prediction by ZEFSAII (Michael W. Deem and Ramdas Pophale) SiO2 
 PCOD9437451
Probable space group: P B C M
;
_chemical_formula_sum "Si O2"
_cell_formula_units_Z 48
_cell_length_a 31.647664
_cell_length_b 9.457423
_cell_length_c 8.569127
_cell_angle_alpha 90.000000
_cell_angle_beta 90.000000
_cell_angle_gamma 90.000000
_cell_volume 2564.785517
_symmetry_space_group_name_H-M "P B C M"
_symmetry_group_IT_number 57
_symmetry_cell_setting 'orthorhombic'
loop_
_space_group_symop_operation_xyz
x,y,z
-x,-y,1/2+z
x,1/2-y,-z
-x,1/2+y,1/2-z
-x,-y,-z
x,y,1/2-z
-x,1/2+y,z
x,1/2-y,1/2+z
loop_
_atom_site_type_symbol
_atom_site_label
_atom_site_fract_x
_atom_site_fract_y
_atom_site_fract_z
Si Si1 0.460507 0.090106 0.936920
Si Si2 0.617672 0.089376 0.936867
Si Si3 0.116487 0.090196 0.562049
Si Si4 0.960813 0.409145 0.063735
Si Si5 0.788225 0.592552 0.937748
Si Si6 0.708432 0.091482 0.061842
O O1 0.461409 0.092097 0.750000
O O2 0.462414 0.250000 0.000000
O O3 0.500000 0.000000 0.000000
O O4 0.418434 0.011431 0.996103
O O5 0.615928 0.092617 0.750000
O O6 0.611951 0.250000 0.000000
O O7 0.663901 0.039131 0.993226
O O8 0.109779 0.250000 0.500000
O O9 0.113320 0.091441 0.750000
O O10 0.164361 0.046430 0.516275
O O11 0.081788 0.986095 0.492724
O O12 0.962377 0.406560 0.250000
O O13 0.962929 0.250000 0.000000
O O14 0.000000 0.500000 0.000000
O O15 0.787633 0.595330 0.750000
O O16 0.749282 0.496639 0.989449
O O17 0.782336 0.750000 0.000000
O O18 0.705789 0.091455 0.250000
O O19 0.713375 0.250000 0.000000
#
# Coordination Sequence:
#
# PCOD9437451 Si02
#       6
#     8   8   8   8   8   8
#     4  12  25  43  64  90 120 154 193 238 287 343
#     4  11  22  39  61  87 117 155 196 241 291 344
#     4  10  20  38  60  86 117 153 193 238 287 342
#     4  12  25  42  62  87 116 151 190 235 285 341
#     4   9  20  36  57  83 115 151 192 236 285 340
#     4  10  20  36  56  83 115 152 194 240 288 342
#
# _framework density 18.715015999999999
#
# number of rings (size 3 to 8) (size 9 to 14) (size 15 to 20)
#    0.000    1.333    0.000    7.500    0.000    3.333 
#    0.000    3.333    0.000    0.000    0.000    0.000 
#    0.000    0.000    0.000    0.000    0.000    0.000 
#
# Total GULP energy -268354.288462 kJ/mol
# GULP energy per Si atom -5590.714343 kJ/mol
# Density = 1.867242 g / cm^3
# Si number density = 18.715016 Si / 1000 Ang^3
#
#
#
# Elastic Constant Matrix: (Units=GPa)
#
#
# Indices 1 2 3 4 5 6 
#
# 1 215.5382 127.6568 78.7174 0.0000 0.0000 0.0000
# 2 127.6568 130.8894 62.6153 0.0000 0.0000 0.0000
# 3 78.7174 62.6153 150.8918 0.0000 0.0000 0.0000
# 4 0.0000 0.0000 0.0000 36.6660 0.0000 0.0000
# 5 0.0000 0.0000 0.0000 0.0000 33.1707 0.0000
# 6 0.0000 0.0000 0.0000 0.0000 0.0000 48.4209
#
#
#
# Elastic Compliance Matrix: (Units=1/GPa)
#
#
# Indices 1 2 3 4 5 6 
#
# 1 0.011305 -0.010236 -0.001650 0.000000 0.000000 0.000000
# 2 -0.010236 0.018801 -0.002462 0.000000 0.000000 0.000000
# 3 -0.001650 -0.002462 0.008509 0.000000 0.000000 0.000000
# 4 0.000000 0.000000 0.000000 0.027273 0.000000 0.000000
# 5 0.000000 0.000000 0.000000 0.000000 0.030147 0.000000
# 6 0.000000 0.000000 0.000000 0.000000 0.000000 0.020652
#
#
# Mechanical properties :
#
#
# Convention : Reuss Voigt Hill
#
# Bulk Modulus (GPa) = 100.80934 115.03317 107.92126
# Shear Modulus (GPa) = 33.62696 38.87352 36.25024
#
# Velocity S-wave (km/s) = 4.24345 4.56250 4.40587
# Velocity P-wave (km/s) = 8.83129 9.45274 9.14729
#
# Compressibility (1/GPa) = 0.00991972
#
# Stress axis : x y z
#
# Youngs Moduli (GPa) = 88.45870 53.18794 117.51623
#
# Poissons Ratio (x) = 0.54445 0.19387
# Poissons Ratio (y) = 0.90549 0.28930
# Poissons Ratio (z) = 0.14593 0.13094
#
# Static dielectric constant tensor:
#      x y z
#    x 1.653030 0.000000 0.000000 
#    y 0.000000 1.595900 0.000000 
#    z 0.000000 0.000000 1.630110 
# 
# From -- ./inp_files/10006.got.cif
#   From: 2010.05.17/outbox.cif.g08.bks.cpg/sg57_6_cif.got.tgz:10006.got - 2010.06.03 13:58:18.
