data_PCOD9437762
_publ_section_title
;
Structure prediction by ZEFSAII (Michael W. Deem and Ramdas Pophale) SiO2 
 PCOD9437762
Probable space group: P B C M
;
_chemical_formula_sum "Si O2"
_cell_formula_units_Z 64
_cell_length_a 26.952068
_cell_length_b 15.023550
_cell_length_c 8.667264
_cell_angle_alpha 90.000000
_cell_angle_beta 90.000000
_cell_angle_gamma 90.000000
_cell_volume 3509.511627
_symmetry_space_group_name_H-M "P B C M"
_symmetry_group_IT_number 57
_symmetry_cell_setting 'orthorhombic'
loop_
_space_group_symop_operation_xyz
x,y,z
-x,-y,1/2+z
x,1/2-y,-z
-x,1/2+y,1/2-z
-x,-y,-z
x,y,1/2-z
-x,1/2+y,z
x,1/2-y,1/2+z
loop_
_atom_site_type_symbol
_atom_site_label
_atom_site_fract_x
_atom_site_fract_y
_atom_site_fract_z
Si Si1 0.869737 0.651713 0.435591
Si Si2 0.575959 0.004765 0.935123
Si Si3 0.869634 0.151713 0.564403
Si Si4 0.686537 0.500166 0.566136
Si Si5 0.498733 0.850685 0.564741
Si Si6 0.242797 0.849428 0.435624
Si Si7 0.757363 0.650575 0.064393
Si Si8 0.944701 0.499960 0.063152
O O1 0.877189 0.750000 0.500000
O O2 0.870975 0.654954 0.250000
O O3 0.813787 0.621850 0.477471
O O4 0.912494 0.585077 0.487619
O O5 0.575661 0.011290 0.750000
O O6 0.545518 0.914592 0.977553
O O7 0.547582 0.091056 0.002768
O O8 0.631494 0.000071 0.997174
O O9 0.877129 0.250000 0.500000
O O10 0.870870 0.154928 0.750000
O O11 0.813658 0.121979 0.522530
O O12 0.912399 0.085057 0.512394
O O13 0.684080 0.500118 0.750000
O O14 0.717150 0.415048 0.506841
O O15 0.717244 0.585084 0.506751
O O16 0.501080 0.750000 0.500000
O O17 0.496190 0.845577 0.750000
O O18 0.249234 0.750000 0.500000
O O19 0.246799 0.849764 0.250000
O O20 0.753368 0.650264 0.250000
O O21 0.751005 0.750000 0.000000
O O22 0.946452 0.499934 0.250000
O O23 0.000000 0.500000 0.000000
#
# Coordination Sequence:
#
# PCOD9437762 Si02
#       8
#     8   8   8   8   8   8   8   8
#     4   9  19  36  57  78 104 138 178 222 270 325
#     4  10  22  40  60  85 117 152 192 235 279 328
#     4   9  19  36  57  78 104 138 177 221 270 325
#     4  12  24  37  56  85 120 154 188 230 278 330
#     4  10  21  39  64  89 114 148 190 235 282 331
#     4  10  20  37  59  83 111 145 185 229 278 334
#     4  10  20  37  59  83 111 146 186 229 278 333
#     4  10  21  36  52  75 105 138 175 218 270 325
#
# _framework density 18.236155
#
# number of rings (size 3 to 8) (size 9 to 14) (size 15 to 20)
#    0.000    2.000    0.000    3.375    0.000    7.000 
#    0.000    7.500    0.000    0.000    0.000    0.000 
#    0.000    0.000    0.000    0.000    0.000    0.000 
#
# Total GULP energy -357384.800360 kJ/mol
# GULP energy per Si atom -5584.137506 kJ/mol
# Density = 1.819465 g / cm^3
# Si number density = 18.236155 Si / 1000 Ang^3
#
#
#
# Elastic Constant Matrix: (Units=GPa)
#
#
# Indices 1 2 3 4 5 6 
#
# 1 197.0928 112.6693 53.3846 0.0000 0.0000 0.0000
# 2 112.6693 140.2621 45.7487 0.0000 0.0000 0.0000
# 3 53.3846 45.7487 54.7251 0.0000 0.0000 0.0000
# 4 0.0000 0.0000 0.0000 32.3484 0.0000 0.0000
# 5 0.0000 0.0000 0.0000 0.0000 31.7026 0.0000
# 6 0.0000 0.0000 0.0000 0.0000 0.0000 58.6244
#
#
#
# Elastic Compliance Matrix: (Units=1/GPa)
#
#
# Indices 1 2 3 4 5 6 
#
# 1 0.010037 -0.006694 -0.004195 0.000000 0.000000 0.000000
# 2 -0.006694 0.014267 -0.005397 0.000000 0.000000 0.000000
# 3 -0.004195 -0.005397 0.026877 0.000000 0.000000 0.000000
# 4 0.000000 0.000000 0.000000 0.030913 0.000000 0.000000
# 5 0.000000 0.000000 0.000000 0.000000 0.031543 0.000000
# 6 0.000000 0.000000 0.000000 0.000000 0.000000 0.017058
#
#
# Mechanical properties :
#
#
# Convention : Reuss Voigt Hill
#
# Bulk Modulus (GPa) = 53.73679 90.63170 72.18425
# Shear Modulus (GPa) = 29.50403 36.55358 33.02881
#
# Velocity S-wave (km/s) = 4.02666 4.48197 4.26040
# Velocity P-wave (km/s) = 7.15191 8.75162 7.99189
#
# Compressibility (1/GPa) = 0.01860923
#
# Stress axis : x y z
#
# Youngs Moduli (GPa) = 99.63535 70.09257 37.20700
#
# Poissons Ratio (x) = 0.46920 0.15607
# Poissons Ratio (y) = 0.66696 0.20079
# Poissons Ratio (z) = 0.41795 0.37827
#
# Static dielectric constant tensor:
#      x y z
#    x 1.609150 0.000000 0.000000 
#    y 0.000000 1.628860 0.000000 
#    z 0.000000 0.000000 1.613580 
# 
# From -- ./inp_files/9273.got.cif
#   From: 2010.05.17/outbox.cif.g08.bks.cpg/sg57_5_cif.got.tgz:9273.got - 2010.06.03 13:58:18.
