data_PCOD9437634
_publ_section_title
;
Structure prediction by ZEFSAII (Michael W. Deem and Ramdas Pophale) SiO2 
 PCOD9437634
Probable space group: P B C M
;
_chemical_formula_sum "Si O2"
_cell_formula_units_Z 56
_cell_length_a 21.717289
_cell_length_b 15.841839
_cell_length_c 8.605191
_cell_angle_alpha 90.000000
_cell_angle_beta 90.000000
_cell_angle_gamma 90.000000
_cell_volume 2960.545365
_symmetry_space_group_name_H-M "P B C M"
_symmetry_group_IT_number 57
_symmetry_cell_setting 'orthorhombic'
loop_
_space_group_symop_operation_xyz
x,y,z
-x,-y,1/2+z
x,1/2-y,-z
-x,1/2+y,1/2-z
-x,-y,-z
x,y,1/2-z
-x,1/2+y,z
x,1/2-y,1/2+z
loop_
_atom_site_type_symbol
_atom_site_label
_atom_site_fract_x
_atom_site_fract_y
_atom_site_fract_z
Si Si1 0.369195 0.339881 0.562834
Si Si2 0.635255 0.341007 0.936420
Si Si3 0.068178 0.158544 0.937012
Si Si4 0.501495 0.095183 0.437721
Si Si5 0.074672 0.657883 0.936687
Si Si6 0.849516 0.000110 0.063111
Si Si7 0.288409 0.998751 0.436760
O O1 0.347874 0.250000 0.500000
O O2 0.368952 0.337385 0.750000
O O3 0.439379 0.357950 0.510239
O O4 0.326920 0.418398 0.513717
O O5 0.637167 0.340570 0.750000
O O6 0.564820 0.360532 0.987266
O O7 0.654212 0.250000 0.000000
O O8 0.677747 0.415939 0.999017
O O9 0.069505 0.161600 0.750000
O O10 0.996922 0.143935 0.983887
O O11 0.111353 0.081897 0.988569
O O12 0.087379 0.250000 0.000000
O O13 0.500914 0.092328 0.250000
O O14 0.500000 0.000000 0.500000
O O15 0.078008 0.657791 0.750000
O O16 0.092815 0.750000 0.000000
O O17 0.116379 0.583893 0.004060
O O18 0.847903 0.000922 0.250000
O O19 0.780801 0.996456 0.997951
O O20 0.288645 0.995503 0.250000
#
# Coordination Sequence:
#
# PCOD9437634 Si02
#       7
#     8   8   8   8   8   8   8
#     4  10  22  39  60  86 116 151 192 237 289 345
#     4  11  23  39  62  89 117 152 193 240 295 351
#     4   9  20  37  60  89 121 154 191 238 287 342
#     4  10  20  36  60  89 118 150 188 237 293 346
#     4  10  20  37  61  90 120 153 192 236 290 343
#     4  11  23  39  59  86 119 155 197 240 288 343
#     4  11  24  42  60  82 116 156 199 244 288 342
#
# _framework density 18.915433
#
# number of rings (size 3 to 8) (size 9 to 14) (size 15 to 20)
#    0.000    1.714    1.429    2.571    0.000    5.143 
#    0.000    5.714    0.000    0.000    0.000    0.000 
#    0.000    0.000    0.000    0.000    0.000    0.000 
#
# Total GULP energy -312973.094182 kJ/mol
# GULP energy per Si atom -5588.805253 kJ/mol
# Density = 1.887238 g / cm^3
# Si number density = 18.915433 Si / 1000 Ang^3
#
#
#
# Elastic Constant Matrix: (Units=GPa)
#
#
# Indices 1 2 3 4 5 6 
#
# 1 116.5787 81.2362 27.5923 0.0000 0.0000 0.0000
# 2 81.2362 168.8230 30.7190 0.0000 0.0000 0.0000
# 3 27.5923 30.7190 34.5824 0.0000 0.0000 0.0000
# 4 0.0000 0.0000 0.0000 36.4583 0.0000 0.0000
# 5 0.0000 0.0000 0.0000 0.0000 8.1870 0.0000
# 6 0.0000 0.0000 0.0000 0.0000 0.0000 -8.6820
#
#
#
# Elastic Compliance Matrix: (Units=1/GPa)
#
#
# Indices 1 2 3 4 5 6 
#
# 1 0.013922 -0.005580 -0.006152 0.000000 0.000000 0.000000
# 2 -0.005580 0.009302 -0.003811 0.000000 0.000000 0.000000
# 3 -0.006152 -0.003811 0.037209 0.000000 0.000000 0.000000
# 4 0.000000 0.000000 0.000000 0.027429 0.000000 0.000000
# 5 0.000000 0.000000 0.000000 0.000000 0.122144 0.000000
# 6 0.000000 0.000000 0.000000 0.000000 0.000000 -0.115181
#
#
# Mechanical properties :
#
#
# Convention : Reuss Voigt Hill
#
# Bulk Modulus (GPa) = 34.07233 66.56433 50.31833
# Shear Modulus (GPa) = 36.84802 19.22178 28.03490
#
# Velocity S-wave (km/s) = 4.41845 3.19124 3.85400
# Velocity P-wave (km/s) = 6.63945 6.98896 6.81645
#
# Compressibility (1/GPa) = 0.02934933
#
# Stress axis : x y z
#
# Youngs Moduli (GPa) = 71.82806 107.50701 26.87491
#
# Poissons Ratio (x) = 0.59988 0.16532
# Poissons Ratio (y) = 0.40079 0.10241
# Poissons Ratio (z) = 0.44185 0.40966
#
# Static dielectric constant tensor:
#      x y z
#    x 1.645220 0.000000 0.000000 
#    y 0.000000 1.623110 0.000000 
#    z 0.000000 0.000000 1.642600 
# 
# From -- ./inp_files/8068.got.cif
#   From: 2010.05.17/outbox.cif.g08.bks.cpg/sg57_5_cif.got.tgz:8068.got - 2010.06.03 13:58:18.
