data_PCOD9437188
_publ_section_title
;
Structure prediction by ZEFSAII (Michael W. Deem and Ramdas Pophale) SiO2 
 PCOD9437188
Probable space group: P B C M
;
_chemical_formula_sum "Si O2"
_cell_formula_units_Z 48
_cell_length_a 31.670921
_cell_length_b 9.482684
_cell_length_c 8.787805
_cell_angle_alpha 90.000000
_cell_angle_beta 90.000000
_cell_angle_gamma 90.000000
_cell_volume 2639.200488
_symmetry_space_group_name_H-M "P B C M"
_symmetry_group_IT_number 57
_symmetry_cell_setting 'orthorhombic'
loop_
_space_group_symop_operation_xyz
x,y,z
-x,-y,1/2+z
x,1/2-y,-z
-x,1/2+y,1/2-z
-x,-y,-z
x,y,1/2-z
-x,1/2+y,z
x,1/2-y,1/2+z
loop_
_atom_site_type_symbol
_atom_site_label
_atom_site_fract_x
_atom_site_fract_y
_atom_site_fract_z
Si Si1 0.037104 0.593423 0.567929
Si Si2 0.794461 0.594433 0.932331
Si Si3 0.301269 0.406079 0.433381
Si Si4 0.868317 0.406341 0.067949
Si Si5 0.620267 0.406037 0.566811
Si Si6 0.538263 0.907944 0.066818
O O1 0.034079 0.750000 0.500000
O O2 0.033435 0.599763 0.750000
O O3 0.084413 0.538453 0.530857
O O4 0.000000 0.500000 0.500000
O O5 0.797419 0.598338 0.750000
O O6 0.746546 0.549034 0.973522
O O7 0.799743 0.750000 0.000000
O O8 0.830809 0.497249 0.999133
O O9 0.308835 0.250000 0.500000
O O10 0.303574 0.395294 0.250000
O O11 0.336629 0.516916 0.484044
O O12 0.864572 0.400796 0.250000
O O13 0.865756 0.250000 0.000000
O O14 0.615450 0.250000 0.500000
O O15 0.621195 0.394117 0.750000
O O16 0.581255 0.508387 0.527388
O O17 0.534855 0.900342 0.250000
O O18 0.538172 0.750000 0.000000
O O19 0.500000 0.000000 0.000000
#
# Coordination Sequence:
#
# PCOD9437188 Si02
#       6
#     8   8   8   8   8   8
#     4  10  21  37  57  80 107 140 178 221 268 320
#     4  10  20  35  56  81 110 143 181 225 270 320
#     4   9  19  36  56  80 108 140 180 223 269 320
#     4  10  21  37  56  79 108 142 179 220 269 322
#     4  10  22  38  56  81 112 145 183 226 272 324
#     4  11  23  39  60  85 114 148 186 229 277 328
#
# _framework density 18.187325999999999
#
# number of rings (size 3 to 8) (size 9 to 14) (size 15 to 20)
#    0.000    2.000    0.000    3.000    0.000    7.333 
#    0.000    1.667    0.000    0.000    0.000    0.000 
#    0.000    0.000    0.000    0.000    0.000    0.000 
#
# Total GULP energy -268022.100384 kJ/mol
# GULP energy per Si atom -5583.793758 kJ/mol
# Density = 1.814593 g / cm^3
# Si number density = 18.187326 Si / 1000 Ang^3
#
#
#
# Elastic Constant Matrix: (Units=GPa)
#
#
# Indices 1 2 3 4 5 6 
#
# 1 195.0446 118.3690 70.8398 0.0000 0.0000 0.0000
# 2 118.3690 132.6479 49.5511 0.0000 0.0000 0.0000
# 3 70.8398 49.5511 56.7362 0.0000 0.0000 0.0000
# 4 0.0000 0.0000 0.0000 38.9762 0.0000 0.0000
# 5 0.0000 0.0000 0.0000 0.0000 26.9748 0.0000
# 6 0.0000 0.0000 0.0000 0.0000 0.0000 42.3644
#
#
#
# Elastic Compliance Matrix: (Units=1/GPa)
#
#
# Indices 1 2 3 4 5 6 
#
# 1 0.014109 -0.008920 -0.009826 0.000000 0.000000 0.000000
# 2 -0.008920 0.016828 -0.003560 0.000000 0.000000 0.000000
# 3 -0.009826 -0.003560 0.033004 0.000000 0.000000 0.000000
# 4 0.000000 0.000000 0.000000 0.025657 0.000000 0.000000
# 5 0.000000 0.000000 0.000000 0.000000 0.037072 0.000000
# 6 0.000000 0.000000 0.000000 0.000000 0.000000 0.023605
#
#
# Mechanical properties :
#
#
# Convention : Reuss Voigt Hill
#
# Bulk Modulus (GPa) = 51.73643 95.77207 73.75425
# Shear Modulus (GPa) = 24.83499 31.37434 28.10466
#
# Velocity S-wave (km/s) = 3.69929 4.15790 3.93528
# Velocity P-wave (km/s) = 6.83773 8.70769 7.82874
#
# Compressibility (1/GPa) = 0.01932874
#
# Stress axis : x y z
#
# Youngs Moduli (GPa) = 70.87617 59.42413 30.29978
#
# Poissons Ratio (x) = 0.53005 0.29773
# Poissons Ratio (y) = 0.63219 0.10787
# Poissons Ratio (z) = 0.69645 0.21155
#
# Static dielectric constant tensor:
#      x y z
#    x 1.637830 0.000000 0.000000 
#    y 0.000000 1.568780 0.000000 
#    z 0.000000 0.000000 1.609460 
# 
# From -- ./inp_files/9904.got.cif
#   From: 2010.05.17/outbox.cif.g08.bks.cpg/sg57_5_cif.got.tgz:9904.got - 2010.06.03 13:58:18.
