data_PCOD9437647
_publ_section_title
;
Structure prediction by ZEFSAII (Michael W. Deem and Ramdas Pophale) SiO2 
 PCOD9437647
Probable space group: P B C M
;
_chemical_formula_sum "Si O2"
_cell_formula_units_Z 64
_cell_length_a 21.186254
_cell_length_b 8.491637
_cell_length_c 16.987956
_cell_angle_alpha 90.000000
_cell_angle_beta 90.000000
_cell_angle_gamma 90.000000
_cell_volume 3056.234844
_symmetry_space_group_name_H-M "P B C M"
_symmetry_group_IT_number 57
_symmetry_cell_setting 'orthorhombic'
loop_
_space_group_symop_operation_xyz
x,y,z
-x,-y,1/2+z
x,1/2-y,-z
-x,1/2+y,1/2-z
-x,-y,-z
x,y,1/2-z
-x,1/2+y,z
x,1/2-y,1/2+z
loop_
_atom_site_type_symbol
_atom_site_label
_atom_site_fract_x
_atom_site_fract_y
_atom_site_fract_z
Si Si1 0.200046 0.147161 0.156217
Si Si2 0.672241 0.679753 0.844466
Si Si3 0.545962 0.823723 0.587322
Si Si4 0.581520 0.187166 0.912192
Si Si5 0.298588 0.830906 0.843192
Si Si6 0.915747 0.690735 0.911247
Si Si7 0.171211 0.809258 0.409567
Si Si8 0.956243 0.173195 0.412388
O O1 0.201253 0.110236 0.250000
O O2 0.268785 0.211135 0.131612
O O3 0.146990 0.278856 0.138876
O O4 0.181627 0.993621 0.105866
O O5 0.673904 0.674623 0.750000
O O6 0.604833 0.743888 0.870194
O O7 0.683055 0.503074 0.875679
O O8 0.543650 0.750000 0.500000
O O9 0.477110 0.786604 0.622878
O O10 0.558871 0.008298 0.584245
O O11 0.646316 0.210387 0.866309
O O12 0.593553 0.250000 0.000000
O O13 0.295966 0.841141 0.750000
O O14 0.230850 0.777528 0.872719
O O15 0.938655 0.510219 0.915555
O O16 0.974766 0.792215 0.877979
O O17 0.902108 0.750000 0.000000
O O18 0.169512 0.750000 0.500000
O O19 0.103532 0.759967 0.374081
O O20 0.961720 0.250000 0.500000
#
# Coordination Sequence:
#
# PCOD9437647 Si02
#       8
#     8   8   8   8   8   8   8   8
#     4  11  24  42  62  91 128 165 206 261 320 375
#     4  10  23  41  59  82 118 158 197 240 299 365
#     4  11  22  38  62  88 117 151 194 247 297 349
#     4  11  22  39  61  88 119 152 194 243 298 359
#     4  11  23  40  61  88 121 158 199 250 304 361
#     4  11  20  37  63  89 121 160 205 253 302 368
#     4  11  22  39  62  91 123 162 209 254 307 370
#     4  10  20  36  60  91 122 156 204 254 304 361
#
# _framework density 20.940799999999999
#
# number of rings (size 3 to 8) (size 9 to 14) (size 15 to 20)
#    0.000    1.250    0.000    9.000    0.000    3.500 
#    0.000    3.750    0.000    0.000    0.000    0.000 
#    0.000    0.000    0.000    0.000    0.000    0.000 
#
# Total GULP energy -357765.140391 kJ/mol
# GULP energy per Si atom -5590.080319 kJ/mol
# Density = 2.089314 g / cm^3
# Si number density = 20.940800 Si / 1000 Ang^3
#
#
#
# Elastic Constant Matrix: (Units=GPa)
#
#
# Indices 1 2 3 4 5 6 
#
# 1 100.8310 -37.3744 18.2686 0.0000 0.0000 0.0000
# 2 -37.3744 55.3602 7.4992 0.0000 0.0000 0.0000
# 3 18.2686 7.4992 25.2899 0.0000 0.0000 0.0000
# 4 0.0000 0.0000 0.0000 24.3869 0.0000 0.0000
# 5 0.0000 0.0000 0.0000 0.0000 43.5248 0.0000
# 6 0.0000 0.0000 0.0000 0.0000 0.0000 46.6212
#
#
#
# Elastic Compliance Matrix: (Units=1/GPa)
#
#
# Indices 1 2 3 4 5 6 
#
# 1 0.018806 0.015145 -0.018076 0.000000 0.000000 0.000000
# 2 0.015145 0.031016 -0.020137 0.000000 0.000000 0.000000
# 3 -0.018076 -0.020137 0.058570 0.000000 0.000000 0.000000
# 4 0.000000 0.000000 0.000000 0.041006 0.000000 0.000000
# 5 0.000000 0.000000 0.000000 0.000000 0.022975 0.000000
# 6 0.000000 0.000000 0.000000 0.000000 0.000000 0.021449
#
#
# Mechanical properties :
#
#
# Convention : Reuss Voigt Hill
#
# Bulk Modulus (GPa) = 16.06275 17.58531 16.82403
# Shear Modulus (GPa) = 19.17834 35.77910 27.47872
#
# Velocity S-wave (km/s) = 3.02956 4.13799 3.62637
# Velocity P-wave (km/s) = 4.46373 5.58985 5.05823
#
# Compressibility (1/GPa) = 0.06225584
#
# Stress axis : x y z
#
# Youngs Moduli (GPa) = 53.17387 32.24156 17.07359
#
# Poissons Ratio (x) = -0.48830 0.30862
# Poissons Ratio (y) = -0.80531 0.34381
# Poissons Ratio (z) = 0.96116 0.64925
#
# Static dielectric constant tensor:
#      x y z
#    x 1.769790 0.000000 0.000000 
#    y 0.000000 1.760800 0.000000 
#    z 0.000000 0.000000 1.662790 
# 
# From -- ./inp_files/23053.got.cif
#   From: 2010.05.17/outbox.cif.g08.bks.cpg/sg57_12_cif.got.tgz:23053.got - 2010.06.03 13:58:18.
