data_PCOD9437213
_publ_section_title
;
Structure prediction by ZEFSAII (Michael W. Deem and Ramdas Pophale) SiO2 
 PCOD9437213
Probable space group: P B C M
;
_chemical_formula_sum "Si O2"
_cell_formula_units_Z 64
_cell_length_a 14.752543
_cell_length_b 26.189005
_cell_length_c 8.628935
_cell_angle_alpha 90.000000
_cell_angle_beta 90.000000
_cell_angle_gamma 90.000000
_cell_volume 3333.827198
_symmetry_space_group_name_H-M "P B C M"
_symmetry_group_IT_number 57
_symmetry_cell_setting 'orthorhombic'
loop_
_space_group_symop_operation_xyz
x,y,z
-x,-y,1/2+z
x,1/2-y,-z
-x,1/2+y,1/2-z
-x,-y,-z
x,y,1/2-z
-x,1/2+y,z
x,1/2-y,1/2+z
loop_
_atom_site_type_symbol
_atom_site_label
_atom_site_fract_x
_atom_site_fract_y
_atom_site_fract_z
Si Si1 0.415372 0.306774 0.936268
Si Si2 0.882423 0.101907 0.936043
Si Si3 0.207730 0.193971 0.063655
Si Si4 0.763252 0.193835 0.434324
Si Si5 0.210437 0.495494 0.561304
Si Si6 0.914740 0.599045 0.061753
Si Si7 0.405882 0.520810 0.936344
Si Si8 0.588134 0.139407 0.935344
O O1 0.422184 0.307016 0.750000
O O2 0.311525 0.319248 0.980695
O O3 0.434061 0.250000 0.000000
O O4 0.489253 0.344237 0.007297
O O5 0.878282 0.104653 0.750000
O O6 0.829891 0.050328 0.985184
O O7 0.833583 0.151629 0.004111
O O8 0.985512 0.097903 0.991796
O O9 0.205968 0.196332 0.250000
O O10 0.138297 0.150342 0.014329
O O11 0.186224 0.250000 0.000000
O O12 0.782295 0.250000 0.500000
O O13 0.766128 0.195431 0.250000
O O14 0.664160 0.175195 0.489542
O O15 0.211347 0.494648 0.750000
O O16 0.145419 0.449565 0.512022
O O17 0.315009 0.491695 0.510137
O O18 0.920981 0.598333 0.250000
O O19 0.409352 0.517558 0.750000
O O20 0.394514 0.580455 0.977050
O O21 0.500000 0.500000 0.000000
O O22 0.594285 0.144287 0.750000
#
# Coordination Sequence:
#
# PCOD9437213 Si02
#       8
#     8   8   8   8   8   8   8   8
#     4  10  20  35  56  84 114 153 198 240 290 350
#     4  11  22  41  63  89 123 158 197 249 311 364
#     4   9  20  37  58  83 117 155 195 245 297 352
#     4  12  25  42  65  92 122 161 207 254 305 369
#     4   9  19  39  64  86 120 160 197 248 305 357
#     4  10  21  38  62  90 116 155 206 252 304 364
#     4  10  22  39  60  88 123 162 198 245 302 358
#     4  11  22  39  60  86 123 160 197 247 303 359
#
# _framework density 19.197156
#
# number of rings (size 3 to 8) (size 9 to 14) (size 15 to 20)
#    0.000    1.750    1.250    3.000    1.750    2.500 
#    0.000    2.500    0.000    0.000    0.000    0.000 
#    0.000    0.000    0.000    0.000    0.000    0.000 
#
# Total GULP energy -357634.847961 kJ/mol
# GULP energy per Si atom -5588.044499 kJ/mol
# Density = 1.915346 g / cm^3
# Si number density = 19.197156 Si / 1000 Ang^3
#
#
#
# Elastic Constant Matrix: (Units=GPa)
#
#
# Indices 1 2 3 4 5 6 
#
# 1 148.6602 82.7845 31.4274 0.0000 0.0000 0.0000
# 2 82.7845 120.7183 35.8807 0.0000 0.0000 0.0000
# 3 31.4274 35.8807 45.8857 0.0000 0.0000 0.0000
# 4 0.0000 0.0000 0.0000 24.9011 0.0000 0.0000
# 5 0.0000 0.0000 0.0000 0.0000 44.3692 0.0000
# 6 0.0000 0.0000 0.0000 0.0000 0.0000 1.3961
#
#
#
# Elastic Compliance Matrix: (Units=1/GPa)
#
#
# Indices 1 2 3 4 5 6 
#
# 1 0.011041 -0.006936 -0.002138 0.000000 0.000000 0.000000
# 2 -0.006936 0.015149 -0.007096 0.000000 0.000000 0.000000
# 3 -0.002138 -0.007096 0.028806 0.000000 0.000000 0.000000
# 4 0.000000 0.000000 0.000000 0.040159 0.000000 0.000000
# 5 0.000000 0.000000 0.000000 0.000000 0.022538 0.000000
# 6 0.000000 0.000000 0.000000 0.000000 0.000000 0.716271
#
#
# Mechanical properties :
#
#
# Convention : Reuss Voigt Hill
#
# Bulk Modulus (GPa) = 44.13714 68.38328 56.26021
# Shear Modulus (GPa) = 5.72175 25.14472 15.43324
#
# Velocity S-wave (km/s) = 1.72829 3.62306 2.83845
# Velocity P-wave (km/s) = 5.19847 7.29390 6.33345
#
# Compressibility (1/GPa) = 0.02265665
#
# Stress axis : x y z
#
# Youngs Moduli (GPa) = 90.56819 66.00949 34.71461
#
# Poissons Ratio (x) = 0.45786 0.07424
# Poissons Ratio (y) = 0.62820 0.24632
# Poissons Ratio (z) = 0.19368 0.46837
#
# Static dielectric constant tensor:
#      x y z
#    x 1.652430 0.000000 0.000000 
#    y 0.000000 1.660500 0.000000 
#    z 0.000000 0.000000 1.652600 
# 
# From -- ./inp_files/5614.got.cif
#   From: 2010.05.17/outbox.cif.g08.bks.cpg/sg57_3_cif.got.tgz:5614.got - 2010.06.03 13:58:18.
