data_PCOD9437306
_publ_section_title
;
Structure prediction by ZEFSAII (Michael W. Deem and Ramdas Pophale) SiO2 
 PCOD9437306
Probable space group: P B C M
;
_chemical_formula_sum "Si O2"
_cell_formula_units_Z 64
_cell_length_a 24.549804
_cell_length_b 15.507778
_cell_length_c 7.717936
_cell_angle_alpha 90.000000
_cell_angle_beta 90.000000
_cell_angle_gamma 90.000000
_cell_volume 2938.317877
_symmetry_space_group_name_H-M "P B C M"
_symmetry_group_IT_number 57
_symmetry_cell_setting 'orthorhombic'
loop_
_space_group_symop_operation_xyz
x,y,z
-x,-y,1/2+z
x,1/2-y,-z
-x,1/2+y,1/2-z
-x,-y,-z
x,y,1/2-z
-x,1/2+y,z
x,1/2-y,1/2+z
loop_
_atom_site_type_symbol
_atom_site_label
_atom_site_fract_x
_atom_site_fract_y
_atom_site_fract_z
Si Si1 0.240249 0.841607 0.957905
Si Si2 0.100936 0.444100 0.951634
Si Si3 0.581621 0.517085 0.958545
Si Si4 0.488164 0.647346 0.955644
Si Si5 0.704779 0.983166 0.037804
Si Si6 0.001545 0.655261 0.458090
Si Si7 0.878226 0.128992 0.052685
Si Si8 0.795347 0.653155 0.543771
O O1 0.235569 0.850134 0.750000
O O2 0.273600 0.923580 0.019654
O O3 0.178376 0.842421 0.030498
O O4 0.266057 0.750000 0.000000
O O5 0.095084 0.468383 0.750000
O O6 0.042514 0.413465 0.021573
O O7 0.123448 0.525724 0.053188
O O8 0.146104 0.370243 0.964702
O O9 0.581847 0.523533 0.750000
O O10 0.540595 0.592221 0.024716
O O11 0.643107 0.531038 0.021040
O O12 0.560516 0.419810 0.998151
O O13 0.492179 0.646771 0.750000
O O14 0.484218 0.750000 0.000000
O O15 0.704168 0.982123 0.250000
O O16 0.748804 0.912500 0.981891
O O17 0.980171 0.750000 0.500000
O O18 0.004283 0.644517 0.250000
O O19 0.063072 0.649745 0.528729
O O20 0.879793 0.162510 0.250000
O O21 0.779854 0.750000 0.500000
O O22 0.800622 0.643495 0.750000
#
# Coordination Sequence:
#
# PCOD9437306 Si02
#       8
#     8   8   8   8   8   8   8   8
#     4  10  20  36  57  81 108 145 186 229 284 339
#     4  11  22  36  55  81 108 141 186 233 283 344
#     4   9  19  37  60  85 116 155 198 241 282 331
#     4  10  20  35  58  88 121 157 193 235 284 335
#     4   9  19  38  60  82 114 153 191 234 287 334
#     4  10  22  36  52  77 107 138 179 228 284 344
#     4  10  20  37  57  77 105 142 181 229 288 344
#     4  11  22  39  60  83 113 150 190 236 287 343
#
# _framework density 21.781168999999998
#
# number of rings (size 3 to 8) (size 9 to 14) (size 15 to 20)
#    0.000    2.000    1.250    2.250    0.000    4.500 
#    0.000    3.125    0.000    0.000    0.000    0.000 
#    0.000    0.000    0.000    0.000    0.000    0.000 
#
# Total GULP energy -357281.683147 kJ/mol
# GULP energy per Si atom -5582.526299 kJ/mol
# Density = 2.173159 g / cm^3
# Si number density = 21.781169 Si / 1000 Ang^3
#
#
#
# Elastic Constant Matrix: (Units=GPa)
#
#
# Indices 1 2 3 4 5 6 
#
# 1 92.1997 16.9095 4.2209 0.0000 0.0000 0.0000
# 2 16.9095 116.8837 -4.9127 0.0000 0.0000 0.0000
# 3 4.2209 -4.9127 48.6163 0.0000 0.0000 0.0000
# 4 0.0000 0.0000 0.0000 20.2521 0.0000 0.0000
# 5 0.0000 0.0000 0.0000 0.0000 29.5171 0.0000
# 6 0.0000 0.0000 0.0000 0.0000 0.0000 21.0407
#
#
#
# Elastic Compliance Matrix: (Units=1/GPa)
#
#
# Indices 1 2 3 4 5 6 
#
# 1 0.011204 -0.001669 -0.001141 0.000000 0.000000 0.000000
# 2 -0.001669 0.008841 0.001038 0.000000 0.000000 0.000000
# 3 -0.001141 0.001038 0.020773 0.000000 0.000000 0.000000
# 4 0.000000 0.000000 0.000000 0.049378 0.000000 0.000000
# 5 0.000000 0.000000 0.000000 0.000000 0.033879 0.000000
# 6 0.000000 0.000000 0.000000 0.000000 0.000000 0.047527
#
#
# Mechanical properties :
#
#
# Convention : Reuss Voigt Hill
#
# Bulk Modulus (GPa) = 26.82831 32.23722 29.53277
# Shear Modulus (GPa) = 26.65666 30.26077 28.45872
#
# Velocity S-wave (km/s) = 3.50214 3.73139 3.61858
# Velocity P-wave (km/s) = 5.35698 5.77901 5.57199
#
# Compressibility (1/GPa) = 0.03727405
#
# Stress axis : x y z
#
# Youngs Moduli (GPa) = 89.25101 113.11462 48.13886
#
# Poissons Ratio (x) = 0.18878 0.05495
# Poissons Ratio (y) = 0.14895 -0.04998
# Poissons Ratio (z) = 0.10187 -0.11744
#
# Static dielectric constant tensor:
#      x y z
#    x 1.798070 0.000000 0.000000 
#    y 0.000000 1.807330 0.000000 
#    z 0.000000 0.000000 6.446070 
# 
# From -- ./inp_files/9300.got.cif
#   From: 2010.05.17/outbox.cif.g08.bks.cpg/sg57_5_cif.got.tgz:9300.got - 2010.06.03 13:58:18.
