data_PCOD9437335
_publ_section_title
;
Structure prediction by ZEFSAII (Michael W. Deem and Ramdas Pophale) SiO2 
 PCOD9437335
Probable space group: P B C M
;
_chemical_formula_sum "Si O2"
_cell_formula_units_Z 64
_cell_length_a 5.565703
_cell_length_b 33.877369
_cell_length_c 15.249420
_cell_angle_alpha 90.000000
_cell_angle_beta 90.000000
_cell_angle_gamma 90.000000
_cell_volume 2875.299098
_symmetry_space_group_name_H-M "P B C M"
_symmetry_group_IT_number 57
_symmetry_cell_setting 'orthorhombic'
loop_
_space_group_symop_operation_xyz
x,y,z
-x,-y,1/2+z
x,1/2-y,-z
-x,1/2+y,1/2-z
-x,-y,-z
x,y,1/2-z
-x,1/2+y,z
x,1/2-y,1/2+z
loop_
_atom_site_type_symbol
_atom_site_label
_atom_site_fract_x
_atom_site_fract_y
_atom_site_fract_z
Si Si1 0.087674 0.591794 0.149964
Si Si2 0.895016 0.237183 0.844461
Si Si3 0.082883 0.425608 0.355525
Si Si4 0.416795 0.964878 0.143083
Si Si5 0.411930 0.442611 0.642674
Si Si6 0.897251 0.320544 0.899995
Si Si7 0.142761 0.336432 0.412145
Si Si8 0.482573 0.789900 0.488134
O O1 0.087745 0.576313 0.250000
O O2 0.340139 0.577174 0.110174
O O3 0.086919 0.639069 0.151318
O O4 0.836821 0.576766 0.109549
O O5 0.771121 0.237164 0.750000
O O6 0.003587 0.280881 0.857741
O O7 0.717553 0.228587 0.924404
O O8 0.069449 0.199781 0.849901
O O9 0.082938 0.430449 0.250000
O O10 0.332587 0.445322 0.387795
O O11 0.089117 0.379289 0.376870
O O12 0.832347 0.444781 0.387671
O O13 0.417226 0.961880 0.250000
O O14 0.414478 0.011165 0.121707
O O15 0.411040 0.438204 0.750000
O O16 0.623702 0.308108 0.923135
O O17 0.016142 0.329627 0.993865
O O18 0.416056 0.326922 0.435268
O O19 0.644381 0.750000 0.500000
#
# Coordination Sequence:
#
# PCOD9437335 Si02
#       8
#     8   8   8   8   8   8   8   8
#     4  10  20  35  59  91 118 151 199 250 295 350
#     4  10  21  38  59  85 115 148 194 249 296 343
#     4  10  21  34  58  88 117 150 198 248 291 346
#     4   9  18  35  57  87 118 151 191 245 304 353
#     4   9  18  34  59  87 119 151 191 246 305 355
#     4  10  22  37  58  81 117 158 194 239 293 356
#     4  11  22  37  57  82 116 159 198 237 293 355
#     4   9  20  38  57  79 109 156 199 234 286 354
#
# _framework density 22.258554
#
# number of rings (size 3 to 8) (size 9 to 14) (size 15 to 20)
#    0.000    2.250    0.000    3.375    5.250    4.000 
#    0.000    0.000    0.000    4.500    0.000    0.000 
#    0.000    0.000    0.000    0.000    0.000    0.000 
#
# Total GULP energy -356776.818396 kJ/mol
# GULP energy per Si atom -5574.637787 kJ/mol
# Density = 2.220789 g / cm^3
# Si number density = 22.258554 Si / 1000 Ang^3
#
#
#
# Elastic Constant Matrix: (Units=GPa)
#
#
# Indices 1 2 3 4 5 6 
#
# 1 137.4291 87.6880 19.2547 0.0000 0.0000 0.0000
# 2 87.6880 161.5081 0.9144 0.0000 0.0000 0.0000
# 3 19.2547 0.9144 41.2319 0.0000 0.0000 0.0000
# 4 0.0000 0.0000 0.0000 -82.6842 0.0000 0.0000
# 5 0.0000 0.0000 0.0000 0.0000 2.5376 0.0000
# 6 0.0000 0.0000 0.0000 0.0000 0.0000 33.1822
#
#
#
# Elastic Compliance Matrix: (Units=1/GPa)
#
#
# Indices 1 2 3 4 5 6 
#
# 1 0.012302 -0.006648 -0.005598 0.000000 0.000000 0.000000
# 2 -0.006648 0.009785 0.002887 0.000000 0.000000 0.000000
# 3 -0.005598 0.002887 0.026803 0.000000 0.000000 0.000000
# 4 0.000000 0.000000 0.000000 -0.012094 0.000000 0.000000
# 5 0.000000 0.000000 0.000000 0.000000 0.394073 0.000000
# 6 0.000000 0.000000 0.000000 0.000000 0.000000 0.030137
#
#
# Mechanical properties :
#
#
# Convention : Reuss Voigt Hill
#
# Bulk Modulus (GPa) = 33.14096 61.76480 47.45288
# Shear Modulus (GPa) = 10.20869 6.09460 8.15164
#
# Velocity S-wave (km/s) = 2.14391 1.65651 1.91578
# Velocity P-wave (km/s) = 4.58802 5.60961 5.12434
#
# Compressibility (1/GPa) = 0.03017414
#
# Stress axis : x y z
#
# Youngs Moduli (GPa) = 81.28549 102.20241 37.30923
#
# Poissons Ratio (x) = 0.67940 0.20884
# Poissons Ratio (y) = 0.54036 -0.10773
# Poissons Ratio (z) = 0.45500 -0.29510
#
# Static dielectric constant tensor:
#      x y z
#    x 1.945620 0.000000 0.000000 
#    y 0.000000 1.818430 0.000000 
#    z 0.000000 0.000000 1.841240 
# 
# From -- ./inp_files/20352.got.cif
#   From: 2010.05.17/outbox.cif.g08.bks.cpg/sg57_11_cif.got.tgz:20352.got - 2010.06.03 13:58:18.
