data_PCOD9437766
_publ_section_title
;
Structure prediction by ZEFSAII (Michael W. Deem and Ramdas Pophale) SiO2 
 PCOD9437766
Probable space group: P B C M
;
_chemical_formula_sum "Si O2"
_cell_formula_units_Z 64
_cell_length_a 6.848854
_cell_length_b 28.640611
_cell_length_c 16.967281
_cell_angle_alpha 90.000000
_cell_angle_beta 90.000000
_cell_angle_gamma 90.000000
_cell_volume 3328.223167
_symmetry_space_group_name_H-M "P B C M"
_symmetry_group_IT_number 57
_symmetry_cell_setting 'orthorhombic'
loop_
_space_group_symop_operation_xyz
x,y,z
-x,-y,1/2+z
x,1/2-y,-z
-x,1/2+y,1/2-z
-x,-y,-z
x,y,1/2-z
-x,1/2+y,z
x,1/2-y,1/2+z
loop_
_atom_site_type_symbol
_atom_site_label
_atom_site_fract_x
_atom_site_fract_y
_atom_site_fract_z
Si Si1 0.822101 0.914786 0.160067
Si Si2 0.228134 0.585841 0.925286
Si Si3 0.366670 0.589356 0.398866
Si Si4 0.570591 0.265912 0.658415
Si Si5 0.478518 0.489456 0.093522
Si Si6 0.548756 0.663582 0.610678
Si Si7 0.084640 0.832607 0.659422
Si Si8 0.307230 0.336293 0.562904
O O1 0.863542 0.929140 0.250000
O O2 0.693310 0.953577 0.114921
O O3 0.695843 0.867368 0.161793
O O4 0.016198 0.907381 0.109746
O O5 0.325891 0.539478 0.887142
O O6 0.365423 0.629835 0.906109
O O7 0.245210 0.581332 0.019912
O O8 0.429954 0.538918 0.367075
O O9 0.233544 0.623681 0.347369
O O10 0.565230 0.617310 0.419277
O O11 0.539424 0.277132 0.750000
O O12 0.533417 0.211551 0.644587
O O13 0.785061 0.286819 0.639221
O O14 0.417640 0.294464 0.606817
O O15 0.500000 0.500000 0.000000
O O16 0.666922 0.672241 0.529671
O O17 0.014365 0.828776 0.750000
O O18 0.908387 0.839209 0.598534
#
# Coordination Sequence:
#
# PCOD9437766 Si02
#       8
#     8   8   8   8   8   8   8   8
#     4  11  23  37  57  88 120 149 189 241 292 343
#     4   9  20  37  58  83 113 148 190 238 285 335
#     4   9  19  36  58  82 110 148 193 233 277 337
#     4  10  21  37  57  83 116 150 186 233 287 339
#     4   9  20  38  59  82 113 153 194 235 281 338
#     4  10  21  39  60  82 113 156 196 234 283 343
#     4  10  21  36  56  83 115 148 184 233 288 339
#     4  10  20  37  59  84 113 148 193 238 278 332
#
# _framework density 19.229479999999999
#
# number of rings (size 3 to 8) (size 9 to 14) (size 15 to 20)
#    0.000    2.250    0.000    2.625    0.000    7.500 
#    0.000    5.000    0.000    0.000    0.000    0.000 
#    0.000    0.000    0.000    0.000    0.000    0.000 
#
# Total GULP energy -356952.894643 kJ/mol
# GULP energy per Si atom -5577.388979 kJ/mol
# Density = 1.918571 g / cm^3
# Si number density = 19.229480 Si / 1000 Ang^3
#
#
#
# Elastic Constant Matrix: (Units=GPa)
#
#
# Indices 1 2 3 4 5 6 
#
# 1 72.7472 31.1996 28.4674 0.0000 0.0000 0.0000
# 2 31.1996 106.2000 26.3258 0.0000 0.0000 0.0000
# 3 28.4674 26.3258 66.9774 0.0000 0.0000 0.0000
# 4 0.0000 0.0000 0.0000 16.1967 0.0000 0.0000
# 5 0.0000 0.0000 0.0000 0.0000 5.0259 0.0000
# 6 0.0000 0.0000 0.0000 0.0000 0.0000 10.8676
#
#
#
# Elastic Compliance Matrix: (Units=1/GPa)
#
#
# Indices 1 2 3 4 5 6 
#
# 1 0.017708 -0.003697 -0.006074 0.000000 0.000000 0.000000
# 2 -0.003697 0.011204 -0.002833 0.000000 0.000000 0.000000
# 3 -0.006074 -0.002833 0.018625 0.000000 0.000000 0.000000
# 4 0.000000 0.000000 0.000000 0.061741 0.000000 0.000000
# 5 0.000000 0.000000 0.000000 0.000000 0.198970 0.000000
# 6 0.000000 0.000000 0.000000 0.000000 0.000000 0.092016
#
#
# Mechanical properties :
#
#
# Convention : Reuss Voigt Hill
#
# Bulk Modulus (GPa) = 44.77888 46.43447 45.60668
# Shear Modulus (GPa) = 11.54959 17.08016 14.31488
#
# Velocity S-wave (km/s) = 2.45341 2.98355 2.73137
# Velocity P-wave (km/s) = 5.60025 6.00572 5.80653
#
# Compressibility (1/GPa) = 0.02233196
#
# Stress axis : x y z
#
# Youngs Moduli (GPa) = 56.47030 89.25016 53.69050
#
# Poissons Ratio (x) = 0.32994 0.32609
# Poissons Ratio (y) = 0.20876 0.15209
# Poissons Ratio (z) = 0.34298 0.25282
#
# Static dielectric constant tensor:
#      x y z
#    x 1.648980 0.000000 0.000000 
#    y 0.000000 1.679310 0.000000 
#    z 0.000000 0.000000 1.765210 
# 
# From -- ./inp_files/20345.got.cif
#   From: 2010.05.17/outbox.cif.g08.bks.cpg/sg57_11_cif.got.tgz:20345.got - 2010.06.03 13:58:18.
