data_PCOD9437882
_publ_section_title
;
Structure prediction by ZEFSAII (Michael W. Deem and Ramdas Pophale) SiO2 
 PCOD9437882
Probable space group: P B C M
;
_chemical_formula_sum "Si O2"
_cell_formula_units_Z 48
_cell_length_a 29.907323
_cell_length_b 8.737960
_cell_length_c 9.617570
_cell_angle_alpha 90.000000
_cell_angle_beta 90.000000
_cell_angle_gamma 90.000000
_cell_volume 2513.349874
_symmetry_space_group_name_H-M "P B C M"
_symmetry_group_IT_number 57
_symmetry_cell_setting 'orthorhombic'
loop_
_space_group_symop_operation_xyz
x,y,z
-x,-y,1/2+z
x,1/2-y,-z
-x,1/2+y,1/2-z
-x,-y,-z
x,y,1/2-z
-x,1/2+y,z
x,1/2-y,1/2+z
loop_
_atom_site_type_symbol
_atom_site_label
_atom_site_fract_x
_atom_site_fract_y
_atom_site_fract_z
Si Si1 0.558795 0.424132 0.750000
Si Si2 0.798637 0.912594 0.582054
Si Si3 0.602296 0.564762 0.485111
Si Si4 0.539147 0.063031 0.750000
Si Si5 0.872876 0.098539 0.412957
Si Si6 0.963727 0.904369 0.412883
Si Si7 0.699451 0.903239 0.589559
O O1 0.588282 0.476423 0.621502
O O2 0.546616 0.245221 0.750000
O O3 0.512699 0.519718 0.750000
O O4 0.799728 0.750000 0.500000
O O5 0.807603 0.896214 0.750000
O O6 0.747971 0.978245 0.567676
O O7 0.833799 0.016789 0.500710
O O8 0.601602 0.750000 0.500000
O O9 0.564586 0.514012 0.377901
O O10 0.652524 0.516329 0.442236
O O11 0.883997 0.250000 0.500000
O O12 0.860711 0.127688 0.250000
O O13 0.916765 0.993038 0.411600
O O14 0.957834 0.750000 0.500000
O O15 0.976966 0.879528 0.250000
O O16 0.000000 0.000000 0.500000
O O17 0.699776 0.750000 0.500000
O O18 0.697793 0.857154 0.750000
#
# Coordination Sequence:
#
# PCOD9437882 Si02
#       7
#     4   8   8   4   8   8   8
#     4  12  26  40  62  90 118 160 200 246 309 360
#     4  10  20  37  62  92 122 159 205 255 306 368
#     4  11  22  40  64  91 120 156 201 249 302 366
#     4  12  24  44  62  86 124 156 198 250 301 370
#     4  11  24  41  61  89 125 168 212 261 316 372
#     4  11  24  41  64  93 127 165 211 260 316 376
#     4   9  19  35  61  91 121 154 198 248 298 358
#
# _framework density 19.098016999999999
#
# number of rings (size 3 to 8) (size 9 to 14) (size 15 to 20)
#    0.000    1.333    0.833    5.000    3.500    6.000 
#    0.000    1.667    0.000    0.000    0.000    0.000 
#    0.000    0.000    0.000    0.000    0.000    0.000 
#
# Total GULP energy -267817.977194 kJ/mol
# GULP energy per Si atom -5579.541192 kJ/mol
# Density = 1.905455 g / cm^3
# Si number density = 19.098017 Si / 1000 Ang^3
#
#
#
# Elastic Constant Matrix: (Units=GPa)
#
#
# Indices 1 2 3 4 5 6 
#
# 1 107.6474 23.6829 60.0647 0.0000 0.0000 0.0000
# 2 23.6829 96.7427 38.1546 0.0000 0.0000 0.0000
# 3 60.0647 38.1546 169.3592 0.0000 0.0000 0.0000
# 4 0.0000 0.0000 0.0000 30.7118 0.0000 0.0000
# 5 0.0000 0.0000 0.0000 0.0000 34.9109 0.0000
# 6 0.0000 0.0000 0.0000 0.0000 0.0000 33.1265
#
#
#
# Elastic Compliance Matrix: (Units=1/GPa)
#
#
# Indices 1 2 3 4 5 6 
#
# 1 0.011740 -0.001352 -0.003859 0.000000 0.000000 0.000000
# 2 -0.001352 0.011500 -0.002111 0.000000 0.000000 0.000000
# 3 -0.003859 -0.002111 0.007749 0.000000 0.000000 0.000000
# 4 0.000000 0.000000 0.000000 0.032561 0.000000 0.000000
# 5 0.000000 0.000000 0.000000 0.000000 0.028644 0.000000
# 6 0.000000 0.000000 0.000000 0.000000 0.000000 0.030187
#
#
# Mechanical properties :
#
#
# Convention : Reuss Voigt Hill
#
# Bulk Modulus (GPa) = 61.18276 68.61707 64.89992
# Shear Modulus (GPa) = 35.09369 36.53964 35.81667
#
# Velocity S-wave (km/s) = 4.29132 4.37884 4.33530
# Velocity P-wave (km/s) = 7.52726 7.84682 7.68870
#
# Compressibility (1/GPa) = 0.01634447
#
# Stress axis : x y z
#
# Youngs Moduli (GPa) = 85.17590 86.95357 129.04892
#
# Poissons Ratio (x) = 0.11756 0.49803
# Poissons Ratio (y) = 0.11516 0.27247
# Poissons Ratio (z) = 0.32871 0.18359
#
# Static dielectric constant tensor:
#      x y z
#    x 1.670960 0.000000 0.000000 
#    y 0.000000 1.657950 0.000000 
#    z 0.000000 0.000000 1.626240 
# 
# From -- ./inp_files/10108.got.cif
#   From: 2010.05.17/outbox.cif.g08.bks.cpg/sg57_6_cif.got.tgz:10108.got - 2010.06.03 13:58:18.
