data_PCOD9437354
_publ_section_title
;
Structure prediction by ZEFSAII (Michael W. Deem and Ramdas Pophale) SiO2 
 PCOD9437354
Probable space group: P B C M
;
_chemical_formula_sum "Si O2"
_cell_formula_units_Z 60
_cell_length_a 10.848338
_cell_length_b 29.938891
_cell_length_c 9.475009
_cell_angle_alpha 90.000000
_cell_angle_beta 90.000000
_cell_angle_gamma 90.000000
_cell_volume 3077.361728
_symmetry_space_group_name_H-M "P B C M"
_symmetry_group_IT_number 57
_symmetry_cell_setting 'orthorhombic'
loop_
_space_group_symop_operation_xyz
x,y,z
-x,-y,1/2+z
x,1/2-y,-z
-x,1/2+y,1/2-z
-x,-y,-z
x,y,1/2-z
-x,1/2+y,z
x,1/2-y,1/2+z
loop_
_atom_site_type_symbol
_atom_site_label
_atom_site_fract_x
_atom_site_fract_y
_atom_site_fract_z
Si Si1 0.872922 0.001099 0.915488
Si Si2 0.832302 0.325351 0.583860
Si Si3 0.747304 0.904513 0.909046
Si Si4 0.174623 0.236962 0.750000
Si Si5 0.508127 0.610761 0.585157
Si Si6 0.726069 0.076178 0.416568
Si Si7 0.882776 0.814071 0.525424
Si Si8 0.596030 0.208628 0.584655
O O1 0.889238 0.013102 0.750000
O O2 0.814792 0.951799 0.920277
O O3 0.787420 0.036622 0.995540
O O4 0.000000 0.000000 0.000000
O O5 0.819581 0.313259 0.750000
O O6 0.807957 0.378528 0.572540
O O7 0.726460 0.302288 0.490264
O O8 0.968044 0.312429 0.532779
O O9 0.694252 0.900906 0.750000
O O10 0.839874 0.863304 0.930023
O O11 0.639913 0.901195 0.023286
O O12 0.167802 0.276780 0.869482
O O13 0.165828 0.198674 0.627112
O O14 0.493679 0.598756 0.750000
O O15 0.403704 0.587954 0.489201
O O16 0.485009 0.664049 0.573510
O O17 0.713536 0.065827 0.250000
O O18 0.539313 0.250000 0.500000
O O19 0.611847 0.219133 0.750000
#
# Coordination Sequence:
#
# PCOD9437354 Si02
#       8
#     8   8   8   4   8   8   8   8
#     4  11  24  42  67  98 129 164 203 246 306 371
#     4  10  20  35  61  86 124 162 197 251 311 369
#     4  11  24  44  65  87 125 164 203 254 307 367
#     4  10  24  38  60  82 122 162 204 254 306 368
#     4  10  23  43  63  90 120 159 212 260 306 364
#     4  10  21  41  65  94 126 164 205 251 312 369
#     4  11  22  41  57  90 121 159 204 254 307 369
#     4  10  22  37  56  85 119 158 205 255 304 361
#
# _framework density 19.497219999999999
#
# number of rings (size 3 to 8) (size 9 to 14) (size 15 to 20)
#    0.000    1.600    1.333    2.400    3.733    5.867 
#    4.800    0.000    0.000    0.000    0.000    0.000 
#    0.000    0.000    0.000    0.000    0.000    0.000 
#
# Total GULP energy -334257.884438 kJ/mol
# GULP energy per Si atom -5570.964741 kJ/mol
# Density = 1.945284 g / cm^3
# Si number density = 19.497220 Si / 1000 Ang^3
#
#
#
# Elastic Constant Matrix: (Units=GPa)
#
#
# Indices 1 2 3 4 5 6 
#
# 1 47.2100 15.5322 28.2386 0.0000 0.0000 0.0000
# 2 15.5322 84.3279 56.6303 0.0000 0.0000 0.0000
# 3 28.2386 56.6303 179.8506 0.0000 0.0000 0.0000
# 4 0.0000 0.0000 0.0000 35.7317 0.0000 0.0000
# 5 0.0000 0.0000 0.0000 0.0000 86.5736 0.0000
# 6 0.0000 0.0000 0.0000 0.0000 0.0000 -10.6932
#
#
#
# Elastic Compliance Matrix: (Units=1/GPa)
#
#
# Indices 1 2 3 4 5 6 
#
# 1 0.023746 -0.002371 -0.002982 0.000000 0.000000 0.000000
# 2 -0.002371 0.015275 -0.004437 0.000000 0.000000 0.000000
# 3 -0.002982 -0.004437 0.007426 0.000000 0.000000 0.000000
# 4 0.000000 0.000000 0.000000 0.027986 0.000000 0.000000
# 5 0.000000 0.000000 0.000000 0.000000 0.011551 0.000000
# 6 0.000000 0.000000 0.000000 0.000000 0.000000 -0.093517
#
#
# Mechanical properties :
#
#
# Convention : Reuss Voigt Hill
#
# Bulk Modulus (GPa) = 37.22246 56.91007 47.06626
# Shear Modulus (GPa) = 238.06775 36.38823 137.22799
#
# Velocity S-wave (km/s) = 11.06203 4.32479 8.39858
# Velocity P-wave (km/s) = 13.50150 7.36143 10.87385
#
# Compressibility (1/GPa) = 0.02686550
#
# Stress axis : x y z
#
# Youngs Moduli (GPa) = 42.11303 65.46556 134.66996
#
# Poissons Ratio (x) = 0.15524 0.40154
# Poissons Ratio (y) = 0.09986 0.59759
# Poissons Ratio (z) = 0.12557 0.29050
#
# Static dielectric constant tensor:
#      x y z
#    x 1.680920 0.000000 0.000000 
#    y 0.000000 1.654050 0.000000 
#    z 0.000000 0.000000 1.641590 
# 
# From -- ./inp_files/3668.got.cif
#   From: 2010.05.17/outbox.cif.g08.bks.cpg/sg57_2_cif.got.tgz:3668.got - 2010.06.03 13:58:18.
