data_PCOD9437993
_publ_section_title
;
Structure prediction by ZEFSAII (Michael W. Deem and Ramdas Pophale) SiO2 
 PCOD9437993
Probable space group: P B C M
;
_chemical_formula_sum "Si O2"
_cell_formula_units_Z 32
_cell_length_a 11.168533
_cell_length_b 8.096687
_cell_length_c 14.507966
_cell_angle_alpha 90.000000
_cell_angle_beta 90.000000
_cell_angle_gamma 90.000000
_cell_volume 1311.928032
_symmetry_space_group_name_H-M "P B C M"
_symmetry_group_IT_number 57
_symmetry_cell_setting 'orthorhombic'
loop_
_space_group_symop_operation_xyz
x,y,z
-x,-y,1/2+z
x,1/2-y,-z
-x,1/2+y,1/2-z
-x,-y,-z
x,y,1/2-z
-x,1/2+y,z
x,1/2-y,1/2+z
loop_
_atom_site_type_symbol
_atom_site_label
_atom_site_fract_x
_atom_site_fract_y
_atom_site_fract_z
Si Si1 0.317226 0.337612 0.856806
Si Si2 0.458672 0.668674 0.600280
Si Si3 0.137295 0.507305 0.970847
Si Si4 0.221885 0.822668 0.647104
O O1 0.288760 0.365014 0.750000
O O2 0.405978 0.182854 0.865229
O O3 0.403140 0.486510 0.893352
O O4 0.197717 0.355052 0.916871
O O5 0.454448 0.750000 0.500000
O O6 0.360940 0.775678 0.654422
O O7 0.159326 0.660820 0.899895
O O8 0.203974 0.543759 0.067105
O O9 0.000000 0.500000 0.000000
O O10 0.176026 0.860744 0.750000
#
# Coordination Sequence:
#
# PCOD9437993 Si02
#       4
#     8   8   8   8
#     4  11  22  39  64  96 129 166 208 258 316 379
#     4  11  20  38  63  92 127 164 199 258 322 376
#     4  10  21  39  60  83 119 166 207 256 305 364
#     4  10  20  38  61  86 117 160 204 253 319 378
#
# _framework density 24.391583000000001
#
# number of rings (size 3 to 8) (size 9 to 14) (size 15 to 20)
#    0.000    1.500    5.000    5.250    0.000    2.000 
#    4.500    0.000    0.000    0.000    0.000    0.000 
#    0.000    0.000    0.000    0.000    0.000    0.000 
#
# Total GULP energy -178947.847740 kJ/mol
# GULP energy per Si atom -5592.120242 kJ/mol
# Density = 2.433607 g / cm^3
# Si number density = 24.391583 Si / 1000 Ang^3
#
#
#
# Elastic Constant Matrix: (Units=GPa)
#
#
# Indices 1 2 3 4 5 6 
#
# 1 177.2047 24.1398 48.3706 0.0000 0.0000 0.0000
# 2 24.1398 53.3753 15.6546 0.0000 0.0000 0.0000
# 3 48.3706 15.6546 228.3537 0.0000 0.0000 0.0000
# 4 0.0000 0.0000 0.0000 4.0419 0.0000 0.0000
# 5 0.0000 0.0000 0.0000 0.0000 6.7176 0.0000
# 6 0.0000 0.0000 0.0000 0.0000 0.0000 -63.9941
#
#
#
# Elastic Compliance Matrix: (Units=1/GPa)
#
#
# Indices 1 2 3 4 5 6 
#
# 1 0.006302 -0.002509 -0.001163 0.000000 0.000000 0.000000
# 2 -0.002509 0.020119 -0.000848 0.000000 0.000000 0.000000
# 3 -0.001163 -0.000848 0.004684 0.000000 0.000000 0.000000
# 4 0.000000 0.000000 0.000000 0.247410 0.000000 0.000000
# 5 0.000000 0.000000 0.000000 0.000000 0.148864 0.000000
# 6 0.000000 0.000000 0.000000 0.000000 0.000000 -0.015626
#
#
# Mechanical properties :
#
#
# Convention : Reuss Voigt Hill
#
# Bulk Modulus (GPa) = 45.32085 70.58486 57.95285
# Shear Modulus (GPa) = 11.67824 14.07099 12.87461
#
# Velocity S-wave (km/s) = 2.19048 2.40444 2.29995
# Velocity P-wave (km/s) = 5.00185 6.05883 5.55553
#
# Compressibility (1/GPa) = 0.02206490
#
# Stress axis : x y z
#
# Youngs Moduli (GPa) = 158.66778 49.70486 213.50951
#
# Poissons Ratio (x) = 0.12472 0.24831
# Poissons Ratio (y) = 0.39815 0.18099
# Poissons Ratio (z) = 0.18453 0.04213
#
# Static dielectric constant tensor:
#      x y z
#    x 1.942250 0.000000 0.000000 
#    y 0.000000 2.108960 0.000000 
#    z 0.000000 0.000000 1.910270 
# 
# From -- ./inp_files/15508.got.cif
#   From: 2010.05.17/outbox.cif.g08.bks.cpg/sg57_8_cif.got.tgz:15508.got - 2010.06.03 13:58:18.
