data_PCOD9437216
_publ_section_title
;
Structure prediction by ZEFSAII (Michael W. Deem and Ramdas Pophale) SiO2 
 PCOD9437216
Probable space group: P B C M
;
_chemical_formula_sum "Si O2"
_cell_formula_units_Z 48
_cell_length_a 16.604754
_cell_length_b 18.597539
_cell_length_c 8.732794
_cell_angle_alpha 90.000000
_cell_angle_beta 90.000000
_cell_angle_gamma 90.000000
_cell_volume 2696.752808
_symmetry_space_group_name_H-M "P B C M"
_symmetry_group_IT_number 57
_symmetry_cell_setting 'orthorhombic'
loop_
_space_group_symop_operation_xyz
x,y,z
-x,-y,1/2+z
x,1/2-y,-z
-x,1/2+y,1/2-z
-x,-y,-z
x,y,1/2-z
-x,1/2+y,z
x,1/2-y,1/2+z
loop_
_atom_site_type_symbol
_atom_site_label
_atom_site_fract_x
_atom_site_fract_y
_atom_site_fract_z
Si Si1 0.984275 0.329442 0.068361
Si Si2 0.830070 0.398701 0.930953
Si Si3 0.845011 0.829932 0.567148
Si Si4 0.738602 0.546596 0.567845
Si Si5 0.416613 0.529127 0.933092
Si Si6 0.340057 0.671733 0.066098
O O1 0.994731 0.324287 0.250000
O O2 0.968815 0.250000 0.000000
O O3 0.908350 0.377956 0.025338
O O4 0.067588 0.355553 0.993341
O O5 0.846830 0.388631 0.750000
O O6 0.800157 0.479994 0.954955
O O7 0.752813 0.349300 0.971229
O O8 0.834108 0.750000 0.500000
O O9 0.845271 0.827427 0.750000
O O10 0.777005 0.882943 0.504943
O O11 0.726897 0.554892 0.750000
O O12 0.655553 0.522147 0.490864
O O13 0.419000 0.530661 0.750000
O O14 0.500000 0.500000 0.000000
O O15 0.394692 0.608442 0.996497
O O16 0.347458 0.670713 0.250000
O O17 0.358787 0.750000 0.000000
#
# Coordination Sequence:
#
# PCOD9437216 Si02
#       6
#     8   8   8   8   8   8
#     4  11  21  33  51  75 107 146 188 231 274 320
#     4   9  19  34  53  78 110 145 182 224 270 323
#     4  11  22  38  58  79 107 144 186 230 276 325
#     4  10  21  39  60  83 110 141 180 225 274 328
#     4  11  22  39  62  87 115 148 183 223 274 330
#     4  10  20  35  56  84 116 150 186 227 275 328
#
# _framework density 17.799184
#
# number of rings (size 3 to 8) (size 9 to 14) (size 15 to 20)
#    0.000    1.667    0.000    8.000    0.000    6.000 
#    0.000    0.833    0.000    0.000    0.000    0.000 
#    0.000    0.000    0.000    0.000    0.000    0.000 
#
# Total GULP energy -268229.466236 kJ/mol
# GULP energy per Si atom -5588.113880 kJ/mol
# Density = 1.775867 g / cm^3
# Si number density = 17.799184 Si / 1000 Ang^3
#
#
#
# Elastic Constant Matrix: (Units=GPa)
#
#
# Indices 1 2 3 4 5 6 
#
# 1 123.0872 86.7604 79.7515 0.0000 0.0000 0.0000
# 2 86.7604 100.8527 73.4606 0.0000 0.0000 0.0000
# 3 79.7515 73.4606 154.0250 0.0000 0.0000 0.0000
# 4 0.0000 0.0000 0.0000 31.2759 0.0000 0.0000
# 5 0.0000 0.0000 0.0000 0.0000 31.2730 0.0000
# 6 0.0000 0.0000 0.0000 0.0000 0.0000 18.4474
#
#
#
# Elastic Compliance Matrix: (Units=1/GPa)
#
#
# Indices 1 2 3 4 5 6 
#
# 1 0.021871 -0.016191 -0.003602 0.000000 0.000000 0.000000
# 2 -0.016191 0.027180 -0.004580 0.000000 0.000000 0.000000
# 3 -0.003602 -0.004580 0.010542 0.000000 0.000000 0.000000
# 4 0.000000 0.000000 0.000000 0.031973 0.000000 0.000000
# 5 0.000000 0.000000 0.000000 0.000000 0.031976 0.000000
# 6 0.000000 0.000000 0.000000 0.000000 0.000000 0.054208
#
#
# Mechanical properties :
#
#
# Convention : Reuss Voigt Hill
#
# Bulk Modulus (GPa) = 92.19377 95.32333 93.75855
# Shear Modulus (GPa) = 21.72856 25.39877 23.56366
#
# Velocity S-wave (km/s) = 3.49773 3.78161 3.64244
# Velocity P-wave (km/s) = 8.25961 8.52869 8.39523
#
# Compressibility (1/GPa) = 0.01084672
#
# Stress axis : x y z
#
# Youngs Moduli (GPa) = 45.72313 36.79196 94.85951
#
# Poissons Ratio (x) = 0.59569 0.34171
# Poissons Ratio (y) = 0.74030 0.43444
# Poissons Ratio (z) = 0.16471 0.16850
#
# Static dielectric constant tensor:
#      x y z
#    x 1.587520 0.000000 0.000000 
#    y 0.000000 1.594960 0.000000 
#    z 0.000000 0.000000 1.590090 
# 
# From -- ./inp_files/4636.got.cif
#   From: 2010.05.17/outbox.cif.g08.bks.cpg/sg57_3_cif.got.tgz:4636.got - 2010.06.03 13:58:18.
