data_PCOD9437150
_publ_section_title
;
Structure prediction by ZEFSAII (Michael W. Deem and Ramdas Pophale) SiO2 
 PCOD9437150
Probable space group: P B C M
;
_chemical_formula_sum "Si O2"
_cell_formula_units_Z 56
_cell_length_a 21.876395
_cell_length_b 15.923702
_cell_length_c 8.422691
_cell_angle_alpha 90.000000
_cell_angle_beta 90.000000
_cell_angle_gamma 90.000000
_cell_volume 2934.071319
_symmetry_space_group_name_H-M "P B C M"
_symmetry_group_IT_number 57
_symmetry_cell_setting 'orthorhombic'
loop_
_space_group_symop_operation_xyz
x,y,z
-x,-y,1/2+z
x,1/2-y,-z
-x,1/2+y,1/2-z
-x,-y,-z
x,y,1/2-z
-x,1/2+y,z
x,1/2-y,1/2+z
loop_
_atom_site_type_symbol
_atom_site_label
_atom_site_fract_x
_atom_site_fract_y
_atom_site_fract_z
Si Si1 0.369794 0.159161 0.060023
Si Si2 0.930035 0.158079 0.941554
Si Si3 0.851127 0.998924 0.942015
Si Si4 0.289325 0.499354 0.555988
Si Si5 0.928870 0.842113 0.059836
Si Si6 0.499185 0.095795 0.940621
Si Si7 0.631435 0.340972 0.058537
O O1 0.369768 0.159023 0.250000
O O2 0.326319 0.083283 0.004342
O O3 0.349564 0.250000 0.000000
O O4 0.438532 0.140613 0.002710
O O5 0.929501 0.158735 0.750000
O O6 0.000521 0.144645 0.993362
O O7 0.887330 0.082059 0.996833
O O8 0.910475 0.250000 0.000000
O O9 0.851041 0.000086 0.750000
O O10 0.780869 0.998896 0.996052
O O11 0.886564 0.916116 0.996575
O O12 0.289745 0.499215 0.750000
O O13 0.325310 0.582866 0.504785
O O14 0.927917 0.842563 0.250000
O O15 0.909831 0.750000 0.000000
O O16 0.498334 0.095826 0.750000
O O17 0.561923 0.139973 0.994509
O O18 0.500000 0.000000 0.000000
O O19 0.631593 0.341191 0.250000
O O20 0.651326 0.250000 0.000000
#
# Coordination Sequence:
#
# PCOD9437150 Si02
#       7
#     8   8   8   8   8   8   8
#     4  11  22  39  59  82 111 146 187 231 281 335
#     4   9  19  34  55  83 113 146 182 225 277 329
#     4  10  20  36  58  81 109 148 188 227 278 329
#     4   9  20  39  57  76 111 151 184 226 276 328
#     4  10  20  35  55  82 114 144 181 229 277 329
#     4  11  21  36  60  86 114 145 181 229 283 333
#     4  10  21  38  57  81 110 144 180 221 274 326
#
# _framework density 19.086107999999999
#
# number of rings (size 3 to 8) (size 9 to 14) (size 15 to 20)
#    0.000    2.000    1.429    2.143    0.000    4.571 
#    0.000    3.571    0.000    0.000    0.000    0.000 
#    0.000    0.000    0.000    0.000    0.000    0.000 
#
# Total GULP energy -312808.042406 kJ/mol
# GULP energy per Si atom -5585.857900 kJ/mol
# Density = 1.904267 g / cm^3
# Si number density = 19.086108 Si / 1000 Ang^3
#
#
#
# Elastic Constant Matrix: (Units=GPa)
#
#
# Indices 1 2 3 4 5 6 
#
# 1 148.1196 117.5567 22.1229 0.0000 0.0000 0.0000
# 2 117.5567 209.2583 22.3270 0.0000 0.0000 0.0000
# 3 22.1229 22.3270 19.0243 0.0000 0.0000 0.0000
# 4 0.0000 0.0000 0.0000 35.1302 0.0000 0.0000
# 5 0.0000 0.0000 0.0000 0.0000 17.1927 0.0000
# 6 0.0000 0.0000 0.0000 0.0000 0.0000 -2.6812
#
#
#
# Elastic Compliance Matrix: (Units=1/GPa)
#
#
# Indices 1 2 3 4 5 6 
#
# 1 0.013061 -0.006535 -0.007519 0.000000 0.000000 0.000000
# 2 -0.006535 0.008733 -0.002649 0.000000 0.000000 0.000000
# 3 -0.007519 -0.002649 0.064417 0.000000 0.000000 0.000000
# 4 0.000000 0.000000 0.000000 0.028466 0.000000 0.000000
# 5 0.000000 0.000000 0.000000 0.000000 0.058164 0.000000
# 6 0.000000 0.000000 0.000000 0.000000 0.000000 -0.372961
#
#
# Mechanical properties :
#
#
# Convention : Reuss Voigt Hill
#
# Bulk Modulus (GPa) = 18.93784 77.82396 48.38090
# Shear Modulus (GPa) = -33.53138 24.22138 -4.65500
#
# Velocity S-wave (km/s) = -4.19602 3.56625 -1.56341
# Velocity P-wave (km/s) = 3.67854 7.60403 4.70583
#
# Compressibility (1/GPa) = 0.05280434
#
# Stress axis : x y z
#
# Youngs Moduli (GPa) = 76.56395 114.51139 15.52397
#
# Poissons Ratio (x) = 0.74835 0.11672
# Poissons Ratio (y) = 0.50036 0.04113
# Poissons Ratio (z) = 0.57565 0.30336
#
# Static dielectric constant tensor:
#      x y z
#    x 1.653360 0.000000 0.000000 
#    y 0.000000 1.638400 0.000000 
#    z 0.000000 0.000000 1.668060 
# 
# From -- ./inp_files/8015.got.cif
#   From: 2010.05.17/outbox.cif.g08.bks.cpg/sg57_5_cif.got.tgz:8015.got - 2010.06.03 13:58:18.
