data_PCOD9437225
_publ_section_title
;
Structure prediction by ZEFSAII (Michael W. Deem and Ramdas Pophale) SiO2 
 PCOD9437225
Probable space group: P B C M
;
_chemical_formula_sum "Si O2"
_cell_formula_units_Z 32
_cell_length_a 8.686227
_cell_length_b 12.773713
_cell_length_c 11.055286
_cell_angle_alpha 90.000000
_cell_angle_beta 90.000000
_cell_angle_gamma 90.000000
_cell_volume 1226.643357
_symmetry_space_group_name_H-M "P B C M"
_symmetry_group_IT_number 57
_symmetry_cell_setting 'orthorhombic'
loop_
_space_group_symop_operation_xyz
x,y,z
-x,-y,1/2+z
x,1/2-y,-z
-x,1/2+y,1/2-z
-x,-y,-z
x,y,1/2-z
-x,1/2+y,z
x,1/2-y,1/2+z
loop_
_atom_site_type_symbol
_atom_site_label
_atom_site_fract_x
_atom_site_fract_y
_atom_site_fract_z
Si Si1 0.415530 0.990837 0.750000
Si Si2 0.531293 0.750000 0.500000
Si Si3 0.628811 0.164951 0.750000
Si Si4 0.912553 0.132972 0.508289
Si Si5 0.837121 0.165200 0.250000
Si Si6 0.755212 0.572565 0.513191
O O1 0.583888 0.041468 0.750000
O O2 0.337944 0.036829 0.869823
O O3 0.340417 0.875794 0.750000
O O4 0.443248 0.793811 0.380125
O O5 0.642330 0.656100 0.451763
O O6 0.805698 0.209246 0.750000
O O7 0.847321 0.250000 0.500000
O O8 0.924178 0.117954 0.363336
O O9 0.085967 0.128207 0.554426
O O10 0.810014 0.035601 0.549808
#
# Coordination Sequence:
#
# PCOD9437225 Si02
#       6
#     4   4   4   8   4   8
#     4   8  18  39  60  83 115 157 194 245 290 350
#     4  10  20  40  62  86 110 160 208 242 284 358
#     4  10  22  39  62  81 117 161 203 241 283 351
#     4  10  20  35  56  85 118 149 183 250 302 353
#     4  10  22  38  54  84 120 154 193 246 299 345
#     4   9  18  36  60  84 114 150 192 241 304 354
#
# _framework density 26.087454000000001
#
# number of rings (size 3 to 8) (size 9 to 14) (size 15 to 20)
#    0.000    2.500    1.250    0.000    1.750    2.000 
#    4.500    6.250    0.000    0.000    0.000    0.000 
#    0.000    0.000    0.000    0.000    0.000    0.000 
#
# Total GULP energy -178241.985412 kJ/mol
# GULP energy per Si atom -5570.062044 kJ/mol
# Density = 2.602808 g / cm^3
# Si number density = 26.087454 Si / 1000 Ang^3
#
#
#
# Elastic Constant Matrix: (Units=GPa)
#
#
# Indices 1 2 3 4 5 6 
#
# 1 75.8081 12.9973 9.9516 0.0000 0.0000 0.0000
# 2 12.9973 128.0142 -10.0323 0.0000 0.0000 0.0000
# 3 9.9516 -10.0323 45.7371 0.0000 0.0000 0.0000
# 4 0.0000 0.0000 0.0000 24.4528 0.0000 0.0000
# 5 0.0000 0.0000 0.0000 0.0000 61.2368 0.0000
# 6 0.0000 0.0000 0.0000 0.0000 0.0000 41.4529
#
#
#
# Elastic Compliance Matrix: (Units=1/GPa)
#
#
# Indices 1 2 3 4 5 6 
#
# 1 0.013925 -0.001680 -0.003398 0.000000 0.000000 0.000000
# 2 -0.001680 0.008151 0.002153 0.000000 0.000000 0.000000
# 3 -0.003398 0.002153 0.023076 0.000000 0.000000 0.000000
# 4 0.000000 0.000000 0.000000 0.040895 0.000000 0.000000
# 5 0.000000 0.000000 0.000000 0.000000 0.016330 0.000000
# 6 0.000000 0.000000 0.000000 0.000000 0.000000 0.024124
#
#
# Mechanical properties :
#
#
# Convention : Reuss Voigt Hill
#
# Bulk Modulus (GPa) = 25.44405 30.59917 28.02161
# Shear Modulus (GPa) = 34.37554 41.20467 37.79011
#
# Velocity S-wave (km/s) = 3.63396 3.97858 3.81017
# Velocity P-wave (km/s) = 5.23279 5.73240 5.48828
#
# Compressibility (1/GPa) = 0.03930192
#
# Stress axis : x y z
#
# Youngs Moduli (GPa) = 71.81121 122.68452 43.33528
#
# Poissons Ratio (x) = 0.20613 0.14727
# Poissons Ratio (y) = 0.12066 -0.09332
# Poissons Ratio (z) = 0.24405 -0.26420
#
# Static dielectric constant tensor:
#      x y z
#    x 2.033350 0.000000 0.000000 
#    y 0.000000 2.184170 0.000000 
#    z 0.000000 0.000000 2.160260 
# 
# From -- ./inp_files/2445.got.cif
#   From: 2010.05.17/outbox.cif.g08.bks.cpg/sg57_2_cif.got.tgz:2445.got - 2010.06.03 13:58:18.
