data_PCOD9437865
_publ_section_title
;
Structure prediction by ZEFSAII (Michael W. Deem and Ramdas Pophale) SiO2 
 PCOD9437865
Probable space group: P B C M
;
_chemical_formula_sum "Si O2"
_cell_formula_units_Z 48
_cell_length_a 9.850492
_cell_length_b 13.684594
_cell_length_c 17.829273
_cell_angle_alpha 90.000000
_cell_angle_beta 90.000000
_cell_angle_gamma 90.000000
_cell_volume 2403.385710
_symmetry_space_group_name_H-M "P B C M"
_symmetry_group_IT_number 57
_symmetry_cell_setting 'orthorhombic'
loop_
_space_group_symop_operation_xyz
x,y,z
-x,-y,1/2+z
x,1/2-y,-z
-x,1/2+y,1/2-z
-x,-y,-z
x,y,1/2-z
-x,1/2+y,z
x,1/2-y,1/2+z
loop_
_atom_site_type_symbol
_atom_site_label
_atom_site_fract_x
_atom_site_fract_y
_atom_site_fract_z
Si Si1 0.365313 0.206317 0.415726
Si Si2 0.847654 0.326919 0.431821
Si Si3 0.346494 0.715124 0.161064
Si Si4 0.133232 0.145526 0.887233
Si Si5 0.849610 0.555864 0.446769
Si Si6 0.102035 0.566988 0.335175
O O1 0.386497 0.250000 0.500000
O O2 0.507102 0.197037 0.374089
O O3 0.256282 0.280047 0.377633
O O4 0.289235 0.102382 0.417188
O O5 0.848995 0.250000 0.500000
O O6 0.717699 0.307943 0.380525
O O7 0.844640 0.439588 0.457476
O O8 0.982240 0.310535 0.380910
O O9 0.355933 0.727131 0.250000
O O10 0.234528 0.630648 0.145349
O O11 0.142849 0.047107 0.839990
O O12 0.132252 0.110691 0.974339
O O13 0.975275 0.578001 0.391529
O O14 0.061455 0.591372 0.250000
#
# Coordination Sequence:
#
# PCOD9437865 Si02
#       6
#     8   8   8   8   8   8
#     4  10  22  39  59  84 113 149 191 236 284 335
#     4  11  20  36  63  88 114 145 185 236 284 335
#     4  11  24  39  55  81 118 155 189 228 280 340
#     4  10  20  37  62  87 112 143 188 240 285 333
#     4  10  21  38  61  87 112 144 191 238 282 332
#     4  10  21  37  58  83 113 150 189 230 280 337
#
# _framework density 19.971826
#
# number of rings (size 3 to 8) (size 9 to 14) (size 15 to 20)
#    0.000    1.667    0.000    7.000    0.000    5.333 
#    0.000    5.833    0.000    0.000    0.000    0.000 
#    0.000    0.000    0.000    0.000    0.000    0.000 
#
# Total GULP energy -268154.728451 kJ/mol
# GULP energy per Si atom -5586.556843 kJ/mol
# Density = 1.992637 g / cm^3
# Si number density = 19.971826 Si / 1000 Ang^3
#
#
#
# Elastic Constant Matrix: (Units=GPa)
#
#
# Indices 1 2 3 4 5 6 
#
# 1 151.3116 43.8318 51.6286 0.0000 0.0000 0.0000
# 2 43.8318 92.7166 21.2874 0.0000 0.0000 0.0000
# 3 51.6286 21.2874 60.7359 0.0000 0.0000 0.0000
# 4 0.0000 0.0000 0.0000 10.9630 0.0000 0.0000
# 5 0.0000 0.0000 0.0000 0.0000 24.9494 0.0000
# 6 0.0000 0.0000 0.0000 0.0000 0.0000 18.9881
#
#
#
# Elastic Compliance Matrix: (Units=1/GPa)
#
#
# Indices 1 2 3 4 5 6 
#
# 1 0.010035 -0.003029 -0.007468 0.000000 0.000000 0.000000
# 2 -0.003029 0.012644 -0.001857 0.000000 0.000000 0.000000
# 3 -0.007468 -0.001857 0.023464 0.000000 0.000000 0.000000
# 4 0.000000 0.000000 0.000000 0.091216 0.000000 0.000000
# 5 0.000000 0.000000 0.000000 0.000000 0.040081 0.000000
# 6 0.000000 0.000000 0.000000 0.000000 0.000000 0.052665
#
#
# Mechanical properties :
#
#
# Convention : Reuss Voigt Hill
#
# Bulk Modulus (GPa) = 46.65427 59.80665 53.23046
# Shear Modulus (GPa) = 19.08712 23.51451 21.30082
#
# Velocity S-wave (km/s) = 3.09480 3.43503 3.26934
# Velocity P-wave (km/s) = 6.01507 6.76336 6.40016
#
# Compressibility (1/GPa) = 0.02143427
#
# Stress axis : x y z
#
# Youngs Moduli (GPa) = 99.65550 79.08964 42.61887
#
# Poissons Ratio (x) = 0.23958 0.31829
# Poissons Ratio (y) = 0.30187 0.07913
# Poissons Ratio (z) = 0.74425 0.14684
#
# Static dielectric constant tensor:
#      x y z
#    x 1.695130 0.000000 0.000000 
#    y 0.000000 1.732680 0.000000 
#    z 0.000000 0.000000 1.728010 
# 
# From -- ./inp_files/20961.got.cif
#   From: 2010.05.17/outbox.cif.g08.bks.cpg/sg57_11_cif.got.tgz:20961.got - 2010.06.03 13:58:18.
