data_PCOD9437718
_publ_section_title
;
Structure prediction by ZEFSAII (Michael W. Deem and Ramdas Pophale) SiO2 
 PCOD9437718
Probable space group: P B C M
;
_chemical_formula_sum "Si O2"
_cell_formula_units_Z 64
_cell_length_a 7.340376
_cell_length_b 24.097719
_cell_length_c 15.700223
_cell_angle_alpha 90.000000
_cell_angle_beta 90.000000
_cell_angle_gamma 90.000000
_cell_volume 2777.154641
_symmetry_space_group_name_H-M "P B C M"
_symmetry_group_IT_number 57
_symmetry_cell_setting 'orthorhombic'
loop_
_space_group_symop_operation_xyz
x,y,z
-x,-y,1/2+z
x,1/2-y,-z
-x,1/2+y,1/2-z
-x,-y,-z
x,y,1/2-z
-x,1/2+y,z
x,1/2-y,1/2+z
loop_
_atom_site_type_symbol
_atom_site_label
_atom_site_fract_x
_atom_site_fract_y
_atom_site_fract_z
Si Si1 0.069406 0.763130 0.851861
Si Si2 0.733228 0.442177 0.013429
Si Si3 0.663272 0.758562 0.404073
Si Si4 0.238475 0.124307 0.655485
Si Si5 0.697035 0.563741 0.016051
Si Si6 0.615753 0.641635 0.340806
Si Si7 0.195774 0.888418 0.654803
Si Si8 0.191277 0.850151 0.346271
O O1 0.035239 0.756376 0.750000
O O2 0.133171 0.825642 0.864080
O O3 0.211438 0.714137 0.874520
O O4 0.881050 0.753284 0.900300
O O5 0.520961 0.442841 0.988593
O O6 0.748355 0.395671 0.086058
O O7 0.778527 0.504534 0.042260
O O8 0.843109 0.425239 0.928297
O O9 0.598107 0.750000 0.500000
O O10 0.644354 0.820942 0.369406
O O11 0.587595 0.707328 0.350565
O O12 0.289843 0.104311 0.750000
O O13 0.248785 0.080783 0.579217
O O14 0.027973 0.142665 0.658885
O O15 0.726816 0.613936 0.082300
O O16 0.707653 0.631203 0.250000
O O17 0.415524 0.615478 0.339536
O O18 0.132532 0.905562 0.750000
O O19 0.263476 0.858133 0.250000
#
# Coordination Sequence:
#
# PCOD9437718 Si02
#       8
#     8   8   8   8   8   8   8   8
#     4   9  19  35  54  82 113 141 178 216 268 336
#     4  10  22  37  58  78 111 142 187 236 267 321
#     4  11  20  33  56  85 112 141 178 218 271 331
#     4  10  21  38  57  80 114 145 178 224 272 325
#     4  10  22  39  54  83 106 145 191 226 275 319
#     4  10  20  37  56  78 112 145 179 226 272 323
#     4   9  20  36  55  80 110 145 181 223 274 323
#     4   9  20  37  56  81 111 145 178 222 276 324
#
# _framework density 23.045169999999999
#
# number of rings (size 3 to 8) (size 9 to 14) (size 15 to 20)
#    0.000    2.250    1.250    1.875    3.500    3.000 
#    0.000    3.750    0.000    1.500    0.000    0.000 
#    0.000    0.000    0.000    0.000    0.000    0.000 
#
# Total GULP energy -357533.094450 kJ/mol
# GULP energy per Si atom -5586.454601 kJ/mol
# Density = 2.299272 g / cm^3
# Si number density = 23.045170 Si / 1000 Ang^3
#
#
#
# Elastic Constant Matrix: (Units=GPa)
#
#
# Indices 1 2 3 4 5 6 
#
# 1 35.3833 -0.8541 -3.9473 0.0000 0.0000 0.0000
# 2 -0.8541 95.6185 42.7523 0.0000 0.0000 0.0000
# 3 -3.9473 42.7523 118.4347 0.0000 0.0000 0.0000
# 4 0.0000 0.0000 0.0000 -17.1896 0.0000 0.0000
# 5 0.0000 0.0000 0.0000 0.0000 13.1644 0.0000
# 6 0.0000 0.0000 0.0000 0.0000 0.0000 24.5026
#
#
#
# Elastic Compliance Matrix: (Units=1/GPa)
#
#
# Indices 1 2 3 4 5 6 
#
# 1 0.028371 -0.000202 0.001018 0.000000 0.000000 0.000000
# 2 -0.000202 0.012472 -0.004509 0.000000 0.000000 0.000000
# 3 0.001018 -0.004509 0.010105 0.000000 0.000000 0.000000
# 4 0.000000 0.000000 0.000000 -0.058175 0.000000 0.000000
# 5 0.000000 0.000000 0.000000 0.000000 0.075963 0.000000
# 6 0.000000 0.000000 0.000000 0.000000 0.000000 0.040812
#
#
# Mechanical properties :
#
#
# Convention : Reuss Voigt Hill
#
# Bulk Modulus (GPa) = 22.95514 36.14869 29.55192
# Shear Modulus (GPa) = 38.03604 18.19451 28.11528
#
# Velocity S-wave (km/s) = 4.06704 2.81288 3.49665
# Velocity P-wave (km/s) = 5.66012 5.12541 5.39939
#
# Compressibility (1/GPa) = 0.04356322
#
# Stress axis : x y z
#
# Youngs Moduli (GPa) = 35.24766 80.17667 98.96021
#
# Poissons Ratio (x) = 0.01619 -0.10079
# Poissons Ratio (y) = 0.00712 0.44621
# Poissons Ratio (z) = -0.03590 0.36152
#
# Static dielectric constant tensor:
#      x y z
#    x 1.920750 0.000000 0.000000 
#    y 0.000000 1.863650 0.000000 
#    z 0.000000 0.000000 1.869510 
# 
# From -- ./inp_files/16961.got.cif
#   From: 2010.05.17/outbox.cif.g08.bks.cpg/sg57_9_cif.got.tgz:16961.got - 2010.06.03 13:58:18.
