data_PCOD9437240
_publ_section_title
;
Structure prediction by ZEFSAII (Michael W. Deem and Ramdas Pophale) SiO2 
 PCOD9437240
Probable space group: P B C M
;
_chemical_formula_sum "Si O2"
_cell_formula_units_Z 64
_cell_length_a 12.337264
_cell_length_b 32.331408
_cell_length_c 8.650436
_cell_angle_alpha 90.000000
_cell_angle_beta 90.000000
_cell_angle_gamma 90.000000
_cell_volume 3450.495565
_symmetry_space_group_name_H-M "P B C M"
_symmetry_group_IT_number 57
_symmetry_cell_setting 'orthorhombic'
loop_
_space_group_symop_operation_xyz
x,y,z
-x,-y,1/2+z
x,1/2-y,-z
-x,1/2+y,1/2-z
-x,-y,-z
x,y,1/2-z
-x,1/2+y,z
x,1/2-y,1/2+z
loop_
_atom_site_type_symbol
_atom_site_label
_atom_site_fract_x
_atom_site_fract_y
_atom_site_fract_z
Si Si1 0.407232 0.630492 0.436607
Si Si2 0.609761 0.980229 0.566901
Si Si3 0.870032 0.875174 0.937019
Si Si4 0.993769 0.294785 0.936742
Si Si5 0.258405 0.552293 0.435166
Si Si6 0.637395 0.889215 0.433215
Si Si7 0.989737 0.046488 0.064931
Si Si8 0.256681 0.705844 0.063708
O O1 0.415768 0.630693 0.250000
O O2 0.340626 0.589006 0.478100
O O3 0.526551 0.630977 0.506348
O O4 0.334887 0.669185 0.486980
O O5 0.599450 0.974318 0.750000
O O6 0.629840 0.936802 0.486158
O O7 0.500000 0.000000 0.500000
O O8 0.705925 0.011595 0.525916
O O9 0.871714 0.876309 0.750000
O O10 0.937284 0.834614 0.986420
O O11 0.926054 0.918344 0.990904
O O12 0.747388 0.871981 0.993823
O O13 0.996887 0.293122 0.750000
O O14 0.868208 0.300861 0.984772
O O15 0.029741 0.250000 0.000000
O O16 0.269408 0.545137 0.250000
O O17 0.132912 0.562178 0.465621
O O18 0.642631 0.886361 0.250000
O O19 0.002433 0.043417 0.250000
O O20 0.000000 0.000000 0.000000
O O21 0.257496 0.706621 0.250000
O O22 0.292208 0.750000 0.000000
#
# Coordination Sequence:
#
# PCOD9437240 Si02
#       8
#     8   8   8   8   8   8   8   8
#     4  10  20  36  58  81 109 145 185 227 279 336
#     4  12  23  37  56  80 111 149 191 233 280 332
#     4  10  21  39  60  82 114 156 196 236 288 349
#     4   9  18  35  61  90 118 147 186 233 286 347
#     4  10  20  35  57  83 110 142 185 235 282 330
#     4  12  25  39  56  81 113 149 193 240 284 334
#     4  10  21  36  55  81 112 148 189 232 281 338
#     4   9  18  34  58  88 117 147 180 223 282 342
#
# _framework density 18.54806
#
# number of rings (size 3 to 8) (size 9 to 14) (size 15 to 20)
#    0.000    1.750    1.250    3.750    0.000    7.000 
#    0.000    0.625    0.000    4.500    0.000    0.000 
#    0.000    0.000    0.000    0.000    0.000    0.000 
#
# Total GULP energy -357478.409175 kJ/mol
# GULP energy per Si atom -5585.600143 kJ/mol
# Density = 1.850584 g / cm^3
# Si number density = 18.548060 Si / 1000 Ang^3
#
#
#
# Elastic Constant Matrix: (Units=GPa)
#
#
# Indices 1 2 3 4 5 6 
#
# 1 112.0392 65.7902 21.7665 0.0000 0.0000 0.0000
# 2 65.7902 131.9820 21.0427 0.0000 0.0000 0.0000
# 3 21.7665 21.0427 17.3130 0.0000 0.0000 0.0000
# 4 0.0000 0.0000 0.0000 29.1064 0.0000 0.0000
# 5 0.0000 0.0000 0.0000 0.0000 22.4202 0.0000
# 6 0.0000 0.0000 0.0000 0.0000 0.0000 35.3736
#
#
#
# Elastic Compliance Matrix: (Units=1/GPa)
#
#
# Indices 1 2 3 4 5 6 
#
# 1 0.014259 -0.005271 -0.011520 0.000000 0.000000 0.000000
# 2 -0.005271 0.011346 -0.007164 0.000000 0.000000 0.000000
# 3 -0.011520 -0.007164 0.080951 0.000000 0.000000 0.000000
# 4 0.000000 0.000000 0.000000 0.034357 0.000000 0.000000
# 5 0.000000 0.000000 0.000000 0.000000 0.044603 0.000000
# 6 0.000000 0.000000 0.000000 0.000000 0.000000 0.028270
#
#
# Mechanical properties :
#
#
# Convention : Reuss Voigt Hill
#
# Bulk Modulus (GPa) = 17.05148 53.17035 35.11092
# Shear Modulus (GPa) = 17.77821 27.56237 22.67029
#
# Velocity S-wave (km/s) = 3.09931 3.85905 3.49986
# Velocity P-wave (km/s) = 4.69263 6.97028 5.94161
#
# Compressibility (1/GPa) = 0.05864592
#
# Stress axis : x y z
#
# Youngs Moduli (GPa) = 70.13297 88.13353 12.35319
#
# Poissons Ratio (x) = 0.46454 0.14231
# Poissons Ratio (y) = 0.36966 0.08850
# Poissons Ratio (z) = 0.80794 0.63139
#
# Static dielectric constant tensor:
#      x y z
#    x 1.648010 0.000000 0.000000 
#    y 0.000000 1.634720 0.000000 
#    z 0.000000 0.000000 1.625120 
# 
# From -- ./inp_files/3805.got.cif
#   From: 2010.05.17/outbox.cif.g08.bks.cpg/sg57_2_cif.got.tgz:3805.got - 2010.06.03 13:58:18.
