data_PCOD9437988
_publ_section_title
;
Structure prediction by ZEFSAII (Michael W. Deem and Ramdas Pophale) SiO2 
 PCOD9437988
Probable space group: P B C M
;
_chemical_formula_sum "Si O2"
_cell_formula_units_Z 64
_cell_length_a 12.283470
_cell_length_b 31.804643
_cell_length_c 8.468765
_cell_angle_alpha 90.000000
_cell_angle_beta 90.000000
_cell_angle_gamma 90.000000
_cell_volume 3308.504094
_symmetry_space_group_name_H-M "P B C M"
_symmetry_group_IT_number 57
_symmetry_cell_setting 'orthorhombic'
loop_
_space_group_symop_operation_xyz
x,y,z
-x,-y,1/2+z
x,1/2-y,-z
-x,1/2+y,1/2-z
-x,-y,-z
x,y,1/2-z
-x,1/2+y,z
x,1/2-y,1/2+z
loop_
_atom_site_type_symbol
_atom_site_label
_atom_site_fract_x
_atom_site_fract_y
_atom_site_fract_z
Si Si1 0.012290 0.794596 0.062062
Si Si2 0.020960 0.953415 0.440021
Si Si3 0.521661 0.046632 0.939938
Si Si4 0.512027 0.294760 0.939311
Si Si5 0.125411 0.375534 0.443034
Si Si6 0.246908 0.818105 0.937432
Si Si7 0.623294 0.625277 0.941265
Si Si8 0.249647 0.587401 0.558925
O O1 0.006097 0.794540 0.250000
O O2 0.943722 0.834908 0.003974
O O3 0.970455 0.750000 0.000000
O O4 0.138290 0.799647 0.013953
O O5 0.016599 0.954075 0.250000
O O6 0.140851 0.937428 0.485326
O O7 0.934091 0.918385 0.494746
O O8 0.000000 0.000000 0.500000
O O9 0.517055 0.045751 0.750000
O O10 0.436098 0.082268 0.994031
O O11 0.641844 0.062385 0.985308
O O12 0.500000 0.000000 0.000000
O O13 0.511699 0.295244 0.750000
O O14 0.637680 0.299794 0.994855
O O15 0.469490 0.250000 0.000000
O O16 0.443003 0.334302 0.999767
O O17 0.123613 0.375422 0.250000
O O18 0.250964 0.373555 0.492395
O O19 0.239844 0.811661 0.750000
O O20 0.249414 0.867349 0.978546
O O21 0.620869 0.625871 0.750000
O O22 0.249271 0.593480 0.750000
#
# Coordination Sequence:
#
# PCOD9437988 Si02
#       8
#     8   8   8   8   8   8   8   8
#     4  11  22  39  61  86 119 154 191 239 290 348
#     4  10  21  38  59  85 117 153 194 238 289 345
#     4  10  22  37  59  87 117 155 196 239 292 346
#     4  11  24  40  60  88 119 153 192 241 294 349
#     4   9  20  39  61  84 116 155 193 237 291 346
#     4  11  22  37  60  91 120 151 195 242 295 349
#     4  10  21  40  63  86 115 155 199 241 290 348
#     4  10  20  38  61  85 116 158 197 239 297 349
#
# _framework density 19.344090000000001
#
# number of rings (size 3 to 8) (size 9 to 14) (size 15 to 20)
#    0.000    1.750    2.500    1.500    1.750    4.500 
#    0.000    3.125    0.000    0.000    0.000    0.000 
#    0.000    0.000    0.000    0.000    0.000    0.000 
#
# Total GULP energy -357565.865929 kJ/mol
# GULP energy per Si atom -5586.966655 kJ/mol
# Density = 1.930006 g / cm^3
# Si number density = 19.344090 Si / 1000 Ang^3
#
#
#
# Elastic Constant Matrix: (Units=GPa)
#
#
# Indices 1 2 3 4 5 6 
#
# 1 152.7216 86.4608 22.1576 0.0000 0.0000 0.0000
# 2 86.4608 193.7269 21.0094 0.0000 0.0000 0.0000
# 3 22.1576 21.0094 13.3345 0.0000 0.0000 0.0000
# 4 0.0000 0.0000 0.0000 35.9401 0.0000 0.0000
# 5 0.0000 0.0000 0.0000 0.0000 3.6002 0.0000
# 6 0.0000 0.0000 0.0000 0.0000 0.0000 63.0130
#
#
#
# Elastic Compliance Matrix: (Units=1/GPa)
#
#
# Indices 1 2 3 4 5 6 
#
# 1 0.010065 -0.003230 -0.011635 0.000000 0.000000 0.000000
# 2 -0.003230 0.007262 -0.006075 0.000000 0.000000 0.000000
# 3 -0.011635 -0.006075 0.103898 0.000000 0.000000 0.000000
# 4 0.000000 0.000000 0.000000 0.027824 0.000000 0.000000
# 5 0.000000 0.000000 0.000000 0.000000 0.277765 0.000000
# 6 0.000000 0.000000 0.000000 0.000000 0.000000 0.015870
#
#
# Mechanical properties :
#
#
# Convention : Reuss Voigt Hill
#
# Bulk Modulus (GPa) = 12.60318 68.78207 40.69262
# Shear Modulus (GPa) = 9.78451 35.85433 22.81942
#
# Velocity S-wave (km/s) = 2.25147 4.30990 3.43834
# Velocity P-wave (km/s) = 3.64530 7.77183 6.06999
#
# Compressibility (1/GPa) = 0.07934508
#
# Stress axis : x y z
#
# Youngs Moduli (GPa) = 99.35866 137.69745 9.62485
#
# Poissons Ratio (x) = 0.44477 0.11198
# Poissons Ratio (y) = 0.32093 0.05847
# Poissons Ratio (z) = 1.15602 0.83650
#
# Static dielectric constant tensor:
#      x y z
#    x 1.669390 0.000000 0.000000 
#    y 0.000000 1.648950 0.000000 
#    z 0.000000 0.000000 1.669430 
# 
# From -- ./inp_files/3818.got.cif
#   From: 2010.05.17/outbox.cif.g08.bks.cpg/sg57_2_cif.got.tgz:3818.got - 2010.06.03 13:58:18.
