data_PCOD9437166
_publ_section_title
;
Structure prediction by ZEFSAII (Michael W. Deem and Ramdas Pophale) SiO2 
 PCOD9437166
Probable space group: P B C M
;
_chemical_formula_sum "Si O2"
_cell_formula_units_Z 48
_cell_length_a 8.229914
_cell_length_b 17.100090
_cell_length_c 18.301149
_cell_angle_alpha 90.000000
_cell_angle_beta 90.000000
_cell_angle_gamma 90.000000
_cell_volume 2575.562244
_symmetry_space_group_name_H-M "P B C M"
_symmetry_group_IT_number 57
_symmetry_cell_setting 'orthorhombic'
loop_
_space_group_symop_operation_xyz
x,y,z
-x,-y,1/2+z
x,1/2-y,-z
-x,1/2+y,1/2-z
-x,-y,-z
x,y,1/2-z
-x,1/2+y,z
x,1/2-y,1/2+z
loop_
_atom_site_type_symbol
_atom_site_label
_atom_site_fract_x
_atom_site_fract_y
_atom_site_fract_z
Si Si1 0.134753 0.281772 0.662929
Si Si2 0.859941 0.878509 0.406863
Si Si3 0.395875 0.420034 0.833404
Si Si4 0.906258 0.487805 0.165235
Si Si5 0.357544 0.526567 0.054521
Si Si6 0.954855 0.380698 0.557214
O O1 0.100962 0.277929 0.750000
O O2 0.199330 0.200787 0.630145
O O3 0.272597 0.348481 0.652023
O O4 0.979853 0.308746 0.613497
O O5 0.009874 0.907380 0.356108
O O6 0.929638 0.866127 0.488217
O O7 0.728533 0.948034 0.414541
O O8 0.446156 0.414623 0.750000
O O9 0.285598 0.498250 0.843119
O O10 0.550475 0.425434 0.883297
O O11 0.943304 0.508237 0.250000
O O12 0.983708 0.547288 0.107091
O O13 0.216387 0.585827 0.027422
O O14 0.500000 0.500000 0.000000
#
# Coordination Sequence:
#
# PCOD9437166 Si02
#       6
#     8   8   8   8   8   8
#     4  10  21  39  58  79 108 145 186 233 279 327
#     4  11  21  35  58  84 108 142 193 239 272 313
#     4   9  19  35  55  78 111 147 177 215 277 341
#     4   9  17  33  55  79 106 141 183 228 270 320
#     4  11  21  35  57  83 113 145 181 225 277 335
#     4  10  20  35  56  79 107 144 184 222 271 332
#
# _framework density 18.636707000000001
#
# number of rings (size 3 to 8) (size 9 to 14) (size 15 to 20)
#    0.000    2.000    0.000    7.500    0.000    4.000 
#    0.000    5.000    0.000    2.000    0.000    0.000 
#    0.000    0.000    0.000    0.000    0.000    0.000 
#
# Total GULP energy -267278.938399 kJ/mol
# GULP energy per Si atom -5568.311217 kJ/mol
# Density = 1.859429 g / cm^3
# Si number density = 18.636707 Si / 1000 Ang^3
#
#
#
# Elastic Constant Matrix: (Units=GPa)
#
#
# Indices 1 2 3 4 5 6 
#
# 1 42.9272 19.0566 30.4220 0.0000 0.0000 0.0000
# 2 19.0566 66.5298 26.9835 0.0000 0.0000 0.0000
# 3 30.4220 26.9835 94.2572 0.0000 0.0000 0.0000
# 4 0.0000 0.0000 0.0000 26.0362 0.0000 0.0000
# 5 0.0000 0.0000 0.0000 0.0000 28.5848 0.0000
# 6 0.0000 0.0000 0.0000 0.0000 0.0000 17.4487
#
#
#
# Elastic Compliance Matrix: (Units=1/GPa)
#
#
# Indices 1 2 3 4 5 6 
#
# 1 0.031962 -0.005624 -0.008706 0.000000 0.000000 0.000000
# 2 -0.005624 0.017995 -0.003336 0.000000 0.000000 0.000000
# 3 -0.008706 -0.003336 0.014374 0.000000 0.000000 0.000000
# 4 0.000000 0.000000 0.000000 0.038408 0.000000 0.000000
# 5 0.000000 0.000000 0.000000 0.000000 0.034984 0.000000
# 6 0.000000 0.000000 0.000000 0.000000 0.000000 0.057311
#
#
# Mechanical properties :
#
#
# Convention : Reuss Voigt Hill
#
# Bulk Modulus (GPa) = 34.48453 39.62650 37.05551
# Shear Modulus (GPa) = 20.83058 22.89740 21.86399
#
# Velocity S-wave (km/s) = 3.34686 3.50897 3.42887
# Velocity P-wave (km/s) = 5.78610 6.14214 5.96678
#
# Compressibility (1/GPa) = 0.02899851
#
# Stress axis : x y z
#
# Youngs Moduli (GPa) = 31.28756 55.57114 69.56902
#
# Poissons Ratio (x) = 0.31253 0.60565
# Poissons Ratio (y) = 0.17596 0.23211
# Poissons Ratio (z) = 0.27238 0.18540
#
# Static dielectric constant tensor:
#      x y z
#    x 1.673200 0.000000 0.000000 
#    y 0.000000 1.699380 0.000000 
#    z 0.000000 0.000000 1.672520 
# 
# From -- ./inp_files/21092.got.cif
#   From: 2010.05.17/outbox.cif.g08.bks.cpg/sg57_11_cif.got.tgz:21092.got - 2010.06.03 13:58:18.
