data_PCOD9437295
_publ_section_title
;
Structure prediction by ZEFSAII (Michael W. Deem and Ramdas Pophale) SiO2 
 PCOD9437295
Probable space group: P B C M
;
_chemical_formula_sum "Si O2"
_cell_formula_units_Z 48
_cell_length_a 15.893265
_cell_length_b 18.251002
_cell_length_c 8.870509
_cell_angle_alpha 90.000000
_cell_angle_beta 90.000000
_cell_angle_gamma 90.000000
_cell_volume 2573.050905
_symmetry_space_group_name_H-M "P B C M"
_symmetry_group_IT_number 57
_symmetry_cell_setting 'orthorhombic'
loop_
_space_group_symop_operation_xyz
x,y,z
-x,-y,1/2+z
x,1/2-y,-z
-x,1/2+y,1/2-z
-x,-y,-z
x,y,1/2-z
-x,1/2+y,z
x,1/2-y,1/2+z
loop_
_atom_site_type_symbol
_atom_site_label
_atom_site_fract_x
_atom_site_fract_y
_atom_site_fract_z
Si Si1 0.508775 0.419687 0.930395
Si Si2 0.179428 0.591179 0.429427
Si Si3 0.662825 0.330385 0.070609
Si Si4 0.662280 0.669311 0.069911
Si Si5 0.180612 0.084092 0.570289
Si Si6 0.992383 0.918788 0.930458
O O1 0.519091 0.424347 0.750000
O O2 0.424377 0.373478 0.962625
O O3 0.500000 0.500000 0.000000
O O4 0.588553 0.379659 0.002414
O O5 0.194125 0.601196 0.250000
O O6 0.248733 0.633950 0.522699
O O7 0.185911 0.503636 0.459867
O O8 0.083585 0.616043 0.463048
O O9 0.655314 0.326777 0.250000
O O10 0.656470 0.250000 0.000000
O O11 0.671697 0.674152 0.250000
O O12 0.659159 0.750000 0.000000
O O13 0.740352 0.624744 0.001436
O O14 0.179702 0.093521 0.750000
O O15 0.092576 0.112849 0.501338
O O16 0.984029 0.923763 0.750000
O O17 0.000000 0.000000 0.000000
#
# Coordination Sequence:
#
# PCOD9437295 Si02
#       6
#     8   8   8   8   8   8
#     4  11  24  42  65  91 117 148 190 237 285 340
#     4   9  19  36  58  85 116 151 192 238 286 338
#     4  12  25  40  60  85 117 155 192 236 288 343
#     4  11  24  40  59  84 115 152 191 233 283 339
#     4  10  20  35  58  86 117 152 190 237 288 340
#     4   9  17  31  54  83 115 150 191 239 287 336
#
# _framework density 18.654896999999998
#
# number of rings (size 3 to 8) (size 9 to 14) (size 15 to 20)
#    0.000    1.667    0.000    6.000    0.000   10.667 
#    0.000    0.833    0.000    4.000    0.000    0.000 
#    0.000    0.000    0.000    0.000    0.000    0.000 
#
# Total GULP energy -268201.761302 kJ/mol
# GULP energy per Si atom -5587.536694 kJ/mol
# Density = 1.861244 g / cm^3
# Si number density = 18.654897 Si / 1000 Ang^3
#
#
#
# Elastic Constant Matrix: (Units=GPa)
#
#
# Indices 1 2 3 4 5 6 
#
# 1 123.8404 36.8592 65.9220 0.0000 0.0000 0.0000
# 2 36.8592 73.8754 43.5943 0.0000 0.0000 0.0000
# 3 65.9220 43.5943 84.1482 0.0000 0.0000 0.0000
# 4 0.0000 0.0000 0.0000 31.0579 0.0000 0.0000
# 5 0.0000 0.0000 0.0000 0.0000 33.2347 0.0000
# 6 0.0000 0.0000 0.0000 0.0000 0.0000 -27.8273
#
#
#
# Elastic Compliance Matrix: (Units=1/GPa)
#
#
# Indices 1 2 3 4 5 6 
#
# 1 0.013878 -0.000733 -0.010493 0.000000 0.000000 0.000000
# 2 -0.000733 0.019535 -0.009547 0.000000 0.000000 0.000000
# 3 -0.010493 -0.009547 0.025050 0.000000 0.000000 0.000000
# 4 0.000000 0.000000 0.000000 0.032198 0.000000 0.000000
# 5 0.000000 0.000000 0.000000 0.000000 0.030089 0.000000
# 6 0.000000 0.000000 0.000000 0.000000 0.000000 -0.035936
#
#
# Mechanical properties :
#
#
# Convention : Reuss Voigt Hill
#
# Bulk Modulus (GPa) = 59.10425 63.84611 61.47518
# Shear Modulus (GPa) = 37.87906 16.32563 27.10234
#
# Velocity S-wave (km/s) = 4.51101 2.96148 3.81573
# Velocity P-wave (km/s) = 7.67360 6.78181 7.24145
#
# Compressibility (1/GPa) = 0.01691926
#
# Stress axis : x y z
#
# Youngs Moduli (GPa) = 72.05390 51.18915 39.92035
#
# Poissons Ratio (x) = 0.03750 0.41888
# Poissons Ratio (y) = 0.05278 0.38111
# Poissons Ratio (z) = 0.75606 0.48869
#
# Static dielectric constant tensor:
#      x y z
#    x 1.650930 0.000000 0.000000 
#    y 0.000000 1.571350 0.000000 
#    z 0.000000 0.000000 1.615880 
# 
# From -- ./inp_files/4649.got.cif
#   From: 2010.05.17/outbox.cif.g08.bks.cpg/sg57_3_cif.got.tgz:4649.got - 2010.06.03 13:58:18.
