data_PCOD9437462
_publ_section_title
;
Structure prediction by ZEFSAII (Michael W. Deem and Ramdas Pophale) SiO2 
 PCOD9437462
Probable space group: P B C M
;
_chemical_formula_sum "Si O2"
_cell_formula_units_Z 64
_cell_length_a 20.231882
_cell_length_b 20.494118
_cell_length_c 8.829456
_cell_angle_alpha 90.000000
_cell_angle_beta 90.000000
_cell_angle_gamma 90.000000
_cell_volume 3660.997754
_symmetry_space_group_name_H-M "P B C M"
_symmetry_group_IT_number 57
_symmetry_cell_setting 'orthorhombic'
loop_
_space_group_symop_operation_xyz
x,y,z
-x,-y,1/2+z
x,1/2-y,-z
-x,1/2+y,1/2-z
-x,-y,-z
x,y,1/2-z
-x,1/2+y,z
x,1/2-y,1/2+z
loop_
_atom_site_type_symbol
_atom_site_label
_atom_site_fract_x
_atom_site_fract_y
_atom_site_fract_z
Si Si1 0.150870 0.413708 0.932016
Si Si2 0.480335 0.929813 0.930991
Si Si3 0.391662 0.110092 0.930925
Si Si4 0.339422 0.965143 0.931852
Si Si5 0.196342 0.943454 0.067379
Si Si6 0.042927 0.320308 0.431579
Si Si7 0.111802 0.680532 0.567915
Si Si8 0.260021 0.180374 0.931554
O O1 0.149508 0.409357 0.750000
O O2 0.159561 0.489326 0.976470
O O3 0.087393 0.377504 0.000246
O O4 0.213624 0.374470 0.996344
O O5 0.483823 0.933595 0.750000
O O6 0.403307 0.920911 0.972450
O O7 0.537270 0.882392 0.991498
O O8 0.500000 0.000000 0.000000
O O9 0.401453 0.108518 0.750000
O O10 0.336134 0.163062 0.967638
O O11 0.359987 0.039538 0.973516
O O12 0.331607 0.963911 0.750000
O O13 0.270934 0.945753 0.006910
O O14 0.198426 0.942315 0.250000
O O15 0.156373 0.879799 0.015276
O O16 0.063122 0.250000 0.500000
O O17 0.050262 0.318356 0.250000
O O18 0.965580 0.330045 0.469909
O O19 0.132256 0.750000 0.500000
O O20 0.115877 0.684218 0.750000
O O21 0.252039 0.179920 0.750000
O O22 0.241941 0.250000 0.000000
#
# Coordination Sequence:
#
# PCOD9437462 Si02
#       8
#     8   8   8   8   8   8   8   8
#     4  11  22  35  52  78 109 140 177 218 263 314
#     4   9  17  28  46  72 101 132 169 212 256 306
#     4   9  18  32  49  71 101 134 173 220 261 307
#     4   9  17  31  49  75 106 135 169 211 260 310
#     4  10  21  35  54  80 110 139 171 218 266 314
#     4  10  20  36  57  77 104 141 178 219 262 309
#     4   9  20  39  59  81 105 133 173 216 264 321
#     4  11  22  36  52  73 105 144 185 224 266 319
#
# _framework density 17.481573000000001
#
# number of rings (size 3 to 8) (size 9 to 14) (size 15 to 20)
#    0.000    2.250    1.250    2.625    0.000    5.500 
#    0.000    0.000    0.000    0.750    0.000    0.000 
#    0.000    0.000    0.000    0.000    0.000    0.000 
#
# Total GULP energy -356970.247910 kJ/mol
# GULP energy per Si atom -5577.660124 kJ/mol
# Density = 1.744178 g / cm^3
# Si number density = 17.481573 Si / 1000 Ang^3
#
#
#
# Elastic Constant Matrix: (Units=GPa)
#
#
# Indices 1 2 3 4 5 6 
#
# 1 117.6022 75.6185 37.1436 0.0000 0.0000 0.0000
# 2 75.6185 114.9102 35.2205 0.0000 0.0000 0.0000
# 3 37.1436 35.2205 35.2283 0.0000 0.0000 0.0000
# 4 0.0000 0.0000 0.0000 20.0988 0.0000 0.0000
# 5 0.0000 0.0000 0.0000 0.0000 32.1722 0.0000
# 6 0.0000 0.0000 0.0000 0.0000 0.0000 15.7695
#
#
#
# Elastic Compliance Matrix: (Units=1/GPa)
#
#
# Indices 1 2 3 4 5 6 
#
# 1 0.016706 -0.008067 -0.009550 0.000000 0.000000 0.000000
# 2 -0.008067 0.016443 -0.007933 0.000000 0.000000 0.000000
# 3 -0.009550 -0.007933 0.046387 0.000000 0.000000 0.000000
# 4 0.000000 0.000000 0.000000 0.049754 0.000000 0.000000
# 5 0.000000 0.000000 0.000000 0.000000 0.031083 0.000000
# 6 0.000000 0.000000 0.000000 0.000000 0.000000 0.063413
#
#
# Mechanical properties :
#
#
# Convention : Reuss Voigt Hill
#
# Bulk Modulus (GPa) = 35.16691 62.63397 48.90044
# Shear Modulus (GPa) = 17.58304 21.59197 19.58751
#
# Velocity S-wave (km/s) = 3.17488 3.51825 3.35097
# Velocity P-wave (km/s) = 5.79656 7.23951 6.55784
#
# Compressibility (1/GPa) = 0.02843582
#
# Stress axis : x y z
#
# Youngs Moduli (GPa) = 59.85701 60.81726 21.55791
#
# Poissons Ratio (x) = 0.49061 0.20587
# Poissons Ratio (y) = 0.48287 0.17103
# Poissons Ratio (z) = 0.57161 0.48249
#
# Static dielectric constant tensor:
#      x y z
#    x 1.612890 0.000000 0.000000 
#    y 0.000000 1.587440 0.000000 
#    z 0.000000 0.000000 1.586470 
# 
# From -- ./inp_files/8503.got.cif
#   From: 2010.05.17/outbox.cif.g08.bks.cpg/sg57_5_cif.got.tgz:8503.got - 2010.06.03 13:58:18.
