data_PCOD9437118
_publ_section_title
;
Structure prediction by ZEFSAII (Michael W. Deem and Ramdas Pophale) SiO2 
 PCOD9437118
Probable space group: P B C M
;
_chemical_formula_sum "Si O2"
_cell_formula_units_Z 64
_cell_length_a 27.381214
_cell_length_b 14.675780
_cell_length_c 8.516897
_cell_angle_alpha 90.000000
_cell_angle_beta 90.000000
_cell_angle_gamma 90.000000
_cell_volume 3422.435621
_symmetry_space_group_name_H-M "P B C M"
_symmetry_group_IT_number 57
_symmetry_cell_setting 'orthorhombic'
loop_
_space_group_symop_operation_xyz
x,y,z
-x,-y,1/2+z
x,1/2-y,-z
-x,1/2+y,1/2-z
-x,-y,-z
x,y,1/2-z
-x,1/2+y,z
x,1/2-y,1/2+z
loop_
_atom_site_type_symbol
_atom_site_label
_atom_site_fract_x
_atom_site_fract_y
_atom_site_fract_z
Si Si1 0.365609 0.647243 0.561596
Si Si2 0.632996 0.852502 0.938338
Si Si3 0.817394 0.998197 0.938035
Si Si4 0.889897 0.146671 0.439307
Si Si5 0.445237 0.501079 0.560999
Si Si6 0.102961 0.146951 0.060060
Si Si7 0.996572 0.146189 0.060679
Si Si8 0.292014 0.001601 0.936631
O O1 0.365494 0.750000 0.500000
O O2 0.364718 0.648577 0.750000
O O3 0.413543 0.589334 0.510733
O O4 0.319808 0.587376 0.503288
O O5 0.634254 0.851431 0.750000
O O6 0.585716 0.911968 0.988559
O O7 0.632086 0.750000 0.000000
O O8 0.679144 0.910425 0.998446
O O9 0.812973 0.994344 0.750000
O O10 0.852218 0.915248 0.992490
O O11 0.846931 0.087782 0.987797
O O12 0.763964 0.995972 0.011264
O O13 0.886801 0.250000 0.500000
O O14 0.887075 0.145130 0.250000
O O15 0.943718 0.109212 0.489754
O O16 0.500000 0.500000 0.500000
O O17 0.446338 0.501633 0.750000
O O18 0.103073 0.148089 0.250000
O O19 0.049413 0.109614 0.008159
O O20 0.107798 0.250000 0.000000
O O21 0.996370 0.145599 0.250000
O O22 0.996733 0.250000 0.000000
O O23 0.295663 0.000428 0.750000
#
# Coordination Sequence:
#
# PCOD9437118 Si02
#       8
#     8   8   8   8   8   8   8   8
#     4  10  21  39  61  87 116 151 193 235 280 332
#     4  10  21  39  61  87 116 152 195 237 281 331
#     4  11  23  38  55  79 111 143 179 226 277 332
#     4  10  20  35  55  79 107 139 177 221 270 327
#     4   9  20  36  56  85 124 160 193 234 276 321
#     4   9  19  35  55  78 106 140 176 217 268 324
#     4   8  15  30  51  75 103 135 172 214 262 320
#     4  11  23  40  60  82 109 144 186 236 288 336
#
# _framework density 18.700132
#
# number of rings (size 3 to 8) (size 9 to 14) (size 15 to 20)
#    0.000    2.250    0.000    3.375    0.000    6.500 
#    0.000    6.250    0.000    0.000    0.000    0.000 
#    0.000    0.000    0.000    0.000    0.000    0.000 
#
# Total GULP energy -357121.153393 kJ/mol
# GULP energy per Si atom -5580.018022 kJ/mol
# Density = 1.865757 g / cm^3
# Si number density = 18.700132 Si / 1000 Ang^3
#
#
#
# Elastic Constant Matrix: (Units=GPa)
#
#
# Indices 1 2 3 4 5 6 
#
# 1 195.4245 89.3371 37.5006 0.0000 0.0000 0.0000
# 2 89.3371 152.6249 33.7462 0.0000 0.0000 0.0000
# 3 37.5006 33.7462 52.8470 0.0000 0.0000 0.0000
# 4 0.0000 0.0000 0.0000 26.3953 0.0000 0.0000
# 5 0.0000 0.0000 0.0000 0.0000 39.7536 0.0000
# 6 0.0000 0.0000 0.0000 0.0000 0.0000 6.7976
#
#
#
# Elastic Compliance Matrix: (Units=1/GPa)
#
#
# Indices 1 2 3 4 5 6 
#
# 1 0.007343 -0.003663 -0.002871 0.000000 0.000000 0.000000
# 2 -0.003663 0.009457 -0.003439 0.000000 0.000000 0.000000
# 3 -0.002871 -0.003439 0.023156 0.000000 0.000000 0.000000
# 4 0.000000 0.000000 0.000000 0.037886 0.000000 0.000000
# 5 0.000000 0.000000 0.000000 0.000000 0.025155 0.000000
# 6 0.000000 0.000000 0.000000 0.000000 0.000000 0.147111
#
#
# Mechanical properties :
#
#
# Convention : Reuss Voigt Hill
#
# Bulk Modulus (GPa) = 49.97958 80.22935 65.10447
# Shear Modulus (GPa) = 18.06859 30.61012 24.33935
#
# Velocity S-wave (km/s) = 3.11179 4.05024 3.61163
# Velocity P-wave (km/s) = 6.30047 8.05412 7.23065
#
# Compressibility (1/GPa) = 0.02000817
#
# Stress axis : x y z
#
# Youngs Moduli (GPa) = 136.19195 105.74651 43.18491
#
# Poissons Ratio (x) = 0.38735 0.12400
# Poissons Ratio (y) = 0.49888 0.14853
# Poissons Ratio (z) = 0.39104 0.36369
#
# Static dielectric constant tensor:
#      x y z
#    x 1.646880 0.000000 0.000000 
#    y 0.000000 1.647730 0.000000 
#    z 0.000000 0.000000 1.637180 
# 
# From -- ./inp_files/9259.got.cif
#   From: 2010.05.17/outbox.cif.g08.bks.cpg/sg57_5_cif.got.tgz:9259.got - 2010.06.03 13:58:18.
