data_PCOD9437413
_publ_section_title
;
Structure prediction by ZEFSAII (Michael W. Deem and Ramdas Pophale) SiO2 
 PCOD9437413
Probable space group: P B C M
;
_chemical_formula_sum "Si O2"
_cell_formula_units_Z 56
_cell_length_a 32.191513
_cell_length_b 5.334308
_cell_length_c 14.359897
_cell_angle_alpha 90.000000
_cell_angle_beta 90.000000
_cell_angle_gamma 90.000000
_cell_volume 2465.873548
_symmetry_space_group_name_H-M "P B C M"
_symmetry_group_IT_number 57
_symmetry_cell_setting 'orthorhombic'
loop_
_space_group_symop_operation_xyz
x,y,z
-x,-y,1/2+z
x,1/2-y,-z
-x,1/2+y,1/2-z
-x,-y,-z
x,y,1/2-z
-x,1/2+y,z
x,1/2-y,1/2+z
loop_
_atom_site_type_symbol
_atom_site_label
_atom_site_fract_x
_atom_site_fract_y
_atom_site_fract_z
Si Si1 0.253301 0.501519 0.561011
Si Si2 0.836381 0.433131 0.139204
Si Si3 0.389718 0.406669 0.136721
Si Si4 0.343980 0.907712 0.361467
Si Si5 0.023849 0.447658 0.136207
Si Si6 0.881070 0.567289 0.635619
Si Si7 0.515801 0.812284 0.105561
O O1 0.255719 0.250000 0.500000
O O2 0.211303 0.499046 0.620450
O O3 0.296216 0.539262 0.615500
O O4 0.249272 0.750000 0.500000
O O5 0.842247 0.423314 0.250000
O O6 0.864445 0.662689 0.104228
O O7 0.851346 0.160702 0.104739
O O8 0.389348 0.407935 0.250000
O O9 0.370635 0.143580 0.104506
O O10 0.437499 0.414400 0.107267
O O11 0.362151 0.642375 0.104380
O O12 0.347904 0.900976 0.250000
O O13 0.024152 0.447611 0.250000
O O14 0.071518 0.475135 0.106227
O O15 0.996148 0.684114 0.107322
O O16 0.880702 0.570743 0.750000
O O17 0.512103 0.533621 0.147894
O O18 0.502399 0.750000 0.000000
#
# Coordination Sequence:
#
# PCOD9437413 Si02
#       7
#     8   8   8   8   8   8   8
#     4  12  25  40  59  86 114 141 183 231 278 331
#     4  10  20  36  56  77 108 148 184 222 271 329
#     4  10  21  37  60  86 111 145 189 233 275 327
#     4  10  22  41  61  84 115 149 185 227 283 342
#     4   9  15  23  38  65 104 141 171 215 272 321
#     4   9  17  29  48  74 104 144 187 219 265 333
#     4  10  21  36  54  80 115 153 189 227 274 325
#
# _framework density 22.710007000000001
#
# number of rings (size 3 to 8) (size 9 to 14) (size 15 to 20)
#    0.000    2.000    0.000    3.857    0.000    5.714 
#    0.000    5.714    0.000    0.000    0.000    0.000 
#    0.000   40.000    0.000    0.000    0.000    0.000 
#
# Total GULP energy -313212.985586 kJ/mol
# GULP energy per Si atom -5593.089028 kJ/mol
# Density = 2.265832 g / cm^3
# Si number density = 22.710007 Si / 1000 Ang^3
#
#
#
# Elastic Constant Matrix: (Units=GPa)
#
#
# Indices 1 2 3 4 5 6 
#
# 1 127.5820 48.1129 -27.1180 0.0000 0.0000 0.0000
# 2 48.1129 191.3599 5.4721 0.0000 0.0000 0.0000
# 3 -27.1180 5.4721 36.8314 0.0000 0.0000 0.0000
# 4 0.0000 0.0000 0.0000 4.5130 0.0000 0.0000
# 5 0.0000 0.0000 0.0000 0.0000 18.0546 0.0000
# 6 0.0000 0.0000 0.0000 0.0000 0.0000 48.2453
#
#
#
# Elastic Compliance Matrix: (Units=1/GPa)
#
#
# Indices 1 2 3 4 5 6 
#
# 1 0.010713 -0.002931 0.008323 0.000000 0.000000 0.000000
# 2 -0.002931 0.006050 -0.003057 0.000000 0.000000 0.000000
# 3 0.008323 -0.003057 0.033733 0.000000 0.000000 0.000000
# 4 0.000000 0.000000 0.000000 0.221580 0.000000 0.000000
# 5 0.000000 0.000000 0.000000 0.000000 0.055387 0.000000
# 6 0.000000 0.000000 0.000000 0.000000 0.000000 0.020727
#
#
# Mechanical properties :
#
#
# Convention : Reuss Voigt Hill
#
# Bulk Modulus (GPa) = 18.12758 45.41190 31.76974
# Shear Modulus (GPa) = 13.81557 36.11634 24.96595
#
# Velocity S-wave (km/s) = 2.46915 3.99222 3.31922
# Velocity P-wave (km/s) = 4.01602 6.42575 5.35811
#
# Compressibility (1/GPa) = 0.05516456
#
# Stress axis : x y z
#
# Youngs Moduli (GPa) = 93.34736 165.28313 29.64454
#
# Poissons Ratio (x) = 0.48452 -0.24673
# Poissons Ratio (y) = 0.27364 0.09063
# Poissons Ratio (z) = -0.77693 0.50531
#
# Static dielectric constant tensor:
#      x y z
#    x 1.840040 0.000000 0.000000 
#    y 0.000000 1.831410 0.000000 
#    z 0.000000 0.000000 1.871060 
# 
# From -- ./inp_files/19633.got.cif
#   From: 2010.05.17/outbox.cif.g08.bks.cpg/sg57_10_cif.got.tgz:19633.got - 2010.06.03 13:58:18.
