data_PCOD9437193
_publ_section_title
;
Structure prediction by ZEFSAII (Michael W. Deem and Ramdas Pophale) SiO2 
 PCOD9437193
Probable space group: P B C M
;
_chemical_formula_sum "Si O2"
_cell_formula_units_Z 40
_cell_length_a 8.162793
_cell_length_b 11.894155
_cell_length_c 19.805798
_cell_angle_alpha 90.000000
_cell_angle_beta 90.000000
_cell_angle_gamma 90.000000
_cell_volume 1922.935524
_symmetry_space_group_name_H-M "P B C M"
_symmetry_group_IT_number 57
_symmetry_cell_setting 'orthorhombic'
loop_
_space_group_symop_operation_xyz
x,y,z
-x,-y,1/2+z
x,1/2-y,-z
-x,1/2+y,1/2-z
-x,-y,-z
x,y,1/2-z
-x,1/2+y,z
x,1/2-y,1/2+z
loop_
_atom_site_type_symbol
_atom_site_label
_atom_site_fract_x
_atom_site_fract_y
_atom_site_fract_z
Si Si1 0.858125 0.136630 0.829740
Si Si2 0.899935 0.850803 0.541398
Si Si3 0.152971 0.039136 0.585890
Si Si4 0.283650 0.388423 0.826541
Si Si5 0.331404 0.635513 0.327970
O O1 0.894219 0.146607 0.750000
O O2 0.761917 0.250204 0.850671
O O3 0.025033 0.112867 0.870349
O O4 0.748262 0.022742 0.836910
O O5 0.979504 0.750000 0.500000
O O6 0.783566 0.900300 0.481755
O O7 0.807522 0.829976 0.611191
O O8 0.038661 0.938717 0.559169
O O9 0.283637 0.976012 0.631417
O O10 0.222685 0.362722 0.750000
O O11 0.472982 0.354408 0.829776
O O12 0.281879 0.618255 0.250000
#
# Coordination Sequence:
#
# PCOD9437193 Si02
#       5
#     8   8   8   8   8
#     4   9  18  35  57  82 115 150 184 228 278 327
#     4  10  21  37  55  80 112 146 185 229 279 333
#     4  10  20  35  56  81 114 148 184 231 280 331
#     4   9  20  38  57  79 110 147 187 229 273 329
#     4  10  20  35  58  86 113 147 190 230 274 328
#
# _framework density 20.80153
#
# number of rings (size 3 to 8) (size 9 to 14) (size 15 to 20)
#    0.000    2.400    0.000    1.800    0.000    3.200 
#    0.000    9.000    0.000    1.200    0.000    0.000 
#    0.000    0.000    0.000    0.000    0.000    0.000 
#
# Total GULP energy -222956.252663 kJ/mol
# GULP energy per Si atom -5573.906317 kJ/mol
# Density = 2.075418 g / cm^3
# Si number density = 20.801530 Si / 1000 Ang^3
#
#
#
# Elastic Constant Matrix: (Units=GPa)
#
#
# Indices 1 2 3 4 5 6 
#
# 1 37.4248 22.2057 34.6555 0.0000 0.0000 0.0000
# 2 22.2057 70.0433 38.2422 0.0000 0.0000 0.0000
# 3 34.6555 38.2422 110.9027 0.0000 0.0000 0.0000
# 4 0.0000 0.0000 0.0000 33.7997 0.0000 0.0000
# 5 0.0000 0.0000 0.0000 0.0000 19.6775 0.0000
# 6 0.0000 0.0000 0.0000 0.0000 0.0000 22.3074
#
#
#
# Elastic Compliance Matrix: (Units=1/GPa)
#
#
# Indices 1 2 3 4 5 6 
#
# 1 0.040411 -0.007289 -0.010114 0.000000 0.000000 0.000000
# 2 -0.007289 0.018903 -0.004240 0.000000 0.000000 0.000000
# 3 -0.010114 -0.004240 0.013640 0.000000 0.000000 0.000000
# 4 0.000000 0.000000 0.000000 0.029586 0.000000 0.000000
# 5 0.000000 0.000000 0.000000 0.000000 0.050819 0.000000
# 6 0.000000 0.000000 0.000000 0.000000 0.000000 0.044828
#
#
# Mechanical properties :
#
#
# Convention : Reuss Voigt Hill
#
# Bulk Modulus (GPa) = 33.70892 45.39751 39.55322
# Shear Modulus (GPa) = 19.89143 23.37475 21.63309
#
# Velocity S-wave (km/s) = 3.09568 3.35581 3.22836
# Velocity P-wave (km/s) = 5.38682 6.07345 5.74041
#
# Compressibility (1/GPa) = 0.02966574
#
# Stress axis : x y z
#
# Youngs Moduli (GPa) = 24.74560 52.90169 73.31506
#
# Poissons Ratio (x) = 0.38561 0.74154
# Poissons Ratio (y) = 0.18038 0.31089
# Poissons Ratio (z) = 0.25029 0.22433
#
# Static dielectric constant tensor:
#      x y z
#    x 1.696180 0.000000 0.000000 
#    y 0.000000 1.853140 0.000000 
#    z 0.000000 0.000000 1.788490 
# 
# From -- ./inp_files/20525.got.cif
#   From: 2010.05.17/outbox.cif.g08.bks.cpg/sg57_11_cif.got.tgz:20525.got - 2010.06.03 13:58:18.
