data_PCOD9437028
_publ_section_title
;
Structure prediction by ZEFSAII (Michael W. Deem and Ramdas Pophale) SiO2 
 PCOD9437028
Probable space group: P B C M
;
_chemical_formula_sum "Si O2"
_cell_formula_units_Z 32
_cell_length_a 10.311016
_cell_length_b 12.240347
_cell_length_c 10.238354
_cell_angle_alpha 90.000000
_cell_angle_beta 90.000000
_cell_angle_gamma 90.000000
_cell_volume 1292.186895
_symmetry_space_group_name_H-M "P B C M"
_symmetry_group_IT_number 57
_symmetry_cell_setting 'orthorhombic'
loop_
_space_group_symop_operation_xyz
x,y,z
-x,-y,1/2+z
x,1/2-y,-z
-x,1/2+y,1/2-z
-x,-y,-z
x,y,1/2-z
-x,1/2+y,z
x,1/2-y,1/2+z
loop_
_atom_site_type_symbol
_atom_site_label
_atom_site_fract_x
_atom_site_fract_y
_atom_site_fract_z
Si Si1 0.746272 0.882354 0.015424
Si Si2 0.769717 0.250000 0.000000
Si Si3 0.150691 0.474519 0.750000
Si Si4 0.065986 0.813157 0.750000
Si Si5 0.524228 0.150897 0.904746
Si Si6 0.064006 0.102035 0.750000
O O1 0.602778 0.921781 0.065231
O O2 0.853425 0.920197 0.119324
O O3 0.760642 0.750000 0.000000
O O4 0.775652 0.933939 0.875696
O O5 0.853242 0.202051 0.117801
O O6 0.675307 0.347101 0.054517
O O7 0.999067 0.433541 0.750000
O O8 0.095887 0.596569 0.750000
O O9 0.938591 0.737687 0.750000
O O10 0.521280 0.171918 0.750000
O O11 0.486361 0.250000 0.000000
#
# Coordination Sequence:
#
# PCOD9437028 Si02
#       6
#     8   4   4   4   8   4
#     4  11  20  38  65  91 116 161 211 256 300 352
#     4  10  20  34  62  92 118 160 204 242 320 362
#     4  12  26  39  61  93 131 164 201 256 308 366
#     4  12  22  38  60  88 128 162 196 244 312 384
#     4   9  18  33  59  92 113 149 209 253 290 363
#     4  12  24  41  61  91 131 164 205 252 308 368
#
# _framework density 24.764220999999999
#
# number of rings (size 3 to 8) (size 9 to 14) (size 15 to 20)
#    0.750    0.500    5.000    2.250    5.250    0.000 
#    0.000    0.000    0.000    9.000    0.000    0.000 
#    0.000    0.000    0.000    0.000    0.000    0.000 
#
# Total GULP energy -178226.583143 kJ/mol
# GULP energy per Si atom -5569.580723 kJ/mol
# Density = 2.470786 g / cm^3
# Si number density = 24.764221 Si / 1000 Ang^3
#
#
#
# Elastic Constant Matrix: (Units=GPa)
#
#
# Indices 1 2 3 4 5 6 
#
# 1 125.3909 9.8607 84.9872 0.0000 0.0000 0.0000
# 2 9.8607 20.9143 22.5468 0.0000 0.0000 0.0000
# 3 84.9872 22.5468 233.6848 0.0000 0.0000 0.0000
# 4 0.0000 0.0000 0.0000 10.0971 0.0000 0.0000
# 5 0.0000 0.0000 0.0000 0.0000 64.0571 0.0000
# 6 0.0000 0.0000 0.0000 0.0000 0.0000 36.6738
#
#
#
# Elastic Compliance Matrix: (Units=1/GPa)
#
#
# Indices 1 2 3 4 5 6 
#
# 1 0.010600 -0.000940 -0.003765 0.000000 0.000000 0.000000
# 2 -0.000940 0.053448 -0.004815 0.000000 0.000000 0.000000
# 3 -0.003765 -0.004815 0.006113 0.000000 0.000000 0.000000
# 4 0.000000 0.000000 0.000000 0.099039 0.000000 0.000000
# 5 0.000000 0.000000 0.000000 0.000000 0.015611 0.000000
# 6 0.000000 0.000000 0.000000 0.000000 0.000000 0.027267
#
#
# Mechanical properties :
#
#
# Convention : Reuss Voigt Hill
#
# Bulk Modulus (GPa) = 19.56062 68.30881 43.93472
# Shear Modulus (GPa) = 20.14841 39.67195 29.91018
#
# Velocity S-wave (km/s) = 2.85548 4.00682 3.47911
# Velocity P-wave (km/s) = 4.33446 7.00355 5.82397
#
# Compressibility (1/GPa) = 0.05112312
#
# Stress axis : x y z
#
# Youngs Moduli (GPa) = 94.33527 18.70968 163.58675
#
# Poissons Ratio (x) = 0.01758 0.61583
# Poissons Ratio (y) = 0.08863 0.78770
# Poissons Ratio (z) = 0.35513 0.09009
#
# Static dielectric constant tensor:
#      x y z
#    x 3.875580 0.000000 0.000000 
#    y 0.000000 2.114680 0.000000 
#    z 0.000000 0.000000 1.995930 
# 
# From -- ./inp_files/2450.got.cif
#   From: 2010.05.17/outbox.cif.g08.bks.cpg/sg57_2_cif.got.tgz:2450.got - 2010.06.03 13:58:18.
