data_PCOD9437392
_publ_section_title
;
Structure prediction by ZEFSAII (Michael W. Deem and Ramdas Pophale) SiO2 
 PCOD9437392
Probable space group: P B C M
;
_chemical_formula_sum "Si O2"
_cell_formula_units_Z 32
_cell_length_a 20.033930
_cell_length_b 10.453311
_cell_length_c 8.600801
_cell_angle_alpha 90.000000
_cell_angle_beta 90.000000
_cell_angle_gamma 90.000000
_cell_volume 1801.187493
_symmetry_space_group_name_H-M "P B C M"
_symmetry_group_IT_number 57
_symmetry_cell_setting 'orthorhombic'
loop_
_space_group_symop_operation_xyz
x,y,z
-x,-y,1/2+z
x,1/2-y,-z
-x,1/2+y,1/2-z
-x,-y,-z
x,y,1/2-z
-x,1/2+y,z
x,1/2-y,1/2+z
loop_
_atom_site_type_symbol
_atom_site_label
_atom_site_fract_x
_atom_site_fract_y
_atom_site_fract_z
Si Si1 0.701481 0.111281 0.437192
Si Si2 0.547452 0.110345 0.063459
Si Si3 0.951781 0.609733 0.063808
Si Si4 0.197349 0.111106 0.937500
O O1 0.721940 0.250000 0.500000
O O2 0.702408 0.115827 0.250000
O O3 0.624654 0.087964 0.485693
O O4 0.751092 0.998816 0.486332
O O5 0.544982 0.111842 0.250000
O O6 0.527868 0.250000 0.000000
O O7 0.500000 0.000000 0.000000
O O8 0.952691 0.611861 0.250000
O O9 0.971460 0.750000 0.000000
O O10 0.876437 0.586124 0.004150
O O11 0.000000 0.500000 0.000000
O O12 0.193729 0.114964 0.750000
O O13 0.218564 0.250000 0.000000
#
# Coordination Sequence:
#
# PCOD9437392 Si02
#       4
#     8   8   8   8
#     4   9  20  36  55  78 107 139 177 219 265 317
#     4  10  20  36  55  79 108 142 180 223 269 319
#     4  11  22  38  58  82 110 143 180 222 267 317
#     4  10  20  36  55  79 108 140 177 220 265 317
#
# _framework density 17.766055999999999
#
# number of rings (size 3 to 8) (size 9 to 14) (size 15 to 20)
#    0.000    2.000    0.000    5.250    0.000    5.000 
#    0.000    5.000    0.000    0.000    0.000    0.000 
#    0.000    0.000    0.000    0.000    0.000    0.000 
#
# Total GULP energy -178695.346249 kJ/mol
# GULP energy per Si atom -5584.229570 kJ/mol
# Density = 1.772562 g / cm^3
# Si number density = 17.766056 Si / 1000 Ang^3
#
#
#
# Elastic Constant Matrix: (Units=GPa)
#
#
# Indices 1 2 3 4 5 6 
#
# 1 97.8854 130.9868 43.3060 0.0000 0.0000 0.0000
# 2 130.9868 208.2690 61.8543 0.0000 0.0000 0.0000
# 3 43.3060 61.8543 90.3724 0.0000 0.0000 0.0000
# 4 0.0000 0.0000 0.0000 36.5523 0.0000 0.0000
# 5 0.0000 0.0000 0.0000 0.0000 26.1049 0.0000
# 6 0.0000 0.0000 0.0000 0.0000 0.0000 45.3420
#
#
#
# Elastic Compliance Matrix: (Units=1/GPa)
#
#
# Indices 1 2 3 4 5 6 
#
# 1 0.065641 -0.040091 -0.004015 0.000000 0.000000 0.000000
# 2 -0.040091 0.030513 -0.001673 0.000000 0.000000 0.000000
# 3 -0.004015 -0.001673 0.014134 0.000000 0.000000 0.000000
# 4 0.000000 0.000000 0.000000 0.027358 0.000000 0.000000
# 5 0.000000 0.000000 0.000000 0.000000 0.038307 0.000000
# 6 0.000000 0.000000 0.000000 0.000000 0.000000 0.022055
#
#
# Mechanical properties :
#
#
# Convention : Reuss Voigt Hill
#
# Bulk Modulus (GPa) = 53.38922 96.53566 74.96244
# Shear Modulus (GPa) = 16.90285 32.29182 24.59733
#
# Velocity S-wave (km/s) = 3.08784 4.26797 3.72494
# Velocity P-wave (km/s) = 6.54443 8.87370 7.79654
#
# Compressibility (1/GPa) = 0.01873037
#
# Stress axis : x y z
#
# Youngs Moduli (GPa) = 15.23442 32.77313 70.75116
#
# Poissons Ratio (x) = 1.31391 0.28406
# Poissons Ratio (y) = 0.61077 0.11834
# Poissons Ratio (z) = 0.06116 0.05482
#
# Static dielectric constant tensor:
#      x y z
#    x 1.594210 0.000000 0.000000 
#    y 0.000000 1.578160 0.000000 
#    z 0.000000 0.000000 1.599870 
# 
# From -- ./inp_files/4118.got.cif
#   From: 2010.05.17/outbox.cif.g08.bks.cpg/sg57_3_cif.got.tgz:4118.got - 2010.06.03 13:58:18.
