data_PCOD9437280
_publ_section_title
;
Structure prediction by ZEFSAII (Michael W. Deem and Ramdas Pophale) SiO2 
 PCOD9437280
Probable space group: P B C M
;
_chemical_formula_sum "Si O2"
_cell_formula_units_Z 64
_cell_length_a 15.072714
_cell_length_b 23.937107
_cell_length_c 8.917034
_cell_angle_alpha 90.000000
_cell_angle_beta 90.000000
_cell_angle_gamma 90.000000
_cell_volume 3217.240612
_symmetry_space_group_name_H-M "P B C M"
_symmetry_group_IT_number 57
_symmetry_cell_setting 'orthorhombic'
loop_
_space_group_symop_operation_xyz
x,y,z
-x,-y,1/2+z
x,1/2-y,-z
-x,1/2+y,1/2-z
-x,-y,-z
x,y,1/2-z
-x,1/2+y,z
x,1/2-y,1/2+z
loop_
_atom_site_type_symbol
_atom_site_label
_atom_site_fract_x
_atom_site_fract_y
_atom_site_fract_z
Si Si1 0.182029 0.863779 0.929384
Si Si2 0.447810 0.349676 0.076734
Si Si3 0.624714 0.311568 0.571039
Si Si4 0.987278 0.190627 0.929050
Si Si5 0.722334 0.806758 0.927489
Si Si6 0.786083 0.011002 0.432695
Si Si7 0.410262 0.480187 0.422757
Si Si8 0.144167 0.107182 0.930823
O O1 0.165808 0.861138 0.750000
O O2 0.280930 0.840901 0.956068
O O3 0.178848 0.928518 0.979308
O O4 0.109284 0.826808 0.012173
O O5 0.448711 0.330753 0.250000
O O6 0.413316 0.413161 0.073996
O O7 0.544820 0.345112 0.005892
O O8 0.378712 0.314136 0.980751
O O9 0.625320 0.250000 0.500000
O O10 0.610691 0.308526 0.750000
O O11 0.987315 0.196239 0.750000
O O12 0.054701 0.140437 0.970265
O O13 0.013539 0.250000 0.000000
O O14 0.728709 0.804391 0.750000
O O15 0.758316 0.750000 0.000000
O O16 0.777152 0.858279 0.993257
O O17 0.782839 0.011490 0.250000
O O18 0.684254 0.001281 0.484891
O O19 0.845619 0.957615 0.475739
O O20 0.500000 0.500000 0.500000
O O21 0.414130 0.498995 0.250000
O O22 0.154660 0.109926 0.750000
#
# Coordination Sequence:
#
# PCOD9437280 Si02
#       8
#     8   8   8   8   8   8   8   8
#     4  10  22  40  65  91 122 162 203 252 308 369
#     4  11  22  38  59  85 119 161 202 249 306 363
#     4  11  23  39  59  86 120 159 207 259 310 367
#     4  11  24  41  65  93 123 159 203 257 309 369
#     4  12  24  38  59  87 121 159 201 250 299 360
#     4   9  18  38  63  88 122 164 201 242 303 367
#     4  10  20  35  58  84 118 161 204 248 295 354
#     4  10  21  41  65  90 124 162 202 247 303 366
#
# _framework density 19.892824000000001
#
# number of rings (size 3 to 8) (size 9 to 14) (size 15 to 20)
#    0.000    1.500    1.250    4.125    0.000    6.500 
#    0.000    1.250    0.000    0.000    0.000    0.000 
#    0.000    0.000    0.000    0.000    0.000    0.000 
#
# Total GULP energy -357697.192141 kJ/mol
# GULP energy per Si atom -5589.018627 kJ/mol
# Density = 1.984755 g / cm^3
# Si number density = 19.892824 Si / 1000 Ang^3
#
#
#
# Elastic Constant Matrix: (Units=GPa)
#
#
# Indices 1 2 3 4 5 6 
#
# 1 76.8527 7.3590 21.8728 0.0000 0.0000 0.0000
# 2 7.3590 49.0935 11.0547 0.0000 0.0000 0.0000
# 3 21.8728 11.0547 29.7361 0.0000 0.0000 0.0000
# 4 0.0000 0.0000 0.0000 19.9259 0.0000 0.0000
# 5 0.0000 0.0000 0.0000 0.0000 21.0153 0.0000
# 6 0.0000 0.0000 0.0000 0.0000 0.0000 26.7716
#
#
#
# Elastic Compliance Matrix: (Units=1/GPa)
#
#
# Indices 1 2 3 4 5 6 
#
# 1 0.016461 0.000283 -0.012213 0.000000 0.000000 0.000000
# 2 0.000283 0.022235 -0.008474 0.000000 0.000000 0.000000
# 3 -0.012213 -0.008474 0.045763 0.000000 0.000000 0.000000
# 4 0.000000 0.000000 0.000000 0.050186 0.000000 0.000000
# 5 0.000000 0.000000 0.000000 0.000000 0.047584 0.000000
# 6 0.000000 0.000000 0.000000 0.000000 0.000000 0.037353
#
#
# Mechanical properties :
#
#
# Convention : Reuss Voigt Hill
#
# Bulk Modulus (GPa) = 22.90950 26.25057 24.58004
# Shear Modulus (GPa) = 18.18573 21.23562 19.71068
#
# Velocity S-wave (km/s) = 3.02683 3.27081 3.15118
# Velocity P-wave (km/s) = 4.87412 5.24299 5.06192
#
# Compressibility (1/GPa) = 0.04365001
#
# Stress axis : x y z
#
# Youngs Moduli (GPa) = 60.75055 44.97406 21.85175
#
# Poissons Ratio (x) = -0.01271 0.26688
# Poissons Ratio (y) = -0.01717 0.18517
# Poissons Ratio (z) = 0.74195 0.38111
#
# Static dielectric constant tensor:
#      x y z
#    x 1.692870 0.000000 0.000000 
#    y 0.000000 1.750580 0.000000 
#    z 0.000000 0.000000 1.669830 
# 
# From -- ./inp_files/5722.got.cif
#   From: 2010.05.17/outbox.cif.g08.bks.cpg/sg57_3_cif.got.tgz:5722.got - 2010.06.03 13:58:18.
