data_PCOD9437852
_publ_section_title
;
Structure prediction by ZEFSAII (Michael W. Deem and Ramdas Pophale) SiO2 
 PCOD9437852
Probable space group: P B C M
;
_chemical_formula_sum "Si O2"
_cell_formula_units_Z 64
_cell_length_a 24.371291
_cell_length_b 15.877159
_cell_length_c 8.659244
_cell_angle_alpha 90.000000
_cell_angle_beta 90.000000
_cell_angle_gamma 90.000000
_cell_volume 3350.667295
_symmetry_space_group_name_H-M "P B C M"
_symmetry_group_IT_number 57
_symmetry_cell_setting 'orthorhombic'
loop_
_space_group_symop_operation_xyz
x,y,z
-x,-y,1/2+z
x,1/2-y,-z
-x,1/2+y,1/2-z
-x,-y,-z
x,y,1/2-z
-x,1/2+y,z
x,1/2-y,1/2+z
loop_
_atom_site_type_symbol
_atom_site_label
_atom_site_fract_x
_atom_site_fract_y
_atom_site_fract_z
Si Si1 0.366714 0.159789 0.064070
Si Si2 0.249305 0.411267 0.936424
Si Si3 0.869631 0.658642 0.435014
Si Si4 0.366551 0.660614 0.934933
Si Si5 0.748537 0.100198 0.064872
Si Si6 0.438769 0.999921 0.436681
Si Si7 0.938695 0.997194 0.435759
Si Si8 0.868448 0.160432 0.435963
O O1 0.367878 0.162561 0.250000
O O2 0.304273 0.137955 0.016738
O O3 0.405632 0.083205 0.013357
O O4 0.383550 0.250000 0.000000
O O5 0.250754 0.421831 0.750000
O O6 0.193480 0.363150 0.977457
O O7 0.249625 0.503158 0.012163
O O8 0.884467 0.750000 0.500000
O O9 0.873853 0.658950 0.250000
O O10 0.907229 0.584708 0.502184
O O11 0.366250 0.663145 0.750000
O O12 0.404984 0.583031 0.985333
O O13 0.385645 0.750000 0.000000
O O14 0.304971 0.642700 0.992780
O O15 0.745081 0.104799 0.250000
O O16 0.805622 0.142924 0.014508
O O17 0.440180 0.999987 0.250000
O O18 0.500000 0.000000 0.500000
O O19 0.939413 0.994904 0.250000
O O20 0.905500 0.081208 0.484576
O O21 0.000000 0.000000 0.500000
O O22 0.887390 0.250000 0.500000
O O23 0.869207 0.163280 0.250000
#
# Coordination Sequence:
#
# PCOD9437852 Si02
#       8
#     8   8   8   8   8   8   8   8
#     4  10  21  39  60  88 121 156 194 242 297 354
#     4  10  20  37  61  89 125 161 196 242 303 363
#     4  11  23  39  64  94 124 164 203 248 307 365
#     4  11  23  41  62  89 123 159 199 248 300 359
#     4  11  21  36  61  93 124 159 197 243 302 361
#     4  10  23  42  62  83 118 157 201 251 300 352
#     4  11  24  44  64  88 122 160 208 260 305 360
#     4  10  23  40  61  90 123 156 196 245 299 358
#
# _framework density 19.100673
#
# number of rings (size 3 to 8) (size 9 to 14) (size 15 to 20)
#    0.000    1.500    2.500    2.250    0.000    6.500 
#    0.000    3.750    0.000    0.000    0.000    0.000 
#    0.000    0.000    0.000    0.000    0.000    0.000 
#
# Total GULP energy -357785.663974 kJ/mol
# GULP energy per Si atom -5590.401000 kJ/mol
# Density = 1.905720 g / cm^3
# Si number density = 19.100673 Si / 1000 Ang^3
#
#
#
# Elastic Constant Matrix: (Units=GPa)
#
#
# Indices 1 2 3 4 5 6 
#
# 1 160.4507 93.8934 36.9277 0.0000 0.0000 0.0000
# 2 93.8934 206.0282 42.5189 0.0000 0.0000 0.0000
# 3 36.9277 42.5189 29.2658 0.0000 0.0000 0.0000
# 4 0.0000 0.0000 0.0000 37.8419 0.0000 0.0000
# 5 0.0000 0.0000 0.0000 0.0000 28.4924 0.0000
# 6 0.0000 0.0000 0.0000 0.0000 0.0000 0.3562
#
#
#
# Elastic Compliance Matrix: (Units=1/GPa)
#
#
# Indices 1 2 3 4 5 6 
#
# 1 0.009744 -0.002718 -0.008346 0.000000 0.000000 0.000000
# 2 -0.002718 0.007691 -0.007743 0.000000 0.000000 0.000000
# 3 -0.008346 -0.007743 0.055950 0.000000 0.000000 0.000000
# 4 0.000000 0.000000 0.000000 0.026426 0.000000 0.000000
# 5 0.000000 0.000000 0.000000 0.000000 0.035097 0.000000
# 6 0.000000 0.000000 0.000000 0.000000 0.000000 2.807075
#
#
# Mechanical properties :
#
#
# Convention : Reuss Voigt Hill
#
# Bulk Modulus (GPa) = 27.95638 82.49163 55.22400
# Shear Modulus (GPa) = 1.67139 28.16509 14.91824
#
# Velocity S-wave (km/s) = 0.93645 3.84417 2.79773
# Velocity P-wave (km/s) = 3.97962 7.93631 6.27783
#
# Compressibility (1/GPa) = 0.03577001
#
# Stress axis : x y z
#
# Youngs Moduli (GPa) = 102.62854 130.03040 17.87314
#
# Poissons Ratio (x) = 0.35346 0.14916
# Poissons Ratio (y) = 0.27897 0.13840
# Poissons Ratio (z) = 0.85650 1.00686
#
# Static dielectric constant tensor:
#      x y z
#    x 1.645520 0.000000 0.000000 
#    y 0.000000 1.646160 0.000000 
#    z 0.000000 0.000000 1.647930 
# 
# From -- ./inp_files/9385.got.cif
#   From: 2010.05.17/outbox.cif.g08.bks.cpg/sg57_5_cif.got.tgz:9385.got - 2010.06.03 13:58:18.
