data_PCOD9437107
_publ_section_title
;
Structure prediction by ZEFSAII (Michael W. Deem and Ramdas Pophale) SiO2 
 PCOD9437107
Probable space group: P B C M
;
_chemical_formula_sum "Si O2"
_cell_formula_units_Z 64
_cell_length_a 16.864788
_cell_length_b 22.232042
_cell_length_c 9.074287
_cell_angle_alpha 90.000000
_cell_angle_beta 90.000000
_cell_angle_gamma 90.000000
_cell_volume 3402.301146
_symmetry_space_group_name_H-M "P B C M"
_symmetry_group_IT_number 57
_symmetry_cell_setting 'orthorhombic'
loop_
_space_group_symop_operation_xyz
x,y,z
-x,-y,1/2+z
x,1/2-y,-z
-x,1/2+y,1/2-z
-x,-y,-z
x,y,1/2-z
-x,1/2+y,z
x,1/2-y,1/2+z
loop_
_atom_site_type_symbol
_atom_site_label
_atom_site_fract_x
_atom_site_fract_y
_atom_site_fract_z
Si Si1 0.706189 0.309906 0.076870
Si Si2 0.962929 0.440962 0.573731
Si Si3 0.230898 0.313553 0.926489
Si Si4 0.617953 0.485068 0.576833
Si Si5 0.781638 0.420470 0.920299
Si Si6 0.458408 0.868325 0.073128
Si Si7 0.614165 0.613409 0.073220
Si Si8 0.047022 0.184610 0.428007
O O1 0.711084 0.303525 0.250000
O O2 0.734117 0.250000 0.000000
O O3 0.757101 0.365889 0.023266
O O4 0.614433 0.323967 0.038282
O O5 0.976036 0.444523 0.750000
O O6 0.868955 0.442902 0.544916
O O7 0.000000 0.500000 0.500000
O O8 0.997296 0.375064 0.527451
O O9 0.233133 0.307351 0.750000
O O10 0.299718 0.360218 0.967371
O O11 0.139715 0.328633 0.965447
O O12 0.249554 0.250000 0.000000
O O13 0.596067 0.488227 0.750000
O O14 0.711232 0.468647 0.567237
O O15 0.570420 0.431622 0.497077
O O16 0.605774 0.547248 0.494337
O O17 0.781526 0.399381 0.750000
O O18 0.533966 0.126411 0.750000
O O19 0.541102 0.850488 0.998707
O O20 0.606907 0.612525 0.250000
O O21 0.026756 0.250000 0.500000
O O22 0.040154 0.190974 0.250000
#
# Coordination Sequence:
#
# PCOD9437107 Si02
#       8
#     8   8   8   8   8   8   8   8
#     4  10  21  37  59  83 109 147 187 228 279 335
#     4  10  22  38  59  89 123 154 190 239 292 346
#     4   9  20  37  55  77 105 140 181 225 271 322
#     4  10  20  35  55  77 107 144 182 225 275 326
#     4   9  20  38  56  81 114 146 184 231 277 330
#     4  10  21  37  54  77 108 142 184 227 274 329
#     4  11  22  34  53  79 107 141 181 225 277 330
#     4   9  19  38  60  82 112 151 192 235 282 338
#
# _framework density 18.810797000000001
#
# number of rings (size 3 to 8) (size 9 to 14) (size 15 to 20)
#    0.000    2.250    0.000    1.875    1.750    5.000 
#    0.000    3.750    0.000    0.000    0.000    0.000 
#    0.000    0.000    0.000    0.000    0.000    0.000 
#
# Total GULP energy -357096.389880 kJ/mol
# GULP energy per Si atom -5579.631092 kJ/mol
# Density = 1.876798 g / cm^3
# Si number density = 18.810797 Si / 1000 Ang^3
#
#
#
# Elastic Constant Matrix: (Units=GPa)
#
#
# Indices 1 2 3 4 5 6 
#
# 1 83.9391 28.6539 27.0566 0.0000 0.0000 0.0000
# 2 28.6539 60.8864 22.7105 0.0000 0.0000 0.0000
# 3 27.0566 22.7105 31.1604 0.0000 0.0000 0.0000
# 4 0.0000 0.0000 0.0000 30.0216 0.0000 0.0000
# 5 0.0000 0.0000 0.0000 0.0000 22.7472 0.0000
# 6 0.0000 0.0000 0.0000 0.0000 0.0000 -0.0721
#
#
#
# Elastic Compliance Matrix: (Units=1/GPa)
#
#
# Indices 1 2 3 4 5 6 
#
# 1 0.017052 -0.003436 -0.012301 0.000000 0.000000 0.000000
# 2 -0.003436 0.023248 -0.013960 0.000000 0.000000 0.000000
# 3 -0.012301 -0.013960 0.052948 0.000000 0.000000 0.000000
# 4 0.000000 0.000000 0.000000 0.033309 0.000000 0.000000
# 5 0.000000 0.000000 0.000000 0.000000 0.043961 0.000000
# 6 0.000000 0.000000 0.000000 0.000000 0.000000-13.870104
#
#
# Mechanical properties :
#
#
# Convention : Reuss Voigt Hill
#
# Bulk Modulus (GPa) = 29.54046 36.98089 33.26068
# Shear Modulus (GPa) = -0.36687 17.04366 8.33840
#
# Velocity S-wave (km/s) = -0.44210 3.01334 2.10770
# Velocity P-wave (km/s) = 3.93414 5.63995 4.86243
#
# Compressibility (1/GPa) = 0.03385187
#
# Stress axis : x y z
#
# Youngs Moduli (GPa) = 58.64539 43.01379 18.88645
#
# Poissons Ratio (x) = 0.14781 0.23233
# Poissons Ratio (y) = 0.20152 0.26366
# Poissons Ratio (z) = 0.72143 0.60049
#
# Static dielectric constant tensor:
#      x y z
#    x 1.676460 0.000000 0.000000 
#    y 0.000000 1.638780 0.000000 
#    z 0.000000 0.000000 1.628610 
# 
# From -- ./inp_files/7116.got.cif
#   From: 2010.05.17/outbox.cif.g08.bks.cpg/sg57_4_cif.got.tgz:7116.got - 2010.06.03 13:58:18.
