data_PCOD9437029
_publ_section_title
;
Structure prediction by ZEFSAII (Michael W. Deem and Ramdas Pophale) SiO2 
 PCOD9437029
Probable space group: P B C M
;
_chemical_formula_sum "Si O2"
_cell_formula_units_Z 60
_cell_length_a 17.186231
_cell_length_b 19.971302
_cell_length_c 8.514962
_cell_angle_alpha 90.000000
_cell_angle_beta 90.000000
_cell_angle_gamma 90.000000
_cell_volume 2922.602409
_symmetry_space_group_name_H-M "P B C M"
_symmetry_group_IT_number 57
_symmetry_cell_setting 'orthorhombic'
loop_
_space_group_symop_operation_xyz
x,y,z
-x,-y,1/2+z
x,1/2-y,-z
-x,1/2+y,1/2-z
-x,-y,-z
x,y,1/2-z
-x,1/2+y,z
x,1/2-y,1/2+z
loop_
_atom_site_type_symbol
_atom_site_label
_atom_site_fract_x
_atom_site_fract_y
_atom_site_fract_z
Si Si1 0.453204 0.675638 0.938255
Si Si2 0.282148 0.465606 0.069371
Si Si3 0.289749 0.611385 0.562416
Si Si4 0.140998 0.678202 0.438712
Si Si5 0.155960 0.375360 0.572979
Si Si6 0.011600 0.924789 0.937631
Si Si7 0.257812 0.250000 0.500000
Si Si8 0.622056 0.645597 0.433960
O O1 0.463616 0.676271 0.750000
O O2 0.378168 0.631295 0.977115
O O3 0.437479 0.750000 0.000000
O O4 0.533109 0.652520 0.018546
O O5 0.305995 0.462822 0.250000
O O6 0.270009 0.540887 0.015875
O O7 0.204111 0.422860 0.042184
O O8 0.346282 0.428618 0.962808
O O9 0.283518 0.606890 0.750000
O O10 0.227685 0.664796 0.500465
O O11 0.112761 0.750000 0.500000
O O12 0.140735 0.678663 0.250000
O O13 0.085939 0.617136 0.495536
O O14 0.164752 0.402924 0.750000
O O15 0.196187 0.302291 0.575377
O O16 0.065676 0.380503 0.530925
O O17 0.019476 0.930454 0.750000
O O18 0.000000 0.000000 0.000000
O O19 0.323218 0.306674 0.456770
O O20 0.634286 0.664711 0.250000
#
# Coordination Sequence:
#
# PCOD9437029 Si02
#       8
#     8   8   8   8   8   8   4   8
#     4  11  24  40  63  91 121 159 205 256 310 373
#     4  11  23  39  62  92 125 163 210 258 310 377
#     4  11  24  43  65  90 123 164 211 261 317 374
#     4  11  24  42  66  95 129 168 215 267 321 380
#     4  10  22  40  62  89 126 167 208 256 312 375
#     4  10  23  42  64  93 128 168 216 264 320 383
#     4  10  20  34  62  92 120 158 204 250 304 374
#     4  11  23  40  63  89 126 166 203 253 312 374
#
# _framework density 20.529648999999999
#
# number of rings (size 3 to 8) (size 9 to 14) (size 15 to 20)
#    0.000    1.333    0.667    5.200    0.933   12.267 
#    0.000    0.000    0.000    0.000    0.000    0.000 
#    0.000    0.000    0.000    0.000    0.000    0.000 
#
# Total GULP energy -334727.106509 kJ/mol
# GULP energy per Si atom -5578.785108 kJ/mol
# Density = 2.048292 g / cm^3
# Si number density = 20.529649 Si / 1000 Ang^3
#
#
#
# Elastic Constant Matrix: (Units=GPa)
#
#
# Indices 1 2 3 4 5 6 
#
# 1 108.5042 28.7402 27.5514 0.0000 0.0000 0.0000
# 2 28.7402 82.9965 18.0744 0.0000 0.0000 0.0000
# 3 27.5514 18.0744 53.2154 0.0000 0.0000 0.0000
# 4 0.0000 0.0000 0.0000 29.4531 0.0000 0.0000
# 5 0.0000 0.0000 0.0000 0.0000 29.2829 0.0000
# 6 0.0000 0.0000 0.0000 0.0000 0.0000 24.9097
#
#
#
# Elastic Compliance Matrix: (Units=1/GPa)
#
#
# Indices 1 2 3 4 5 6 
#
# 1 0.011192 -0.002822 -0.004836 0.000000 0.000000 0.000000
# 2 -0.002822 0.013723 -0.003200 0.000000 0.000000 0.000000
# 3 -0.004836 -0.003200 0.022382 0.000000 0.000000 0.000000
# 4 0.000000 0.000000 0.000000 0.033952 0.000000 0.000000
# 5 0.000000 0.000000 0.000000 0.000000 0.034150 0.000000
# 6 0.000000 0.000000 0.000000 0.000000 0.000000 0.040145
#
#
# Mechanical properties :
#
#
# Convention : Reuss Voigt Hill
#
# Bulk Modulus (GPa) = 39.09160 43.71645 41.40403
# Shear Modulus (GPa) = 26.91268 28.08579 27.49924
#
# Velocity S-wave (km/s) = 3.62459 3.70274 3.66387
# Velocity P-wave (km/s) = 6.04977 6.29452 6.17336
#
# Compressibility (1/GPa) = 0.02558094
#
# Stress axis : x y z
#
# Youngs Moduli (GPa) = 89.35185 72.87112 44.67889
#
# Poissons Ratio (x) = 0.20567 0.21605
# Poissons Ratio (y) = 0.25219 0.14296
# Poissons Ratio (z) = 0.43208 0.23316
#
# Static dielectric constant tensor:
#      x y z
#    x 1.746000 0.000000 0.000000 
#    y 0.000000 1.736050 0.000000 
#    z 0.000000 0.000000 1.735390 
# 
# From -- ./inp_files/6871.got.cif
#   From: 2010.05.17/outbox.cif.g08.bks.cpg/sg57_4_cif.got.tgz:6871.got - 2010.06.03 13:58:18.
