data_PCOD9437436
_publ_section_title
;
Structure prediction by ZEFSAII (Michael W. Deem and Ramdas Pophale) SiO2 
 PCOD9437436
Probable space group: P B C M
;
_chemical_formula_sum "Si O2"
_cell_formula_units_Z 48
_cell_length_a 31.819413
_cell_length_b 9.252470
_cell_length_c 8.641295
_cell_angle_alpha 90.000000
_cell_angle_beta 90.000000
_cell_angle_gamma 90.000000
_cell_volume 2544.067797
_symmetry_space_group_name_H-M "P B C M"
_symmetry_group_IT_number 57
_symmetry_cell_setting 'orthorhombic'
loop_
_space_group_symop_operation_xyz
x,y,z
-x,-y,1/2+z
x,1/2-y,-z
-x,1/2+y,1/2-z
-x,-y,-z
x,y,1/2-z
-x,1/2+y,z
x,1/2-y,1/2+z
loop_
_atom_site_type_symbol
_atom_site_label
_atom_site_fract_x
_atom_site_fract_y
_atom_site_fract_z
Si Si1 0.285694 0.411612 0.436294
Si Si2 0.367545 0.912152 0.936488
Si Si3 0.461091 0.588565 0.435361
Si Si4 0.793422 0.087838 0.936313
Si Si5 0.960156 0.087364 0.563684
Si Si6 0.876725 0.587920 0.063570
O O1 0.282060 0.250000 0.500000
O O2 0.284147 0.408998 0.250000
O O3 0.329787 0.484260 0.486074
O O4 0.247711 0.508616 0.499239
O O5 0.366591 0.903716 0.750000
O O6 0.414308 0.964990 0.981812
O O7 0.361634 0.750000 0.000000
O O8 0.464058 0.750000 0.500000
O O9 0.500000 0.500000 0.500000
O O10 0.463084 0.589907 0.250000
O O11 0.791711 0.091690 0.750000
O O12 0.834569 0.996520 0.984061
O O13 0.796018 0.250000 0.000000
O O14 0.960001 0.250000 0.500000
O O15 0.961888 0.091452 0.750000
O O16 0.917778 0.002867 0.516040
O O17 0.000000 0.000000 0.500000
O O18 0.876801 0.595384 0.250000
O O19 0.877713 0.750000 0.000000
#
# Coordination Sequence:
#
# PCOD9437436 Si02
#       6
#     8   8   8   8   8   8
#     4  11  23  39  58  84 115 149 187 232 281 334
#     4   9  20  37  57  80 109 144 185 228 277 333
#     4  10  20  36  56  81 111 146 185 229 278 332
#     4  11  23  40  61  87 116 151 191 234 282 337
#     4  11  23  40  61  88 119 155 196 241 289 342
#     4  10  23  40  60  86 118 153 192 236 286 338
#
# _framework density 18.867422000000001
#
# number of rings (size 3 to 8) (size 9 to 14) (size 15 to 20)
#    0.000    1.667    0.000    4.000    0.000    9.333 
#    0.000    1.667    0.000    0.000    0.000    0.000 
#    0.000    0.000    0.000    0.000    0.000    0.000 
#
# Total GULP energy -268268.158209 kJ/mol
# GULP energy per Si atom -5588.919963 kJ/mol
# Density = 1.882448 g / cm^3
# Si number density = 18.867422 Si / 1000 Ang^3
#
#
#
# Elastic Constant Matrix: (Units=GPa)
#
#
# Indices 1 2 3 4 5 6 
#
# 1 213.9058 122.1831 54.7003 0.0000 0.0000 0.0000
# 2 122.1831 175.3383 42.8997 0.0000 0.0000 0.0000
# 3 54.7003 42.8997 49.7047 0.0000 0.0000 0.0000
# 4 0.0000 0.0000 0.0000 40.0347 0.0000 0.0000
# 5 0.0000 0.0000 0.0000 0.0000 29.6006 0.0000
# 6 0.0000 0.0000 0.0000 0.0000 0.0000 43.3206
#
#
#
# Elastic Compliance Matrix: (Units=1/GPa)
#
#
# Indices 1 2 3 4 5 6 
#
# 1 0.008844 -0.004794 -0.005595 0.000000 0.000000 0.000000
# 2 -0.004794 0.009829 -0.003207 0.000000 0.000000 0.000000
# 3 -0.005595 -0.003207 0.029045 0.000000 0.000000 0.000000
# 4 0.000000 0.000000 0.000000 0.024978 0.000000 0.000000
# 5 0.000000 0.000000 0.000000 0.000000 0.033783 0.000000
# 6 0.000000 0.000000 0.000000 0.000000 0.000000 0.023084
#
#
# Mechanical properties :
#
#
# Convention : Reuss Voigt Hill
#
# Bulk Modulus (GPa) = 48.72268 97.61278 73.16773
# Shear Modulus (GPa) = 30.56290 37.20224 33.88257
#
# Velocity S-wave (km/s) = 4.02914 4.44528 4.24231
# Velocity P-wave (km/s) = 6.89384 8.84284 7.92846
#
# Compressibility (1/GPa) = 0.02052432
#
# Stress axis : x y z
#
# Youngs Moduli (GPa) = 113.06945 101.74411 34.42969
#
# Poissons Ratio (x) = 0.48776 0.19265
# Poissons Ratio (y) = 0.54205 0.11042
# Poissons Ratio (z) = 0.63267 0.32631
#
# Static dielectric constant tensor:
#      x y z
#    x 1.658270 0.000000 0.000000 
#    y 0.000000 1.598390 0.000000 
#    z 0.000000 0.000000 1.640500 
# 
# From -- ./inp_files/9929.got.cif
#   From: 2010.05.17/outbox.cif.g08.bks.cpg/sg57_5_cif.got.tgz:9929.got - 2010.06.03 13:58:18.
