data_PCOD9437387
_publ_section_title
;
Structure prediction by ZEFSAII (Michael W. Deem and Ramdas Pophale) SiO2 
 PCOD9437387
Probable space group: P B C M
;
_chemical_formula_sum "Si O2"
_cell_formula_units_Z 56
_cell_length_a 20.483448
_cell_length_b 14.959399
_cell_length_c 8.628097
_cell_angle_alpha 90.000000
_cell_angle_beta 90.000000
_cell_angle_gamma 90.000000
_cell_volume 2643.822100
_symmetry_space_group_name_H-M "P B C M"
_symmetry_group_IT_number 57
_symmetry_cell_setting 'orthorhombic'
loop_
_space_group_symop_operation_xyz
x,y,z
-x,-y,1/2+z
x,1/2-y,-z
-x,1/2+y,1/2-z
-x,-y,-z
x,y,1/2-z
-x,1/2+y,z
x,1/2-y,1/2+z
loop_
_atom_site_type_symbol
_atom_site_label
_atom_site_fract_x
_atom_site_fract_y
_atom_site_fract_z
Si Si1 0.967296 0.148325 0.563478
Si Si2 0.383664 0.613722 0.075348
Si Si3 0.769741 0.541522 0.563207
Si Si4 0.907610 0.957302 0.563590
Si Si5 0.481115 0.162693 0.568176
Si Si6 0.366155 0.062997 0.425919
Si Si7 0.239447 0.838241 0.576669
O O1 0.956001 0.250000 0.500000
O O2 0.966890 0.154246 0.750000
O O3 0.036091 0.106897 0.504145
O O4 0.920150 0.062986 0.519914
O O5 0.388131 0.573825 0.250000
O O6 0.318329 0.671875 0.084224
O O7 0.452883 0.654387 0.031256
O O8 0.369233 0.543676 0.940217
O O9 0.765438 0.542885 0.750000
O O10 0.838468 0.575806 0.502162
O O11 0.704525 0.587068 0.495452
O O12 0.769873 0.437011 0.509247
O O13 0.908938 0.953092 0.750000
O O14 0.446657 0.250000 0.500000
O O15 0.495075 0.167208 0.750000
O O16 0.428662 0.087987 0.528523
O O17 0.373814 0.093770 0.250000
O O18 0.211418 0.750000 0.500000
O O19 0.213196 0.841974 0.750000
#
# Coordination Sequence:
#
# PCOD9437387 Si02
#       7
#     8   8   8   8   8   8   8
#     4  10  21  38  62  92 126 161 197 239 285 335
#     4  10  20  36  55  78 106 140 181 228 283 340
#     4  10  21  38  57  80 112 151 190 231 280 335
#     4  10  21  38  61  90 122 158 199 241 287 339
#     4  12  24  38  55  78 106 138 178 228 283 337
#     4  11  22  38  58  80 106 141 183 227 276 333
#     4   9  19  32  49  74 107 143 182 228 279 336
#
# _framework density 21.181456000000001
#
# number of rings (size 3 to 8) (size 9 to 14) (size 15 to 20)
#    0.000    1.714    0.000    6.000    0.000    6.857 
#    0.000    3.571    0.000    0.000    0.000    0.000 
#    0.000    0.000    0.000    0.000    0.000    0.000 
#
# Total GULP energy -312049.893850 kJ/mol
# GULP energy per Si atom -5572.319533 kJ/mol
# Density = 2.113325 g / cm^3
# Si number density = 21.181456 Si / 1000 Ang^3
#
#
#
# Elastic Constant Matrix: (Units=GPa)
#
#
# Indices 1 2 3 4 5 6 
#
# 1 92.4319 -4.8977 17.3936 0.0000 0.0000 0.0000
# 2 -4.8977 34.4945 9.0369 0.0000 0.0000 0.0000
# 3 17.3936 9.0369 77.9134 0.0000 0.0000 0.0000
# 4 0.0000 0.0000 0.0000 30.3161 0.0000 0.0000
# 5 0.0000 0.0000 0.0000 0.0000 18.5987 0.0000
# 6 0.0000 0.0000 0.0000 0.0000 0.0000 -0.6862
#
#
#
# Elastic Compliance Matrix: (Units=1/GPa)
#
#
# Indices 1 2 3 4 5 6 
#
# 1 0.011479 0.002373 -0.002838 0.000000 0.000000 0.000000
# 2 0.002373 0.030389 -0.004055 0.000000 0.000000 0.000000
# 3 -0.002838 -0.004055 0.013939 0.000000 0.000000 0.000000
# 4 0.000000 0.000000 0.000000 0.032986 0.000000 0.000000
# 5 0.000000 0.000000 0.000000 0.000000 0.053767 0.000000
# 6 0.000000 0.000000 0.000000 0.000000 0.000000 -1.457236
#
#
# Mechanical properties :
#
#
# Convention : Reuss Voigt Hill
#
# Bulk Modulus (GPa) = 21.38204 27.54503 24.46354
# Shear Modulus (GPa) = -3.87582 21.86618 8.99518
#
# Velocity S-wave (km/s) = -1.35418 3.21647 2.06299
# Velocity P-wave (km/s) = 2.76976 5.17946 4.15321
#
# Compressibility (1/GPa) = 0.04676821
#
# Stress axis : x y z
#
# Youngs Moduli (GPa) = 87.11916 32.90631 71.74352
#
# Poissons Ratio (x) = -0.07809 0.20359
# Poissons Ratio (y) = -0.20675 0.29089
# Poissons Ratio (z) = 0.24722 0.13342
#
# Static dielectric constant tensor:
#      x y z
#    x 1.785050 0.000000 0.000000 
#    y 0.000000 1.960000 0.000000 
#    z 0.000000 0.000000 1.738060 
# 
# From -- ./inp_files/8133.got.cif
#   From: 2010.05.17/outbox.cif.g08.bks.cpg/sg57_5_cif.got.tgz:8133.got - 2010.06.03 13:58:18.
