data_PCOD9437032
_publ_section_title
;
Structure prediction by ZEFSAII (Michael W. Deem and Ramdas Pophale) SiO2 
 PCOD9437032
Probable space group: P B C M
;
_chemical_formula_sum "Si O2"
_cell_formula_units_Z 40
_cell_length_a 12.246004
_cell_length_b 9.215477
_cell_length_c 16.474741
_cell_angle_alpha 90.000000
_cell_angle_beta 90.000000
_cell_angle_gamma 90.000000
_cell_volume 1859.220127
_symmetry_space_group_name_H-M "P B C M"
_symmetry_group_IT_number 57
_symmetry_cell_setting 'orthorhombic'
loop_
_space_group_symop_operation_xyz
x,y,z
-x,-y,1/2+z
x,1/2-y,-z
-x,1/2+y,1/2-z
-x,-y,-z
x,y,1/2-z
-x,1/2+y,z
x,1/2-y,1/2+z
loop_
_atom_site_type_symbol
_atom_site_label
_atom_site_fract_x
_atom_site_fract_y
_atom_site_fract_z
Si Si1 0.447426 0.285110 0.597034
Si Si2 0.732059 0.485378 0.419866
Si Si3 0.833618 0.208800 0.341379
Si Si4 0.345419 0.520985 0.390990
Si Si5 0.953834 0.624088 0.058689
O O1 0.452894 0.250000 0.500000
O O2 0.363249 0.415152 0.616026
O O3 0.563687 0.353350 0.619849
O O4 0.402385 0.132306 0.630382
O O5 0.759070 0.324780 0.389260
O O6 0.698111 0.481229 0.515233
O O7 0.846134 0.564152 0.400090
O O8 0.851822 0.259358 0.250000
O O9 0.762635 0.062014 0.342167
O O10 0.947926 0.181735 0.386243
O O11 0.913992 0.750000 0.000000
O O12 0.000000 0.500000 0.000000
#
# Coordination Sequence:
#
# PCOD9437032 Si02
#       5
#     8   8   8   8   8
#     4  10  20  34  67 100 123 158 213 275 315 369
#     4  11  22  40  66  94 125 163 215 263 321 376
#     4  12  26  42  61  90 131 172 210 264 322 385
#     4  11  20  40  65  96 128 163 216 264 321 379
#     4  12  22  42  69  96 123 166 216 263 317 378
#
# _framework density 21.514396999999999
#
# number of rings (size 3 to 8) (size 9 to 14) (size 15 to 20)
#    0.000    0.800    4.000    7.200    0.000    0.800 
#    0.000    5.000    0.000    0.000    0.000    0.000 
#    0.000    0.000    0.000    0.000    0.000    0.000 
#
# Total GULP energy -223333.158881 kJ/mol
# GULP energy per Si atom -5583.328972 kJ/mol
# Density = 2.146543 g / cm^3
# Si number density = 21.514397 Si / 1000 Ang^3
#
#
#
# Elastic Constant Matrix: (Units=GPa)
#
#
# Indices 1 2 3 4 5 6 
#
# 1 150.4469 30.9059 10.1822 0.0000 0.0000 0.0000
# 2 30.9059 76.2705 9.9198 0.0000 0.0000 0.0000
# 3 10.1822 9.9198 44.5352 0.0000 0.0000 0.0000
# 4 0.0000 0.0000 0.0000 -0.9519 0.0000 0.0000
# 5 0.0000 0.0000 0.0000 0.0000 -116.7677 0.0000
# 6 0.0000 0.0000 0.0000 0.0000 0.0000 51.9102
#
#
#
# Elastic Compliance Matrix: (Units=1/GPa)
#
#
# Indices 1 2 3 4 5 6 
#
# 1 0.007297 -0.002822 -0.001040 0.000000 0.000000 0.000000
# 2 -0.002822 0.014593 -0.002605 0.000000 0.000000 0.000000
# 3 -0.001040 -0.002605 0.023272 0.000000 0.000000 0.000000
# 4 0.000000 0.000000 0.000000 -1.050530 0.000000 0.000000
# 5 0.000000 0.000000 0.000000 0.000000 -0.008564 0.000000
# 6 0.000000 0.000000 0.000000 0.000000 0.000000 0.019264
#
#
# Mechanical properties :
#
#
# Convention : Reuss Voigt Hill
#
# Bulk Modulus (GPa) = 31.02810 41.47427 36.25118
# Shear Modulus (GPa) = -5.14938 1.52110 -1.81414
#
# Velocity S-wave (km/s) = -1.54876 0.84175 -0.91927
# Velocity P-wave (km/s) = 3.35487 4.50156 3.96983
#
# Compressibility (1/GPa) = 0.03222886
#
# Stress axis : x y z
#
# Youngs Moduli (GPa) = 137.04519 68.52395 42.96967
#
# Poissons Ratio (x) = 0.19334 0.04468
# Poissons Ratio (y) = 0.38668 0.11196
# Poissons Ratio (z) = 0.14250 0.17854
#
# Static dielectric constant tensor:
#      x y z
#    x 1.776330 0.000000 0.000000 
#    y 0.000000 1.899140 0.000000 
#    z 0.000000 0.000000 1.826960 
# 
# From -- ./inp_files/21592.got.cif
#   From: 2010.05.17/outbox.cif.g08.bks.cpg/sg57_11_cif.got.tgz:21592.got - 2010.06.03 13:58:18.
