data_PCOD9437000
_publ_section_title
;
Structure prediction by ZEFSAII (Michael W. Deem and Ramdas Pophale) SiO2 
 PCOD9437000
Probable space group: P B C M
;
_chemical_formula_sum "Si O2"
_cell_formula_units_Z 48
_cell_length_a 15.670429
_cell_length_b 17.772085
_cell_length_c 8.719178
_cell_angle_alpha 90.000000
_cell_angle_beta 90.000000
_cell_angle_gamma 90.000000
_cell_volume 2428.257907
_symmetry_space_group_name_H-M "P B C M"
_symmetry_group_IT_number 57
_symmetry_cell_setting 'orthorhombic'
loop_
_space_group_symop_operation_xyz
x,y,z
-x,-y,1/2+z
x,1/2-y,-z
-x,1/2+y,1/2-z
-x,-y,-z
x,y,1/2-z
-x,1/2+y,z
x,1/2-y,1/2+z
loop_
_atom_site_type_symbol
_atom_site_label
_atom_site_fract_x
_atom_site_fract_y
_atom_site_fract_z
Si Si1 0.792693 0.833709 0.932000
Si Si2 0.033374 0.165303 0.933164
Si Si3 0.370819 0.437734 0.933545
Si Si4 0.155537 0.665025 0.934482
Si Si5 0.325752 0.900532 0.932722
Si Si6 0.511359 0.329309 0.067049
O O1 0.802274 0.826467 0.750000
O O2 0.710932 0.884739 0.964325
O O3 0.780978 0.750000 0.000000
O O4 0.880169 0.868762 0.998760
O O5 0.040690 0.168414 0.750000
O O6 0.939560 0.134006 0.971548
O O7 0.032491 0.250000 0.000000
O O8 0.379662 0.447511 0.750000
O O9 0.354673 0.517215 0.012739
O O10 0.452971 0.395703 0.000361
O O11 0.163914 0.667613 0.750000
O O12 0.161155 0.750000 0.000000
O O13 0.231408 0.617355 0.006703
O O14 0.329436 0.893848 0.750000
O O15 0.392749 0.843209 0.008889
O O16 0.507957 0.328623 0.250000
O O17 0.479798 0.250000 0.000000
#
# Coordination Sequence:
#
# PCOD9437000 Si02
#       6
#     8   8   8   8   8   8
#     4  10  20  34  57  85 116 151 191 238 286 337
#     4   9  17  30  53  82 114 149 190 238 287 336
#     4  11  24  42  61  86 119 155 193 237 288 344
#     4  10  20  36  58  86 117 152 194 242 289 340
#     4  12  25  41  61  86 117 155 193 236 289 346
#     4  12  25  43  66  91 118 150 190 237 284 339
#
# _framework density 19.767258000000002
#
# number of rings (size 3 to 8) (size 9 to 14) (size 15 to 20)
#    0.000    1.333    0.000    7.500    0.000    6.000 
#    0.000    0.833    0.000    0.000    0.000    0.000 
#    0.000    0.000    0.000    0.000    0.000    0.000 
#
# Total GULP energy -268358.121252 kJ/mol
# GULP energy per Si atom -5590.794193 kJ/mol
# Density = 1.972227 g / cm^3
# Si number density = 19.767258 Si / 1000 Ang^3
#
#
#
# Elastic Constant Matrix: (Units=GPa)
#
#
# Indices 1 2 3 4 5 6 
#
# 1 105.0293 2.8854 41.6048 0.0000 0.0000 0.0000
# 2 2.8854 44.4193 11.5623 0.0000 0.0000 0.0000
# 3 41.6048 11.5623 87.0731 0.0000 0.0000 0.0000
# 4 0.0000 0.0000 0.0000 30.2186 0.0000 0.0000
# 5 0.0000 0.0000 0.0000 0.0000 42.3794 0.0000
# 6 0.0000 0.0000 0.0000 0.0000 0.0000 12.0301
#
#
#
# Elastic Compliance Matrix: (Units=1/GPa)
#
#
# Indices 1 2 3 4 5 6 
#
# 1 0.011766 0.000724 -0.005718 0.000000 0.000000 0.000000
# 2 0.000724 0.023363 -0.003448 0.000000 0.000000 0.000000
# 3 -0.005718 -0.003448 0.014675 0.000000 0.000000 0.000000
# 4 0.000000 0.000000 0.000000 0.033092 0.000000 0.000000
# 5 0.000000 0.000000 0.000000 0.000000 0.023596 0.000000
# 6 0.000000 0.000000 0.000000 0.000000 0.000000 0.083125
#
#
# Mechanical properties :
#
#
# Convention : Reuss Voigt Hill
#
# Bulk Modulus (GPa) = 30.37722 38.73630 34.55676
# Shear Modulus (GPa) = 22.99105 28.95690 25.97398
#
# Velocity S-wave (km/s) = 3.41411 3.83154 3.62883
# Velocity P-wave (km/s) = 5.56258 6.26203 5.92264
#
# Compressibility (1/GPa) = 0.03291941
#
# Stress axis : x y z
#
# Youngs Moduli (GPa) = 84.98749 42.80219 68.14403
#
# Poissons Ratio (x) = -0.03099 0.38967
# Poissons Ratio (y) = -0.06154 0.23499
# Poissons Ratio (z) = 0.48599 0.14760
#
# Static dielectric constant tensor:
#      x y z
#    x 1.724850 0.000000 0.000000 
#    y 0.000000 1.692020 0.000000 
#    z 0.000000 0.000000 1.653510 
# 
# From -- ./inp_files/4657.got.cif
#   From: 2010.05.17/outbox.cif.g08.bks.cpg/sg57_3_cif.got.tgz:4657.got - 2010.06.03 13:58:18.
