data_PCOD9437823
_publ_section_title
;
Structure prediction by ZEFSAII (Michael W. Deem and Ramdas Pophale) SiO2 
 PCOD9437823
Probable space group: P B C M
;
_chemical_formula_sum "Si O2"
_cell_formula_units_Z 48
_cell_length_a 15.483066
_cell_length_b 19.453952
_cell_length_c 8.646828
_cell_angle_alpha 90.000000
_cell_angle_beta 90.000000
_cell_angle_gamma 90.000000
_cell_volume 2604.483589
_symmetry_space_group_name_H-M "P B C M"
_symmetry_group_IT_number 57
_symmetry_cell_setting 'orthorhombic'
loop_
_space_group_symop_operation_xyz
x,y,z
-x,-y,1/2+z
x,1/2-y,-z
-x,1/2+y,1/2-z
-x,-y,-z
x,y,1/2-z
-x,1/2+y,z
x,1/2-y,1/2+z
loop_
_atom_site_type_symbol
_atom_site_label
_atom_site_fract_x
_atom_site_fract_y
_atom_site_fract_z
Si Si1 0.716137 0.925162 0.435505
Si Si2 0.126183 0.173348 0.936591
Si Si3 0.972529 0.074191 0.936661
Si Si4 0.775225 0.072375 0.936646
Si Si5 0.620539 0.326731 0.435610
Si Si6 0.473283 0.074599 0.434528
O O1 0.707931 0.924238 0.250000
O O2 0.789428 0.870506 0.482267
O O3 0.623759 0.910200 0.510502
O O4 0.746648 0.000625 0.488384
O O5 0.124833 0.175837 0.750000
O O6 0.041304 0.131272 0.988644
O O7 0.128025 0.250000 0.000000
O O8 0.976102 0.071417 0.750000
O O9 0.873663 0.088862 0.981653
O O10 0.000000 0.000000 0.000000
O O11 0.772149 0.064279 0.750000
O O12 0.707181 0.131358 0.979184
O O13 0.622055 0.250000 0.500000
O O14 0.614893 0.325287 0.250000
O O15 0.539945 0.369406 0.501506
O O16 0.477212 0.072354 0.250000
O O17 0.500000 0.000000 0.500000
#
# Coordination Sequence:
#
# PCOD9437823 Si02
#       6
#     8   8   8   8   8   8
#     4  11  22  38  62  91 122 158 206 254 301 363
#     4  10  23  40  59  88 125 161 202 251 304 360
#     4  10  20  37  60  90 121 157 204 252 300 360
#     4  10  21  37  62  90 121 159 204 251 303 364
#     4  11  24  42  62  91 126 163 204 254 310 366
#     4  12  24  40  64  93 123 161 205 254 306 365
#
# _framework density 18.429758
#
# number of rings (size 3 to 8) (size 9 to 14) (size 15 to 20)
#    0.000    1.333    3.333    2.500    0.000    4.000 
#    0.000    1.667    0.000    0.000    0.000    0.000 
#    0.000    0.000    0.000    0.000    0.000    0.000 
#
# Total GULP energy -268317.471380 kJ/mol
# GULP energy per Si atom -5589.947320 kJ/mol
# Density = 1.838781 g / cm^3
# Si number density = 18.429758 Si / 1000 Ang^3
#
#
#
# Elastic Constant Matrix: (Units=GPa)
#
#
# Indices 1 2 3 4 5 6 
#
# 1 219.8668 121.6192 63.0190 0.0000 0.0000 0.0000
# 2 121.6192 196.7118 54.1279 0.0000 0.0000 0.0000
# 3 63.0190 54.1279 53.5096 0.0000 0.0000 0.0000
# 4 0.0000 0.0000 0.0000 37.0566 0.0000 0.0000
# 5 0.0000 0.0000 0.0000 0.0000 23.8363 0.0000
# 6 0.0000 0.0000 0.0000 0.0000 0.0000 34.3098
#
#
#
# Elastic Compliance Matrix: (Units=1/GPa)
#
#
# Indices 1 2 3 4 5 6 
#
# 1 0.008193 -0.003340 -0.006270 0.000000 0.000000 0.000000
# 2 -0.003340 0.008406 -0.004569 0.000000 0.000000 0.000000
# 3 -0.006270 -0.004569 0.030695 0.000000 0.000000 0.000000
# 4 0.000000 0.000000 0.000000 0.026986 0.000000 0.000000
# 5 0.000000 0.000000 0.000000 0.000000 0.041953 0.000000
# 6 0.000000 0.000000 0.000000 0.000000 0.000000 0.029146
#
#
# Mechanical properties :
#
#
# Convention : Reuss Voigt Hill
#
# Bulk Modulus (GPa) = 52.81400 105.29116 79.05258
# Shear Modulus (GPa) = 27.77005 34.46200 31.11603
#
# Velocity S-wave (km/s) = 3.88597 4.32894 4.11342
# Velocity P-wave (km/s) = 6.98953 9.06870 8.09614
#
# Compressibility (1/GPa) = 0.01893437
#
# Stress axis : x y z
#
# Youngs Moduli (GPa) = 122.05590 118.96363 32.57841
#
# Poissons Ratio (x) = 0.39734 0.20428
# Poissons Ratio (y) = 0.40767 0.14887
# Poissons Ratio (z) = 0.76533 0.54360
#
# Static dielectric constant tensor:
#      x y z
#    x 1.636100 0.000000 0.000000 
#    y 0.000000 1.585970 0.000000 
#    z 0.000000 0.000000 1.624110 
# 
# From -- ./inp_files/4673.got.cif
#   From: 2010.05.17/outbox.cif.g08.bks.cpg/sg57_3_cif.got.tgz:4673.got - 2010.06.03 13:58:18.
