data_PCOD9437441
_publ_section_title
;
Structure prediction by ZEFSAII (Michael W. Deem and Ramdas Pophale) SiO2 
 PCOD9437441
Probable space group: P B C M
;
_chemical_formula_sum "Si O2"
_cell_formula_units_Z 40
_cell_length_a 9.275524
_cell_length_b 26.885914
_cell_length_c 8.746837
_cell_angle_alpha 90.000000
_cell_angle_beta 90.000000
_cell_angle_gamma 90.000000
_cell_volume 2181.294438
_symmetry_space_group_name_H-M "P B C M"
_symmetry_group_IT_number 57
_symmetry_cell_setting 'orthorhombic'
loop_
_space_group_symop_operation_xyz
x,y,z
-x,-y,1/2+z
x,1/2-y,-z
-x,1/2+y,1/2-z
-x,-y,-z
x,y,1/2-z
-x,1/2+y,z
x,1/2-y,1/2+z
loop_
_atom_site_type_symbol
_atom_site_label
_atom_site_fract_x
_atom_site_fract_y
_atom_site_fract_z
Si Si1 0.662320 0.593511 0.932714
Si Si2 0.839893 0.502094 0.433524
Si Si3 0.668430 0.698194 0.072920
Si Si4 0.682857 0.198907 0.425336
Si Si5 0.660591 0.409992 0.564185
O O1 0.658065 0.588881 0.750000
O O2 0.763142 0.551860 0.005961
O O3 0.711029 0.648940 0.981116
O O4 0.502091 0.586129 0.001560
O O5 0.840458 0.501311 0.250000
O O6 0.752345 0.455032 0.498688
O O7 0.000000 0.500000 0.500000
O O8 0.711067 0.694208 0.250000
O O9 0.492655 0.699467 0.069262
O O10 0.718806 0.750000 0.000000
O O11 0.734141 0.250000 0.500000
O O12 0.727794 0.200245 0.250000
O O13 0.721194 0.144213 0.487101
O O14 0.657199 0.410867 0.750000
#
# Coordination Sequence:
#
# PCOD9437441 Si02
#       5
#     8   8   8   8   8
#     4  11  21  35  56  83 112 145 182 224 270 321
#     4  12  25  41  58  78 105 141 181 226 277 331
#     4   9  16  28  47  76 110 143 177 219 267 318
#     4   8  15  26  45  73 107 139 171 211 258 307
#     4  10  20  36  56  82 112 144 181 224 269 319
#
# _framework density 18.337736
#
# number of rings (size 3 to 8) (size 9 to 14) (size 15 to 20)
#    0.000    2.000    0.000    6.600    0.000    5.600 
#    0.000    0.000    0.000    1.200    0.000    5.600 
#    0.000    0.000    0.000    0.000    0.000    0.000 
#
# Total GULP energy -223201.621686 kJ/mol
# GULP energy per Si atom -5580.040542 kJ/mol
# Density = 1.829600 g / cm^3
# Si number density = 18.337736 Si / 1000 Ang^3
#
#
#
# Elastic Constant Matrix: (Units=GPa)
#
#
# Indices 1 2 3 4 5 6 
#
# 1 59.1758 70.9501 40.1637 0.0000 0.0000 0.0000
# 2 70.9501 203.0163 82.0787 0.0000 0.0000 0.0000
# 3 40.1637 82.0787 148.4319 0.0000 0.0000 0.0000
# 4 0.0000 0.0000 0.0000 37.9147 0.0000 0.0000
# 5 0.0000 0.0000 0.0000 0.0000 21.1843 0.0000
# 6 0.0000 0.0000 0.0000 0.0000 0.0000 -7.9703
#
#
#
# Elastic Compliance Matrix: (Units=1/GPa)
#
#
# Indices 1 2 3 4 5 6 
#
# 1 0.030087 -0.009303 -0.002997 0.000000 0.000000 0.000000
# 2 -0.009303 0.009221 -0.002581 0.000000 0.000000 0.000000
# 3 -0.002997 -0.002581 0.008975 0.000000 0.000000 0.000000
# 4 0.000000 0.000000 0.000000 0.026375 0.000000 0.000000
# 5 0.000000 0.000000 0.000000 0.000000 0.047205 0.000000
# 6 0.000000 0.000000 0.000000 0.000000 0.000000 -0.125466
#
#
# Mechanical properties :
#
#
# Convention : Reuss Voigt Hill
#
# Bulk Modulus (GPa) = 53.99468 88.55656 71.27562
# Shear Modulus (GPa) = 154.63761 24.72118 89.67939
#
# Velocity S-wave (km/s) = 9.19296 3.67564 7.00075
# Velocity P-wave (km/s) = 11.92432 8.14927 10.21273
#
# Compressibility (1/GPa) = 0.01852034
#
# Stress axis : x y z
#
# Youngs Moduli (GPa) = 33.23685 108.45187 111.41527
#
# Poissons Ratio (x) = 1.00896 0.33388
# Poissons Ratio (y) = 0.30921 0.28761
# Poissons Ratio (z) = 0.09960 0.27996
#
# Static dielectric constant tensor:
#      x y z
#    x 1.619920 0.000000 0.000000 
#    y 0.000000 1.654190 0.000000 
#    z 0.000000 0.000000 1.599440 
# 
# From -- ./inp_files/1523.got.cif
#   From: 2010.05.17/outbox.cif.g08.bks.cpg/sg57_1_cif.got.tgz:1523.got - 2010.06.03 13:58:18.
