data_PCOD9437394
_publ_section_title
;
Structure prediction by ZEFSAII (Michael W. Deem and Ramdas Pophale) SiO2 
 PCOD9437394
Probable space group: P B C M
;
_chemical_formula_sum "Si O2"
_cell_formula_units_Z 40
_cell_length_a 26.421104
_cell_length_b 9.606438
_cell_length_c 8.558561
_cell_angle_alpha 90.000000
_cell_angle_beta 90.000000
_cell_angle_gamma 90.000000
_cell_volume 2172.271454
_symmetry_space_group_name_H-M "P B C M"
_symmetry_group_IT_number 57
_symmetry_cell_setting 'orthorhombic'
loop_
_space_group_symop_operation_xyz
x,y,z
-x,-y,1/2+z
x,1/2-y,-z
-x,1/2+y,1/2-z
-x,-y,-z
x,y,1/2-z
-x,1/2+y,z
x,1/2-y,1/2+z
loop_
_atom_site_type_symbol
_atom_site_label
_atom_site_fract_x
_atom_site_fract_y
_atom_site_fract_z
Si Si1 0.657809 0.406016 0.561717
Si Si2 0.248343 0.405336 0.438500
Si Si3 0.862019 0.907543 0.562888
Si Si4 0.454804 0.906579 0.937219
Si Si5 0.953434 0.407885 0.937111
O O1 0.663594 0.250000 0.500000
O O2 0.658510 0.402987 0.750000
O O3 0.704776 0.499586 0.510558
O O4 0.601620 0.456715 0.513971
O O5 0.257191 0.250000 0.500000
O O6 0.245006 0.404725 0.250000
O O7 0.194208 0.449730 0.507496
O O8 0.871113 0.750000 0.500000
O O9 0.864607 0.904691 0.750000
O O10 0.903017 0.013783 0.495294
O O11 0.456607 0.904685 0.750000
O O12 0.460187 0.750000 0.000000
O O13 0.500000 0.000000 0.000000
O O14 0.954791 0.404993 0.750000
O O15 0.956081 0.250000 0.000000
O O16 0.000000 0.500000 0.000000
#
# Coordination Sequence:
#
# PCOD9437394 Si02
#       5
#     8   8   8   8   8
#     4   9  20  36  55  78 108 142 182 226 276 332
#     4  10  20  36  56  82 112 146 186 231 277 331
#     4  11  22  39  61  87 117 153 191 234 282 333
#     4  10  20  36  55  79 108 143 183 229 279 334
#     4  12  25  43  64  90 120 154 193 236 282 334
#
# _framework density 18.413906000000001
#
# number of rings (size 3 to 8) (size 9 to 14) (size 15 to 20)
#    0.000    1.600    0.000    6.600    0.000    4.000 
#    0.000    4.000    0.000    0.000    0.000    0.000 
#    0.000    0.000    0.000    0.000    0.000    0.000 
#
# Total GULP energy -223475.780702 kJ/mol
# GULP energy per Si atom -5586.894518 kJ/mol
# Density = 1.837200 g / cm^3
# Si number density = 18.413906 Si / 1000 Ang^3
#
#
#
# Elastic Constant Matrix: (Units=GPa)
#
#
# Indices 1 2 3 4 5 6 
#
# 1 212.3297 127.9788 69.6552 0.0000 0.0000 0.0000
# 2 127.9788 112.8201 52.3458 0.0000 0.0000 0.0000
# 3 69.6552 52.3458 124.9145 0.0000 0.0000 0.0000
# 4 0.0000 0.0000 0.0000 35.6349 0.0000 0.0000
# 5 0.0000 0.0000 0.0000 0.0000 32.3120 0.0000
# 6 0.0000 0.0000 0.0000 0.0000 0.0000 42.6543
#
#
#
# Elastic Compliance Matrix: (Units=1/GPa)
#
#
# Indices 1 2 3 4 5 6 
#
# 1 0.015127 -0.016443 -0.001545 0.000000 0.000000 0.000000
# 2 -0.016443 0.028876 -0.002932 0.000000 0.000000 0.000000
# 3 -0.001545 -0.002932 0.010095 0.000000 0.000000 0.000000
# 4 0.000000 0.000000 0.000000 0.028062 0.000000 0.000000
# 5 0.000000 0.000000 0.000000 0.000000 0.030948 0.000000
# 6 0.000000 0.000000 0.000000 0.000000 0.000000 0.023444
#
#
# Mechanical properties :
#
#
# Convention : Reuss Voigt Hill
#
# Bulk Modulus (GPa) = 81.56661 105.55819 93.56240
# Shear Modulus (GPa) = 27.40036 35.45921 31.42978
#
# Velocity S-wave (km/s) = 3.86168 4.39301 4.13589
# Velocity P-wave (km/s) = 8.01722 9.12037 8.58653
#
# Compressibility (1/GPa) = 0.01225992
#
# Stress axis : x y z
#
# Youngs Moduli (GPa) = 66.10595 34.63057 99.05484
#
# Poissons Ratio (x) = 0.56943 0.15302
# Poissons Ratio (y) = 1.08698 0.29040
# Poissons Ratio (z) = 0.10212 0.10153
#
# Static dielectric constant tensor:
#      x y z
#    x 1.645210 0.000000 0.000000 
#    y 0.000000 1.593360 0.000000 
#    z 0.000000 0.000000 1.622830 
# 
# From -- ./inp_files/8889.got.cif
#   From: 2010.05.17/outbox.cif.g08.bks.cpg/sg57_5_cif.got.tgz:8889.got - 2010.06.03 13:58:18.
