data_PCOD9437372
_publ_section_title
;
Structure prediction by ZEFSAII (Michael W. Deem and Ramdas Pophale) SiO2 
 PCOD9437372
Probable space group: P B C M
;
_chemical_formula_sum "Si O2"
_cell_formula_units_Z 56
_cell_length_a 15.383921
_cell_length_b 23.034330
_cell_length_c 8.007185
_cell_angle_alpha 90.000000
_cell_angle_beta 90.000000
_cell_angle_gamma 90.000000
_cell_volume 2837.412569
_symmetry_space_group_name_H-M "P B C M"
_symmetry_group_IT_number 57
_symmetry_cell_setting 'orthorhombic'
loop_
_space_group_symop_operation_xyz
x,y,z
-x,-y,1/2+z
x,1/2-y,-z
-x,1/2+y,1/2-z
-x,-y,-z
x,y,1/2-z
-x,1/2+y,z
x,1/2-y,1/2+z
loop_
_atom_site_type_symbol
_atom_site_label
_atom_site_fract_x
_atom_site_fract_y
_atom_site_fract_z
Si Si1 0.107774 0.445821 0.952468
Si Si2 0.705179 0.585081 0.453669
Si Si3 0.084259 0.922477 0.052364
Si Si4 0.422435 0.186577 0.451618
Si Si5 0.800886 0.312862 0.552022
Si Si6 0.406084 0.524888 0.950206
Si Si7 0.387334 0.656039 0.053168
O O1 0.106266 0.446724 0.750000
O O2 0.194929 0.413188 0.007569
O O3 0.110941 0.513205 0.011976
O O4 0.017845 0.417891 0.011140
O O5 0.704425 0.586971 0.250000
O O6 0.641776 0.636123 0.512819
O O7 0.664083 0.523282 0.500720
O O8 0.095713 0.924307 0.250000
O O9 0.140320 0.868260 0.991277
O O10 0.390515 0.250000 0.500000
O O11 0.425872 0.181720 0.250000
O O12 0.521011 0.178603 0.517972
O O13 0.836408 0.250000 0.500000
O O14 0.793048 0.312537 0.750000
O O15 0.702983 0.320557 0.479201
O O16 0.402788 0.531914 0.750000
O O17 0.500000 0.500000 0.000000
O O18 0.389172 0.586701 0.032437
O O19 0.388080 0.670232 0.250000
#
# Coordination Sequence:
#
# PCOD9437372 Si02
#       7
#     8   8   8   8   8   8   8
#     4   9  18  35  60  85 108 144 186 226 282 341
#     4   9  18  34  55  77 108 144 178 224 274 322
#     4  10  20  36  58  85 115 143 181 231 283 343
#     4  10  20  36  53  72 104 142 183 223 264 315
#     4  11  23  38  58  83 115 152 191 236 283 337
#     4  11  20  33  54  81 113 147 184 226 277 330
#     4  10  21  37  55  79 112 146 183 229 277 327
#
# _framework density 19.73629
#
# number of rings (size 3 to 8) (size 9 to 14) (size 15 to 20)
#    0.000    2.000    1.429    2.571    0.000    3.429 
#    0.000    2.857    0.000    1.714    0.000    0.000 
#    0.000    0.000    0.000    0.000    0.000    0.000 
#
# Total GULP energy -312666.018332 kJ/mol
# GULP energy per Si atom -5583.321756 kJ/mol
# Density = 1.969137 g / cm^3
# Si number density = 19.736290 Si / 1000 Ang^3
#
#
#
# Elastic Constant Matrix: (Units=GPa)
#
#
# Indices 1 2 3 4 5 6 
#
# 1 116.4255 46.8260 9.3946 0.0000 0.0000 0.0000
# 2 46.8260 88.0299 -4.4948 0.0000 0.0000 0.0000
# 3 9.3946 -4.4948 20.2295 0.0000 0.0000 0.0000
# 4 0.0000 0.0000 0.0000 26.6250 0.0000 0.0000
# 5 0.0000 0.0000 0.0000 0.0000 8.4863 0.0000
# 6 0.0000 0.0000 0.0000 0.0000 0.0000 3.1733
#
#
#
# Elastic Compliance Matrix: (Units=1/GPa)
#
#
# Indices 1 2 3 4 5 6 
#
# 1 0.011824 -0.006645 -0.006968 0.000000 0.000000 0.000000
# 2 -0.006645 0.015225 0.006469 0.000000 0.000000 0.000000
# 3 -0.006968 0.006469 0.054106 0.000000 0.000000 0.000000
# 4 0.000000 0.000000 0.000000 0.037559 0.000000 0.000000
# 5 0.000000 0.000000 0.000000 0.000000 0.117838 0.000000
# 6 0.000000 0.000000 0.000000 0.000000 0.000000 0.315129
#
#
# Mechanical properties :
#
#
# Convention : Reuss Voigt Hill
#
# Bulk Modulus (GPa) = 14.95513 36.45962 25.70737
# Shear Modulus (GPa) = 8.49967 19.18753 13.84360
#
# Velocity S-wave (km/s) = 2.07749 3.12139 2.65132
# Velocity P-wave (km/s) = 3.65357 5.61286 4.73565
#
# Compressibility (1/GPa) = 0.06686671
#
# Stress axis : x y z
#
# Youngs Moduli (GPa) = 84.57232 65.68137 18.48230
#
# Poissons Ratio (x) = 0.43648 0.12878
# Poissons Ratio (y) = 0.56202 -0.11956
# Poissons Ratio (z) = 0.58928 -0.42489
#
# Static dielectric constant tensor:
#      x y z
#    x 1.705040 0.000000 0.000000 
#    y 0.000000 1.650690 0.000000 
#    z 0.000000 0.000000 1.691960 
# 
# From -- ./inp_files/5124.got.cif
#   From: 2010.05.17/outbox.cif.g08.bks.cpg/sg57_3_cif.got.tgz:5124.got - 2010.06.03 13:58:18.
