data_PCOD9437742
_publ_section_title
;
Structure prediction by ZEFSAII (Michael W. Deem and Ramdas Pophale) SiO2 
 PCOD9437742
Probable space group: P B C M
;
_chemical_formula_sum "Si O2"
_cell_formula_units_Z 40
_cell_length_a 26.175457
_cell_length_b 9.663460
_cell_length_c 8.607205
_cell_angle_alpha 90.000000
_cell_angle_beta 90.000000
_cell_angle_gamma 90.000000
_cell_volume 2177.153615
_symmetry_space_group_name_H-M "P B C M"
_symmetry_group_IT_number 57
_symmetry_cell_setting 'orthorhombic'
loop_
_space_group_symop_operation_xyz
x,y,z
-x,-y,1/2+z
x,1/2-y,-z
-x,1/2+y,1/2-z
-x,-y,-z
x,y,1/2-z
-x,1/2+y,z
x,1/2-y,1/2+z
loop_
_atom_site_type_symbol
_atom_site_label
_atom_site_fract_x
_atom_site_fract_y
_atom_site_fract_z
Si Si1 0.743537 0.096064 0.063088
Si Si2 0.345636 0.404987 0.935493
Si Si3 0.139700 0.596662 0.063113
Si Si4 0.454575 0.093927 0.935913
Si Si5 0.046013 0.094133 0.937076
O O1 0.739989 0.093890 0.250000
O O2 0.802097 0.060565 0.017833
O O3 0.734137 0.250000 0.000000
O O4 0.701897 0.995157 0.991114
O O5 0.348935 0.401932 0.750000
O O6 0.339352 0.250000 0.000000
O O7 0.399435 0.458107 0.004288
O O8 0.138291 0.604778 0.250000
O O9 0.098405 0.483060 0.013973
O O10 0.127508 0.750000 0.000000
O O11 0.454947 0.096427 0.750000
O O12 0.460323 0.250000 0.000000
O O13 0.500000 0.000000 0.000000
O O14 0.043918 0.097681 0.750000
O O15 0.043053 0.250000 0.000000
O O16 0.000000 0.000000 0.000000
#
# Coordination Sequence:
#
# PCOD9437742 Si02
#       5
#     8   8   8   8   8
#     4  10  20  37  58  84 114 148 187 231 278 331
#     4  11  22  38  58  83 113 149 187 230 280 334
#     4   9  20  37  58  82 112 146 185 229 279 331
#     4  11  22  39  60  85 114 148 187 232 281 334
#     4  11  23  39  58  84 114 149 188 232 280 334
#
# _framework density 18.372612
#
# number of rings (size 3 to 8) (size 9 to 14) (size 15 to 20)
#    0.000    1.600    0.000    6.600    0.000    5.600 
#    0.000    6.000    0.000    0.000    0.000    0.000 
#    0.000    0.000    0.000    0.000    0.000    0.000 
#
# Total GULP energy -223526.386304 kJ/mol
# GULP energy per Si atom -5588.159658 kJ/mol
# Density = 1.833080 g / cm^3
# Si number density = 18.372612 Si / 1000 Ang^3
#
#
#
# Elastic Constant Matrix: (Units=GPa)
#
#
# Indices 1 2 3 4 5 6 
#
# 1 171.0669 117.2838 66.1729 0.0000 0.0000 0.0000
# 2 117.2838 121.3011 51.1430 0.0000 0.0000 0.0000
# 3 66.1729 51.1430 127.1385 0.0000 0.0000 0.0000
# 4 0.0000 0.0000 0.0000 36.8555 0.0000 0.0000
# 5 0.0000 0.0000 0.0000 0.0000 28.8418 0.0000
# 6 0.0000 0.0000 0.0000 0.0000 0.0000 48.3394
#
#
#
# Elastic Compliance Matrix: (Units=1/GPa)
#
#
# Indices 1 2 3 4 5 6 
#
# 1 0.018176 -0.016360 -0.002879 0.000000 0.000000 0.000000
# 2 -0.016360 0.024653 -0.001402 0.000000 0.000000 0.000000
# 3 -0.002879 -0.001402 0.009928 0.000000 0.000000 0.000000
# 4 0.000000 0.000000 0.000000 0.027133 0.000000 0.000000
# 5 0.000000 0.000000 0.000000 0.000000 0.034672 0.000000
# 6 0.000000 0.000000 0.000000 0.000000 0.000000 0.020687
#
#
# Mechanical properties :
#
#
# Convention : Reuss Voigt Hill
#
# Bulk Modulus (GPa) = 87.14814 98.74511 92.94663
# Shear Modulus (GPa) = 27.72293 35.13444 31.42869
#
# Velocity S-wave (km/s) = 3.88871 4.37776 4.14046
# Velocity P-wave (km/s) = 8.22796 8.91154 8.57657
#
# Compressibility (1/GPa) = 0.01147471
#
# Stress axis : x y z
#
# Youngs Moduli (GPa) = 55.01823 40.56267 100.72565
#
# Poissons Ratio (x) = 0.66360 0.29000
# Poissons Ratio (y) = 0.90009 0.14122
# Poissons Ratio (z) = 0.15840 0.05687
#
# Static dielectric constant tensor:
#      x y z
#    x 1.637040 0.000000 0.000000 
#    y 0.000000 1.561210 0.000000 
#    z 0.000000 0.000000 1.616240 
# 
# From -- ./inp_files/8909.got.cif
#   From: 2010.05.17/outbox.cif.g08.bks.cpg/sg57_5_cif.got.tgz:8909.got - 2010.06.03 13:58:18.
