data_PCOD9437233
_publ_section_title
;
Structure prediction by ZEFSAII (Michael W. Deem and Ramdas Pophale) SiO2 
 PCOD9437233
Probable space group: P B C M
;
_chemical_formula_sum "Si O2"
_cell_formula_units_Z 48
_cell_length_a 15.692329
_cell_length_b 16.009779
_cell_length_c 9.739094
_cell_angle_alpha 90.000000
_cell_angle_beta 90.000000
_cell_angle_gamma 90.000000
_cell_volume 2446.759591
_symmetry_space_group_name_H-M "P B C M"
_symmetry_group_IT_number 57
_symmetry_cell_setting 'orthorhombic'
loop_
_space_group_symop_operation_xyz
x,y,z
-x,-y,1/2+z
x,1/2-y,-z
-x,1/2+y,1/2-z
-x,-y,-z
x,y,1/2-z
-x,1/2+y,z
x,1/2-y,1/2+z
loop_
_atom_site_type_symbol
_atom_site_label
_atom_site_fract_x
_atom_site_fract_y
_atom_site_fract_z
Si Si1 0.097155 0.332576 0.750000
Si Si2 0.845761 0.928020 0.479427
Si Si3 0.322387 0.168823 0.590330
Si Si4 0.051183 0.144559 0.750000
Si Si5 0.913300 0.276148 0.750000
Si Si6 0.252588 0.925687 0.090946
Si Si7 0.422000 0.461805 0.914451
Si Si8 0.792206 0.250000 0.000000
O O1 0.136824 0.376868 0.881431
O O2 0.107805 0.231393 0.750000
O O3 0.993998 0.338062 0.750000
O O4 0.762210 0.887854 0.410402
O O5 0.924933 0.909577 0.381362
O O6 0.820008 0.022871 0.510264
O O7 0.302411 0.250000 0.500000
O O8 0.346228 0.185156 0.750000
O O9 0.392461 0.119548 0.499863
O O10 0.957862 0.184239 0.750000
O O11 0.854217 0.281702 0.880728
O O12 0.228137 0.927954 0.250000
O O13 0.260608 0.830144 0.046692
O O14 0.341233 0.975371 0.077505
O O15 0.438612 0.447725 0.750000
O O16 0.500000 0.500000 0.000000
#
# Coordination Sequence:
#
# PCOD9437233 Si02
#       8
#     4   8   8   4   4   8   8   4
#     4  10  20  35  60  86 127 177 202 263 335 380
#     4  11  20  36  60  92 131 165 214 263 318 393
#     4  11  22  35  59  97 132 171 206 252 317 384
#     4  10  20  35  56  96 125 165 212 259 327 378
#     4  10  24  38  64  90 128 170 214 282 316 368
#     4  10  23  43  68  92 125 170 215 268 319 375
#     4  10  22  44  69  97 134 164 202 263 321 385
#     4  12  22  48  64  86 122 174 224 268 314 376
#
# _framework density 19.617785000000001
#
# number of rings (size 3 to 8) (size 9 to 14) (size 15 to 20)
#    0.500    1.000    2.500    3.500    2.333    0.667 
#    4.500    5.000    0.000    0.000    0.000    0.000 
#    0.000    0.000    0.000    0.000    0.000    0.000 
#
# Total GULP energy -267802.864700 kJ/mol
# GULP energy per Si atom -5579.226348 kJ/mol
# Density = 1.957313 g / cm^3
# Si number density = 19.617785 Si / 1000 Ang^3
#
#
#
# Elastic Constant Matrix: (Units=GPa)
#
#
# Indices 1 2 3 4 5 6 
#
# 1 23.7212 -5.3714 17.2493 0.0000 0.0000 0.0000
# 2 -5.3714 92.6249 22.1529 0.0000 0.0000 0.0000
# 3 17.2493 22.1529 140.9843 0.0000 0.0000 0.0000
# 4 0.0000 0.0000 0.0000 22.8333 0.0000 0.0000
# 5 0.0000 0.0000 0.0000 0.0000 23.7783 0.0000
# 6 0.0000 0.0000 0.0000 0.0000 0.0000 25.2890
#
#
#
# Elastic Compliance Matrix: (Units=1/GPa)
#
#
# Indices 1 2 3 4 5 6 
#
# 1 0.047897 0.004342 -0.006542 0.000000 0.000000 0.000000
# 2 0.004342 0.011611 -0.002356 0.000000 0.000000 0.000000
# 3 -0.006542 -0.002356 0.008264 0.000000 0.000000 0.000000
# 4 0.000000 0.000000 0.000000 0.043796 0.000000 0.000000
# 5 0.000000 0.000000 0.000000 0.000000 0.042055 0.000000
# 6 0.000000 0.000000 0.000000 0.000000 0.000000 0.039543
#
#
# Mechanical properties :
#
#
# Convention : Reuss Voigt Hill
#
# Bulk Modulus (GPa) = 17.04732 36.15469 26.60101
# Shear Modulus (GPa) = 22.53965 29.26674 25.90320
#
# Velocity S-wave (km/s) = 3.39328 3.86663 3.63766
# Velocity P-wave (km/s) = 4.90521 6.19710 5.58861
#
# Compressibility (1/GPa) = 0.05866024
#
# Stress axis : x y z
#
# Youngs Moduli (GPa) = 20.87812 86.12166 121.01233
#
# Poissons Ratio (x) = -0.37397 0.79172
# Poissons Ratio (y) = -0.09066 0.28508
# Poissons Ratio (z) = 0.13659 0.20289
#
# Static dielectric constant tensor:
#      x y z
#    x 1.678920 0.000000 0.000000 
#    y 0.000000 1.704030 0.000000 
#    z 0.000000 0.000000 1.694140 
# 
# From -- ./inp_files/6636.got.cif
#   From: 2010.05.17/outbox.cif.g08.bks.cpg/sg57_4_cif.got.tgz:6636.got - 2010.06.03 13:58:18.
