data_PCOD9437125
_publ_section_title
;
Structure prediction by ZEFSAII (Michael W. Deem and Ramdas Pophale) SiO2 
 PCOD9437125
Probable space group: P B C M
;
_chemical_formula_sum "Si O2"
_cell_formula_units_Z 48
_cell_length_a 15.433275
_cell_length_b 19.852255
_cell_length_c 8.467420
_cell_angle_alpha 90.000000
_cell_angle_beta 90.000000
_cell_angle_gamma 90.000000
_cell_volume 2594.293108
_symmetry_space_group_name_H-M "P B C M"
_symmetry_group_IT_number 57
_symmetry_cell_setting 'orthorhombic'
loop_
_space_group_symop_operation_xyz
x,y,z
-x,-y,1/2+z
x,1/2-y,-z
-x,1/2+y,1/2-z
-x,-y,-z
x,y,1/2-z
-x,1/2+y,z
x,1/2-y,1/2+z
loop_
_atom_site_type_symbol
_atom_site_label
_atom_site_fract_x
_atom_site_fract_y
_atom_site_fract_z
Si Si1 0.629999 0.324299 0.059283
Si Si2 0.273699 0.089703 0.060712
Si Si3 0.037234 0.570978 0.559074
Si Si4 0.234903 0.562820 0.557204
Si Si5 0.430950 0.324649 0.060630
Si Si6 0.890052 0.825989 0.060706
O O1 0.631102 0.323607 0.250000
O O2 0.696269 0.381442 0.003758
O O3 0.530411 0.337667 0.009993
O O4 0.654058 0.250000 0.000000
O O5 0.270877 0.090608 0.250000
O O6 0.260134 0.012666 0.007036
O O7 0.363774 0.121278 0.004295
O O8 0.195435 0.135435 0.997591
O O9 0.036837 0.569740 0.750000
O O10 0.136684 0.578553 0.506752
O O11 0.000000 0.500000 0.500000
O O12 0.973496 0.630739 0.506922
O O13 0.235766 0.563252 0.750000
O O14 0.427533 0.324552 0.250000
O O15 0.407007 0.250000 0.000000
O O16 0.889132 0.825088 0.250000
O O17 0.892166 0.750000 0.000000
#
# Coordination Sequence:
#
# PCOD9437125 Si02
#       6
#     8   8   8   8   8   8
#     4   9  19  37  58  80 109 145 183 225 274 326
#     4  11  21  35  57  81 110 147 184 225 276 332
#     4  10  20  37  59  81 109 146 184 224 273 328
#     4   9  19  36  58  82 110 145 180 221 278 331
#     4  10  20  35  55  79 110 145 183 227 273 326
#     4  11  23  37  56  83 114 146 185 230 274 325
#
# _framework density 18.50215
#
# number of rings (size 3 to 8) (size 9 to 14) (size 15 to 20)
#    0.000    2.000    1.667    2.000    0.000    2.667 
#    0.000    2.500    0.000    0.000    0.000    0.000 
#    0.000    0.000    0.000    0.000    0.000    0.000 
#
# Total GULP energy -268051.955864 kJ/mol
# GULP energy per Si atom -5584.415747 kJ/mol
# Density = 1.846004 g / cm^3
# Si number density = 18.502150 Si / 1000 Ang^3
#
#
#
# Elastic Constant Matrix: (Units=GPa)
#
#
# Indices 1 2 3 4 5 6 
#
# 1 151.4760 122.5373 23.2655 0.0000 0.0000 0.0000
# 2 122.5373 189.6873 27.8775 0.0000 0.0000 0.0000
# 3 23.2655 27.8775 25.8648 0.0000 0.0000 0.0000
# 4 0.0000 0.0000 0.0000 25.1869 0.0000 0.0000
# 5 0.0000 0.0000 0.0000 0.0000 -0.1202 0.0000
# 6 0.0000 0.0000 0.0000 0.0000 0.0000 43.2783
#
#
#
# Elastic Compliance Matrix: (Units=1/GPa)
#
#
# Indices 1 2 3 4 5 6 
#
# 1 0.014075 -0.008593 -0.003399 0.000000 0.000000 0.000000
# 2 -0.008593 0.011510 -0.004676 0.000000 0.000000 0.000000
# 3 -0.003399 -0.004676 0.046760 0.000000 0.000000 0.000000
# 4 0.000000 0.000000 0.000000 0.039703 0.000000 0.000000
# 5 0.000000 0.000000 0.000000 0.000000 -8.320089 0.000000
# 6 0.000000 0.000000 0.000000 0.000000 0.000000 0.023106
#
#
# Mechanical properties :
#
#
# Convention : Reuss Voigt Hill
#
# Bulk Modulus (GPa) = 25.63527 79.37654 52.50590
# Shear Modulus (GPa) = -0.61436 26.55886 12.97225
#
# Velocity S-wave (km/s) = -0.57686 3.79284 2.65074
# Velocity P-wave (km/s) = 3.66629 7.88513 6.14886
#
# Compressibility (1/GPa) = 0.03900876
#
# Stress axis : x y z
#
# Youngs Moduli (GPa) = 71.04795 86.88053 21.38570
#
# Poissons Ratio (x) = 0.74655 0.07269
# Poissons Ratio (y) = 0.61051 0.10001
# Poissons Ratio (z) = 0.24149 0.40629
#
# Static dielectric constant tensor:
#      x y z
#    x 1.632670 0.000000 0.000000 
#    y 0.000000 1.602280 0.000000 
#    z 0.000000 0.000000 1.634630 
# 
# From -- ./inp_files/4558.got.cif
#   From: 2010.05.17/outbox.cif.g08.bks.cpg/sg57_3_cif.got.tgz:4558.got - 2010.06.03 13:58:18.
