data_PCOD9437883
_publ_section_title
;
Structure prediction by ZEFSAII (Michael W. Deem and Ramdas Pophale) SiO2 
 PCOD9437883
Probable space group: P B C M
;
_chemical_formula_sum "Si O2"
_cell_formula_units_Z 44
_cell_length_a 12.325244
_cell_length_b 9.951443
_cell_length_c 16.597783
_cell_angle_alpha 90.000000
_cell_angle_beta 90.000000
_cell_angle_gamma 90.000000
_cell_volume 2035.783864
_symmetry_space_group_name_H-M "P B C M"
_symmetry_group_IT_number 57
_symmetry_cell_setting 'orthorhombic'
loop_
_space_group_symop_operation_xyz
x,y,z
-x,-y,1/2+z
x,1/2-y,-z
-x,1/2+y,1/2-z
-x,-y,-z
x,y,1/2-z
-x,1/2+y,z
x,1/2-y,1/2+z
loop_
_atom_site_type_symbol
_atom_site_label
_atom_site_fract_x
_atom_site_fract_y
_atom_site_fract_z
Si Si1 0.931536 0.947069 0.923860
Si Si2 0.315647 0.095981 0.401281
Si Si3 0.941341 0.839446 0.155514
Si Si4 0.479118 0.250000 0.000000
Si Si5 0.529971 0.381041 0.341572
Si Si6 0.709066 0.603081 0.841418
O O1 0.963836 0.053519 0.855183
O O2 0.801787 0.945250 0.932761
O O3 0.960199 0.795726 0.895683
O O4 0.000000 0.000000 0.000000
O O5 0.396886 0.130700 0.474399
O O6 0.306070 0.235893 0.352938
O O7 0.373455 0.986066 0.347308
O O8 0.927913 0.803345 0.250000
O O9 0.829974 0.911663 0.123462
O O10 0.543436 0.216413 0.918655
O O11 0.524012 0.324871 0.250000
O O12 0.411978 0.449453 0.359284
O O13 0.724677 0.560339 0.750000
#
# Coordination Sequence:
#
# PCOD9437883 Si02
#       6
#     8   8   8   4   8   8
#     4  11  24  39  65  93 128 171 222 267 331 391
#     4  10  21  37  62  84 124 164 213 263 327 391
#     4  10  21  41  64  92 126 169 219 272 323 390
#     4  10  22  40  62  92 128 166 214 264 328 404
#     4  10  20  37  62  92 122 160 209 261 319 389
#     4   8  17  34  60  87 116 158 207 255 320 388
#
# _framework density 21.613296999999999
#
# number of rings (size 3 to 8) (size 9 to 14) (size 15 to 20)
#    0.000    2.182    0.000    2.182    7.636    2.909 
#    3.273    1.818    0.000    4.364    0.000    0.000 
#    0.000    0.000    0.000    0.000    0.000    0.000 
#
# Total GULP energy -245020.263642 kJ/mol
# GULP energy per Si atom -5568.642355 kJ/mol
# Density = 2.156410 g / cm^3
# Si number density = 21.613297 Si / 1000 Ang^3
#
#
#
# Elastic Constant Matrix: (Units=GPa)
#
#
# Indices 1 2 3 4 5 6 
#
# 1 75.8324 31.1118 17.4879 0.0000 0.0000 0.0000
# 2 31.1118 33.9404 12.3231 0.0000 0.0000 0.0000
# 3 17.4879 12.3231 114.5489 0.0000 0.0000 0.0000
# 4 0.0000 0.0000 0.0000 28.1938 0.0000 0.0000
# 5 0.0000 0.0000 0.0000 0.0000 19.1801 0.0000
# 6 0.0000 0.0000 0.0000 0.0000 0.0000 37.8456
#
#
#
# Elastic Compliance Matrix: (Units=1/GPa)
#
#
# Indices 1 2 3 4 5 6 
#
# 1 0.021292 -0.019083 -0.001198 0.000000 0.000000 0.000000
# 2 -0.019083 0.047764 -0.002225 0.000000 0.000000 0.000000
# 3 -0.001198 -0.002225 0.009152 0.000000 0.000000 0.000000
# 4 0.000000 0.000000 0.000000 0.035469 0.000000 0.000000
# 5 0.000000 0.000000 0.000000 0.000000 0.052137 0.000000
# 6 0.000000 0.000000 0.000000 0.000000 0.000000 0.026423
#
#
# Mechanical properties :
#
#
# Convention : Reuss Voigt Hill
#
# Bulk Modulus (GPa) = 30.12336 38.46304 34.29320
# Shear Modulus (GPa) = 20.13574 27.93717 24.03646
#
# Velocity S-wave (km/s) = 3.05558 3.59916 3.33846
# Velocity P-wave (km/s) = 5.13970 5.92508 5.54631
#
# Compressibility (1/GPa) = 0.03319683
#
# Stress axis : x y z
#
# Youngs Moduli (GPa) = 46.96518 20.93634 109.26427
#
# Poissons Ratio (x) = 0.39953 0.13087
# Poissons Ratio (y) = 0.89624 0.24312
# Poissons Ratio (z) = 0.05625 0.04658
#
# Static dielectric constant tensor:
#      x y z
#    x 1.824270 0.000000 0.000000 
#    y 0.000000 1.802600 0.000000 
#    z 0.000000 0.000000 1.968150 
# 
# From -- ./inp_files/21737.got.cif
#   From: 2010.05.17/outbox.cif.g08.bks.cpg/sg57_11_cif.got.tgz:21737.got - 2010.06.03 13:58:18.
