data_PCOD9437411
_publ_section_title
;
Structure prediction by ZEFSAII (Michael W. Deem and Ramdas Pophale) SiO2 
 PCOD9437411
Probable space group: P B C M
;
_chemical_formula_sum "Si O2"
_cell_formula_units_Z 56
_cell_length_a 24.417003
_cell_length_b 14.772808
_cell_length_c 8.831832
_cell_angle_alpha 90.000000
_cell_angle_beta 90.000000
_cell_angle_gamma 90.000000
_cell_volume 3185.709783
_symmetry_space_group_name_H-M "P B C M"
_symmetry_group_IT_number 57
_symmetry_cell_setting 'orthorhombic'
loop_
_space_group_symop_operation_xyz
x,y,z
-x,-y,1/2+z
x,1/2-y,-z
-x,1/2+y,1/2-z
-x,-y,-z
x,y,1/2-z
-x,1/2+y,z
x,1/2-y,1/2+z
loop_
_atom_site_type_symbol
_atom_site_label
_atom_site_fract_x
_atom_site_fract_y
_atom_site_fract_z
Si Si1 0.148381 0.649789 0.432517
Si Si2 0.060284 0.500519 0.067286
Si Si3 0.564146 0.150096 0.431734
Si Si4 0.852501 0.850048 0.067581
Si Si5 0.236413 0.000948 0.567330
Si Si6 0.643075 0.497335 0.068193
Si Si7 0.558942 0.849099 0.568216
O O1 0.148869 0.750000 0.500000
O O2 0.147970 0.656226 0.250000
O O3 0.095681 0.589077 0.477745
O O4 0.200910 0.588041 0.474870
O O5 0.057562 0.500702 0.250000
O O6 0.095267 0.411607 0.022260
O O7 0.000000 0.500000 0.000000
O O8 0.569073 0.250000 0.500000
O O9 0.568617 0.152239 0.250000
O O10 0.610523 0.087708 0.501894
O O11 0.502390 0.117773 0.472678
O O12 0.852997 0.843603 0.250000
O O13 0.799671 0.910889 0.025234
O O14 0.852483 0.750000 0.000000
O O15 0.241476 0.000680 0.750000
O O16 0.295579 0.001760 0.493067
O O17 0.643429 0.493316 0.250000
O O18 0.606738 0.583681 0.019446
O O19 0.566216 0.750000 0.500000
O O20 0.560360 0.842462 0.750000
#
# Coordination Sequence:
#
# PCOD9437411 Si02
#       7
#     8   8   8   8   8   8   8
#     4   9  19  36  56  76 102 136 174 212 254 301
#     4   9  19  35  53  78 110 140 170 209 253 302
#     4  10  20  36  56  77 103 137 173 212 260 314
#     4   9  19  36  56  76 103 139 177 215 259 306
#     4   9  20  38  54  72 102 139 175 214 259 308
#     4  11  22  35  53  80 108 135 172 217 263 314
#     4   9  20  36  54  77 105 136 172 213 259 313
#
# _framework density 17.578499999999998
#
# number of rings (size 3 to 8) (size 9 to 14) (size 15 to 20)
#    0.000    2.571    0.000    3.000    0.000    5.714 
#    0.000   10.000    0.000    0.000    0.000    0.000 
#    0.000    0.000    0.000    0.000    0.000    0.000 
#
# Total GULP energy -312386.422033 kJ/mol
# GULP energy per Si atom -5578.328965 kJ/mol
# Density = 1.753849 g / cm^3
# Si number density = 17.578500 Si / 1000 Ang^3
#
#
#
# Elastic Constant Matrix: (Units=GPa)
#
#
# Indices 1 2 3 4 5 6 
#
# 1 198.1206 107.8538 54.3192 0.0000 0.0000 0.0000
# 2 107.8538 165.4880 43.6373 0.0000 0.0000 0.0000
# 3 54.3192 43.6373 28.5194 0.0000 0.0000 0.0000
# 4 0.0000 0.0000 0.0000 34.8963 0.0000 0.0000
# 5 0.0000 0.0000 0.0000 0.0000 37.0204 0.0000
# 6 0.0000 0.0000 0.0000 0.0000 0.0000 16.0691
#
#
#
# Elastic Compliance Matrix: (Units=1/GPa)
#
#
# Indices 1 2 3 4 5 6 
#
# 1 0.011304 -0.002833 -0.017196 0.000000 0.000000 0.000000
# 2 -0.002833 0.010840 -0.011190 0.000000 0.000000 0.000000
# 3 -0.017196 -0.011190 0.084937 0.000000 0.000000 0.000000
# 4 0.000000 0.000000 0.000000 0.028656 0.000000 0.000000
# 5 0.000000 0.000000 0.000000 0.000000 0.027012 0.000000
# 6 0.000000 0.000000 0.000000 0.000000 0.000000 0.062231
#
#
# Mechanical properties :
#
#
# Convention : Reuss Voigt Hill
#
# Bulk Modulus (GPa) = 22.39948 89.30538 55.85243
# Shear Modulus (GPa) = 16.53986 30.01835 23.27911
#
# Velocity S-wave (km/s) = 3.07076 4.13688 3.64303
# Velocity P-wave (km/s) = 5.03418 8.58676 7.03830
#
# Compressibility (1/GPa) = 0.04464390
#
# Stress axis : x y z
#
# Youngs Moduli (GPa) = 88.46178 92.25287 11.77337
#
# Poissons Ratio (x) = 0.26136 0.20245
# Poissons Ratio (y) = 0.25062 0.13174
# Poissons Ratio (z) = 1.52118 1.03230
#
# Static dielectric constant tensor:
#      x y z
#    x 1.585090 0.000000 0.000000 
#    y 0.000000 1.591300 0.000000 
#    z 0.000000 0.000000 1.590860 
# 
# From -- ./inp_files/8011.got.cif
#   From: 2010.05.17/outbox.cif.g08.bks.cpg/sg57_5_cif.got.tgz:8011.got - 2010.06.03 13:58:18.
