data_PCOD9437546
_publ_section_title
;
Structure prediction by ZEFSAII (Michael W. Deem and Ramdas Pophale) SiO2 
 PCOD9437546
Probable space group: P B C M
;
_chemical_formula_sum "Si O2"
_cell_formula_units_Z 40
_cell_length_a 8.190039
_cell_length_b 9.161077
_cell_length_c 22.272040
_cell_angle_alpha 90.000000
_cell_angle_beta 90.000000
_cell_angle_gamma 90.000000
_cell_volume 1671.061760
_symmetry_space_group_name_H-M "P B C M"
_symmetry_group_IT_number 57
_symmetry_cell_setting 'orthorhombic'
loop_
_space_group_symop_operation_xyz
x,y,z
-x,-y,1/2+z
x,1/2-y,-z
-x,1/2+y,1/2-z
-x,-y,-z
x,y,1/2-z
-x,1/2+y,z
x,1/2-y,1/2+z
loop_
_atom_site_type_symbol
_atom_site_label
_atom_site_fract_x
_atom_site_fract_y
_atom_site_fract_z
Si Si1 0.836596 0.171275 0.935321
Si Si2 0.497832 0.205772 0.068985
Si Si3 0.675140 0.945591 0.121071
Si Si4 0.034214 0.089699 0.118269
Si Si5 0.938233 0.658927 0.250000
Si Si6 0.753172 0.972488 0.250000
O O1 0.661896 0.211999 0.908553
O O2 0.978731 0.247867 0.897464
O O3 0.842590 0.250000 0.000000
O O4 0.861784 0.998465 0.931016
O O5 0.348550 0.277022 0.104136
O O6 0.551110 0.040180 0.080295
O O7 0.475150 0.250000 0.000000
O O8 0.643622 0.966860 0.191142
O O9 0.856079 0.010530 0.114422
O O10 0.107790 0.087225 0.185518
O O11 0.872245 0.826614 0.250000
O O12 0.132882 0.618006 0.250000
#
# Coordination Sequence:
#
# PCOD9437546 Si02
#       6
#     8   8   8   8   4   4
#     4  10  21  36  56  84 116 151 197 250 303 359
#     4  10  22  40  59  83 120 161 198 246 305 358
#     4  10  22  38  58  86 119 156 202 246 295 361
#     4  10  20  36  58  85 114 150 198 249 297 358
#     4  10  20  38  60  86 122 154 188 244 306 356
#     4  10  22  40  62  92 124 156 200 250 298 362
#
# _framework density 23.936876000000002
#
# number of rings (size 3 to 8) (size 9 to 14) (size 15 to 20)
#    0.000    2.000    0.000    3.600    0.000    4.800 
#    0.000    2.000    0.000    0.000    0.000    0.000 
#    0.000    0.000    0.000    0.000    0.000    0.000 
#
# Total GULP energy -223166.526702 kJ/mol
# GULP energy per Si atom -5579.163168 kJ/mol
# Density = 2.388239 g / cm^3
# Si number density = 23.936876 Si / 1000 Ang^3
#
#
#
# Elastic Constant Matrix: (Units=GPa)
#
#
# Indices 1 2 3 4 5 6 
#
# 1 50.3682 21.9967 7.2132 0.0000 0.0000 0.0000
# 2 21.9967 110.4761 14.7092 0.0000 0.0000 0.0000
# 3 7.2132 14.7092 100.8222 0.0000 0.0000 0.0000
# 4 0.0000 0.0000 0.0000 29.0124 0.0000 0.0000
# 5 0.0000 0.0000 0.0000 0.0000 15.9806 0.0000
# 6 0.0000 0.0000 0.0000 0.0000 0.0000 27.8435
#
#
#
# Elastic Compliance Matrix: (Units=1/GPa)
#
#
# Indices 1 2 3 4 5 6 
#
# 1 0.021833 -0.004221 -0.000946 0.000000 0.000000 0.000000
# 2 -0.004221 0.010047 -0.001164 0.000000 0.000000 0.000000
# 3 -0.000946 -0.001164 0.010156 0.000000 0.000000 0.000000
# 4 0.000000 0.000000 0.000000 0.034468 0.000000 0.000000
# 5 0.000000 0.000000 0.000000 0.000000 0.062576 0.000000
# 6 0.000000 0.000000 0.000000 0.000000 0.000000 0.035915
#
#
# Mechanical properties :
#
#
# Convention : Reuss Voigt Hill
#
# Bulk Modulus (GPa) = 34.04414 38.83387 36.43901
# Shear Modulus (GPa) = 25.32314 29.08382 27.20348
#
# Velocity S-wave (km/s) = 3.25609 3.48950 3.37481
# Velocity P-wave (km/s) = 5.32818 5.70036 5.51741
#
# Compressibility (1/GPa) = 0.02937363
#
# Stress axis : x y z
#
# Youngs Moduli (GPa) = 45.80284 99.53082 98.46464
#
# Poissons Ratio (x) = 0.42013 0.09316
# Poissons Ratio (y) = 0.19334 0.11459
# Poissons Ratio (z) = 0.04334 0.11583
#
# Static dielectric constant tensor:
#      x y z
#    x 1.927640 0.000000 0.000000 
#    y 0.000000 1.913950 0.000000 
#    z 0.000000 0.000000 1.924610 
# 
# From -- ./inp_files/26525.got.cif
#   From: 2010.05.17/outbox.cif.g08.bks.cpg/sg57_14_cif.got.tgz:26525.got - 2010.06.03 13:58:18.
