data_PCOD9437793
_publ_section_title
;
Structure prediction by ZEFSAII (Michael W. Deem and Ramdas Pophale) SiO2 
 PCOD9437793
Probable space group: P B C M
;
_chemical_formula_sum "Si O2"
_cell_formula_units_Z 48
_cell_length_a 16.812831
_cell_length_b 18.252237
_cell_length_c 8.627597
_cell_angle_alpha 90.000000
_cell_angle_beta 90.000000
_cell_angle_gamma 90.000000
_cell_volume 2647.566014
_symmetry_space_group_name_H-M "P B C M"
_symmetry_group_IT_number 57
_symmetry_cell_setting 'orthorhombic'
loop_
_space_group_symop_operation_xyz
x,y,z
-x,-y,1/2+z
x,1/2-y,-z
-x,1/2+y,1/2-z
-x,-y,-z
x,y,1/2-z
-x,1/2+y,z
x,1/2-y,1/2+z
loop_
_atom_site_type_symbol
_atom_site_label
_atom_site_fract_x
_atom_site_fract_y
_atom_site_fract_z
Si Si1 0.820728 0.895166 0.565083
Si Si2 0.741621 0.459813 0.935288
Si Si3 0.662594 0.671437 0.935183
Si Si4 0.584880 0.524397 0.064419
Si Si5 0.858736 0.169075 0.434848
Si Si6 0.990482 0.917554 0.065030
O O1 0.818535 0.888476 0.750000
O O2 0.753032 0.844134 0.490794
O O3 0.909036 0.883733 0.501566
O O4 0.794814 0.977171 0.514723
O O5 0.741137 0.473052 0.750000
O O6 0.782451 0.382223 0.965659
O O7 0.653639 0.470399 0.001522
O O8 0.659265 0.670037 0.750000
O O9 0.636988 0.750000 0.000000
O O10 0.610695 0.604619 0.002993
O O11 0.585215 0.524774 0.250000
O O12 0.500000 0.500000 0.000000
O O13 0.848616 0.250000 0.500000
O O14 0.870940 0.171147 0.250000
O O15 0.934592 0.129989 0.511500
O O16 0.986054 0.921106 0.250000
O O17 0.000000 0.000000 0.000000
#
# Coordination Sequence:
#
# PCOD9437793 Si02
#       6
#     8   8   8   8   8   8
#     4  11  21  35  58  86 115 153 198 240 291 350
#     4  10  20  37  60  85 115 151 193 239 291 349
#     4  11  22  39  61  89 124 158 195 243 300 355
#     4  11  22  39  64  93 122 155 198 242 293 352
#     4  11  24  40  59  84 118 156 199 247 298 349
#     4  12  23  37  58  84 116 156 203 250 298 351
#
# _framework density 18.129860000000001
#
# number of rings (size 3 to 8) (size 9 to 14) (size 15 to 20)
#    0.000    1.000    1.667    9.000    0.000    2.667 
#    0.000    4.167    0.000    2.000    0.000    0.000 
#    0.000    0.000    0.000    0.000    0.000    0.000 
#
# Total GULP energy -268435.385667 kJ/mol
# GULP energy per Si atom -5592.403868 kJ/mol
# Density = 1.808860 g / cm^3
# Si number density = 18.129860 Si / 1000 Ang^3
#
#
#
# Elastic Constant Matrix: (Units=GPa)
#
#
# Indices 1 2 3 4 5 6 
#
# 1 148.7721 59.1552 65.8297 0.0000 0.0000 0.0000
# 2 59.1552 106.2223 51.4786 0.0000 0.0000 0.0000
# 3 65.8297 51.4786 162.5202 0.0000 0.0000 0.0000
# 4 0.0000 0.0000 0.0000 33.1100 0.0000 0.0000
# 5 0.0000 0.0000 0.0000 0.0000 32.2643 0.0000
# 6 0.0000 0.0000 0.0000 0.0000 0.0000 13.4842
#
#
#
# Elastic Compliance Matrix: (Units=1/GPa)
#
#
# Indices 1 2 3 4 5 6 
#
# 1 0.009453 -0.004027 -0.002553 0.000000 0.000000 0.000000
# 2 -0.004027 0.012837 -0.002435 0.000000 0.000000 0.000000
# 3 -0.002553 -0.002435 0.007959 0.000000 0.000000 0.000000
# 4 0.000000 0.000000 0.000000 0.030202 0.000000 0.000000
# 5 0.000000 0.000000 0.000000 0.000000 0.030994 0.000000
# 6 0.000000 0.000000 0.000000 0.000000 0.000000 0.074161
#
#
# Mechanical properties :
#
#
# Convention : Reuss Voigt Hill
#
# Bulk Modulus (GPa) = 81.84774 85.60463 83.72618
# Shear Modulus (GPa) = 26.63707 31.84177 29.23942
#
# Velocity S-wave (km/s) = 3.83722 4.19539 4.02030
# Velocity P-wave (km/s) = 8.05454 8.41358 8.23602
#
# Compressibility (1/GPa) = 0.01221781
#
# Stress axis : x y z
#
# Youngs Moduli (GPa) = 105.79045 77.90102 125.64958
#
# Poissons Ratio (x) = 0.31369 0.32083
# Poissons Ratio (y) = 0.42599 0.30596
# Poissons Ratio (z) = 0.27012 0.18969
#
# Static dielectric constant tensor:
#      x y z
#    x 1.610370 0.000000 0.000000 
#    y 0.000000 1.611140 0.000000 
#    z 0.000000 0.000000 1.604020 
# 
# From -- ./inp_files/6706.got.cif
#   From: 2010.05.17/outbox.cif.g08.bks.cpg/sg57_4_cif.got.tgz:6706.got - 2010.06.03 13:58:18.
