data_PCOD9437903
_publ_section_title
;
Structure prediction by ZEFSAII (Michael W. Deem and Ramdas Pophale) SiO2 
 PCOD9437903
Probable space group: P B C M
;
_chemical_formula_sum "Si O2"
_cell_formula_units_Z 48
_cell_length_a 14.832627
_cell_length_b 8.714036
_cell_length_c 18.034234
_cell_angle_alpha 90.000000
_cell_angle_beta 90.000000
_cell_angle_gamma 90.000000
_cell_volume 2330.961636
_symmetry_space_group_name_H-M "P B C M"
_symmetry_group_IT_number 57
_symmetry_cell_setting 'orthorhombic'
loop_
_space_group_symop_operation_xyz
x,y,z
-x,-y,1/2+z
x,1/2-y,-z
-x,1/2+y,1/2-z
-x,-y,-z
x,y,1/2-z
-x,1/2+y,z
x,1/2-y,1/2+z
loop_
_atom_site_type_symbol
_atom_site_label
_atom_site_fract_x
_atom_site_fract_y
_atom_site_fract_z
Si Si1 0.779675 0.717529 0.083352
Si Si2 0.446276 0.792913 0.659876
Si Si3 0.894143 0.271803 0.837480
Si Si4 0.275908 0.972647 0.662051
Si Si5 0.960918 0.968658 0.581879
Si Si6 0.374511 0.041554 0.339612
O O1 0.764991 0.876037 0.126324
O O2 0.882035 0.658261 0.080951
O O3 0.717719 0.590060 0.122237
O O4 0.749399 0.750000 0.000000
O O5 0.444629 0.795410 0.750000
O O6 0.411555 0.625375 0.638195
O O7 0.374241 0.920761 0.634680
O O8 0.547695 0.836368 0.639295
O O9 0.906665 0.242814 0.750000
O O10 0.792695 0.331512 0.849220
O O11 0.918826 0.123135 0.884772
O O12 0.960117 0.406205 0.865512
O O13 0.282403 0.000863 0.750000
O O14 0.000000 0.000000 0.500000
O O15 0.363484 0.043129 0.250000
#
# Coordination Sequence:
#
# PCOD9437903 Si02
#       6
#     8   8   8   8   8   8
#     4  12  25  40  59  86 119 159 205 248 298 361
#     4   9  18  36  63  93 123 157 198 242 296 361
#     4  11  23  39  63  93 119 150 201 260 307 355
#     4  10  21  39  63  91 123 158 199 250 304 357
#     4  12  25  43  63  85 121 165 203 246 311 383
#     4  10  20  37  63  92 122 159 201 246 297 355
#
# _framework density 20.592359999999999
#
# number of rings (size 3 to 8) (size 9 to 14) (size 15 to 20)
#    0.000    1.333    0.000    6.500    0.000    8.000 
#    0.000    5.833    0.000    0.000    0.000    0.000 
#    0.000    0.000    0.000    0.000    0.000    0.000 
#
# Total GULP energy -268464.344984 kJ/mol
# GULP energy per Si atom -5593.007187 kJ/mol
# Density = 2.054549 g / cm^3
# Si number density = 20.592360 Si / 1000 Ang^3
#
#
#
# Elastic Constant Matrix: (Units=GPa)
#
#
# Indices 1 2 3 4 5 6 
#
# 1 76.8781 -14.3837 28.9052 0.0000 0.0000 0.0000
# 2 -14.3837 40.3289 3.6980 0.0000 0.0000 0.0000
# 3 28.9052 3.6980 32.5356 0.0000 0.0000 0.0000
# 4 0.0000 0.0000 0.0000 22.3123 0.0000 0.0000
# 5 0.0000 0.0000 0.0000 0.0000 23.1252 0.0000
# 6 0.0000 0.0000 0.0000 0.0000 0.0000 26.7405
#
#
#
# Elastic Compliance Matrix: (Units=1/GPa)
#
#
# Indices 1 2 3 4 5 6 
#
# 1 0.023055 0.010207 -0.021642 0.000000 0.000000 0.000000
# 2 0.010207 0.029576 -0.012430 0.000000 0.000000 0.000000
# 3 -0.021642 -0.012430 0.051376 0.000000 0.000000 0.000000
# 4 0.000000 0.000000 0.000000 0.044818 0.000000 0.000000
# 5 0.000000 0.000000 0.000000 0.000000 0.043243 0.000000
# 6 0.000000 0.000000 0.000000 0.000000 0.000000 0.037396
#
#
# Mechanical properties :
#
#
# Convention : Reuss Voigt Hill
#
# Bulk Modulus (GPa) = 17.76933 20.68684 19.22809
# Shear Modulus (GPa) = 16.89457 23.20381 20.04919
#
# Velocity S-wave (km/s) = 2.86742 3.36045 3.12368
# Velocity P-wave (km/s) = 4.42839 5.01244 4.72944
#
# Compressibility (1/GPa) = 0.05627673
#
# Stress axis : x y z
#
# Youngs Moduli (GPa) = 43.37536 33.81081 19.46445
#
# Poissons Ratio (x) = -0.34511 0.42125
# Poissons Ratio (y) = -0.44274 0.24194
# Poissons Ratio (z) = 0.93874 0.42026
#
# Static dielectric constant tensor:
#      x y z
#    x 1.716180 0.000000 0.000000 
#    y 0.000000 1.744560 0.000000 
#    z 0.000000 0.000000 1.691060 
# 
# From -- ./inp_files/22386.got.cif
#   From: 2010.05.17/outbox.cif.g08.bks.cpg/sg57_12_cif.got.tgz:22386.got - 2010.06.03 13:58:18.
