data_PCOD9437747
_publ_section_title
;
Structure prediction by ZEFSAII (Michael W. Deem and Ramdas Pophale) SiO2 
 PCOD9437747
Probable space group: P B C M
;
_chemical_formula_sum "Si O2"
_cell_formula_units_Z 48
_cell_length_a 15.301054
_cell_length_b 16.547076
_cell_length_c 8.981198
_cell_angle_alpha 90.000000
_cell_angle_beta 90.000000
_cell_angle_gamma 90.000000
_cell_volume 2273.928896
_symmetry_space_group_name_H-M "P B C M"
_symmetry_group_IT_number 57
_symmetry_cell_setting 'orthorhombic'
loop_
_space_group_symop_operation_xyz
x,y,z
-x,-y,1/2+z
x,1/2-y,-z
-x,1/2+y,1/2-z
-x,-y,-z
x,y,1/2-z
-x,1/2+y,z
x,1/2-y,1/2+z
loop_
_atom_site_type_symbol
_atom_site_label
_atom_site_fract_x
_atom_site_fract_y
_atom_site_fract_z
Si Si1 0.587359 0.393732 0.422753
Si Si2 0.919781 0.666601 0.416851
Si Si3 0.231882 0.837867 0.931195
Si Si4 0.757879 0.660756 0.926355
Si Si5 0.408771 0.089194 0.078904
Si Si6 0.074653 0.552581 0.082780
O O1 0.586212 0.366495 0.250000
O O2 0.671835 0.359500 0.507314
O O3 0.589471 0.491680 0.421522
O O4 0.497428 0.375214 0.508668
O O5 0.927157 0.750000 0.500000
O O6 0.884936 0.674625 0.250000
O O7 0.845893 0.618703 0.509100
O O8 0.016044 0.633078 0.406422
O O9 0.230426 0.834097 0.750000
O O10 0.166036 0.911654 0.977309
O O11 0.207404 0.750000 0.000000
O O12 0.762478 0.665763 0.750000
O O13 0.753297 0.750000 0.000000
O O14 0.672803 0.615038 0.980388
O O15 0.398458 0.116128 0.250000
O O16 0.088467 0.519797 0.250000
O O17 0.000000 0.500000 0.000000
#
# Coordination Sequence:
#
# PCOD9437747 Si02
#       6
#     8   8   8   8   8   8
#     4  10  22  40  63  91 121 160 203 249 306 363
#     4  10  20  37  58  84 117 155 198 244 298 356
#     4  11  24  43  65  93 126 165 211 259 312 371
#     4  11  22  36  57  86 119 156 198 244 297 356
#     4  10  21  39  62  89 124 160 201 252 304 362
#     4  10  24  41  61  90 122 158 204 253 304 363
#
# _framework density 21.108840000000001
#
# number of rings (size 3 to 8) (size 9 to 14) (size 15 to 20)
#    0.000    1.667    0.000    5.000    2.333    5.333 
#    0.000    3.333    0.000    0.000    0.000    0.000 
#    0.000    0.000    0.000    0.000    0.000    0.000 
#
# Total GULP energy -267741.078367 kJ/mol
# GULP energy per Si atom -5577.939133 kJ/mol
# Density = 2.106080 g / cm^3
# Si number density = 21.108840 Si / 1000 Ang^3
#
#
#
# Elastic Constant Matrix: (Units=GPa)
#
#
# Indices 1 2 3 4 5 6 
#
# 1 96.1021 -9.0425 22.4771 0.0000 0.0000 0.0000
# 2 -9.0425 14.8674 3.2604 0.0000 0.0000 0.0000
# 3 22.4771 3.2604 134.4418 0.0000 0.0000 0.0000
# 4 0.0000 0.0000 0.0000 29.3790 0.0000 0.0000
# 5 0.0000 0.0000 0.0000 0.0000 36.1647 0.0000
# 6 0.0000 0.0000 0.0000 0.0000 0.0000 34.5184
#
#
#
# Elastic Compliance Matrix: (Units=1/GPa)
#
#
# Indices 1 2 3 4 5 6 
#
# 1 0.011611 0.007527 -0.002124 0.000000 0.000000 0.000000
# 2 0.007527 0.072501 -0.003017 0.000000 0.000000 0.000000
# 3 -0.002124 -0.003017 0.007866 0.000000 0.000000 0.000000
# 4 0.000000 0.000000 0.000000 0.034038 0.000000 0.000000
# 5 0.000000 0.000000 0.000000 0.000000 0.027651 0.000000
# 6 0.000000 0.000000 0.000000 0.000000 0.000000 0.028970
#
#
# Mechanical properties :
#
#
# Convention : Reuss Voigt Hill
#
# Bulk Modulus (GPa) = 10.33571 30.97790 20.65680
# Shear Modulus (GPa) = 23.79661 35.26018 29.52839
#
# Velocity S-wave (km/s) = 3.36121 4.09148 3.74420
# Velocity P-wave (km/s) = 4.46886 6.08502 5.33846
#
# Compressibility (1/GPa) = 0.09675196
#
# Stress axis : x y z
#
# Youngs Moduli (GPa) = 86.12831 13.79291 127.12333
#
# Poissons Ratio (x) = -0.10382 0.26997
# Poissons Ratio (y) = -0.64832 0.38350
# Poissons Ratio (z) = 0.18291 0.04161
#
# Static dielectric constant tensor:
#      x y z
#    x 1.789690 0.000000 0.000000 
#    y 0.000000 1.841920 0.000000 
#    z 0.000000 0.000000 1.756430 
# 
# From -- ./inp_files/4709.got.cif
#   From: 2010.05.17/outbox.cif.g08.bks.cpg/sg57_3_cif.got.tgz:4709.got - 2010.06.03 13:58:18.
