data_PCOD9437558
_publ_section_title
;
Structure prediction by ZEFSAII (Michael W. Deem and Ramdas Pophale) SiO2 
 PCOD9437558
Probable space group: P B C M
;
_chemical_formula_sum "Si O2"
_cell_formula_units_Z 40
_cell_length_a 10.155930
_cell_length_b 21.104942
_cell_length_c 9.153973
_cell_angle_alpha 90.000000
_cell_angle_beta 90.000000
_cell_angle_gamma 90.000000
_cell_volume 1962.065444
_symmetry_space_group_name_H-M "P B C M"
_symmetry_group_IT_number 57
_symmetry_cell_setting 'orthorhombic'
loop_
_space_group_symop_operation_xyz
x,y,z
-x,-y,1/2+z
x,1/2-y,-z
-x,1/2+y,1/2-z
-x,-y,-z
x,y,1/2-z
-x,1/2+y,z
x,1/2-y,1/2+z
loop_
_atom_site_type_symbol
_atom_site_label
_atom_site_fract_x
_atom_site_fract_y
_atom_site_fract_z
Si Si1 0.768836 0.000226 0.418491
Si Si2 0.403767 0.090106 0.418610
Si Si3 0.161447 0.648140 0.419628
Si Si4 0.886892 0.892454 0.580833
Si Si5 0.413555 0.686849 0.922457
O O1 0.738914 0.986839 0.250000
O O2 0.808199 0.072856 0.431573
O O3 0.646126 0.976953 0.516983
O O4 0.882879 0.952870 0.474498
O O5 0.444968 0.084631 0.250000
O O6 0.265047 0.129772 0.425799
O O7 0.511040 0.126336 0.511958
O O8 0.186968 0.666775 0.250000
O O9 0.261697 0.680713 0.528687
O O10 0.006387 0.654184 0.453056
O O11 0.908504 0.913106 0.750000
O O12 0.427495 0.690376 0.750000
O O13 0.466857 0.750000 0.000000
#
# Coordination Sequence:
#
# PCOD9437558 Si02
#       5
#     8   8   8   8   8
#     4   9  17  30  56  90 122 152 186 228 278 335
#     4   9  19  37  59  83 114 150 188 230 276 333
#     4  10  20  36  58  87 122 154 187 230 281 337
#     4   8  17  33  56  86 119 153 184 223 275 332
#     4  12  26  43  61  80 106 147 194 240 290 339
#
# _framework density 20.386679000000001
#
# number of rings (size 3 to 8) (size 9 to 14) (size 15 to 20)
#    1.200    1.200    0.000    3.000    0.000    3.200 
#    0.000    1.000    0.000    0.000    0.000    0.000 
#    0.000    0.000    0.000    0.000    0.000    0.000 
#
# Total GULP energy -222889.031694 kJ/mol
# GULP energy per Si atom -5572.225792 kJ/mol
# Density = 2.034028 g / cm^3
# Si number density = 20.386679 Si / 1000 Ang^3
#
#
#
# Elastic Constant Matrix: (Units=GPa)
#
#
# Indices 1 2 3 4 5 6 
#
# 1 81.3906 2.1447 28.8839 0.0000 0.0000 0.0000
# 2 2.1447 23.2148 18.9866 0.0000 0.0000 0.0000
# 3 28.8839 18.9866 121.4504 0.0000 0.0000 0.0000
# 4 0.0000 0.0000 0.0000 20.6292 0.0000 0.0000
# 5 0.0000 0.0000 0.0000 0.0000 27.5985 0.0000
# 6 0.0000 0.0000 0.0000 0.0000 0.0000 13.7898
#
#
#
# Elastic Compliance Matrix: (Units=1/GPa)
#
#
# Indices 1 2 3 4 5 6 
#
# 1 0.013469 0.001577 -0.003450 0.000000 0.000000 0.000000
# 2 0.001577 0.049576 -0.008125 0.000000 0.000000 0.000000
# 3 -0.003450 -0.008125 0.010325 0.000000 0.000000 0.000000
# 4 0.000000 0.000000 0.000000 0.048475 0.000000 0.000000
# 5 0.000000 0.000000 0.000000 0.000000 0.036234 0.000000
# 6 0.000000 0.000000 0.000000 0.000000 0.000000 0.072517
#
#
# Mechanical properties :
#
#
# Convention : Reuss Voigt Hill
#
# Bulk Modulus (GPa) = 18.73596 36.23180 27.48388
# Shear Modulus (GPa) = 18.63010 24.13954 21.38482
#
# Velocity S-wave (km/s) = 3.02625 3.44479 3.24228
# Velocity P-wave (km/s) = 4.62830 5.79939 5.24662
#
# Compressibility (1/GPa) = 0.05337330
#
# Stress axis : x y z
#
# Youngs Moduli (GPa) = 74.24366 20.17115 96.85667
#
# Poissons Ratio (x) = -0.03181 0.33414
# Poissons Ratio (y) = -0.11709 0.78700
# Poissons Ratio (z) = 0.25613 0.16390
#
# Static dielectric constant tensor:
#      x y z
#    x 1.808770 0.000000 0.000000 
#    y 0.000000 1.740180 0.000000 
#    z 0.000000 0.000000 1.686600 
# 
# From -- ./inp_files/2898.got.cif
#   From: 2010.05.17/outbox.cif.g08.bks.cpg/sg57_2_cif.got.tgz:2898.got - 2010.06.03 13:58:18.
