data_PCOD9437704
_publ_section_title
;
Structure prediction by ZEFSAII (Michael W. Deem and Ramdas Pophale) SiO2 
 PCOD9437704
Probable space group: P B C M
;
_chemical_formula_sum "Si O2"
_cell_formula_units_Z 52
_cell_length_a 14.629026
_cell_length_b 19.088170
_cell_length_c 9.572992
_cell_angle_alpha 90.000000
_cell_angle_beta 90.000000
_cell_angle_gamma 90.000000
_cell_volume 2673.175068
_symmetry_space_group_name_H-M "P B C M"
_symmetry_group_IT_number 57
_symmetry_cell_setting 'orthorhombic'
loop_
_space_group_symop_operation_xyz
x,y,z
-x,-y,1/2+z
x,1/2-y,-z
-x,1/2+y,1/2-z
-x,-y,-z
x,y,1/2-z
-x,1/2+y,z
x,1/2-y,1/2+z
loop_
_atom_site_type_symbol
_atom_site_label
_atom_site_fract_x
_atom_site_fract_y
_atom_site_fract_z
Si Si1 0.437415 0.593165 0.086982
Si Si2 0.259403 0.819031 0.586218
Si Si3 0.981648 0.850302 0.968363
Si Si4 0.796829 0.583317 0.084362
Si Si5 0.132262 0.952073 0.912101
Si Si6 0.383813 0.431429 0.085067
Si Si7 0.984346 0.227252 0.750000
O O1 0.466510 0.597266 0.250000
O O2 0.361642 0.652165 0.060800
O O3 0.390834 0.516370 0.070296
O O4 0.522896 0.596770 0.983730
O O5 0.238839 0.750000 0.500000
O O6 0.249388 0.802663 0.750000
O O7 0.193461 0.883764 0.554404
O O8 0.873296 0.857501 0.941423
O O9 0.019468 0.789692 0.869140
O O10 0.030147 0.923111 0.927449
O O11 0.002899 0.831488 0.126633
O O12 0.781492 0.575397 0.250000
O O13 0.838526 0.513550 0.014163
O O14 0.702574 0.595674 0.001833
O O15 0.150168 0.972183 0.750000
O O16 0.377230 0.415918 0.250000
#
# Coordination Sequence:
#
# PCOD9437704 Si02
#       7
#     8   8   8   8   8   8   4
#     4   9  18  38  58  86 118 155 196 248 298 366
#     4  10  22  37  59  87 124 163 202 251 308 367
#     4  11  24  42  65  88 124 165 210 259 304 365
#     4  12  24  39  60  96 126 160 207 261 311 363
#     4  11  23  40  61  91 127 163 207 255 309 371
#     4  10  20  36  64  88 117 154 198 247 311 362
#     4  10  24  44  64  86 118 168 218 250 308 370
#
# _framework density 19.452522999999999
#
# number of rings (size 3 to 8) (size 9 to 14) (size 15 to 20)
#    0.000    1.538    3.077    1.385    5.385    1.846 
#    0.000    0.000    3.385    0.000    0.000    0.000 
#    0.000    0.000    0.000    0.000    0.000    0.000 
#
# Total GULP energy -289519.533370 kJ/mol
# GULP energy per Si atom -5567.683334 kJ/mol
# Density = 1.940825 g / cm^3
# Si number density = 19.452523 Si / 1000 Ang^3
#
#
#
# Elastic Constant Matrix: (Units=GPa)
#
#
# Indices 1 2 3 4 5 6 
#
# 1 79.2346 1.4226 30.8700 0.0000 0.0000 0.0000
# 2 1.4226 33.2852 20.4705 0.0000 0.0000 0.0000
# 3 30.8700 20.4705 142.7007 0.0000 0.0000 0.0000
# 4 0.0000 0.0000 0.0000 46.0390 0.0000 0.0000
# 5 0.0000 0.0000 0.0000 0.0000 6.2777 0.0000
# 6 0.0000 0.0000 0.0000 0.0000 0.0000 -6.4433
#
#
#
# Elastic Compliance Matrix: (Units=1/GPa)
#
#
# Indices 1 2 3 4 5 6 
#
# 1 0.013839 0.001371 -0.003190 0.000000 0.000000 0.000000
# 2 0.001371 0.033086 -0.005043 0.000000 0.000000 0.000000
# 3 -0.003190 -0.005043 0.008421 0.000000 0.000000 0.000000
# 4 0.000000 0.000000 0.000000 0.021721 0.000000 0.000000
# 5 0.000000 0.000000 0.000000 0.000000 0.159294 0.000000
# 6 0.000000 0.000000 0.000000 0.000000 0.000000 -0.155200
#
#
# Mechanical properties :
#
#
# Convention : Reuss Voigt Hill
#
# Bulk Modulus (GPa) = 24.02605 40.08296 32.05450
# Shear Modulus (GPa) = 45.97310 22.67184 34.32247
#
# Velocity S-wave (km/s) = 4.86670 3.41764 4.20506
# Velocity P-wave (km/s) = 6.63006 6.01863 6.33173
#
# Compressibility (1/GPa) = 0.04162149
#
# Stress axis : x y z
#
# Youngs Moduli (GPa) = 72.25895 30.22415 118.74761
#
# Poissons Ratio (x) = -0.04143 0.37885
# Poissons Ratio (y) = -0.09904 0.59881
# Poissons Ratio (z) = 0.23053 0.15241
#
# Static dielectric constant tensor:
#      x y z
#    x 1.731360 0.000000 0.000000 
#    y 0.000000 1.643680 0.000000 
#    z 0.000000 0.000000 1.657800 
# 
# From -- ./inp_files/5004.got.cif
#   From: 2010.05.17/outbox.cif.g08.bks.cpg/sg57_3_cif.got.tgz:5004.got - 2010.06.03 13:58:18.
