data_PCOD9437925
_publ_section_title
;
Structure prediction by ZEFSAII (Michael W. Deem and Ramdas Pophale) SiO2 
 PCOD9437925
Probable space group: P B C M
;
_chemical_formula_sum "Si O2"
_cell_formula_units_Z 64
_cell_length_a 12.966547
_cell_length_b 15.129570
_cell_length_c 16.655957
_cell_angle_alpha 90.000000
_cell_angle_beta 90.000000
_cell_angle_gamma 90.000000
_cell_volume 3267.537004
_symmetry_space_group_name_H-M "P B C M"
_symmetry_group_IT_number 57
_symmetry_cell_setting 'orthorhombic'
loop_
_space_group_symop_operation_xyz
x,y,z
-x,-y,1/2+z
x,1/2-y,-z
-x,1/2+y,1/2-z
-x,-y,-z
x,y,1/2-z
-x,1/2+y,z
x,1/2-y,1/2+z
loop_
_atom_site_type_symbol
_atom_site_label
_atom_site_fract_x
_atom_site_fract_y
_atom_site_fract_z
Si Si1 0.250983 0.043042 0.054539
Si Si2 0.924369 0.948833 0.058899
Si Si3 0.426631 0.122788 0.343969
Si Si4 0.495207 0.702655 0.585707
Si Si5 0.886741 0.096488 0.655666
Si Si6 0.596668 0.510185 0.587318
Si Si7 0.778867 0.431831 0.840335
Si Si8 0.282593 0.759150 0.155517
O O1 0.317219 0.103178 0.114303
O O2 0.183119 0.974625 0.106874
O O3 0.168714 0.090933 0.994818
O O4 0.336053 0.998610 0.994537
O O5 0.000652 0.893749 0.115611
O O6 0.869893 0.023946 0.111657
O O7 0.000000 0.000000 0.000000
O O8 0.427515 0.097629 0.250000
O O9 0.456625 0.225187 0.353766
O O10 0.510655 0.063079 0.392215
O O11 0.506499 0.750000 0.500000
O O12 0.547958 0.607332 0.586573
O O13 0.375316 0.695263 0.608622
O O14 0.894972 0.072226 0.750000
O O15 0.821929 0.186202 0.649744
O O16 0.683041 0.498574 0.655430
O O17 0.811496 0.413784 0.750000
O O18 0.736873 0.339766 0.875135
O O19 0.312072 0.754300 0.250000
#
# Coordination Sequence:
#
# PCOD9437925 Si02
#       8
#     8   8   8   8   8   8   8   8
#     4  10  21  38  60  88 127 169 214 259 318 389
#     4   9  20  37  61  87 116 157 208 258 320 387
#     4  12  24  39  62  93 130 172 220 266 316 384
#     4  12  25  38  62  92 130 174 218 263 313 385
#     4  10  20  37  65  95 125 161 210 274 331 381
#     4  11  23  40  61  90 130 173 212 260 323 378
#     4  10  20  38  64  89 122 165 208 261 323 385
#     4  10  22  38  59  95 128 155 208 266 319 383
#
# _framework density 19.586618000000001
#
# number of rings (size 3 to 8) (size 9 to 14) (size 15 to 20)
#    0.000    1.500    2.500    2.625    1.750    4.000 
#    0.000    0.000   19.250    0.000    0.000    0.000 
#    0.000    0.000    0.000    0.000    0.000    0.000 
#
# Total GULP energy -357091.011893 kJ/mol
# GULP energy per Si atom -5579.547061 kJ/mol
# Density = 1.954204 g / cm^3
# Si number density = 19.586618 Si / 1000 Ang^3
#
#
#
# Elastic Constant Matrix: (Units=GPa)
#
#
# Indices 1 2 3 4 5 6 
#
# 1 131.8443 43.8263 54.0732 0.0000 0.0000 0.0000
# 2 43.8263 81.5969 28.5458 0.0000 0.0000 0.0000
# 3 54.0732 28.5458 91.0743 0.0000 0.0000 0.0000
# 4 0.0000 0.0000 0.0000 16.1799 0.0000 0.0000
# 5 0.0000 0.0000 0.0000 0.0000 32.7542 0.0000
# 6 0.0000 0.0000 0.0000 0.0000 0.0000 23.6648
#
#
#
# Elastic Compliance Matrix: (Units=1/GPa)
#
#
# Indices 1 2 3 4 5 6 
#
# 1 0.011136 -0.004120 -0.005321 0.000000 0.000000 0.000000
# 2 -0.004120 0.015289 -0.002346 0.000000 0.000000 0.000000
# 3 -0.005321 -0.002346 0.014874 0.000000 0.000000 0.000000
# 4 0.000000 0.000000 0.000000 0.061805 0.000000 0.000000
# 5 0.000000 0.000000 0.000000 0.000000 0.030530 0.000000
# 6 0.000000 0.000000 0.000000 0.000000 0.000000 0.042257
#
#
# Mechanical properties :
#
#
# Convention : Reuss Voigt Hill
#
# Bulk Modulus (GPa) = 56.41259 61.93402 59.17330
# Shear Modulus (GPa) = 24.34584 26.39113 25.36848
#
# Velocity S-wave (km/s) = 3.52942 3.67469 3.60279
# Velocity P-wave (km/s) = 6.74338 7.04937 6.89807
#
# Compressibility (1/GPa) = 0.01772654
#
# Stress axis : x y z
#
# Youngs Moduli (GPa) = 89.79573 65.40661 67.23012
#
# Poissons Ratio (x) = 0.26948 0.35770
# Poissons Ratio (y) = 0.36997 0.15771
# Poissons Ratio (z) = 0.47777 0.15344
#
# Static dielectric constant tensor:
#      x y z
#    x 1.694190 0.000000 0.000000 
#    y 0.000000 1.673560 0.000000 
#    z 0.000000 0.000000 1.742000 
# 
# From -- ./inp_files/22092.got.cif
#   From: 2010.05.17/outbox.cif.g08.bks.cpg/sg57_12_cif.got.tgz:22092.got - 2010.06.03 13:58:18.
