data_PCOD9437795
_publ_section_title
;
Structure prediction by ZEFSAII (Michael W. Deem and Ramdas Pophale) SiO2 
 PCOD9437795
Probable space group: P B C M
;
_chemical_formula_sum "Si O2"
_cell_formula_units_Z 64
_cell_length_a 14.939450
_cell_length_b 8.279171
_cell_length_c 25.954712
_cell_angle_alpha 90.000000
_cell_angle_beta 90.000000
_cell_angle_gamma 90.000000
_cell_volume 3210.241288
_symmetry_space_group_name_H-M "P B C M"
_symmetry_group_IT_number 57
_symmetry_cell_setting 'orthorhombic'
loop_
_space_group_symop_operation_xyz
x,y,z
-x,-y,1/2+z
x,1/2-y,-z
-x,1/2+y,1/2-z
-x,-y,-z
x,y,1/2-z
-x,1/2+y,z
x,1/2-y,1/2+z
loop_
_atom_site_type_symbol
_atom_site_label
_atom_site_fract_x
_atom_site_fract_y
_atom_site_fract_z
Si Si1 0.594740 0.903352 0.398032
Si Si2 0.608472 0.986005 0.903299
Si Si3 0.712223 0.947589 0.004960
Si Si4 0.910750 0.572364 0.524128
Si Si5 0.720854 0.896006 0.308167
Si Si6 0.726302 0.506426 0.307386
Si Si7 0.916798 0.342274 0.190033
Si Si8 0.909139 0.498726 0.855824
O O1 0.602856 0.709087 0.400591
O O2 0.654368 0.977530 0.443900
O O3 0.639793 0.953170 0.344157
O O4 0.491887 0.949160 0.404012
O O5 0.662517 0.048645 0.853571
O O6 0.663137 0.020030 0.955390
O O7 0.814572 0.004750 0.009742
O O8 0.713834 0.750000 0.000000
O O9 0.906280 0.750000 0.500000
O O10 0.917265 0.561565 0.585880
O O11 0.000000 0.500000 0.500000
O O12 0.714120 0.957318 0.250000
O O13 0.721378 0.700891 0.307020
O O14 0.814824 0.945118 0.332927
O O15 0.699842 0.448839 0.250000
O O16 0.828524 0.451822 0.316186
O O17 0.918472 0.286959 0.250000
O O18 0.911079 0.193528 0.150860
O O19 0.007585 0.435765 0.177176
#
# Coordination Sequence:
#
# PCOD9437795 Si02
#       8
#     8   8   8   8   8   8   8   8
#     4  10  20  38  56  87 112 151 197 246 301 355
#     4  10  21  36  63  83 117 155 196 248 302 361
#     4   9  19  38  61  82 115 156 196 240 296 353
#     4  11  24  41  61  89 123 160 199 247 302 361
#     4  10  20  37  60  85 116 156 200 245 300 363
#     4   9  21  39  59  86 119 158 200 245 300 359
#     4  11  23  38  60  89 122 157 200 247 296 359
#     4  12  23  39  62  88 122 159 203 247 301 364
#
# _framework density 19.936195999999999
#
# number of rings (size 3 to 8) (size 9 to 14) (size 15 to 20)
#    0.000    1.750    1.250    3.000    3.500    2.500 
#    0.000    0.000    0.000    0.000    0.000    0.000 
#    0.000    0.000    0.000    0.000    0.000    0.000 
#
# Total GULP energy -357452.955696 kJ/mol
# GULP energy per Si atom -5585.202433 kJ/mol
# Density = 1.989082 g / cm^3
# Si number density = 19.936196 Si / 1000 Ang^3
#
#
#
# Elastic Constant Matrix: (Units=GPa)
#
#
# Indices 1 2 3 4 5 6 
#
# 1 134.9465 5.0048 52.0047 0.0000 0.0000 0.0000
# 2 5.0048 11.7660 14.5177 0.0000 0.0000 0.0000
# 3 52.0047 14.5177 116.2587 0.0000 0.0000 0.0000
# 4 0.0000 0.0000 0.0000 -47.9089 0.0000 0.0000
# 5 0.0000 0.0000 0.0000 0.0000 55.8646 0.0000
# 6 0.0000 0.0000 0.0000 0.0000 0.0000 35.9917
#
#
#
# Elastic Compliance Matrix: (Units=1/GPa)
#
#
# Indices 1 2 3 4 5 6 
#
# 1 0.008972 0.001342 -0.004181 0.000000 0.000000 0.000000
# 2 0.001342 0.100672 -0.013172 0.000000 0.000000 0.000000
# 3 -0.004181 -0.013172 0.012117 0.000000 0.000000 0.000000
# 4 0.000000 0.000000 0.000000 -0.020873 0.000000 0.000000
# 5 0.000000 0.000000 0.000000 0.000000 0.017900 0.000000
# 6 0.000000 0.000000 0.000000 0.000000 0.000000 0.027784
#
#
# Mechanical properties :
#
#
# Convention : Reuss Voigt Hill
#
# Bulk Modulus (GPa) = 11.14332 45.11395 28.12864
# Shear Modulus (GPa) = 23.98012 21.55240 22.76626
#
# Velocity S-wave (km/s) = 3.47197 3.29153 3.38295
# Velocity P-wave (km/s) = 4.65557 6.09293 5.42209
#
# Compressibility (1/GPa) = 0.08973985
#
# Stress axis : x y z
#
# Youngs Moduli (GPa) = 111.46103 9.93323 82.53203
#
# Poissons Ratio (x) = -0.01333 0.34505
# Poissons Ratio (y) = -0.14963 1.08710
# Poissons Ratio (z) = 0.46600 0.13084
#
# Static dielectric constant tensor:
#      x y z
#    x 1.671090 0.000000 0.000000 
#    y 0.000000 1.769870 0.000000 
#    z 0.000000 0.000000 1.699230 
# 
# From -- ./inp_files/27513.got.cif
#   From: 2010.05.17/outbox.cif.g08.bks.cpg/sg57_14_cif.got.tgz:27513.got - 2010.06.03 13:58:18.
