data_PCOD9437959
_publ_section_title
;
Structure prediction by ZEFSAII (Michael W. Deem and Ramdas Pophale) SiO2 
 PCOD9437959
Probable space group: P B C M
;
_chemical_formula_sum "Si O2"
_cell_formula_units_Z 64
_cell_length_a 14.667239
_cell_length_b 25.868517
_cell_length_c 8.886090
_cell_angle_alpha 90.000000
_cell_angle_beta 90.000000
_cell_angle_gamma 90.000000
_cell_volume 3371.557792
_symmetry_space_group_name_H-M "P B C M"
_symmetry_group_IT_number 57
_symmetry_cell_setting 'orthorhombic'
loop_
_space_group_symop_operation_xyz
x,y,z
-x,-y,1/2+z
x,1/2-y,-z
-x,1/2+y,1/2-z
-x,-y,-z
x,y,1/2-z
-x,1/2+y,z
x,1/2-y,1/2+z
loop_
_atom_site_type_symbol
_atom_site_label
_atom_site_fract_x
_atom_site_fract_y
_atom_site_fract_z
Si Si1 0.657687 0.099332 0.429834
Si Si2 0.214176 0.695578 0.068445
Si Si3 0.276488 0.411092 0.430657
Si Si4 0.183748 0.197026 0.930766
Si Si5 0.970214 0.448736 0.419228
Si Si6 0.228597 0.988659 0.079035
Si Si7 0.981093 0.165545 0.933124
Si Si8 0.469850 0.444536 0.569047
O O1 0.668051 0.095572 0.250000
O O2 0.717577 0.148889 0.477346
O O3 0.697224 0.047178 0.501389
O O4 0.550296 0.096960 0.464032
O O5 0.211415 0.697961 0.250000
O O6 0.245860 0.750000 0.000000
O O7 0.111653 0.686120 0.006471
O O8 0.280943 0.412520 0.250000
O O9 0.236185 0.355435 0.477044
O O10 0.214081 0.458369 0.489123
O O11 0.375100 0.424682 0.500010
O O12 0.188658 0.199531 0.750000
O O13 0.076336 0.192551 0.971022
O O14 0.220808 0.250000 0.000000
O O15 0.007060 0.449551 0.250000
O O16 0.861315 0.453792 0.416012
O O17 0.993812 0.393634 0.486182
O O18 0.000000 0.500000 0.500000
O O19 0.254182 0.001638 0.250000
O O20 0.970076 0.165967 0.750000
O O21 0.500000 0.500000 0.500000
O O22 0.463104 0.449904 0.750000
#
# Coordination Sequence:
#
# PCOD9437959 Si02
#       8
#     8   8   8   8   8   8   8   8
#     4  10  22  39  59  84 119 155 190 236 295 351
#     4  11  23  39  60  87 117 157 200 243 295 351
#     4  11  23  40  61  88 121 158 195 242 302 359
#     4  10  23  41  62  84 115 157 201 247 298 346
#     4  10  21  34  51  80 118 158 198 241 293 351
#     4  11  21  34  57  87 118 154 194 240 292 349
#     4  10  20  38  59  84 117 155 199 247 291 346
#     4  11  22  38  62  92 121 154 195 242 295 357
#
# _framework density 18.982322
#
# number of rings (size 3 to 8) (size 9 to 14) (size 15 to 20)
#    0.000    1.500    2.500    2.625    0.000    6.000 
#    0.000    0.625    0.000    3.000    0.000    0.000 
#    0.000    0.000    0.000    0.000    0.000    0.000 
#
# Total GULP energy -357251.074930 kJ/mol
# GULP energy per Si atom -5582.048046 kJ/mol
# Density = 1.893912 g / cm^3
# Si number density = 18.982322 Si / 1000 Ang^3
#
#
#
# Elastic Constant Matrix: (Units=GPa)
#
#
# Indices 1 2 3 4 5 6 
#
# 1 76.0252 43.1804 22.2099 0.0000 0.0000 0.0000
# 2 43.1804 155.0582 43.5206 0.0000 0.0000 0.0000
# 3 22.2099 43.5206 32.1522 0.0000 0.0000 0.0000
# 4 0.0000 0.0000 0.0000 31.6367 0.0000 0.0000
# 5 0.0000 0.0000 0.0000 0.0000 25.3113 0.0000
# 6 0.0000 0.0000 0.0000 0.0000 0.0000 14.4523
#
#
#
# Elastic Compliance Matrix: (Units=1/GPa)
#
#
# Indices 1 2 3 4 5 6 
#
# 1 0.016980 -0.002317 -0.008594 0.000000 0.000000 0.000000
# 2 -0.002317 0.010717 -0.012905 0.000000 0.000000 0.000000
# 3 -0.008594 -0.012905 0.054507 0.000000 0.000000 0.000000
# 4 0.000000 0.000000 0.000000 0.031609 0.000000 0.000000
# 5 0.000000 0.000000 0.000000 0.000000 0.039508 0.000000
# 6 0.000000 0.000000 0.000000 0.000000 0.000000 0.069193
#
#
# Mechanical properties :
#
#
# Convention : Reuss Voigt Hill
#
# Bulk Modulus (GPa) = 28.92518 53.45083 41.18800
# Shear Modulus (GPa) = 17.75139 24.56836 21.15988
#
# Velocity S-wave (km/s) = 3.06135 3.60151 3.34236
# Velocity P-wave (km/s) = 5.26942 6.74639 6.05312
#
# Compressibility (1/GPa) = 0.03457196
#
# Stress axis : x y z
#
# Youngs Moduli (GPa) = 58.89354 93.31405 18.34634
#
# Poissons Ratio (x) = 0.21616 0.15766
# Poissons Ratio (y) = 0.13643 0.23677
# Poissons Ratio (z) = 0.50611 1.20426
#
# Static dielectric constant tensor:
#      x y z
#    x 1.691300 0.000000 0.000000 
#    y 0.000000 1.657260 0.000000 
#    z 0.000000 0.000000 1.650700 
# 
# From -- ./inp_files/5748.got.cif
#   From: 2010.05.17/outbox.cif.g08.bks.cpg/sg57_3_cif.got.tgz:5748.got - 2010.06.03 13:58:18.
