data_PCOD9437190
_publ_section_title
;
Structure prediction by ZEFSAII (Michael W. Deem and Ramdas Pophale) SiO2 
 PCOD9437190
Probable space group: P B C M
;
_chemical_formula_sum "Si O2"
_cell_formula_units_Z 56
_cell_length_a 15.579025
_cell_length_b 15.967954
_cell_length_c 10.845853
_cell_angle_alpha 90.000000
_cell_angle_beta 90.000000
_cell_angle_gamma 90.000000
_cell_volume 2698.070298
_symmetry_space_group_name_H-M "P B C M"
_symmetry_group_IT_number 57
_symmetry_cell_setting 'orthorhombic'
loop_
_space_group_symop_operation_xyz
x,y,z
-x,-y,1/2+z
x,1/2-y,-z
-x,1/2+y,1/2-z
-x,-y,-z
x,y,1/2-z
-x,1/2+y,z
x,1/2-y,1/2+z
loop_
_atom_site_type_symbol
_atom_site_label
_atom_site_fract_x
_atom_site_fract_y
_atom_site_fract_z
Si Si1 0.203697 0.187901 0.888467
Si Si2 0.423253 0.183782 0.110371
Si Si3 0.221616 0.688063 0.111986
Si Si4 0.134753 0.547079 0.528726
Si Si5 0.702885 0.546370 0.469259
Si Si6 0.397113 0.593316 0.390774
Si Si7 0.038444 0.093489 0.614691
O O1 0.228351 0.214911 0.750000
O O2 0.250725 0.100223 0.921702
O O3 0.100755 0.173202 0.888811
O O4 0.223027 0.250000 0.000000
O O5 0.430004 0.219492 0.250000
O O6 0.511973 0.135093 0.082135
O O7 0.410971 0.250000 0.000000
O O8 0.347390 0.115388 0.108112
O O9 0.203412 0.719413 0.250000
O O10 0.170543 0.602414 0.083731
O O11 0.321829 0.662740 0.104319
O O12 0.201943 0.750000 0.000000
O O13 0.220128 0.508349 0.590876
O O14 0.080039 0.467345 0.485672
O O15 0.063148 0.602811 0.596762
O O16 0.633666 0.481326 0.522011
O O17 0.400002 0.561607 0.250000
O O18 0.051182 0.054798 0.750000
#
# Coordination Sequence:
#
# PCOD9437190 Si02
#       7
#     8   8   8   8   8   8   8
#     4  10  21  37  58  84 115 151 189 230 280 338
#     4  11  24  40  59  87 121 155 193 236 287 345
#     4  10  20  35  56  81 110 145 185 229 279 336
#     4   9  19  35  55  81 108 141 185 234 284 336
#     4  10  20  36  60  86 113 147 191 240 288 336
#     4   9  19  38  61  84 113 151 193 236 283 339
#     4   9  18  35  56  77 105 144 187 229 277 334
#
# _framework density 20.755573999999999
#
# number of rings (size 3 to 8) (size 9 to 14) (size 15 to 20)
#    0.000    2.286    0.000    2.143    0.000    8.000 
#    0.000   10.714    0.000    0.000    0.000    0.000 
#    0.000    0.000    0.000    0.000    0.000    0.000 
#
# Total GULP energy -311988.178279 kJ/mol
# GULP energy per Si atom -5571.217469 kJ/mol
# Density = 2.070833 g / cm^3
# Si number density = 20.755574 Si / 1000 Ang^3
#
#
#
# Elastic Constant Matrix: (Units=GPa)
#
#
# Indices 1 2 3 4 5 6 
#
# 1 132.0937 32.2624 28.8348 0.0000 0.0000 0.0000
# 2 32.2624 61.4087 45.1197 0.0000 0.0000 0.0000
# 3 28.8348 45.1197 108.5596 0.0000 0.0000 0.0000
# 4 0.0000 0.0000 0.0000 17.3959 0.0000 0.0000
# 5 0.0000 0.0000 0.0000 0.0000 15.8676 0.0000
# 6 0.0000 0.0000 0.0000 0.0000 0.0000 24.1140
#
#
#
# Elastic Compliance Matrix: (Units=1/GPa)
#
#
# Indices 1 2 3 4 5 6 
#
# 1 0.008711 -0.004141 -0.000593 0.000000 0.000000 0.000000
# 2 -0.004141 0.025412 -0.009462 0.000000 0.000000 0.000000
# 3 -0.000593 -0.009462 0.013301 0.000000 0.000000 0.000000
# 4 0.000000 0.000000 0.000000 0.057485 0.000000 0.000000
# 5 0.000000 0.000000 0.000000 0.000000 0.063021 0.000000
# 6 0.000000 0.000000 0.000000 0.000000 0.000000 0.041470
#
#
# Mechanical properties :
#
#
# Convention : Reuss Voigt Hill
#
# Bulk Modulus (GPa) = 52.53923 57.16618 54.85271
# Shear Modulus (GPa) = 20.48034 24.53183 22.50609
#
# Velocity S-wave (km/s) = 3.14465 3.44166 3.29650
# Velocity P-wave (km/s) = 6.20913 6.58755 6.40114
#
# Compressibility (1/GPa) = 0.01903340
#
# Stress axis : x y z
#
# Youngs Moduli (GPa) = 114.79484 39.35147 75.17960
#
# Poissons Ratio (x) = 0.16296 0.04455
# Poissons Ratio (y) = 0.47539 0.71134
# Poissons Ratio (z) = 0.06803 0.37234
#
# Static dielectric constant tensor:
#      x y z
#    x 1.785450 0.000000 0.000000 
#    y 0.000000 1.756940 0.000000 
#    z 0.000000 0.000000 1.728680 
# 
# From -- ./inp_files/13780.got.cif
#   From: 2010.05.17/outbox.cif.g08.bks.cpg/sg57_7_cif.got.tgz:13780.got - 2010.06.03 13:58:18.
