data_PCOD9437623
_publ_section_title
;
Structure prediction by ZEFSAII (Michael W. Deem and Ramdas Pophale) SiO2 
 PCOD9437623
Probable space group: P B C M
;
_chemical_formula_sum "Si O2"
_cell_formula_units_Z 64
_cell_length_a 25.254963
_cell_length_b 15.288845
_cell_length_c 8.649957
_cell_angle_alpha 90.000000
_cell_angle_beta 90.000000
_cell_angle_gamma 90.000000
_cell_volume 3339.914605
_symmetry_space_group_name_H-M "P B C M"
_symmetry_group_IT_number 57
_symmetry_cell_setting 'orthorhombic'
loop_
_space_group_symop_operation_xyz
x,y,z
-x,-y,1/2+z
x,1/2-y,-z
-x,1/2+y,1/2-z
-x,-y,-z
x,y,1/2-z
-x,1/2+y,z
x,1/2-y,1/2+z
loop_
_atom_site_type_symbol
_atom_site_label
_atom_site_fract_x
_atom_site_fract_y
_atom_site_fract_z
Si Si1 0.377555 0.347204 0.434840
Si Si2 0.400475 0.843775 0.434376
Si Si3 0.713569 0.151013 0.562998
Si Si4 0.489492 0.405934 0.933209
Si Si5 0.199409 0.990273 0.436636
Si Si6 0.260816 0.151548 0.935231
Si Si7 0.990750 0.849736 0.935533
Si Si8 0.077558 0.518537 0.563281
O O1 0.374618 0.250000 0.500000
O O2 0.382383 0.348561 0.250000
O O3 0.431835 0.382147 0.504328
O O4 0.319888 0.384237 0.477675
O O5 0.386155 0.750000 0.500000
O O6 0.407098 0.848601 0.250000
O O7 0.344813 0.890979 0.476234
O O8 0.457723 0.858481 0.508497
O O9 0.721419 0.250000 0.500000
O O10 0.713937 0.157634 0.750000
O O11 0.760177 0.086024 0.512115
O O12 0.488034 0.401365 0.750000
O O13 0.500000 0.500000 0.000000
O O14 0.201508 0.993313 0.250000
O O15 0.219019 0.083108 0.500249
O O16 0.138804 0.973511 0.481914
O O17 0.258294 0.156388 0.750000
O O18 0.254473 0.250000 0.000000
O O19 0.991051 0.842989 0.750000
O O20 0.945303 0.921777 0.979902
O O21 0.986123 0.750000 0.000000
O O22 0.042899 0.902791 0.991910
O O23 0.073209 0.524716 0.750000
#
# Coordination Sequence:
#
# PCOD9437623 Si02
#       8
#     8   8   8   8   8   8   8   8
#     4  10  21  39  59  81 107 141 183 229 283 344
#     4  10  20  37  57  79 105 140 181 225 281 342
#     4   9  20  37  58  83 112 150 191 235 286 344
#     4  12  25  38  54  79 108 139 176 228 285 348
#     4  10  21  38  60  87 121 157 194 242 294 341
#     4  10  22  39  60  86 115 152 196 241 291 349
#     4  10  20  36  60  87 119 160 200 244 293 343
#     4   9  20  38  58  86 122 158 200 244 289 344
#
# _framework density 19.162165999999999
#
# number of rings (size 3 to 8) (size 9 to 14) (size 15 to 20)
#    0.000    2.000    0.000    3.000    1.750    4.500 
#    0.000    2.500    0.000    0.000    0.000    0.000 
#    0.000    0.000    0.000    0.000    0.000    0.000 
#
# Total GULP energy -356511.380718 kJ/mol
# GULP energy per Si atom -5570.490324 kJ/mol
# Density = 1.911855 g / cm^3
# Si number density = 19.162166 Si / 1000 Ang^3
#
#
#
# Elastic Constant Matrix: (Units=GPa)
#
#
# Indices 1 2 3 4 5 6 
#
# 1 62.1257 -8.5693 14.9277 0.0000 0.0000 0.0000
# 2 -8.5693 60.5230 1.8588 0.0000 0.0000 0.0000
# 3 14.9277 1.8588 41.5523 0.0000 0.0000 0.0000
# 4 0.0000 0.0000 0.0000 31.5137 0.0000 0.0000
# 5 0.0000 0.0000 0.0000 0.0000 40.2294 0.0000
# 6 0.0000 0.0000 0.0000 0.0000 0.0000 26.6163
#
#
#
# Elastic Compliance Matrix: (Units=1/GPa)
#
#
# Indices 1 2 3 4 5 6 
#
# 1 0.018066 0.002761 -0.006614 0.000000 0.000000 0.000000
# 2 0.002761 0.016967 -0.001751 0.000000 0.000000 0.000000
# 3 -0.006614 -0.001751 0.026520 0.000000 0.000000 0.000000
# 4 0.000000 0.000000 0.000000 0.031732 0.000000 0.000000
# 5 0.000000 0.000000 0.000000 0.000000 0.024857 0.000000
# 6 0.000000 0.000000 0.000000 0.000000 0.000000 0.037571
#
#
# Mechanical properties :
#
#
# Convention : Reuss Voigt Hill
#
# Bulk Modulus (GPa) = 19.86226 20.07061 19.96643
# Shear Modulus (GPa) = 27.21762 30.07081 28.64421
#
# Velocity S-wave (km/s) = 3.77289 3.96571 3.87050
# Velocity P-wave (km/s) = 5.41917 5.60945 5.51513
#
# Compressibility (1/GPa) = 0.05034675
#
# Stress axis : x y z
#
# Youngs Moduli (GPa) = 55.35125 58.93672 37.70674
#
# Poissons Ratio (x) = -0.16273 0.24939
# Poissons Ratio (y) = -0.15283 0.06602
# Poissons Ratio (z) = 0.36609 0.10320
#
# Static dielectric constant tensor:
#      x y z
#    x 0.931560 0.000000 0.000000 
#    y 0.000000 1.659190 0.000000 
#    z 0.000000 0.000000 1.645880 
# 
# From -- ./inp_files/9351.got.cif
#   From: 2010.05.17/outbox.cif.g08.bks.cpg/sg57_5_cif.got.tgz:9351.got - 2010.06.03 13:58:18.
