data_PCOD9437415
_publ_section_title
;
Structure prediction by ZEFSAII (Michael W. Deem and Ramdas Pophale) SiO2 
 PCOD9437415
Probable space group: P B C M
;
_chemical_formula_sum "Si O2"
_cell_formula_units_Z 64
_cell_length_a 18.722438
_cell_length_b 10.097532
_cell_length_c 14.076797
_cell_angle_alpha 90.000000
_cell_angle_beta 90.000000
_cell_angle_gamma 90.000000
_cell_volume 2661.224340
_symmetry_space_group_name_H-M "P B C M"
_symmetry_group_IT_number 57
_symmetry_cell_setting 'orthorhombic'
loop_
_space_group_symop_operation_xyz
x,y,z
-x,-y,1/2+z
x,1/2-y,-z
-x,1/2+y,1/2-z
-x,-y,-z
x,y,1/2-z
-x,1/2+y,z
x,1/2-y,1/2+z
loop_
_atom_site_type_symbol
_atom_site_label
_atom_site_fract_x
_atom_site_fract_y
_atom_site_fract_z
Si Si1 0.381121 0.172964 0.142474
Si Si2 0.350437 0.464302 0.366281
Si Si3 0.665805 0.105450 0.861494
Si Si4 0.069292 0.324478 0.133698
Si Si5 0.811926 0.022886 0.134427
Si Si6 0.940344 0.519532 0.365927
Si Si7 0.179278 0.686152 0.633854
Si Si8 0.541147 0.188564 0.098717
O O1 0.351696 0.178024 0.250000
O O2 0.359875 0.313880 0.101505
O O3 0.352706 0.038072 0.097306
O O4 0.466797 0.165451 0.149980
O O5 0.357828 0.471917 0.250000
O O6 0.271456 0.514538 0.390096
O O7 0.413661 0.554834 0.405889
O O8 0.678775 0.087321 0.750000
O O9 0.739531 0.163805 0.899212
O O10 0.598955 0.204204 0.866173
O O11 0.068592 0.319465 0.250000
O O12 0.142716 0.395840 0.103511
O O13 0.059285 0.172515 0.101725
O O14 0.007031 0.427347 0.106155
O O15 0.814642 0.021679 0.250000
O O16 0.843388 0.165639 0.104298
O O17 0.941395 0.524634 0.250000
O O18 0.870398 0.436043 0.394457
O O19 0.177580 0.688254 0.750000
O O20 0.517727 0.250000 0.000000
#
# Coordination Sequence:
#
# PCOD9437415 Si02
#       8
#     8   8   8   8   8   8   8   8
#     4  10  22  36  56  80 105 136 178 224 275 326
#     4  10  20  36  56  79 106 139 179 225 272 320
#     4  10  20  36  56  79 106 139 179 225 272 320
#     4   9  16  24  37  62 100 140 173 204 249 309
#     4   9  16  27  45  66  94 134 174 212 256 306
#     4   9  16  24  37  62 100 140 173 204 249 309
#     4   9  16  27  45  66  94 134 174 212 256 306
#     4  12  24  38  56  78 105 140 180 220 273 328
#
# _framework density 24.049081000000001
#
# number of rings (size 3 to 8) (size 9 to 14) (size 15 to 20)
#    0.000    2.250    1.250    2.625    1.750    7.000 
#    0.000    0.000    0.000    0.000    0.000    0.000 
#    0.000    1.000    0.000    0.000    0.000    0.250 
#
# Total GULP energy -357895.276510 kJ/mol
# GULP energy per Si atom -5592.113695 kJ/mol
# Density = 2.399434 g / cm^3
# Si number density = 24.049081 Si / 1000 Ang^3
#
#
#
# Elastic Constant Matrix: (Units=GPa)
#
#
# Indices 1 2 3 4 5 6 
#
# 1 67.6734 37.9569 -4.1388 0.0000 0.0000 0.0000
# 2 37.9569 196.6911 14.5271 0.0000 0.0000 0.0000
# 3 -4.1388 14.5271 70.6078 0.0000 0.0000 0.0000
# 4 0.0000 0.0000 0.0000 25.3306 0.0000 0.0000
# 5 0.0000 0.0000 0.0000 0.0000 -0.9268 0.0000
# 6 0.0000 0.0000 0.0000 0.0000 0.0000 42.4118
#
#
#
# Elastic Compliance Matrix: (Units=1/GPa)
#
#
# Indices 1 2 3 4 5 6 
#
# 1 0.016763 -0.003358 0.001674 0.000000 0.000000 0.000000
# 2 -0.003358 0.005835 -0.001397 0.000000 0.000000 0.000000
# 3 0.001674 -0.001397 0.014548 0.000000 0.000000 0.000000
# 4 0.000000 0.000000 0.000000 0.039478 0.000000 0.000000
# 5 0.000000 0.000000 0.000000 0.000000 -1.078952 0.000000
# 6 0.000000 0.000000 0.000000 0.000000 0.000000 0.023578
#
#
# Mechanical properties :
#
#
# Convention : Reuss Voigt Hill
#
# Bulk Modulus (GPa) = 32.27679 47.96252 40.11966
# Shear Modulus (GPa) = -5.19612 32.47160 13.63774
#
# Velocity S-wave (km/s) = -1.47150 3.67852 2.38393
# Velocity P-wave (km/s) = 3.25012 6.16676 4.92911
#
# Compressibility (1/GPa) = 0.03098201
#
# Stress axis : x y z
#
# Youngs Moduli (GPa) = 59.65545 171.36683 68.73628
#
# Poissons Ratio (x) = 0.57553 -0.11504
# Poissons Ratio (y) = 0.20035 0.09606
# Poissons Ratio (z) = -0.09984 0.23948
#
# Static dielectric constant tensor:
#      x y z
#    x 1.863170 0.000000 0.000000 
#    y 0.000000 1.890720 0.000000 
#    z 0.000000 0.000000 1.608760 
# 
# From -- ./inp_files/25621.got.cif
#   From: 2010.05.17/outbox.cif.g08.bks.cpg/sg57_13_cif.got.tgz:25621.got - 2010.06.03 13:58:18.
