data_PCOD9437412
_publ_section_title
;
Structure prediction by ZEFSAII (Michael W. Deem and Ramdas Pophale) SiO2 
 PCOD9437412
Probable space group: P B C M
;
_chemical_formula_sum "Si O2"
_cell_formula_units_Z 56
_cell_length_a 23.930727
_cell_length_b 8.521045
_cell_length_c 15.035435
_cell_angle_alpha 90.000000
_cell_angle_beta 90.000000
_cell_angle_gamma 90.000000
_cell_volume 3065.947746
_symmetry_space_group_name_H-M "P B C M"
_symmetry_group_IT_number 57
_symmetry_cell_setting 'orthorhombic'
loop_
_space_group_symop_operation_xyz
x,y,z
-x,-y,1/2+z
x,1/2-y,-z
-x,1/2+y,1/2-z
-x,-y,-z
x,y,1/2-z
-x,1/2+y,z
x,1/2-y,1/2+z
loop_
_atom_site_type_symbol
_atom_site_label
_atom_site_fract_x
_atom_site_fract_y
_atom_site_fract_z
Si Si1 0.564927 0.537636 0.152859
Si Si2 0.850794 0.555144 0.353863
Si Si3 0.761607 0.560999 0.504129
Si Si4 0.937193 0.436974 0.000799
Si Si5 0.544302 0.640058 0.913216
Si Si6 0.637993 0.064436 0.001878
Si Si7 0.854872 0.934116 0.353170
O O1 0.571526 0.469224 0.250000
O O2 0.556580 0.724176 0.156771
O O3 0.510794 0.457232 0.108566
O O4 0.617970 0.502857 0.092573
O O5 0.848338 0.504124 0.250000
O O6 0.796276 0.516231 0.414637
O O7 0.902762 0.491543 0.411712
O O8 0.856335 0.744400 0.353647
O O9 0.753778 0.750000 0.500000
O O10 0.702220 0.479109 0.514343
O O11 0.800076 0.522152 0.589444
O O12 0.905387 0.501429 0.913194
O O13 0.937174 0.250000 0.000000
O O14 0.000000 0.500000 0.000000
O O15 0.535946 0.750000 0.000000
O O16 0.596211 0.523918 0.929941
O O17 0.628905 0.250000 0.000000
O O18 0.854872 0.985882 0.250000
#
# Coordination Sequence:
#
# PCOD9437412 Si02
#       7
#     8   8   8   8   8   8   8
#     4  11  21  35  56  81 106 135 175 223 270 321
#     4   9  19  37  61  84 110 144 184 227 275 326
#     4   9  18  35  57  82 111 144 182 223 272 327
#     4  11  22  36  56  83 116 151 186 226 270 320
#     4  10  20  36  56  77 105 141 175 213 268 329
#     4  11  22  37  55  77 108 145 180 217 266 322
#     4   9  19  38  61  84 110 144 183 227 275 325
#
# _framework density 18.265150999999999
#
# number of rings (size 3 to 8) (size 9 to 14) (size 15 to 20)
#    0.000    2.000    0.000    6.857    0.000    4.000 
#    0.000    5.714    0.000    0.000    0.000    0.000 
#    0.000    0.000    0.000    0.000    0.000    0.000 
#
# Total GULP energy -312338.732990 kJ/mol
# GULP energy per Si atom -5577.477375 kJ/mol
# Density = 1.822358 g / cm^3
# Si number density = 18.265151 Si / 1000 Ang^3
#
#
#
# Elastic Constant Matrix: (Units=GPa)
#
#
# Indices 1 2 3 4 5 6 
#
# 1 130.0519 42.1431 52.7413 0.0000 0.0000 0.0000
# 2 42.1431 70.5443 30.2838 0.0000 0.0000 0.0000
# 3 52.7413 30.2838 143.7368 0.0000 0.0000 0.0000
# 4 0.0000 0.0000 0.0000 12.4970 0.0000 0.0000
# 5 0.0000 0.0000 0.0000 0.0000 14.6229 0.0000
# 6 0.0000 0.0000 0.0000 0.0000 0.0000 33.3754
#
#
#
# Elastic Compliance Matrix: (Units=1/GPa)
#
#
# Indices 1 2 3 4 5 6 
#
# 1 0.010450 -0.005054 -0.002770 0.000000 0.000000 0.000000
# 2 -0.005054 0.018029 -0.001944 0.000000 0.000000 0.000000
# 3 -0.002770 -0.001944 0.008383 0.000000 0.000000 0.000000
# 4 0.000000 0.000000 0.000000 0.080019 0.000000 0.000000
# 5 0.000000 0.000000 0.000000 0.000000 0.068386 0.000000
# 6 0.000000 0.000000 0.000000 0.000000 0.000000 0.029962
#
#
# Mechanical properties :
#
#
# Convention : Reuss Voigt Hill
#
# Bulk Modulus (GPa) = 57.71330 66.07436 61.89383
# Shear Modulus (GPa) = 20.78648 26.71005 23.74826
#
# Velocity S-wave (km/s) = 3.37715 3.82822 3.60973
# Velocity P-wave (km/s) = 6.84638 7.46954 7.16474
#
# Compressibility (1/GPa) = 0.01732703
#
# Stress axis : x y z
#
# Youngs Moduli (GPa) = 95.69224 55.46524 119.28840
#
# Poissons Ratio (x) = 0.28032 0.33039
# Poissons Ratio (y) = 0.48362 0.23191
# Poissons Ratio (z) = 0.26504 0.10783
#
# Static dielectric constant tensor:
#      x y z
#    x 1.595600 0.000000 0.000000 
#    y 0.000000 1.630220 0.000000 
#    z 0.000000 0.000000 1.697340 
# 
# From -- ./inp_files/19380.got.cif
#   From: 2010.05.17/outbox.cif.g08.bks.cpg/sg57_10_cif.got.tgz:19380.got - 2010.06.03 13:58:18.
