data_PCOD9437911
_publ_section_title
;
Structure prediction by ZEFSAII (Michael W. Deem and Ramdas Pophale) SiO2 
 PCOD9437911
Probable space group: P B C M
;
_chemical_formula_sum "Si O2"
_cell_formula_units_Z 64
_cell_length_a 9.356935
_cell_length_b 21.614491
_cell_length_c 14.208947
_cell_angle_alpha 90.000000
_cell_angle_beta 90.000000
_cell_angle_gamma 90.000000
_cell_volume 2873.693990
_symmetry_space_group_name_H-M "P B C M"
_symmetry_group_IT_number 57
_symmetry_cell_setting 'orthorhombic'
loop_
_space_group_symop_operation_xyz
x,y,z
-x,-y,1/2+z
x,1/2-y,-z
-x,1/2+y,1/2-z
-x,-y,-z
x,y,1/2-z
-x,1/2+y,z
x,1/2-y,1/2+z
loop_
_atom_site_type_symbol
_atom_site_label
_atom_site_fract_x
_atom_site_fract_y
_atom_site_fract_z
Si Si1 0.548370 0.100852 0.638165
Si Si2 0.337243 0.146081 0.483958
Si Si3 0.973845 0.967804 0.360446
Si Si4 0.416508 0.680310 0.139763
Si Si5 0.024150 0.154652 0.986065
Si Si6 0.211852 0.703597 0.639848
Si Si7 0.292548 0.476569 0.638795
Si Si8 0.829073 0.092914 0.362111
O O1 0.520900 0.103699 0.750000
O O2 0.415172 0.125520 0.579568
O O3 0.684739 0.145335 0.619446
O O4 0.597924 0.031540 0.613990
O O5 0.447888 0.187059 0.425382
O O6 0.183752 0.176218 0.496405
O O7 0.313827 0.084024 0.422351
O O8 0.958536 0.951840 0.250000
O O9 0.960756 0.908232 0.424494
O O10 0.131518 0.997290 0.372416
O O11 0.860377 0.021505 0.384541
O O12 0.454916 0.679995 0.250000
O O13 0.304889 0.735403 0.124373
O O14 0.329855 0.617291 0.117110
O O15 0.925487 0.199234 0.924829
O O16 0.940401 0.134234 0.079839
O O17 0.172636 0.700794 0.750000
O O18 0.310979 0.462467 0.750000
O O19 0.852053 0.100916 0.250000
#
# Coordination Sequence:
#
# PCOD9437911 Si02
#       8
#     8   8   8   8   8   8   8   8
#     4  10  22  40  62  92 132 182 223 267 329 397
#     4  12  25  37  62  98 140 172 208 276 339 399
#     4  10  20  37  63  96 136 175 222 276 331 388
#     4  10  24  46  69  94 127 177 226 266 325 398
#     4  12  23  37  67 101 129 167 217 279 335 385
#     4  10  22  46  74  92 120 172 231 276 319 389
#     4  10  20  38  63  93 136 181 222 267 330 397
#     4  10  22  39  61  90 131 181 224 264 312 387
#
# _framework density 22.270986000000001
#
# number of rings (size 3 to 8) (size 9 to 14) (size 15 to 20)
#    0.000    1.500    2.500    2.250    0.000    4.500 
#    0.000    5.000    0.000    4.500    0.000    0.000 
#    0.000    0.000    0.000    0.000    0.000    0.000 
#
# Total GULP energy -358641.387058 kJ/mol
# GULP energy per Si atom -5603.771673 kJ/mol
# Density = 2.222030 g / cm^3
# Si number density = 22.270986 Si / 1000 Ang^3
#
#
#
# Elastic Constant Matrix: (Units=GPa)
#
#
# Indices 1 2 3 4 5 6 
#
# 1 115.7195 18.5997 55.9598 0.0000 0.0000 0.0000
# 2 18.5997 59.1112 31.8681 0.0000 0.0000 0.0000
# 3 55.9598 31.8681 86.8700 0.0000 0.0000 0.0000
# 4 0.0000 0.0000 0.0000 27.5213 0.0000 0.0000
# 5 0.0000 0.0000 0.0000 0.0000 25.5631 0.0000
# 6 0.0000 0.0000 0.0000 0.0000 0.0000 13.7597
#
#
#
# Elastic Compliance Matrix: (Units=1/GPa)
#
#
# Indices 1 2 3 4 5 6 
#
# 1 0.012564 0.000511 -0.008281 0.000000 0.000000 0.000000
# 2 0.000511 0.021109 -0.008073 0.000000 0.000000 0.000000
# 3 -0.008281 -0.008073 0.019807 0.000000 0.000000 0.000000
# 4 0.000000 0.000000 0.000000 0.036335 0.000000 0.000000
# 5 0.000000 0.000000 0.000000 0.000000 0.039119 0.000000
# 6 0.000000 0.000000 0.000000 0.000000 0.000000 0.072676
#
#
# Mechanical properties :
#
#
# Convention : Reuss Voigt Hill
#
# Bulk Modulus (GPa) = 45.88303 52.72844 49.30574
# Shear Modulus (GPa) = 20.78476 23.72037 22.25257
#
# Velocity S-wave (km/s) = 3.05826 3.26710 3.16440
# Velocity P-wave (km/s) = 5.75478 6.16110 5.96140
#
# Compressibility (1/GPa) = 0.02179455
#
# Stress axis : x y z
#
# Youngs Moduli (GPa) = 79.59283 47.37368 50.48610
#
# Poissons Ratio (x) = -0.02421 0.41807
# Poissons Ratio (y) = -0.04068 0.40757
# Poissons Ratio (z) = 0.65910 0.38245
#
# Static dielectric constant tensor:
#      x y z
#    x 1.800090 0.000000 0.000000 
#    y 0.000000 1.826930 0.000000 
#    z 0.000000 0.000000 1.809060 
# 
# From -- ./inp_files/16989.got.cif
#   From: 2010.05.17/outbox.cif.g08.bks.cpg/sg57_9_cif.got.tgz:16989.got - 2010.06.03 13:58:18.
