data_PCOD9437514
_publ_section_title
;
Structure prediction by ZEFSAII (Michael W. Deem and Ramdas Pophale) SiO2 
 PCOD9437514
Probable space group: P B C M
;
_chemical_formula_sum "Si O2"
_cell_formula_units_Z 48
_cell_length_a 18.524164
_cell_length_b 15.510527
_cell_length_c 8.739885
_cell_angle_alpha 90.000000
_cell_angle_beta 90.000000
_cell_angle_gamma 90.000000
_cell_volume 2511.139789
_symmetry_space_group_name_H-M "P B C M"
_symmetry_group_IT_number 57
_symmetry_cell_setting 'orthorhombic'
loop_
_space_group_symop_operation_xyz
x,y,z
-x,-y,1/2+z
x,1/2-y,-z
-x,1/2+y,1/2-z
-x,-y,-z
x,y,1/2-z
-x,1/2+y,z
x,1/2-y,1/2+z
loop_
_atom_site_type_symbol
_atom_site_label
_atom_site_fract_x
_atom_site_fract_y
_atom_site_fract_z
Si Si1 0.393412 0.157987 0.566439
Si Si2 0.828680 0.484334 0.432874
Si Si3 0.676625 0.020987 0.433874
Si Si4 0.446813 0.657768 0.433751
Si Si5 0.112070 0.342506 0.433139
Si Si6 0.944354 0.342560 0.434218
O O1 0.369249 0.250000 0.500000
O O2 0.396427 0.163490 0.750000
O O3 0.474144 0.141260 0.503659
O O4 0.344193 0.076912 0.523325
O O5 0.831563 0.490108 0.250000
O O6 0.750559 0.452566 0.486338
O O7 0.842746 0.577985 0.503878
O O8 0.891431 0.418653 0.485082
O O9 0.685843 0.024029 0.250000
O O10 0.610280 0.083734 0.473227
O O11 0.422639 0.750000 0.500000
O O12 0.453085 0.662890 0.250000
O O13 0.134240 0.250000 0.500000
O O14 0.116294 0.339863 0.250000
O O15 0.027912 0.357119 0.479091
O O16 0.922003 0.250000 0.500000
O O17 0.942175 0.338513 0.250000
#
# Coordination Sequence:
#
# PCOD9437514 Si02
#       6
#     8   8   8   8   8   8
#     4  10  20  36  58  82 107 137 178 224 269 320
#     4  11  23  37  55  82 114 147 184 225 273 328
#     4  10  23  39  54  77 111 149 183 219 269 325
#     4  10  20  36  58  82 108 140 180 224 271 322
#     4  10  20  37  60  83 110 143 182 228 275 325
#     4   9  20  37  58  84 110 142 184 228 274 324
#
# _framework density 19.114826999999998
#
# number of rings (size 3 to 8) (size 9 to 14) (size 15 to 20)
#    0.000    2.000    0.000    4.000    0.000    6.000 
#    0.000    5.000    0.000    0.000    0.000    0.000 
#    0.000    0.000    0.000    0.000    0.000    0.000 
#
# Total GULP energy -268177.165964 kJ/mol
# GULP energy per Si atom -5587.024291 kJ/mol
# Density = 1.907132 g / cm^3
# Si number density = 19.114827 Si / 1000 Ang^3
#
#
#
# Elastic Constant Matrix: (Units=GPa)
#
#
# Indices 1 2 3 4 5 6 
#
# 1 20.2741 9.2465 6.9417 0.0000 0.0000 0.0000
# 2 9.2465 54.2505 10.2970 0.0000 0.0000 0.0000
# 3 6.9417 10.2970 30.5769 0.0000 0.0000 0.0000
# 4 0.0000 0.0000 0.0000 29.5752 0.0000 0.0000
# 5 0.0000 0.0000 0.0000 0.0000 29.7165 0.0000
# 6 0.0000 0.0000 0.0000 0.0000 0.0000 -12.8225
#
#
#
# Elastic Compliance Matrix: (Units=1/GPa)
#
#
# Indices 1 2 3 4 5 6 
#
# 1 0.056312 -0.007661 -0.010204 0.000000 0.000000 0.000000
# 2 -0.007661 0.020734 -0.005243 0.000000 0.000000 0.000000
# 3 -0.010204 -0.005243 0.036787 0.000000 0.000000 0.000000
# 4 0.000000 0.000000 0.000000 0.033812 0.000000 0.000000
# 5 0.000000 0.000000 0.000000 0.000000 0.033651 0.000000
# 6 0.000000 0.000000 0.000000 0.000000 0.000000 -0.077988
#
#
# Mechanical properties :
#
#
# Convention : Reuss Voigt Hill
#
# Bulk Modulus (GPa) = 14.78944 17.56353 16.17648
# Shear Modulus (GPa) = 29.05917 14.53495 21.79706
#
# Velocity S-wave (km/s) = 3.90326 2.76053 3.38053
# Velocity P-wave (km/s) = 5.29791 4.40103 4.87016
#
# Compressibility (1/GPa) = 0.06761583
#
# Stress axis : x y z
#
# Youngs Moduli (GPa) = 17.75830 48.23017 27.18375
#
# Poissons Ratio (x) = 0.36949 0.27739
# Poissons Ratio (y) = 0.13605 0.14253
# Poissons Ratio (z) = 0.18121 0.25287
#
# Static dielectric constant tensor:
#      x y z
#    x 1.652880 0.000000 0.000000 
#    y 0.000000 1.649870 0.000000 
#    z 0.000000 0.000000 1.642900 
# 
# From -- ./inp_files/6551.got.cif
#   From: 2010.05.17/outbox.cif.g08.bks.cpg/sg57_4_cif.got.tgz:6551.got - 2010.06.03 13:58:18.
