data_PCOD9437642
_publ_section_title
;
Structure prediction by ZEFSAII (Michael W. Deem and Ramdas Pophale) SiO2 
 PCOD9437642
Probable space group: P B C M
;
_chemical_formula_sum "Si O2"
_cell_formula_units_Z 64
_cell_length_a 10.001887
_cell_length_b 11.842078
_cell_length_c 26.791895
_cell_angle_alpha 90.000000
_cell_angle_beta 90.000000
_cell_angle_gamma 90.000000
_cell_volume 3173.315795
_symmetry_space_group_name_H-M "P B C M"
_symmetry_group_IT_number 57
_symmetry_cell_setting 'orthorhombic'
loop_
_space_group_symop_operation_xyz
x,y,z
-x,-y,1/2+z
x,1/2-y,-z
-x,1/2+y,1/2-z
-x,-y,-z
x,y,1/2-z
-x,1/2+y,z
x,1/2-y,1/2+z
loop_
_atom_site_type_symbol
_atom_site_label
_atom_site_fract_x
_atom_site_fract_y
_atom_site_fract_z
Si Si1 0.330037 0.678975 0.306423
Si Si2 0.655945 0.820949 0.452034
Si Si3 0.420227 0.458410 0.693969
Si Si4 0.934345 0.617750 0.521719
Si Si5 0.951716 0.232671 0.691961
Si Si6 0.124192 0.925979 0.392201
Si Si7 0.399076 0.852726 0.110798
Si Si8 0.792919 0.673575 0.134901
O O1 0.350568 0.731127 0.250000
O O2 0.422326 0.569525 0.304724
O O3 0.388339 0.741526 0.355172
O O4 0.170031 0.676213 0.312595
O O5 0.610708 0.750000 0.500000
O O6 0.774788 0.899410 0.473178
O O7 0.524909 0.866629 0.424800
O O8 0.729523 0.745272 0.409889
O O9 0.377700 0.487485 0.750000
O O10 0.401454 0.553103 0.653320
O O11 0.325935 0.357979 0.673486
O O12 0.951647 0.750000 0.500000
O O13 0.000000 0.500000 0.500000
O O14 0.000511 0.616792 0.576057
O O15 0.974763 0.211557 0.750000
O O16 0.086555 0.270214 0.665105
O O17 0.893770 0.123722 0.663342
O O18 0.257262 0.870782 0.415883
O O19 0.146136 0.059201 0.389109
#
# Coordination Sequence:
#
# PCOD9437642 Si02
#       8
#     8   8   8   8   8   8   8   8
#     4   9  18  35  57  84 122 162 199 250 315 387
#     4  11  23  42  64  91 124 168 220 284 332 394
#     4  10  20  36  60  90 123 165 209 256 321 397
#     4  11  24  45  69  97 128 173 225 282 347 400
#     4  10  21  37  59  89 125 163 207 263 323 394
#     4  10  22  39  63  92 124 166 211 269 326 404
#     4  10  21  38  60  89 124 160 211 262 326 384
#     4  11  21  40  64  91 127 168 218 265 338 398
#
# _framework density 20.168178999999999
#
# number of rings (size 3 to 8) (size 9 to 14) (size 15 to 20)
#    0.000    1.750    2.500    2.250    0.000    5.000 
#    2.250    5.625    0.000    0.000    0.000    0.000 
#    0.000    0.000    0.000    0.000    0.000    0.000 
#
# Total GULP energy -356322.002363 kJ/mol
# GULP energy per Si atom -5567.531287 kJ/mol
# Density = 2.012228 g / cm^3
# Si number density = 20.168179 Si / 1000 Ang^3
#
#
#
# Elastic Constant Matrix: (Units=GPa)
#
#
# Indices 1 2 3 4 5 6 
#
# 1 77.3887 13.9406 38.5210 0.0000 0.0000 0.0000
# 2 13.9406 30.2977 11.5420 0.0000 0.0000 0.0000
# 3 38.5210 11.5420 81.9030 0.0000 0.0000 0.0000
# 4 0.0000 0.0000 0.0000 18.5463 0.0000 0.0000
# 5 0.0000 0.0000 0.0000 0.0000 31.9524 0.0000
# 6 0.0000 0.0000 0.0000 0.0000 0.0000 17.7500
#
#
#
# Elastic Compliance Matrix: (Units=1/GPa)
#
#
# Indices 1 2 3 4 5 6 
#
# 1 0.017623 -0.005232 -0.007551 0.000000 0.000000 0.000000
# 2 -0.005232 0.036432 -0.002673 0.000000 0.000000 0.000000
# 3 -0.007551 -0.002673 0.016138 0.000000 0.000000 0.000000
# 4 0.000000 0.000000 0.000000 0.053919 0.000000 0.000000
# 5 0.000000 0.000000 0.000000 0.000000 0.031297 0.000000
# 6 0.000000 0.000000 0.000000 0.000000 0.000000 0.056338
#
#
# Mechanical properties :
#
#
# Convention : Reuss Voigt Hill
#
# Bulk Modulus (GPa) = 25.45873 35.28852 30.37362
# Shear Modulus (GPa) = 19.55019 22.02213 20.78616
#
# Velocity S-wave (km/s) = 3.11683 3.30801 3.21384
# Velocity P-wave (km/s) = 5.05999 5.66796 5.37258
#
# Compressibility (1/GPa) = 0.03927926
#
# Stress axis : x y z
#
# Youngs Moduli (GPa) = 56.74425 27.44873 61.96629
#
# Poissons Ratio (x) = 0.14361 0.46792
# Poissons Ratio (y) = 0.29689 0.16565
# Poissons Ratio (z) = 0.42849 0.07338
#
# Static dielectric constant tensor:
#      x y z
#    x 1.733350 0.000000 0.000000 
#    y 0.000000 1.766980 0.000000 
#    z 0.000000 0.000000 1.748570 
# 
# From -- ./inp_files/29625.got.cif
#   From: 2010.05.17/outbox.cif.g08.bks.cpg/sg57_15_cif.got.tgz:29625.got - 2010.06.03 13:58:18.
