data_PCOD9437943
_publ_section_title
;
Structure prediction by ZEFSAII (Michael W. Deem and Ramdas Pophale) SiO2 
 PCOD9437943
Probable space group: P B C M
;
_chemical_formula_sum "Si O2"
_cell_formula_units_Z 52
_cell_length_a 7.283002
_cell_length_b 33.162805
_cell_length_c 9.403178
_cell_angle_alpha 90.000000
_cell_angle_beta 90.000000
_cell_angle_gamma 90.000000
_cell_volume 2271.100452
_symmetry_space_group_name_H-M "P B C M"
_symmetry_group_IT_number 57
_symmetry_cell_setting 'orthorhombic'
loop_
_space_group_symop_operation_xyz
x,y,z
-x,-y,1/2+z
x,1/2-y,-z
-x,1/2+y,1/2-z
-x,-y,-z
x,y,1/2-z
-x,1/2+y,z
x,1/2-y,1/2+z
loop_
_atom_site_type_symbol
_atom_site_label
_atom_site_fract_x
_atom_site_fract_y
_atom_site_fract_z
Si Si1 0.814067 0.288898 0.415109
Si Si2 0.398846 0.302961 0.471394
Si Si3 0.255480 0.031018 0.085804
Si Si4 0.189737 0.544931 0.087603
Si Si5 0.918688 0.130859 0.079147
Si Si6 0.704820 0.608794 0.919569
Si Si7 0.290976 0.255240 0.750000
O O1 0.883819 0.250000 0.500000
O O2 0.869452 0.290779 0.250000
O O3 0.592293 0.285862 0.414719
O O4 0.853074 0.327869 0.510307
O O5 0.409992 0.350864 0.450037
O O6 0.347263 0.288528 0.626954
O O7 0.256452 0.280123 0.371128
O O8 0.310451 0.032730 0.250000
O O9 0.032954 0.038405 0.081609
O O10 0.346630 0.066851 0.995279
O O11 0.279657 0.987174 0.016846
O O12 0.244439 0.536517 0.250000
O O13 0.213644 0.592286 0.056783
O O14 0.948427 0.134366 0.250000
O O15 0.103047 0.120418 0.994221
O O16 0.721645 0.603088 0.750000
#
# Coordination Sequence:
#
# PCOD9437943 Si02
#       7
#     8   8   8   8   8   8   4
#     4  12  22  40  59  82 108 145 188 228 269 325
#     4  11  21  38  61  82 106 141 186 231 268 326
#     4   9  17  28  50  78 108 139 181 221 267 322
#     4   8  15  31  50  73 104 144 177 218 267 323
#     4  10  23  38  55  82 116 144 183 226 277 325
#     4  11  21  36  54  84 116 146 179 227 278 326
#     4  10  20  38  58  82 104 140 188 232 266 320
#
# _framework density 22.896391000000001
#
# number of rings (size 3 to 8) (size 9 to 14) (size 15 to 20)
#    0.000    1.846    3.077    2.769    3.231    4.308 
#    2.769    0.000    0.000    0.923    0.000    0.000 
#    0.000    0.000    0.000    0.000    0.000    0.000 
#
# Total GULP energy -289592.313941 kJ/mol
# GULP energy per Si atom -5569.082960 kJ/mol
# Density = 2.284428 g / cm^3
# Si number density = 22.896391 Si / 1000 Ang^3
#
#
#
# Elastic Constant Matrix: (Units=GPa)
#
#
# Indices 1 2 3 4 5 6 
#
# 1 53.8461 20.7747 12.4515 0.0000 0.0000 0.0000
# 2 20.7747 207.9660 120.7800 0.0000 0.0000 0.0000
# 3 12.4515 120.7800 239.9640 0.0000 0.0000 0.0000
# 4 0.0000 0.0000 0.0000 53.7114 0.0000 0.0000
# 5 0.0000 0.0000 0.0000 0.0000 30.4162 0.0000
# 6 0.0000 0.0000 0.0000 0.0000 0.0000 20.6852
#
#
#
# Elastic Compliance Matrix: (Units=1/GPa)
#
#
# Indices 1 2 3 4 5 6 
#
# 1 0.019316 -0.001904 -0.000044 0.000000 0.000000 0.000000
# 2 -0.001904 0.006982 -0.003416 0.000000 0.000000 0.000000
# 3 -0.000044 -0.003416 0.005889 0.000000 0.000000 0.000000
# 4 0.000000 0.000000 0.000000 0.018618 0.000000 0.000000
# 5 0.000000 0.000000 0.000000 0.000000 0.032877 0.000000
# 6 0.000000 0.000000 0.000000 0.000000 0.000000 0.048344
#
#
# Mechanical properties :
#
#
# Convention : Reuss Voigt Hill
#
# Bulk Modulus (GPa) = 46.59810 89.97651 68.28730
# Shear Modulus (GPa) = 33.35404 44.14722 38.75063
#
# Velocity S-wave (km/s) = 3.82086 4.39581 4.11838
# Velocity P-wave (km/s) = 6.31358 8.07135 7.24596
#
# Compressibility (1/GPa) = 0.02146010
#
# Stress axis : x y z
#
# Youngs Moduli (GPa) = 51.76994 143.21812 169.81595
#
# Poissons Ratio (x) = 0.27270 0.00746
# Poissons Ratio (y) = 0.09857 0.58002
# Poissons Ratio (z) = 0.00227 0.48918
#
# Static dielectric constant tensor:
#      x y z
#    x 1.992770 0.000000 0.000000 
#    y 0.000000 1.891680 0.000000 
#    z 0.000000 0.000000 1.758490 
# 
# From -- ./inp_files/3614.got.cif
#   From: 2010.05.17/outbox.cif.g08.bks.cpg/sg57_2_cif.got.tgz:3614.got - 2010.06.03 13:58:18.
