data_PCOD9437369
_publ_section_title
;
Structure prediction by ZEFSAII (Michael W. Deem and Ramdas Pophale) SiO2 
 PCOD9437369
Probable space group: P B C M
;
_chemical_formula_sum "Si O2"
_cell_formula_units_Z 44
_cell_length_a 23.227822
_cell_length_b 5.116813
_cell_length_c 15.445265
_cell_angle_alpha 90.000000
_cell_angle_beta 90.000000
_cell_angle_gamma 90.000000
_cell_volume 1835.707147
_symmetry_space_group_name_H-M "P B C M"
_symmetry_group_IT_number 57
_symmetry_cell_setting 'orthorhombic'
loop_
_space_group_symop_operation_xyz
x,y,z
-x,-y,1/2+z
x,1/2-y,-z
-x,1/2+y,1/2-z
-x,-y,-z
x,y,1/2-z
-x,1/2+y,z
x,1/2-y,1/2+z
loop_
_atom_site_type_symbol
_atom_site_label
_atom_site_fract_x
_atom_site_fract_y
_atom_site_fract_z
Si Si1 0.532898 0.357112 0.355887
Si Si2 0.784512 0.250000 0.000000
Si Si3 0.349882 0.889441 0.848119
Si Si4 0.034801 0.258535 0.606035
Si Si5 0.721623 0.611990 0.387739
Si Si6 0.838479 0.642636 0.900009
O O1 0.535501 0.363428 0.250000
O O2 0.516159 0.649110 0.381946
O O3 0.593142 0.239447 0.388176
O O4 0.742271 0.484932 0.022136
O O5 0.823595 0.161136 0.080373
O O6 0.364904 0.964400 0.750000
O O7 0.304109 0.651054 0.845451
O O8 0.324808 0.158214 0.885385
O O9 0.036234 0.250000 0.500000
O O10 0.099124 0.195428 0.637722
O O11 0.010538 0.537670 0.632544
O O12 0.782618 0.731550 0.354805
O O13 0.842383 0.750000 0.000000
#
# Coordination Sequence:
#
# PCOD9437369 Si02
#       6
#     8   4   8   8   8   8
#     4   9  17  31  51  75 104 135 164 201 259 326
#     4  10  20  36  52  76 104 148 190 218 254 310
#     4  11  22  35  54  83 113 137 168 216 270 323
#     4   9  18  26  41  66  98 134 165 202 259 317
#     4  11  21  35  53  77 108 145 179 219 260 308
#     4   9  19  31  50  70 105 137 177 214 255 307
#
# _framework density 23.968962999999999
#
# number of rings (size 3 to 8) (size 9 to 14) (size 15 to 20)
#    0.000    2.182    1.818    1.636    8.909    2.909 
#    0.000    0.000    0.000    0.000    0.000   12.727 
#    0.000   14.545    0.000    0.000    0.000    0.000 
#
# Total GULP energy -245350.280012 kJ/mol
# GULP energy per Si atom -5576.142728 kJ/mol
# Density = 2.391441 g / cm^3
# Si number density = 23.968963 Si / 1000 Ang^3
#
#
#
# Elastic Constant Matrix: (Units=GPa)
#
#
# Indices 1 2 3 4 5 6 
#
# 1 91.4414 6.9191 0.7316 0.0000 0.0000 0.0000
# 2 6.9191 113.1451 -3.3369 0.0000 0.0000 0.0000
# 3 0.7316 -3.3369 26.2366 0.0000 0.0000 0.0000
# 4 0.0000 0.0000 0.0000 12.6941 0.0000 0.0000
# 5 0.0000 0.0000 0.0000 0.0000 8.7631 0.0000
# 6 0.0000 0.0000 0.0000 0.0000 0.0000 33.1201
#
#
#
# Elastic Compliance Matrix: (Units=1/GPa)
#
#
# Indices 1 2 3 4 5 6 
#
# 1 0.010991 -0.000684 -0.000393 0.000000 0.000000 0.000000
# 2 -0.000684 0.008914 0.001153 0.000000 0.000000 0.000000
# 3 -0.000393 0.001153 0.038272 0.000000 0.000000 0.000000
# 4 0.000000 0.000000 0.000000 0.078777 0.000000 0.000000
# 5 0.000000 0.000000 0.000000 0.000000 0.114116 0.000000
# 6 0.000000 0.000000 0.000000 0.000000 0.000000 0.030193
#
#
# Mechanical properties :
#
#
# Convention : Reuss Voigt Hill
#
# Bulk Modulus (GPa) = 17.14431 26.60564 21.87497
# Shear Modulus (GPa) = 16.63594 26.01607 21.32601
#
# Velocity S-wave (km/s) = 2.63736 3.29813 2.98608
# Velocity P-wave (km/s) = 4.05493 5.06238 4.58640
#
# Compressibility (1/GPa) = 0.05832839
#
# Stress axis : x y z
#
# Youngs Moduli (GPa) = 90.98473 112.18287 26.12859
#
# Poissons Ratio (x) = 0.07670 0.01028
# Poissons Ratio (y) = 0.06221 -0.03012
# Poissons Ratio (z) = 0.03580 -0.12933
#
# Static dielectric constant tensor:
#      x y z
#    x 1.942220 0.000000 0.000000 
#    y 0.000000 2.017420 0.000000 
#    z 0.000000 0.000000 2.078650 
# 
# From -- ./inp_files/27542.got.cif
#   From: 2010.05.17/outbox.cif.g08.bks.cpg/sg57_14_cif.got.tgz:27542.got - 2010.06.03 13:58:18.
