data_PCOD9437203
_publ_section_title
;
Structure prediction by ZEFSAII (Michael W. Deem and Ramdas Pophale) SiO2 
 PCOD9437203
Probable space group: P B C M
;
_chemical_formula_sum "Si O2"
_cell_formula_units_Z 64
_cell_length_a 14.682382
_cell_length_b 26.212882
_cell_length_c 8.759168
_cell_angle_alpha 90.000000
_cell_angle_beta 90.000000
_cell_angle_gamma 90.000000
_cell_volume 3371.119501
_symmetry_space_group_name_H-M "P B C M"
_symmetry_group_IT_number 57
_symmetry_cell_setting 'orthorhombic'
loop_
_space_group_symop_operation_xyz
x,y,z
-x,-y,1/2+z
x,1/2-y,-z
-x,1/2+y,1/2-z
-x,-y,-z
x,y,1/2-z
-x,1/2+y,z
x,1/2-y,1/2+z
loop_
_atom_site_type_symbol
_atom_site_label
_atom_site_fract_x
_atom_site_fract_y
_atom_site_fract_z
Si Si1 0.417089 0.305967 0.933295
Si Si2 0.880899 0.102084 0.065638
Si Si3 0.206527 0.194731 0.066552
Si Si4 0.764772 0.194093 0.567622
Si Si5 0.209833 0.494709 0.433972
Si Si6 0.907995 0.597190 0.065622
Si Si7 0.592845 0.477749 0.933044
Si Si8 0.582999 0.133987 0.932762
O O1 0.425583 0.305429 0.750000
O O2 0.311799 0.317188 0.973694
O O3 0.437887 0.250000 0.000000
O O4 0.487583 0.345339 0.004684
O O5 0.876666 0.106158 0.250000
O O6 0.986385 0.096755 0.019774
O O7 0.827851 0.050495 0.020819
O O8 0.834295 0.151846 0.995414
O O9 0.201955 0.197973 0.250000
O O10 0.140911 0.149417 0.014925
O O11 0.183154 0.250000 0.000000
O O12 0.780300 0.250000 0.500000
O O13 0.771660 0.196304 0.750000
O O14 0.663469 0.173632 0.527985
O O15 0.204842 0.491760 0.250000
O O16 0.147841 0.450694 0.503170
O O17 0.316045 0.491541 0.479159
O O18 0.904915 0.595542 0.250000
O O19 0.587938 0.477815 0.750000
O O20 0.500000 0.500000 0.000000
O O21 0.604199 0.420202 0.991969
O O22 0.579556 0.128590 0.750000
#
# Coordination Sequence:
#
# PCOD9437203 Si02
#       8
#     8   8   8   8   8   8   8   8
#     4  10  20  35  56  82 114 153 194 239 289 349
#     4  10  21  41  63  87 121 157 200 253 305 357
#     4   9  20  38  57  84 117 153 193 237 294 350
#     4  11  24  40  62  90 122 162 205 253 309 368
#     4  10  22  40  62  89 120 158 200 246 299 357
#     4  10  22  38  62  91 119 155 199 249 302 362
#     4  11  24  41  61  89 124 161 199 245 299 358
#     4  11  23  39  60  88 119 156 201 246 301 365
#
# _framework density 18.984791000000001
#
# number of rings (size 3 to 8) (size 9 to 14) (size 15 to 20)
#    0.000    1.750    1.250    2.250    1.750    6.000 
#    0.000    1.250    0.000    0.000    0.000    0.000 
#    0.000    0.000    0.000    0.000    0.000    0.000 
#
# Total GULP energy -357648.395620 kJ/mol
# GULP energy per Si atom -5588.256182 kJ/mol
# Density = 1.894158 g / cm^3
# Si number density = 18.984791 Si / 1000 Ang^3
#
#
#
# Elastic Constant Matrix: (Units=GPa)
#
#
# Indices 1 2 3 4 5 6 
#
# 1 142.3492 81.3663 41.7436 0.0000 0.0000 0.0000
# 2 81.3663 126.6031 32.5094 0.0000 0.0000 0.0000
# 3 41.7436 32.5094 32.0171 0.0000 0.0000 0.0000
# 4 0.0000 0.0000 0.0000 38.3994 0.0000 0.0000
# 5 0.0000 0.0000 0.0000 0.0000 24.5467 0.0000
# 6 0.0000 0.0000 0.0000 0.0000 0.0000 14.6063
#
#
#
# Elastic Compliance Matrix: (Units=1/GPa)
#
#
# Indices 1 2 3 4 5 6 
#
# 1 0.013949 -0.005810 -0.012288 0.000000 0.000000 0.000000
# 2 -0.005810 0.013104 -0.005731 0.000000 0.000000 0.000000
# 3 -0.012288 -0.005731 0.053073 0.000000 0.000000 0.000000
# 4 0.000000 0.000000 0.000000 0.026042 0.000000 0.000000
# 5 0.000000 0.000000 0.000000 0.000000 0.040739 0.000000
# 6 0.000000 0.000000 0.000000 0.000000 0.000000 0.068463
#
#
# Mechanical properties :
#
#
# Convention : Reuss Voigt Hill
#
# Bulk Modulus (GPa) = 30.79812 68.02309 49.41060
# Shear Modulus (GPa) = 18.25813 25.20049 21.72931
#
# Velocity S-wave (km/s) = 3.10453 3.64731 3.38681
# Velocity P-wave (km/s) = 5.39524 7.32429 6.43249
#
# Compressibility (1/GPa) = 0.03246952
#
# Stress axis : x y z
#
# Youngs Moduli (GPa) = 71.68925 76.31190 18.84192
#
# Poissons Ratio (x) = 0.44334 0.23152
# Poissons Ratio (y) = 0.41649 0.10798
# Poissons Ratio (z) = 0.88090 0.43735
#
# Static dielectric constant tensor:
#      x y z
#    x 1.658250 0.000000 0.000000 
#    y 0.000000 1.745450 0.000000 
#    z 0.000000 0.000000 1.638050 
# 
# From -- ./inp_files/5573.got.cif
#   From: 2010.05.17/outbox.cif.g08.bks.cpg/sg57_3_cif.got.tgz:5573.got - 2010.06.03 13:58:18.
