data_PCOD9437423
_publ_section_title
;
Structure prediction by ZEFSAII (Michael W. Deem and Ramdas Pophale) SiO2 
 PCOD9437423
Probable space group: P B C M
;
_chemical_formula_sum "Si O2"
_cell_formula_units_Z 40
_cell_length_a 12.011943
_cell_length_b 22.208746
_cell_length_c 8.342571
_cell_angle_alpha 90.000000
_cell_angle_beta 90.000000
_cell_angle_gamma 90.000000
_cell_volume 2225.549260
_symmetry_space_group_name_H-M "P B C M"
_symmetry_group_IT_number 57
_symmetry_cell_setting 'orthorhombic'
loop_
_space_group_symop_operation_xyz
x,y,z
-x,-y,1/2+z
x,1/2-y,-z
-x,1/2+y,1/2-z
-x,-y,-z
x,y,1/2-z
-x,1/2+y,z
x,1/2-y,1/2+z
loop_
_atom_site_type_symbol
_atom_site_label
_atom_site_fract_x
_atom_site_fract_y
_atom_site_fract_z
Si Si1 0.831461 0.038873 0.942743
Si Si2 0.475982 0.182470 0.057256
Si Si3 0.577424 0.055921 0.557180
Si Si4 0.050322 0.415446 0.943677
Si Si5 0.220285 0.315435 0.557053
O O1 0.827675 0.037967 0.750000
O O2 0.705195 0.046431 0.999431
O O3 0.886650 0.976188 0.998178
O O4 0.923939 0.086903 0.996133
O O5 0.479855 0.182969 0.250000
O O6 0.347263 0.174085 0.002673
O O7 0.511323 0.250000 0.000000
O O8 0.538729 0.122521 0.997824
O O9 0.575937 0.054604 0.750000
O O10 0.500000 0.000000 0.500000
O O11 0.047577 0.416077 0.750000
O O12 0.129676 0.362442 0.000778
O O13 0.187415 0.250000 0.500000
O O14 0.222780 0.318281 0.750000
#
# Coordination Sequence:
#
# PCOD9437423 Si02
#       5
#     8   8   8   8   8
#     4   9  19  34  51  73 101 131 165 208 256 305
#     4  10  20  36  56  79 109 142 177 218 265 316
#     4  11  22  36  55  80 109 141 179 221 265 313
#     4   9  17  32  52  73  99 130 163 203 253 304
#     4   9  18  32  51  75 102 131 165 207 252 300
#
# _framework density 17.973092000000001
#
# number of rings (size 3 to 8) (size 9 to 14) (size 15 to 20)
#    0.000    2.400    0.000    2.400    0.000    6.400 
#    0.000    5.000    0.000    2.400    0.000    0.000 
#    0.000    0.000    0.000    0.000    0.000    0.000 
#
# Total GULP energy -222891.270720 kJ/mol
# GULP energy per Si atom -5572.281768 kJ/mol
# Density = 1.793218 g / cm^3
# Si number density = 17.973092 Si / 1000 Ang^3
#
#
#
# Elastic Constant Matrix: (Units=GPa)
#
#
# Indices 1 2 3 4 5 6 
#
# 1 149.0989 98.6441 22.0285 0.0000 0.0000 0.0000
# 2 98.6441 125.2397 22.8753 0.0000 0.0000 0.0000
# 3 22.0285 22.8753 23.9383 0.0000 0.0000 0.0000
# 4 0.0000 0.0000 0.0000 30.6018 0.0000 0.0000
# 5 0.0000 0.0000 0.0000 0.0000 24.6324 0.0000
# 6 0.0000 0.0000 0.0000 0.0000 0.0000 48.1845
#
#
#
# Elastic Compliance Matrix: (Units=1/GPa)
#
#
# Indices 1 2 3 4 5 6 
#
# 1 0.014167 -0.010633 -0.002876 0.000000 0.000000 0.000000
# 2 -0.010633 0.017654 -0.007085 0.000000 0.000000 0.000000
# 3 -0.002876 -0.007085 0.051191 0.000000 0.000000 0.000000
# 4 0.000000 0.000000 0.000000 0.032678 0.000000 0.000000
# 5 0.000000 0.000000 0.000000 0.000000 0.040597 0.000000
# 6 0.000000 0.000000 0.000000 0.000000 0.000000 0.020754
#
#
# Mechanical properties :
#
#
# Convention : Reuss Voigt Hill
#
# Bulk Modulus (GPa) = 23.90992 65.04142 44.47567
# Shear Modulus (GPa) = 21.53611 30.99900 26.26755
#
# Velocity S-wave (km/s) = 3.46532 4.15751 3.82710
# Velocity P-wave (km/s) = 5.41694 7.70151 6.65795
#
# Compressibility (1/GPa) = 0.04182365
#
# Stress axis : x y z
#
# Youngs Moduli (GPa) = 70.58849 56.64498 19.53479
#
# Poissons Ratio (x) = 0.60231 0.05617
# Poissons Ratio (y) = 0.75057 0.13841
# Poissons Ratio (z) = 0.20298 0.40134
#
# Static dielectric constant tensor:
#      x y z
#    x 1.625880 0.000000 0.000000 
#    y 0.000000 1.622150 0.000000 
#    z 0.000000 0.000000 1.629360 
# 
# From -- ./inp_files/2864.got.cif
#   From: 2010.05.17/outbox.cif.g08.bks.cpg/sg57_2_cif.got.tgz:2864.got - 2010.06.03 13:58:18.
