data_PCOD9437561
_publ_section_title
;
Structure prediction by ZEFSAII (Michael W. Deem and Ramdas Pophale) SiO2 
 PCOD9437561
Probable space group: P B C M
;
_chemical_formula_sum "Si O2"
_cell_formula_units_Z 64
_cell_length_a 21.945807
_cell_length_b 17.841922
_cell_length_c 8.565902
_cell_angle_alpha 90.000000
_cell_angle_beta 90.000000
_cell_angle_gamma 90.000000
_cell_volume 3354.024985
_symmetry_space_group_name_H-M "P B C M"
_symmetry_group_IT_number 57
_symmetry_cell_setting 'orthorhombic'
loop_
_space_group_symop_operation_xyz
x,y,z
-x,-y,1/2+z
x,1/2-y,-z
-x,1/2+y,1/2-z
-x,-y,-z
x,y,1/2-z
-x,1/2+y,z
x,1/2-y,1/2+z
loop_
_atom_site_type_symbol
_atom_site_label
_atom_site_fract_x
_atom_site_fract_y
_atom_site_fract_z
Si Si1 0.309200 0.555843 0.063480
Si Si2 0.004991 0.668450 0.565695
Si Si3 0.115795 0.394702 0.564722
Si Si4 0.106128 0.938609 0.565033
Si Si5 0.566159 0.519283 0.563647
Si Si6 0.785752 0.334217 0.064273
Si Si7 0.252540 0.095970 0.437478
Si Si8 0.377548 0.330045 0.935801
O O1 0.307782 0.566457 0.250000
O O2 0.378288 0.535651 0.013092
O O3 0.277920 0.626133 0.980744
O O4 0.269475 0.482249 0.019847
O O5 0.021661 0.750000 0.500000
O O6 0.016501 0.665291 0.750000
O O7 0.934683 0.651361 0.527986
O O8 0.045019 0.605742 0.479806
O O9 0.107296 0.382806 0.750000
O O10 0.108305 0.482617 0.524618
O O11 0.185444 0.376203 0.520938
O O12 0.109005 0.952330 0.750000
O O13 0.161815 0.885540 0.512604
O O14 0.500000 0.500000 0.500000
O O15 0.565159 0.517178 0.750000
O O16 0.584965 0.601746 0.507715
O O17 0.794046 0.334185 0.250000
O O18 0.789025 0.250000 0.000000
O O19 0.253074 0.082338 0.250000
O O20 0.306791 0.152948 0.475545
O O21 0.383626 0.331946 0.750000
O O22 0.396249 0.250000 0.000000
#
# Coordination Sequence:
#
# PCOD9437561 Si02
#       8
#     8   8   8   8   8   8   8   8
#     4  10  20  36  59  87 119 152 193 239 287 346
#     4  12  26  44  61  82 114 154 197 249 305 360
#     4  11  22  39  62  90 119 154 198 244 295 356
#     4  12  24  41  63  88 116 152 197 246 298 358
#     4  10  21  38  62  91 122 161 204 247 292 349
#     4  12  24  39  60  88 120 155 194 243 299 356
#     4   9  19  35  58  85 117 154 193 237 290 348
#     4  10  20  36  58  88 123 161 201 248 297 348
#
# _framework density 19.081551000000001
#
# number of rings (size 3 to 8) (size 9 to 14) (size 15 to 20)
#    0.000    1.250    1.250    5.625    0.000    3.000 
#    0.000    1.875    0.000    3.000    0.000    0.000 
#    0.000    0.000    0.000    0.000    0.000    0.000 
#
# Total GULP energy -357888.599437 kJ/mol
# GULP energy per Si atom -5592.009366 kJ/mol
# Density = 1.903812 g / cm^3
# Si number density = 19.081551 Si / 1000 Ang^3
#
#
#
# Elastic Constant Matrix: (Units=GPa)
#
#
# Indices 1 2 3 4 5 6 
#
# 1 95.4271 -0.5103 9.6837 0.0000 0.0000 0.0000
# 2 -0.5103 36.4808 -5.2094 0.0000 0.0000 0.0000
# 3 9.6837 -5.2094 48.2781 0.0000 0.0000 0.0000
# 4 0.0000 0.0000 0.0000 31.5262 0.0000 0.0000
# 5 0.0000 0.0000 0.0000 0.0000 31.7623 0.0000
# 6 0.0000 0.0000 0.0000 0.0000 0.0000 10.4672
#
#
#
# Elastic Compliance Matrix: (Units=1/GPa)
#
#
# Indices 1 2 3 4 5 6 
#
# 1 0.010698 -0.000159 -0.002163 0.000000 0.000000 0.000000
# 2 -0.000159 0.027843 0.003036 0.000000 0.000000 0.000000
# 3 -0.002163 0.003036 0.021475 0.000000 0.000000 0.000000
# 4 0.000000 0.000000 0.000000 0.031720 0.000000 0.000000
# 5 0.000000 0.000000 0.000000 0.000000 0.031484 0.000000
# 6 0.000000 0.000000 0.000000 0.000000 0.000000 0.095536
#
#
# Mechanical properties :
#
#
# Convention : Reuss Voigt Hill
#
# Bulk Modulus (GPa) = 16.27502 20.90157 18.58829
# Shear Modulus (GPa) = 21.02531 26.49926 23.76228
#
# Velocity S-wave (km/s) = 3.32304 3.73062 3.53271
# Velocity P-wave (km/s) = 4.82402 5.43455 5.13836
#
# Compressibility (1/GPa) = 0.06144386
#
# Stress axis : x y z
#
# Youngs Moduli (GPa) = 93.47675 35.91566 46.56615
#
# Poissons Ratio (x) = 0.00572 0.10072
# Poissons Ratio (y) = 0.01488 -0.14139
# Poissons Ratio (z) = 0.20219 -0.10905
#
# Static dielectric constant tensor:
#      x y z
#    x 1.679590 0.000000 0.000000 
#    y 0.000000 1.627860 0.000000 
#    z 0.000000 0.000000 1.635370 
# 
# From -- ./inp_files/8433.got.cif
#   From: 2010.05.17/outbox.cif.g08.bks.cpg/sg57_5_cif.got.tgz:8433.got - 2010.06.03 13:58:18.
