data_PCOD9437472
_publ_section_title
;
Structure prediction by ZEFSAII (Michael W. Deem and Ramdas Pophale) SiO2 
 PCOD9437472
Probable space group: P B C M
;
_chemical_formula_sum "Si O2"
_cell_formula_units_Z 64
_cell_length_a 26.937461
_cell_length_b 15.035639
_cell_length_c 8.643110
_cell_angle_alpha 90.000000
_cell_angle_beta 90.000000
_cell_angle_gamma 90.000000
_cell_volume 3500.649173
_symmetry_space_group_name_H-M "P B C M"
_symmetry_group_IT_number 57
_symmetry_cell_setting 'orthorhombic'
loop_
_space_group_symop_operation_xyz
x,y,z
-x,-y,1/2+z
x,1/2-y,-z
-x,1/2+y,1/2-z
-x,-y,-z
x,y,1/2-z
-x,1/2+y,z
x,1/2-y,1/2+z
loop_
_atom_site_type_symbol
_atom_site_label
_atom_site_fract_x
_atom_site_fract_y
_atom_site_fract_z
Si Si1 0.500586 0.649314 0.935688
Si Si2 0.055391 0.001561 0.064342
Si Si3 0.238701 0.151531 0.563843
Si Si4 0.313625 0.998504 0.564120
Si Si5 0.873429 0.849139 0.064154
Si Si6 0.870091 0.348543 0.063814
Si Si7 0.242188 0.650672 0.563988
Si Si8 0.424333 0.494408 0.564509
O O1 0.502391 0.654434 0.750000
O O2 0.454224 0.584835 0.980131
O O3 0.498217 0.750000 0.000000
O O4 0.547429 0.591617 0.995575
O O5 0.053797 0.001358 0.250000
O O6 0.087839 0.916642 0.011270
O O7 0.085676 0.086611 0.006065
O O8 0.000000 0.000000 0.000000
O O9 0.247075 0.250000 0.500000
O O10 0.239509 0.155189 0.750000
O O11 0.182800 0.122646 0.518395
O O12 0.280654 0.083028 0.512563
O O13 0.316758 0.998864 0.750000
O O14 0.283013 0.913214 0.508076
O O15 0.368351 0.001177 0.494377
O O16 0.876636 0.849165 0.250000
O O17 0.880072 0.750000 0.000000
O O18 0.871131 0.344891 0.250000
O O19 0.814132 0.377696 0.019345
O O20 0.878189 0.250000 0.000000
O O21 0.248517 0.750000 0.500000
O O22 0.245812 0.650273 0.750000
O O23 0.425830 0.488182 0.750000
#
# Coordination Sequence:
#
# PCOD9437472 Si02
#       8
#     8   8   8   8   8   8   8   8
#     4  10  21  39  63  86 110 145 189 235 283 333
#     4  11  23  38  55  80 110 142 181 227 278 332
#     4   9  20  36  56  82 111 145 185 226 272 327
#     4  11  22  36  55  83 119 153 185 228 276 325
#     4  10  20  37  59  82 108 142 183 227 275 329
#     4   9  20  37  58  81 107 140 181 226 274 329
#     4  10  20  36  57  82 110 144 184 226 274 330
#     4  10  22  39  58  84 116 150 190 233 278 329
#
# _framework density 18.282323000000002
#
# number of rings (size 3 to 8) (size 9 to 14) (size 15 to 20)
#    0.000    2.000    0.000    3.000    0.000    6.000 
#    0.000    3.750    0.000    0.000    0.000    0.000 
#    0.000    0.000    0.000    0.000    0.000    0.000 
#
# Total GULP energy -357399.677319 kJ/mol
# GULP energy per Si atom -5584.369958 kJ/mol
# Density = 1.824071 g / cm^3
# Si number density = 18.282323 Si / 1000 Ang^3
#
#
#
# Elastic Constant Matrix: (Units=GPa)
#
#
# Indices 1 2 3 4 5 6 
#
# 1 193.0181 109.5179 47.5404 0.0000 0.0000 0.0000
# 2 109.5179 136.1741 37.6815 0.0000 0.0000 0.0000
# 3 47.5404 37.6815 45.4222 0.0000 0.0000 0.0000
# 4 0.0000 0.0000 0.0000 33.8355 0.0000 0.0000
# 5 0.0000 0.0000 0.0000 0.0000 42.7065 0.0000
# 6 0.0000 0.0000 0.0000 0.0000 0.0000 79.9799
#
#
#
# Elastic Compliance Matrix: (Units=1/GPa)
#
#
# Indices 1 2 3 4 5 6 
#
# 1 0.010368 -0.006926 -0.005106 0.000000 0.000000 0.000000
# 2 -0.006926 0.014158 -0.004496 0.000000 0.000000 0.000000
# 3 -0.005106 -0.004496 0.031090 0.000000 0.000000 0.000000
# 4 0.000000 0.000000 0.000000 0.029555 0.000000 0.000000
# 5 0.000000 0.000000 0.000000 0.000000 0.023416 0.000000
# 6 0.000000 0.000000 0.000000 0.000000 0.000000 0.012503
#
#
# Mechanical properties :
#
#
# Convention : Reuss Voigt Hill
#
# Bulk Modulus (GPa) = 44.32734 84.89932 64.61333
# Shear Modulus (GPa) = 30.92804 43.29602 37.11203
#
# Velocity S-wave (km/s) = 4.11748 4.87168 4.51037
# Velocity P-wave (km/s) = 6.84861 8.84212 7.90843
#
# Compressibility (1/GPa) = 0.02255944
#
# Stress axis : x y z
#
# Youngs Moduli (GPa) = 96.45019 70.63334 32.16448
#
# Poissons Ratio (x) = 0.48917 0.16424
# Poissons Ratio (y) = 0.66797 0.14463
# Poissons Ratio (z) = 0.49250 0.31760
#
# Static dielectric constant tensor:
#      x y z
#    x 1.613070 0.000000 0.000000 
#    y 0.000000 1.599720 0.000000 
#    z 0.000000 0.000000 1.600730 
# 
# From -- ./inp_files/9303.got.cif
#   From: 2010.05.17/outbox.cif.g08.bks.cpg/sg57_5_cif.got.tgz:9303.got - 2010.06.03 13:58:18.
