data_PCOD9437487
_publ_section_title
;
Structure prediction by ZEFSAII (Michael W. Deem and Ramdas Pophale) SiO2 
 PCOD9437487
Probable space group: P B C M
;
_chemical_formula_sum "Si O2"
_cell_formula_units_Z 64
_cell_length_a 10.873907
_cell_length_b 33.103096
_cell_length_c 7.449079
_cell_angle_alpha 90.000000
_cell_angle_beta 90.000000
_cell_angle_gamma 90.000000
_cell_volume 2681.370382
_symmetry_space_group_name_H-M "P B C M"
_symmetry_group_IT_number 57
_symmetry_cell_setting 'orthorhombic'
loop_
_space_group_symop_operation_xyz
x,y,z
-x,-y,1/2+z
x,1/2-y,-z
-x,1/2+y,1/2-z
-x,-y,-z
x,y,1/2-z
-x,1/2+y,z
x,1/2-y,1/2+z
loop_
_atom_site_type_symbol
_atom_site_label
_atom_site_fract_x
_atom_site_fract_y
_atom_site_fract_z
Si Si1 0.317466 0.849001 0.029026
Si Si2 0.754621 0.594305 0.465346
Si Si3 0.632977 0.517389 0.036433
Si Si4 0.263003 0.563904 0.952616
Si Si5 0.541834 0.705563 0.535785
Si Si6 0.195034 0.314820 0.045952
Si Si7 0.920306 0.202641 0.964534
Si Si8 0.003334 0.547441 0.039205
O O1 0.315598 0.849389 0.250000
O O2 0.315886 0.895384 0.965485
O O3 0.442096 0.826703 0.970763
O O4 0.194039 0.824878 0.970963
O O5 0.745157 0.601067 0.250000
O O6 0.649672 0.563164 0.529510
O O7 0.771717 0.637824 0.549096
O O8 0.875794 0.568215 0.506211
O O9 0.659189 0.520914 0.250000
O O10 0.716486 0.480516 0.964609
O O11 0.500000 0.500000 0.000000
O O12 0.313328 0.561345 0.750000
O O13 0.116914 0.568666 0.945016
O O14 0.490896 0.750000 0.500000
O O15 0.552205 0.699417 0.750000
O O16 0.680938 0.703504 0.460798
O O17 0.186332 0.298838 0.250000
O O18 0.058510 0.308119 0.966403
O O19 0.923761 0.196349 0.750000
O O20 0.897118 0.250000 0.000000
O O21 0.022024 0.552929 0.250000
O O22 0.000000 0.500000 0.000000
#
# Coordination Sequence:
#
# PCOD9437487 Si02
#       8
#     8   8   8   8   8   8   8   8
#     4   9  19  35  58  83 112 148 186 229 279 338
#     4  10  22  39  56  82 117 148 186 236 285 330
#     4  10  22  38  56  80 113 154 195 235 281 333
#     4  10  20  38  60  82 114 152 190 237 287 331
#     4  10  21  38  59  85 113 146 188 231 281 344
#     4  10  22  37  58  86 112 145 193 233 275 343
#     4  10  20  36  57  84 112 143 183 227 278 339
#     4  11  21  36  57  82 112 147 189 235 284 339
#
# _framework density 23.868390999999999
#
# number of rings (size 3 to 8) (size 9 to 14) (size 15 to 20)
#    0.000    2.000    1.250    1.875    1.750    4.000 
#    0.000    1.250    0.000    0.000    0.000    0.000 
#    0.000    0.000    0.000    0.000    0.000    0.000 
#
# Total GULP energy -357420.684298 kJ/mol
# GULP energy per Si atom -5584.698192 kJ/mol
# Density = 2.381407 g / cm^3
# Si number density = 23.868391 Si / 1000 Ang^3
#
#
#
# Elastic Constant Matrix: (Units=GPa)
#
#
# Indices 1 2 3 4 5 6 
#
# 1 70.1840 -11.9747 7.7816 0.0000 0.0000 0.0000
# 2 -11.9747 96.0565 -2.3959 0.0000 0.0000 0.0000
# 3 7.7816 -2.3959 65.6655 0.0000 0.0000 0.0000
# 4 0.0000 0.0000 0.0000 18.7677 0.0000 0.0000
# 5 0.0000 0.0000 0.0000 0.0000 -1.3434 0.0000
# 6 0.0000 0.0000 0.0000 0.0000 0.0000 39.4735
#
#
#
# Elastic Compliance Matrix: (Units=1/GPa)
#
#
# Indices 1 2 3 4 5 6 
#
# 1 0.014741 0.001796 -0.001681 0.000000 0.000000 0.000000
# 2 0.001796 0.010639 0.000175 0.000000 0.000000 0.000000
# 3 -0.001681 0.000175 0.015434 0.000000 0.000000 0.000000
# 4 0.000000 0.000000 0.000000 0.053283 0.000000 0.000000
# 5 0.000000 0.000000 0.000000 0.000000 -0.744371 0.000000
# 6 0.000000 0.000000 0.000000 0.000000 0.000000 0.025333
#
#
# Mechanical properties :
#
#
# Convention : Reuss Voigt Hill
#
# Bulk Modulus (GPa) = 24.15829 24.30312 24.23071
# Shear Modulus (GPa) = -8.17365 27.27923 9.55279
#
# Velocity S-wave (km/s) = -1.85254 3.38435 2.00274
# Velocity P-wave (km/s) = 2.35957 5.04738 3.93977
#
# Compressibility (1/GPa) = 0.04139366
#
# Stress axis : x y z
#
# Youngs Moduli (GPa) = 67.83774 93.99584 64.79062
#
# Poissons Ratio (x) = -0.16879 0.10894
# Poissons Ratio (y) = -0.12182 -0.01136
# Poissons Ratio (z) = 0.11406 -0.01648
#
# Static dielectric constant tensor:
#      x y z
#    x 1.926110 0.000000 0.000000 
#    y 0.000000 1.898180 0.000000 
#    z 0.000000 0.000000 1.840790 
# 
# From -- ./inp_files/3731.got.cif
#   From: 2010.05.17/outbox.cif.g08.bks.cpg/sg57_2_cif.got.tgz:3731.got - 2010.06.03 13:58:18.
