data_PCOD9437732
_publ_section_title
;
Structure prediction by ZEFSAII (Michael W. Deem and Ramdas Pophale) SiO2 
 PCOD9437732
Probable space group: P B C M
;
_chemical_formula_sum "Si O2"
_cell_formula_units_Z 32
_cell_length_a 8.414919
_cell_length_b 9.459669
_cell_length_c 15.482921
_cell_angle_alpha 90.000000
_cell_angle_beta 90.000000
_cell_angle_gamma 90.000000
_cell_volume 1232.476872
_symmetry_space_group_name_H-M "P B C M"
_symmetry_group_IT_number 57
_symmetry_cell_setting 'orthorhombic'
loop_
_space_group_symop_operation_xyz
x,y,z
-x,-y,1/2+z
x,1/2-y,-z
-x,1/2+y,1/2-z
-x,-y,-z
x,y,1/2-z
-x,1/2+y,z
x,1/2-y,1/2+z
loop_
_atom_site_type_symbol
_atom_site_label
_atom_site_fract_x
_atom_site_fract_y
_atom_site_fract_z
Si Si1 0.300479 0.736941 0.354509
Si Si2 0.992385 0.420416 0.089737
Si Si3 0.495164 0.502233 0.645246
Si Si4 0.189557 0.328490 0.848526
O O1 0.273339 0.741962 0.250000
O O2 0.153934 0.811207 0.399792
O O3 0.348490 0.580552 0.383889
O O4 0.452974 0.837071 0.373834
O O5 0.949905 0.551766 0.152470
O O6 0.137895 0.314754 0.105496
O O7 0.000000 0.500000 0.000000
O O8 0.497919 0.492736 0.750000
O O9 0.340847 0.412903 0.615721
O O10 0.223881 0.287872 0.750000
#
# Coordination Sequence:
#
# PCOD9437732 Si02
#       4
#     8   8   8   8
#     4   9  17  33  55  82 111 144 185 233 280 332
#     4  11  22  36  55  83 118 151 184 231 284 335
#     4   8  16  30  52  79 107 137 182 234 276 321
#     4  10  20  37  58  82 110 148 191 232 276 334
#
# _framework density 25.963975999999999
#
# number of rings (size 3 to 8) (size 9 to 14) (size 15 to 20)
#    0.000    2.500    0.000    4.500    0.000    2.000 
#    0.000    6.250    0.000    3.000    0.000    0.000 
#    0.000    0.000    0.000    0.000    0.000    0.000 
#
# Total GULP energy -178990.328428 kJ/mol
# GULP energy per Si atom -5593.447763 kJ/mol
# Density = 2.590488 g / cm^3
# Si number density = 25.963976 Si / 1000 Ang^3
#
#
#
# Elastic Constant Matrix: (Units=GPa)
#
#
# Indices 1 2 3 4 5 6 
#
# 1 39.1148 41.0820 5.8636 0.0000 0.0000 0.0000
# 2 41.0820 140.5921 7.9561 0.0000 0.0000 0.0000
# 3 5.8636 7.9561 51.5408 0.0000 0.0000 0.0000
# 4 0.0000 0.0000 0.0000 28.4985 0.0000 0.0000
# 5 0.0000 0.0000 0.0000 0.0000 -87.0721 0.0000
# 6 0.0000 0.0000 0.0000 0.0000 0.0000 44.7550
#
#
#
# Elastic Compliance Matrix: (Units=1/GPa)
#
#
# Indices 1 2 3 4 5 6 
#
# 1 0.037223 -0.010731 -0.002578 0.000000 0.000000 0.000000
# 2 -0.010731 0.010269 -0.000364 0.000000 0.000000 0.000000
# 3 -0.002578 -0.000364 0.019752 0.000000 0.000000 0.000000
# 4 0.000000 0.000000 0.000000 0.035090 0.000000 0.000000
# 5 0.000000 0.000000 0.000000 0.000000 -0.011485 0.000000
# 6 0.000000 0.000000 0.000000 0.000000 0.000000 0.022344
#
#
# Mechanical properties :
#
#
# Convention : Reuss Voigt Hill
#
# Bulk Modulus (GPa) = 25.06480 37.89455 31.47967
# Shear Modulus (GPa) = 32.50177 8.99270 20.74723
#
# Velocity S-wave (km/s) = 3.54192 1.86308 2.82986
# Velocity P-wave (km/s) = 5.13825 4.38803 4.77789
#
# Compressibility (1/GPa) = 0.03989659
#
# Stress axis : x y z
#
# Youngs Moduli (GPa) = 26.86530 97.38032 50.62866
#
# Poissons Ratio (x) = 1.04497 0.13053
# Poissons Ratio (y) = 0.28829 0.01845
# Poissons Ratio (z) = 0.06926 0.03548
#
# Static dielectric constant tensor:
#      x y z
#    x 2.142460 0.000000 0.000000 
#    y 0.000000 1.993150 0.000000 
#    z 0.000000 0.000000 2.031160 
# 
# From -- ./inp_files/15484.got.cif
#   From: 2010.05.17/outbox.cif.g08.bks.cpg/sg57_8_cif.got.tgz:15484.got - 2010.06.03 13:58:18.
