data_PCOD9437928
_publ_section_title
;
Structure prediction by ZEFSAII (Michael W. Deem and Ramdas Pophale) SiO2 
 PCOD9437928
Probable space group: P B C M
;
_chemical_formula_sum "Si O2"
_cell_formula_units_Z 40
_cell_length_a 4.977900
_cell_length_b 20.759309
_cell_length_c 18.773959
_cell_angle_alpha 90.000000
_cell_angle_beta 90.000000
_cell_angle_gamma 90.000000
_cell_volume 1940.058950
_symmetry_space_group_name_H-M "P B C M"
_symmetry_group_IT_number 57
_symmetry_cell_setting 'orthorhombic'
loop_
_space_group_symop_operation_xyz
x,y,z
-x,-y,1/2+z
x,1/2-y,-z
-x,1/2+y,1/2-z
-x,-y,-z
x,y,1/2-z
-x,1/2+y,z
x,1/2-y,1/2+z
loop_
_atom_site_type_symbol
_atom_site_label
_atom_site_fract_x
_atom_site_fract_y
_atom_site_fract_z
Si Si1 0.179952 0.494864 0.373761
Si Si2 0.069290 0.376366 0.877145
Si Si3 0.342034 0.590344 0.630144
Si Si4 0.588229 0.305478 0.250000
Si Si5 0.087354 0.219975 0.250000
Si Si6 0.398285 0.903229 0.532870
O O1 0.444769 0.462754 0.341934
O O2 0.274094 0.525672 0.449671
O O3 0.053548 0.559329 0.339777
O O4 0.949541 0.441859 0.376153
O O5 0.135899 0.322920 0.819757
O O6 0.328697 0.395864 0.922985
O O7 0.829534 0.357765 0.931652
O O8 0.349008 0.650762 0.681709
O O9 0.432258 0.607680 0.550154
O O10 0.283738 0.281036 0.250000
O O11 0.781989 0.244066 0.250000
#
# Coordination Sequence:
#
# PCOD9437928 Si02
#       6
#     8   8   8   4   4   8
#     4  10  20  37  66  98 124 157 187 259 320 366
#     4  10  22  38  68  93 116 163 210 250 320 343
#     4  12  22  40  63  94 141 149 207 238 322 403
#     4  12  30  44  61  85 122 190 196 256 316 350
#     4  12  26  52  59  79 132 166 224 266 292 352
#     4  10  20  38  63 106 117 164 188 258 323 365
#
# _framework density 20.617930999999999
#
# number of rings (size 3 to 8) (size 9 to 14) (size 15 to 20)
#    1.200    0.000    2.000    4.800    0.000    1.600 
#    0.000    6.000    0.000    0.000    0.000    0.000 
#    0.000    0.000    0.000    0.000    0.000    0.000 
#
# Total GULP energy -223200.336606 kJ/mol
# GULP energy per Si atom -5580.008415 kJ/mol
# Density = 2.057100 g / cm^3
# Si number density = 20.617931 Si / 1000 Ang^3
#
#
#
# Elastic Constant Matrix: (Units=GPa)
#
#
# Indices 1 2 3 4 5 6 
#
# 1 116.0276 5.6266 21.3679 0.0000 0.0000 0.0000
# 2 5.6266 52.8153 43.0835 0.0000 0.0000 0.0000
# 3 21.3679 43.0835 103.1011 0.0000 0.0000 0.0000
# 4 0.0000 0.0000 0.0000 24.2863 0.0000 0.0000
# 5 0.0000 0.0000 0.0000 0.0000 13.7834 0.0000
# 6 0.0000 0.0000 0.0000 0.0000 0.0000 31.3779
#
#
#
# Elastic Compliance Matrix: (Units=1/GPa)
#
#
# Indices 1 2 3 4 5 6 
#
# 1 0.008986 0.000852 -0.002219 0.000000 0.000000 0.000000
# 2 0.000852 0.028807 -0.012214 0.000000 0.000000 0.000000
# 3 -0.002219 -0.012214 0.015263 0.000000 0.000000 0.000000
# 4 0.000000 0.000000 0.000000 0.041175 0.000000 0.000000
# 5 0.000000 0.000000 0.000000 0.000000 0.072551 0.000000
# 6 0.000000 0.000000 0.000000 0.000000 0.000000 0.031870
#
#
# Mechanical properties :
#
#
# Convention : Reuss Voigt Hill
#
# Bulk Modulus (GPa) = 38.61766 45.78889 42.20328
# Shear Modulus (GPa) = 21.32699 27.34724 24.33711
#
# Velocity S-wave (km/s) = 3.21968 3.64590 3.43940
# Velocity P-wave (km/s) = 5.70899 6.32297 6.02381
#
# Compressibility (1/GPa) = 0.02589489
#
# Stress axis : x y z
#
# Youngs Moduli (GPa) = 111.28578 34.71397 65.51737
#
# Poissons Ratio (x) = -0.02959 0.14535
# Poissons Ratio (y) = -0.09487 0.80025
# Poissons Ratio (z) = 0.24689 0.42401
#
# Static dielectric constant tensor:
#      x y z
#    x 1.741330 0.000000 0.000000 
#    y 0.000000 1.748400 0.000000 
#    z 0.000000 0.000000 1.730360 
# 
# From -- ./inp_files/20138.got.cif
#   From: 2010.05.17/outbox.cif.g08.bks.cpg/sg57_11_cif.got.tgz:20138.got - 2010.06.03 13:58:18.
