data_PCOD9437036
_publ_section_title
;
Structure prediction by ZEFSAII (Michael W. Deem and Ramdas Pophale) SiO2 
 PCOD9437036
Probable space group: P B C M
;
_chemical_formula_sum "Si O2"
_cell_formula_units_Z 64
_cell_length_a 22.348824
_cell_length_b 20.092337
_cell_length_c 8.871031
_cell_angle_alpha 90.000000
_cell_angle_beta 90.000000
_cell_angle_gamma 90.000000
_cell_volume 3983.448677
_symmetry_space_group_name_H-M "P B C M"
_symmetry_group_IT_number 57
_symmetry_cell_setting 'orthorhombic'
loop_
_space_group_symop_operation_xyz
x,y,z
-x,-y,1/2+z
x,1/2-y,-z
-x,1/2+y,1/2-z
-x,-y,-z
x,y,1/2-z
-x,1/2+y,z
x,1/2-y,1/2+z
loop_
_atom_site_type_symbol
_atom_site_label
_atom_site_fract_x
_atom_site_fract_y
_atom_site_fract_z
Si Si1 0.017776 0.606454 0.422282
Si Si2 0.193680 0.950740 0.566961
Si Si3 0.383509 0.682482 0.069659
Si Si4 0.477269 0.318294 0.930746
Si Si5 0.668742 0.458151 0.931525
Si Si6 0.441529 0.036110 0.068899
Si Si7 0.872580 0.177181 0.569666
Si Si8 0.913986 0.536354 0.576760
O O1 0.016350 0.630171 0.250000
O O2 0.952054 0.590244 0.485579
O O3 0.060503 0.653925 0.519784
O O4 0.049747 0.533799 0.422933
O O5 0.188166 0.943989 0.750000
O O6 0.261964 0.967767 0.530214
O O7 0.170429 0.881434 0.495466
O O8 0.150218 0.011325 0.519215
O O9 0.382694 0.687728 0.250000
O O10 0.452931 0.674827 0.022088
O O11 0.347764 0.617366 0.025605
O O12 0.359201 0.750000 0.000000
O O13 0.476350 0.313017 0.750000
O O14 0.444824 0.386141 0.974195
O O15 0.453618 0.250000 0.000000
O O16 0.661974 0.464355 0.750000
O O17 0.619397 0.504002 0.009186
O O18 0.445201 0.031062 0.250000
O O19 0.500000 0.000000 0.000000
O O20 0.859831 0.250000 0.500000
O O21 0.868081 0.179450 0.750000
O O22 0.909094 0.558465 0.750000
#
# Coordination Sequence:
#
# PCOD9437036 Si02
#       8
#     8   8   8   8   8   8   8   8
#     4   9  16  27  45  69  94 121 156 197 241 281
#     4   9  19  34  50  68  96 132 169 206 243 293
#     4   9  17  30  45  64  92 124 161 201 243 293
#     4   9  18  32  49  71  96 122 155 197 245 301
#     4  10  20  35  51  71 100 133 169 210 257 306
#     4  11  21  34  52  75 101 128 164 210 262 313
#     4  11  21  33  49  69  99 135 172 208 243 287
#     4   8  14  26  44  67  92 120 154 193 239 282
#
# _framework density 16.066479999999999
#
# number of rings (size 3 to 8) (size 9 to 14) (size 15 to 20)
#    0.000    2.500    1.250    2.625    0.000    5.500 
#    0.000    1.250    0.000    0.000    0.000    0.875 
#    0.000    2.000    0.000    0.000    0.000    0.000 
#
# Total GULP energy -356615.910425 kJ/mol
# GULP energy per Si atom -5572.123600 kJ/mol
# Density = 1.602991 g / cm^3
# Si number density = 16.066480 Si / 1000 Ang^3
#
#
#
# Elastic Constant Matrix: (Units=GPa)
#
#
# Indices 1 2 3 4 5 6 
#
# 1 117.5964 55.4639 38.0628 0.0000 0.0000 0.0000
# 2 55.4639 69.6705 27.1158 0.0000 0.0000 0.0000
# 3 38.0628 27.1158 49.5435 0.0000 0.0000 0.0000
# 4 0.0000 0.0000 0.0000 25.0591 0.0000 0.0000
# 5 0.0000 0.0000 0.0000 0.0000 19.8378 0.0000
# 6 0.0000 0.0000 0.0000 0.0000 0.0000 16.6341
#
#
#
# Elastic Compliance Matrix: (Units=1/GPa)
#
#
# Indices 1 2 3 4 5 6 
#
# 1 0.015042 -0.009501 -0.006356 0.000000 0.000000 0.000000
# 2 -0.009501 0.024239 -0.005967 0.000000 0.000000 0.000000
# 3 -0.006356 -0.005967 0.028334 0.000000 0.000000 0.000000
# 4 0.000000 0.000000 0.000000 0.039906 0.000000 0.000000
# 5 0.000000 0.000000 0.000000 0.000000 0.050409 0.000000
# 6 0.000000 0.000000 0.000000 0.000000 0.000000 0.060117
#
#
# Mechanical properties :
#
#
# Convention : Reuss Voigt Hill
#
# Bulk Modulus (GPa) = 41.72586 53.12171 47.42379
# Shear Modulus (GPa) = 18.54016 20.05073 19.29544
#
# Velocity S-wave (km/s) = 3.40069 3.53652 3.46927
# Velocity P-wave (km/s) = 6.43791 7.05772 6.75493
#
# Compressibility (1/GPa) = 0.02396595
#
# Stress axis : x y z
#
# Youngs Moduli (GPa) = 66.47986 41.25531 35.29374
#
# Poissons Ratio (x) = 0.39196 0.22434
# Poissons Ratio (y) = 0.63162 0.21060
# Poissons Ratio (z) = 0.42257 0.24618
#
# Static dielectric constant tensor:
#      x y z
#    x 1.553120 0.000000 0.000000 
#    y 0.000000 1.525330 0.000000 
#    z 0.000000 0.000000 1.547960 
# 
# From -- ./inp_files/7176.got.cif
#   From: 2010.05.17/outbox.cif.g08.bks.cpg/sg57_4_cif.got.tgz:7176.got - 2010.06.03 13:58:18.
