data_PCOD9437051
_publ_section_title
;
Structure prediction by ZEFSAII (Michael W. Deem and Ramdas Pophale) SiO2 
 PCOD9437051
Probable space group: P B C M
;
_chemical_formula_sum "Si O2"
_cell_formula_units_Z 64
_cell_length_a 23.502840
_cell_length_b 8.401165
_cell_length_c 14.192372
_cell_angle_alpha 90.000000
_cell_angle_beta 90.000000
_cell_angle_gamma 90.000000
_cell_volume 2802.301405
_symmetry_space_group_name_H-M "P B C M"
_symmetry_group_IT_number 57
_symmetry_cell_setting 'orthorhombic'
loop_
_space_group_symop_operation_xyz
x,y,z
-x,-y,1/2+z
x,1/2-y,-z
-x,1/2+y,1/2-z
-x,-y,-z
x,y,1/2-z
-x,1/2+y,z
x,1/2-y,1/2+z
loop_
_atom_site_type_symbol
_atom_site_label
_atom_site_fract_x
_atom_site_fract_y
_atom_site_fract_z
Si Si1 0.919480 0.925668 0.860820
Si Si2 0.530709 0.839369 0.634618
Si Si3 0.039154 0.064674 0.860597
Si Si4 0.579146 0.321197 0.135679
Si Si5 0.858801 0.430925 0.972303
Si Si6 0.305513 0.949372 0.142381
Si Si7 0.356963 0.187484 0.857717
Si Si8 0.748630 0.930594 0.469295
O O1 0.905344 0.946439 0.750000
O O2 0.941006 0.745618 0.875222
O O3 0.973725 0.035474 0.886788
O O4 0.869518 0.967501 0.932292
O O5 0.531865 0.836177 0.750000
O O6 0.466269 0.808327 0.604611
O O7 0.552174 0.011208 0.605717
O O8 0.578243 0.707995 0.606932
O O9 0.041744 0.028289 0.750000
O O10 0.084086 0.954280 0.912730
O O11 0.579455 0.320094 0.250000
O O12 0.645181 0.326879 0.111604
O O13 0.803746 0.500153 0.918201
O O14 0.850900 0.250000 0.000000
O O15 0.287444 0.917254 0.250000
O O16 0.333255 0.129154 0.143352
O O17 0.259281 0.961344 0.061837
O O18 0.358517 0.129963 0.750000
O O19 0.311831 0.084392 0.915788
O O20 0.761051 0.750000 0.500000
#
# Coordination Sequence:
#
# PCOD9437051 Si02
#       8
#     8   8   8   8   8   8   8   8
#     4  10  21  39  64  92 120 150 186 227 271 321
#     4   8  13  23  41  65  91 119 153 196 251 314
#     4  10  21  39  64  92 120 150 186 227 271 321
#     4   8  13  23  41  65  91 119 153 196 251 314
#     4  12  25  39  56  81 118 156 188 228 277 328
#     4   8  15  29  49  71  95 125 164 213 265 315
#     4   8  15  29  49  71  95 125 164 213 265 315
#     4  10  20  35  54  73  95 132 184 228 263 310
#
# _framework density 22.838373000000001
#
# number of rings (size 3 to 8) (size 9 to 14) (size 15 to 20)
#    0.000    2.750    0.000    3.750    0.000    2.500 
#    0.000    4.375    0.000    1.500    0.000    0.000 
#    0.000    0.000    0.000    0.000    0.000    0.000 
#
# Total GULP energy -357468.802774 kJ/mol
# GULP energy per Si atom -5585.450043 kJ/mol
# Density = 2.278639 g / cm^3
# Si number density = 22.838373 Si / 1000 Ang^3
#
#
#
# Elastic Constant Matrix: (Units=GPa)
#
#
# Indices 1 2 3 4 5 6 
#
# 1 61.6270 10.4490 16.6781 0.0000 0.0000 0.0000
# 2 10.4490 40.5054 8.6410 0.0000 0.0000 0.0000
# 3 16.6781 8.6410 63.8559 0.0000 0.0000 0.0000
# 4 0.0000 0.0000 0.0000 19.3357 0.0000 0.0000
# 5 0.0000 0.0000 0.0000 0.0000 22.4431 0.0000
# 6 0.0000 0.0000 0.0000 0.0000 0.0000 19.9587
#
#
#
# Elastic Compliance Matrix: (Units=1/GPa)
#
#
# Indices 1 2 3 4 5 6 
#
# 1 0.017997 -0.003748 -0.004193 0.000000 0.000000 0.000000
# 2 -0.003748 0.026202 -0.002567 0.000000 0.000000 0.000000
# 3 -0.004193 -0.002567 0.017103 0.000000 0.000000 0.000000
# 4 0.000000 0.000000 0.000000 0.051718 0.000000 0.000000
# 5 0.000000 0.000000 0.000000 0.000000 0.044557 0.000000
# 6 0.000000 0.000000 0.000000 0.000000 0.000000 0.050104
#
#
# Mechanical properties :
#
#
# Convention : Reuss Voigt Hill
#
# Bulk Modulus (GPa) = 24.82253 26.39161 25.60707
# Shear Modulus (GPa) = 20.65045 21.02886 20.83965
#
# Velocity S-wave (km/s) = 3.01025 3.03771 3.02401
# Velocity P-wave (km/s) = 4.79318 4.88717 4.84040
#
# Compressibility (1/GPa) = 0.04028597
#
# Stress axis : x y z
#
# Youngs Moduli (GPa) = 55.56488 38.16434 58.46985
#
# Poissons Ratio (x) = 0.14304 0.24518
# Poissons Ratio (y) = 0.20826 0.15008
# Poissons Ratio (z) = 0.23300 0.09796
#
# Static dielectric constant tensor:
#      x y z
#    x 1.838990 0.000000 0.000000 
#    y 0.000000 1.844360 0.000000 
#    z 0.000000 0.000000 1.875660 
# 
# From -- ./inp_files/19476.got.cif
#   From: 2010.05.17/outbox.cif.g08.bks.cpg/sg57_10_cif.got.tgz:19476.got - 2010.06.03 13:58:18.
