data_PCOD9437701
_publ_section_title
;
Structure prediction by ZEFSAII (Michael W. Deem and Ramdas Pophale) SiO2 
 PCOD9437701
Probable space group: P B C M
;
_chemical_formula_sum "Si O2"
_cell_formula_units_Z 32
_cell_length_a 10.298341
_cell_length_b 8.823869
_cell_length_c 18.517271
_cell_angle_alpha 90.000000
_cell_angle_beta 90.000000
_cell_angle_gamma 90.000000
_cell_volume 1682.686857
_symmetry_space_group_name_H-M "P B C M"
_symmetry_group_IT_number 57
_symmetry_cell_setting 'orthorhombic'
loop_
_space_group_symop_operation_xyz
x,y,z
-x,-y,1/2+z
x,1/2-y,-z
-x,1/2+y,1/2-z
-x,-y,-z
x,y,1/2-z
-x,1/2+y,z
x,1/2-y,1/2+z
loop_
_atom_site_type_symbol
_atom_site_label
_atom_site_fract_x
_atom_site_fract_y
_atom_site_fract_z
Si Si1 0.953627 0.744562 0.165297
Si Si2 0.800760 0.073986 0.835703
Si Si3 0.631229 0.420460 0.026089
Si Si4 0.122282 0.415077 0.464675
O O1 0.942969 0.773505 0.250000
O O2 0.887795 0.580112 0.152404
O O3 0.883281 0.874315 0.119412
O O4 0.105183 0.781390 0.146533
O O5 0.768745 0.078417 0.750000
O O6 0.678471 0.070474 0.889904
O O7 0.621276 0.250000 0.000000
O O8 0.500000 0.500000 0.000000
O O9 0.750292 0.496466 0.984621
O O10 0.123334 0.250000 0.500000
O O11 0.000000 0.500000 0.500000
#
# Coordination Sequence:
#
# PCOD9437701 Si02
#       4
#     8   8   8   8
#     4  10  20  36  63  98 130 163 207 265 324 380
#     4  10  22  41  66  98 133 167 212 270 330 390
#     4  12  27  44  64  91 128 175 221 270 325 388
#     4  12  21  37  64  96 129 163 213 268 323 382
#
# _framework density 19.017205000000001
#
# number of rings (size 3 to 8) (size 9 to 14) (size 15 to 20)
#    0.000    1.000    5.000    1.500    3.500    0.000 
#    0.000    2.500    0.000    0.000    0.000    0.000 
#    0.000    0.000    0.000    0.000    0.000    0.000 
#
# Total GULP energy -178497.279277 kJ/mol
# GULP energy per Si atom -5578.039977 kJ/mol
# Density = 1.897392 g / cm^3
# Si number density = 19.017205 Si / 1000 Ang^3
#
#
#
# Elastic Constant Matrix: (Units=GPa)
#
#
# Indices 1 2 3 4 5 6 
#
# 1 158.5655 79.1752 58.3552 0.0000 0.0000 0.0000
# 2 79.1752 141.2972 40.1559 0.0000 0.0000 0.0000
# 3 58.3552 40.1559 107.6298 0.0000 0.0000 0.0000
# 4 0.0000 0.0000 0.0000 32.5784 0.0000 0.0000
# 5 0.0000 0.0000 0.0000 0.0000 30.0980 0.0000
# 6 0.0000 0.0000 0.0000 0.0000 0.0000 34.3048
#
#
#
# Elastic Compliance Matrix: (Units=1/GPa)
#
#
# Indices 1 2 3 4 5 6 
#
# 1 0.009917 -0.004507 -0.003695 0.000000 0.000000 0.000000
# 2 -0.004507 0.009965 -0.001274 0.000000 0.000000 0.000000
# 3 -0.003695 -0.001274 0.011770 0.000000 0.000000 0.000000
# 4 0.000000 0.000000 0.000000 0.030695 0.000000 0.000000
# 5 0.000000 0.000000 0.000000 0.000000 0.033225 0.000000
# 6 0.000000 0.000000 0.000000 0.000000 0.000000 0.029150
#
#
# Mechanical properties :
#
#
# Convention : Reuss Voigt Hill
#
# Bulk Modulus (GPa) = 78.74640 84.76280 81.75460
# Shear Modulus (GPa) = 33.80490 34.71664 34.26077
#
# Velocity S-wave (km/s) = 4.22073 4.27727 4.24909
# Velocity P-wave (km/s) = 8.07778 8.31034 8.19489
#
# Compressibility (1/GPa) = 0.01269899
#
# Stress axis : x y z
#
# Youngs Moduli (GPa) = 100.83954 100.35423 84.96104
#
# Poissons Ratio (x) = 0.45226 0.31396
# Poissons Ratio (y) = 0.45444 0.10827
# Poissons Ratio (z) = 0.37263 0.12789
#
# Static dielectric constant tensor:
#      x y z
#    x 1.642180 0.000000 0.000000 
#    y 0.000000 1.680880 0.000000 
#    z 0.000000 0.000000 1.750460 
# 
# From -- ./inp_files/23943.got.cif
#   From: 2010.05.17/outbox.cif.g08.bks.cpg/sg57_12_cif.got.tgz:23943.got - 2010.06.03 13:58:18.
