data_PCOD9437068
_publ_section_title
;
Structure prediction by ZEFSAII (Michael W. Deem and Ramdas Pophale) SiO2 
 PCOD9437068
Probable space group: P B C M
;
_chemical_formula_sum "Si O2"
_cell_formula_units_Z 40
_cell_length_a 15.810401
_cell_length_b 14.976662
_cell_length_c 8.126981
_cell_angle_alpha 90.000000
_cell_angle_beta 90.000000
_cell_angle_gamma 90.000000
_cell_volume 1924.363709
_symmetry_space_group_name_H-M "P B C M"
_symmetry_group_IT_number 57
_symmetry_cell_setting 'orthorhombic'
loop_
_space_group_symop_operation_xyz
x,y,z
-x,-y,1/2+z
x,1/2-y,-z
-x,1/2+y,1/2-z
-x,-y,-z
x,y,1/2-z
-x,1/2+y,z
x,1/2-y,1/2+z
loop_
_atom_site_type_symbol
_atom_site_label
_atom_site_fract_x
_atom_site_fract_y
_atom_site_fract_z
Si Si1 0.403073 0.500348 0.051021
Si Si2 0.727214 0.852810 0.051125
Si Si3 0.725399 0.352507 0.945224
Si Si4 0.906994 0.145694 0.553133
Si Si5 0.911712 0.854295 0.051298
O O1 0.400846 0.500743 0.250000
O O2 0.349487 0.414434 0.993537
O O3 0.350399 0.586287 0.990089
O O4 0.500000 0.500000 0.000000
O O5 0.728515 0.855757 0.250000
O O6 0.819957 0.887310 0.993166
O O7 0.717526 0.750000 0.000000
O O8 0.720834 0.352720 0.750000
O O9 0.719204 0.250000 0.000000
O O10 0.818039 0.390827 0.990006
O O11 0.906372 0.250000 0.500000
O O12 0.905508 0.141669 0.750000
O O13 0.997594 0.108398 0.491783
O O14 0.912646 0.859961 0.250000
O O15 0.911951 0.750000 0.000000
#
# Coordination Sequence:
#
# PCOD9437068 Si02
#       5
#     8   8   8   8   8
#     4  10  23  40  57  76 102 134 171 216 266 312
#     4   9  18  35  56  79 106 137 170 209 255 307
#     4  10  20  35  54  77 104 138 174 211 255 304
#     4   9  15  25  45  74 104 136 169 205 246 295
#     4   8  14  25  45  72 103 135 167 201 244 296
#
# _framework density 20.786090999999999
#
# number of rings (size 3 to 8) (size 9 to 14) (size 15 to 20)
#    0.000    2.800    0.000    2.400    0.000    4.000 
#    0.000    5.000    0.000    0.000    0.000    0.000 
#    0.000    0.000    0.000    0.000    0.000    0.000 
#
# Total GULP energy -222973.976670 kJ/mol
# GULP energy per Si atom -5574.349417 kJ/mol
# Density = 2.073878 g / cm^3
# Si number density = 20.786091 Si / 1000 Ang^3
#
#
#
# Elastic Constant Matrix: (Units=GPa)
#
#
# Indices 1 2 3 4 5 6 
#
# 1 259.5669 87.7304 18.7753 0.0000 0.0000 0.0000
# 2 87.7304 96.3262 5.8306 0.0000 0.0000 0.0000
# 3 18.7753 5.8306 23.5343 0.0000 0.0000 0.0000
# 4 0.0000 0.0000 0.0000 8.9268 0.0000 0.0000
# 5 0.0000 0.0000 0.0000 0.0000 39.6739 0.0000
# 6 0.0000 0.0000 0.0000 0.0000 0.0000 46.2010
#
#
#
# Elastic Compliance Matrix: (Units=1/GPa)
#
#
# Indices 1 2 3 4 5 6 
#
# 1 0.005819 -0.005095 -0.003380 0.000000 0.000000 0.000000
# 2 -0.005095 0.015001 0.000349 0.000000 0.000000 0.000000
# 3 -0.003380 0.000349 0.045101 0.000000 0.000000 0.000000
# 4 0.000000 0.000000 0.000000 0.112022 0.000000 0.000000
# 5 0.000000 0.000000 0.000000 0.000000 0.025205 0.000000
# 6 0.000000 0.000000 0.000000 0.000000 0.000000 0.021645
#
#
# Mechanical properties :
#
#
# Convention : Reuss Voigt Hill
#
# Bulk Modulus (GPa) = 20.13380 67.12223 43.62801
# Shear Modulus (GPa) = 19.40965 36.76641 28.08803
#
# Velocity S-wave (km/s) = 3.05910 4.21027 3.67998
# Velocity P-wave (km/s) = 4.71006 7.48313 6.25227
#
# Compressibility (1/GPa) = 0.04966773
#
# Stress axis : x y z
#
# Youngs Moduli (GPa) = 171.84403 66.66245 22.17222
#
# Poissons Ratio (x) = 0.33967 0.07494
# Poissons Ratio (y) = 0.87560 -0.00773
# Poissons Ratio (z) = 0.58085 -0.02323
#
# Static dielectric constant tensor:
#      x y z
#    x 1.788140 0.000000 0.000000 
#    y 0.000000 0.989620 0.000000 
#    z 0.000000 0.000000 1.734240 
# 
# From -- ./inp_files/4282.got.cif
#   From: 2010.05.17/outbox.cif.g08.bks.cpg/sg57_3_cif.got.tgz:4282.got - 2010.06.03 13:58:18.
