data_PCOD9437330
_publ_section_title
;
Structure prediction by ZEFSAII (Michael W. Deem and Ramdas Pophale) SiO2 
 PCOD9437330
Probable space group: P B C M
;
_chemical_formula_sum "Si O2"
_cell_formula_units_Z 32
_cell_length_a 7.005022
_cell_length_b 15.228968
_cell_length_c 12.081658
_cell_angle_alpha 90.000000
_cell_angle_beta 90.000000
_cell_angle_gamma 90.000000
_cell_volume 1288.862285
_symmetry_space_group_name_H-M "P B C M"
_symmetry_group_IT_number 57
_symmetry_cell_setting 'orthorhombic'
loop_
_space_group_symop_operation_xyz
x,y,z
-x,-y,1/2+z
x,1/2-y,-z
-x,1/2+y,1/2-z
-x,-y,-z
x,y,1/2-z
-x,1/2+y,z
x,1/2-y,1/2+z
loop_
_atom_site_type_symbol
_atom_site_label
_atom_site_fract_x
_atom_site_fract_y
_atom_site_fract_z
Si Si1 0.379756 0.569108 0.367868
Si Si2 0.955984 0.111825 0.871667
Si Si3 0.604593 0.257301 0.124730
Si Si4 0.785183 0.560636 0.449290
O O1 0.354698 0.525042 0.250000
O O2 0.284170 0.664265 0.369123
O O3 0.603957 0.593088 0.381725
O O4 0.309014 0.504278 0.460006
O O5 0.034346 0.133723 0.750000
O O6 0.755941 0.163322 0.881638
O O7 0.912150 0.006938 0.878727
O O8 0.093108 0.127286 0.976501
O O9 0.512977 0.266345 0.250000
O O10 0.511338 0.250000 0.000000
#
# Coordination Sequence:
#
# PCOD9437330 Si02
#       4
#     8   8   8   8
#     4  10  20  36  60  87 119 157 196 248 301 358
#     4  10  20  36  60  87 119 157 196 248 301 358
#     4  10  20  38  60  86 120 162 204 242 302 360
#     4  10  20  35  59  90 118 146 204 244 302 358
#
# _framework density 24.828098000000001
#
# number of rings (size 3 to 8) (size 9 to 14) (size 15 to 20)
#    0.000    2.000    2.500    1.500    0.000    0.000 
#    0.000    3.750    0.000    6.000    0.000    0.000 
#    0.000    0.000    0.000    0.000    0.000    0.000 
#
# Total GULP energy -178275.942200 kJ/mol
# GULP energy per Si atom -5571.123194 kJ/mol
# Density = 2.477159 g / cm^3
# Si number density = 24.828098 Si / 1000 Ang^3
#
#
#
# Elastic Constant Matrix: (Units=GPa)
#
#
# Indices 1 2 3 4 5 6 
#
# 1 59.3724 -0.7420 21.4953 0.0000 0.0000 0.0000
# 2 -0.7420 40.2210 12.2928 0.0000 0.0000 0.0000
# 3 21.4953 12.2928 199.9089 0.0000 0.0000 0.0000
# 4 0.0000 0.0000 0.0000 20.9488 0.0000 0.0000
# 5 0.0000 0.0000 0.0000 0.0000 12.2937 0.0000
# 6 0.0000 0.0000 0.0000 0.0000 0.0000 13.9759
#
#
#
# Elastic Compliance Matrix: (Units=1/GPa)
#
#
# Indices 1 2 3 4 5 6 
#
# 1 0.017558 0.000918 -0.001944 0.000000 0.000000 0.000000
# 2 0.000918 0.025387 -0.001660 0.000000 0.000000 0.000000
# 3 -0.001944 -0.001660 0.005313 0.000000 0.000000 0.000000
# 4 0.000000 0.000000 0.000000 0.047735 0.000000 0.000000
# 5 0.000000 0.000000 0.000000 0.000000 0.081342 0.000000
# 6 0.000000 0.000000 0.000000 0.000000 0.000000 0.071552
#
#
# Mechanical properties :
#
#
# Convention : Reuss Voigt Hill
#
# Bulk Modulus (GPa) = 23.31741 40.62163 31.96952
# Shear Modulus (GPa) = 18.61810 27.20743 22.91277
#
# Velocity S-wave (km/s) = 2.74137 3.31393 3.04115
# Velocity P-wave (km/s) = 4.40818 5.57131 5.02352
#
# Compressibility (1/GPa) = 0.04288641
#
# Stress axis : x y z
#
# Youngs Moduli (GPa) = 56.95320 39.39049 188.20272
#
# Poissons Ratio (x) = -0.03617 0.36595
# Poissons Ratio (y) = -0.05229 0.31238
# Poissons Ratio (z) = 0.11074 0.06538
#
# Static dielectric constant tensor:
#      x y z
#    x 2.080610 0.000000 0.000000 
#    y 0.000000 2.028190 0.000000 
#    z 0.000000 0.000000 2.079490 
# 
# From -- ./inp_files/11285.got.cif
#   From: 2010.05.17/outbox.cif.g08.bks.cpg/sg57_6_cif.got.tgz:11285.got - 2010.06.03 13:58:18.
