data_PCOD9437229
_publ_section_title
;
Structure prediction by ZEFSAII (Michael W. Deem and Ramdas Pophale) SiO2 
 PCOD9437229
Probable space group: P B C M
;
_chemical_formula_sum "Si O2"
_cell_formula_units_Z 56
_cell_length_a 7.168948
_cell_length_b 27.482032
_cell_length_c 14.488672
_cell_angle_alpha 90.000000
_cell_angle_beta 90.000000
_cell_angle_gamma 90.000000
_cell_volume 2854.518434
_symmetry_space_group_name_H-M "P B C M"
_symmetry_group_IT_number 57
_symmetry_cell_setting 'orthorhombic'
loop_
_space_group_symop_operation_xyz
x,y,z
-x,-y,1/2+z
x,1/2-y,-z
-x,1/2+y,1/2-z
-x,-y,-z
x,y,1/2-z
-x,1/2+y,z
x,1/2-y,1/2+z
loop_
_atom_site_type_symbol
_atom_site_label
_atom_site_fract_x
_atom_site_fract_y
_atom_site_fract_z
Si Si1 0.259705 0.143946 0.007176
Si Si2 0.929262 0.476888 0.638979
Si Si3 0.663488 0.192044 0.000679
Si Si4 0.929513 0.364102 0.860959
Si Si5 0.770226 0.047796 0.855275
Si Si6 0.950868 0.348677 0.356835
Si Si7 0.392074 0.458440 0.444737
O O1 0.453569 0.172236 0.006106
O O2 0.130268 0.150857 0.097182
O O3 0.304251 0.086573 0.998452
O O4 0.133146 0.159231 0.919356
O O5 0.943552 0.475065 0.750000
O O6 0.899714 0.421005 0.609600
O O7 0.760192 0.512584 0.614263
O O8 0.117605 0.502542 0.600290
O O9 0.777487 0.168474 0.086343
O O10 0.665009 0.250000 0.000000
O O11 0.776587 0.175363 0.909435
O O12 0.920940 0.360469 0.750000
O O13 0.738983 0.033321 0.750000
O O14 0.906990 0.093683 0.858991
O O15 0.568635 0.063406 0.890024
O O16 0.969876 0.333900 0.250000
O O17 0.500000 0.500000 0.500000
#
# Coordination Sequence:
#
# PCOD9437229 Si02
#       7
#     8   8   8   8   8   8   8
#     4  11  23  39  64  95 128 167 210 263 317 372
#     4  10  21  37  58  88 127 169 208 249 301 371
#     4  11  25  46  67  93 124 161 212 273 330 379
#     4  10  24  45  67  92 129 172 214 258 311 379
#     4  10  20  35  56  86 127 168 205 247 298 369
#     4  10  22  41  66  95 127 163 206 259 320 381
#     4  12  22  31  55  89 128 167 207 248 303 368
#
# _framework density 19.618020000000001
#
# number of rings (size 3 to 8) (size 9 to 14) (size 15 to 20)
#    0.000    1.429    2.857    2.143    2.000    5.714 
#    0.000    3.571    0.000    0.000    0.000    0.000 
#    0.000    0.000    0.000    0.000    0.000    0.000 
#
# Total GULP energy -312611.858176 kJ/mol
# GULP energy per Si atom -5582.354610 kJ/mol
# Density = 1.957337 g / cm^3
# Si number density = 19.618020 Si / 1000 Ang^3
#
#
#
# Elastic Constant Matrix: (Units=GPa)
#
#
# Indices 1 2 3 4 5 6 
#
# 1 154.1755 46.9120 49.7626 0.0000 0.0000 0.0000
# 2 46.9120 103.7606 32.2048 0.0000 0.0000 0.0000
# 3 49.7626 32.2048 94.5440 0.0000 0.0000 0.0000
# 4 0.0000 0.0000 0.0000 16.8335 0.0000 0.0000
# 5 0.0000 0.0000 0.0000 0.0000 17.6673 0.0000
# 6 0.0000 0.0000 0.0000 0.0000 0.0000 16.2823
#
#
#
# Elastic Compliance Matrix: (Units=1/GPa)
#
#
# Indices 1 2 3 4 5 6 
#
# 1 0.008452 -0.002729 -0.003519 0.000000 0.000000 0.000000
# 2 -0.002729 0.011658 -0.002535 0.000000 0.000000 0.000000
# 3 -0.003519 -0.002535 0.013293 0.000000 0.000000 0.000000
# 4 0.000000 0.000000 0.000000 0.059405 0.000000 0.000000
# 5 0.000000 0.000000 0.000000 0.000000 0.056602 0.000000
# 6 0.000000 0.000000 0.000000 0.000000 0.000000 0.061416
#
#
# Mechanical properties :
#
#
# Convention : Reuss Voigt Hill
#
# Bulk Modulus (GPa) = 63.14236 67.80433 65.47334
# Shear Modulus (GPa) = 21.39749 25.06332 23.23041
#
# Velocity S-wave (km/s) = 3.30617 3.57818 3.44486
# Velocity P-wave (km/s) = 6.84325 7.19086 7.01921
#
# Compressibility (1/GPa) = 0.01583723
#
# Stress axis : x y z
#
# Youngs Moduli (GPa) = 118.30904 85.77655 75.22874
#
# Poissons Ratio (x) = 0.23410 0.26475
# Poissons Ratio (y) = 0.32289 0.19068
# Poissons Ratio (z) = 0.41636 0.21741
#
# Static dielectric constant tensor:
#      x y z
#    x 1.758370 0.000000 0.000000 
#    y 0.000000 1.688250 0.000000 
#    z 0.000000 0.000000 1.751180 
# 
# From -- ./inp_files/15252.got.cif
#   From: 2010.05.17/outbox.cif.g08.bks.cpg/sg57_8_cif.got.tgz:15252.got - 2010.06.03 13:58:18.
