data_PCOD9437902
_publ_section_title
;
Structure prediction by ZEFSAII (Michael W. Deem and Ramdas Pophale) SiO2 
 PCOD9437902
Probable space group: P B C M
;
_chemical_formula_sum "Si O2"
_cell_formula_units_Z 48
_cell_length_a 19.211908
_cell_length_b 15.249703
_cell_length_c 8.770971
_cell_angle_alpha 90.000000
_cell_angle_beta 90.000000
_cell_angle_gamma 90.000000
_cell_volume 2569.683044
_symmetry_space_group_name_H-M "P B C M"
_symmetry_group_IT_number 57
_symmetry_cell_setting 'orthorhombic'
loop_
_space_group_symop_operation_xyz
x,y,z
-x,-y,1/2+z
x,1/2-y,-z
-x,1/2+y,1/2-z
-x,-y,-z
x,y,1/2-z
-x,1/2+y,z
x,1/2-y,1/2+z
loop_
_atom_site_type_symbol
_atom_site_label
_atom_site_fract_x
_atom_site_fract_y
_atom_site_fract_z
Si Si1 0.494323 0.349202 0.933101
Si Si2 0.764378 0.492438 0.432219
Si Si3 0.141931 0.660381 0.068889
Si Si4 0.842463 0.656795 0.932346
Si Si5 0.998974 0.597469 0.932418
Si Si6 0.601563 0.486884 0.433270
O O1 0.495647 0.341540 0.750000
O O2 0.432270 0.418324 0.975686
O O3 0.489821 0.250000 0.000000
O O4 0.561056 0.405580 0.989952
O O5 0.772092 0.485138 0.250000
O O6 0.810242 0.418423 0.512392
O O7 0.795739 0.583384 0.489848
O O8 0.682990 0.485067 0.470404
O O9 0.139474 0.663339 0.250000
O O10 0.170478 0.750000 0.000000
O O11 0.064127 0.646830 0.005014
O O12 0.834695 0.653770 0.750000
O O13 0.923888 0.638511 0.967613
O O14 0.823087 0.750000 0.000000
O O15 0.007222 0.594761 0.750000
O O16 0.000000 0.500000 0.000000
O O17 0.593315 0.478476 0.250000
#
# Coordination Sequence:
#
# PCOD9437902 Si02
#       6
#     8   8   8   8   8   8
#     4  10  20  37  63  92 122 156 194 238 286 343
#     4  11  23  41  63  87 121 158 197 247 299 356
#     4  12  25  41  61  87 118 156 204 252 303 361
#     4  11  24  40  60  87 118 156 201 247 299 357
#     4  11  22  38  62  88 117 154 199 252 304 357
#     4   9  21  40  61  89 121 156 197 240 290 346
#
# _framework density 18.679347
#
# number of rings (size 3 to 8) (size 9 to 14) (size 15 to 20)
#    0.000    1.333    1.667    4.000    0.000    6.667 
#    0.000    1.667    0.000    0.000    0.000    0.000 
#    0.000    0.000    0.000    0.000    0.000    0.000 
#
# Total GULP energy -268242.147500 kJ/mol
# GULP energy per Si atom -5588.378073 kJ/mol
# Density = 1.863683 g / cm^3
# Si number density = 18.679347 Si / 1000 Ang^3
#
#
#
# Elastic Constant Matrix: (Units=GPa)
#
#
# Indices 1 2 3 4 5 6 
#
# 1 69.4236 5.1474 30.8492 0.0000 0.0000 0.0000
# 2 5.1474 118.4973 22.1996 0.0000 0.0000 0.0000
# 3 30.8492 22.1996 60.1510 0.0000 0.0000 0.0000
# 4 0.0000 0.0000 0.0000 31.3944 0.0000 0.0000
# 5 0.0000 0.0000 0.0000 0.0000 -1.1055 0.0000
# 6 0.0000 0.0000 0.0000 0.0000 0.0000 114.4480
#
#
#
# Elastic Compliance Matrix: (Units=1/GPa)
#
#
# Indices 1 2 3 4 5 6 
#
# 1 0.018780 0.001062 -0.010023 0.000000 0.000000 0.000000
# 2 0.001062 0.009126 -0.003913 0.000000 0.000000 0.000000
# 3 -0.010023 -0.003913 0.023209 0.000000 0.000000 0.000000
# 4 0.000000 0.000000 0.000000 0.031853 0.000000 0.000000
# 5 0.000000 0.000000 0.000000 0.000000 -0.904609 0.000000
# 6 0.000000 0.000000 0.000000 0.000000 0.000000 0.008738
#
#
# Mechanical properties :
#
#
# Convention : Reuss Voigt Hill
#
# Bulk Modulus (GPa) = 39.42138 40.49602 39.95870
# Shear Modulus (GPa) = -6.42096 41.60577 17.59241
#
# Velocity S-wave (km/s) = -1.85605 4.72462 3.07222
# Velocity P-wave (km/s) = 4.06901 7.17561 5.83293
#
# Compressibility (1/GPa) = 0.02536694
#
# Stress axis : x y z
#
# Youngs Moduli (GPa) = 53.24943 109.57827 43.08593
#
# Poissons Ratio (x) = -0.11637 0.43186
# Poissons Ratio (y) = -0.05655 0.16858
# Poissons Ratio (z) = 0.53373 0.42875
#
# Static dielectric constant tensor:
#      x y z
#    x 1.631260 0.000000 0.000000 
#    y 0.000000 1.611840 0.000000 
#    z 0.000000 0.000000 1.631100 
# 
# From -- ./inp_files/6478.got.cif
#   From: 2010.05.17/outbox.cif.g08.bks.cpg/sg57_4_cif.got.tgz:6478.got - 2010.06.03 13:58:18.
