data_PCOD9437614
_publ_section_title
;
Structure prediction by ZEFSAII (Michael W. Deem and Ramdas Pophale) SiO2 
 PCOD9437614
Probable space group: P B C M
;
_chemical_formula_sum "Si O2"
_cell_formula_units_Z 48
_cell_length_a 15.667996
_cell_length_b 19.021161
_cell_length_c 8.870782
_cell_angle_alpha 90.000000
_cell_angle_beta 90.000000
_cell_angle_gamma 90.000000
_cell_volume 2643.701273
_symmetry_space_group_name_H-M "P B C M"
_symmetry_group_IT_number 57
_symmetry_cell_setting 'orthorhombic'
loop_
_space_group_symop_operation_xyz
x,y,z
-x,-y,1/2+z
x,1/2-y,-z
-x,1/2+y,1/2-z
-x,-y,-z
x,y,1/2-z
-x,1/2+y,z
x,1/2-y,1/2+z
loop_
_atom_site_type_symbol
_atom_site_label
_atom_site_fract_x
_atom_site_fract_y
_atom_site_fract_z
Si Si1 0.404380 0.917928 0.429808
Si Si2 0.913217 0.417740 0.930743
Si Si3 0.413217 0.417740 0.930743
Si Si4 0.247378 0.327405 0.569205
Si Si5 0.095620 0.417928 0.070192
Si Si6 0.252622 0.827405 0.930795
O O1 0.399078 0.909857 0.250000
O O2 0.498895 0.898634 0.487207
O O3 0.332590 0.871578 0.508394
O O4 0.392463 0.000748 0.466914
O O5 0.926219 0.413623 0.750000
O O6 0.892462 0.499252 0.966914
O O7 0.834351 0.368376 0.972625
O O8 0.001105 0.398634 0.012793
O O9 0.426219 0.413623 0.750000
O O10 0.334351 0.368376 0.972625
O O11 0.246965 0.250000 0.500000
O O12 0.243308 0.323571 0.750000
O O13 0.167409 0.371577 0.508395
O O14 0.100922 0.409857 0.250000
O O15 0.256692 0.823571 0.750000
O O16 0.253035 0.750000 0.000000
#
# Coordination Sequence:
#
# PCOD9437614 Si02
#       6
#     8   8   8   8   8   8
#     4  10  20  36  60  86 111 143 184 230 279 329
#     4   9  20  38  59  83 111 146 187 230 275 325
#     4   9  20  38  59  83 111 146 187 230 275 325
#     4  11  23  38  56  80 113 149 185 227 275 330
#     4  10  20  36  60  86 111 143 184 230 279 329
#     4  11  23  38  56  80 113 149 185 227 275 330
#
# _framework density 18.156364
#
# number of rings (size 3 to 8) (size 9 to 14) (size 15 to 20)
#    0.000    2.000    0.000    3.000    0.000    5.333 
#    0.000    3.333    0.000    0.000    0.000    0.000 
#    0.000    0.000    0.000    0.000    0.000    0.000 
#
# Total GULP energy -268194.037270 kJ/mol
# GULP energy per Si atom -5587.375776 kJ/mol
# Density = 1.811504 g / cm^3
# Si number density = 18.156364 Si / 1000 Ang^3
#
#
#
# Elastic Constant Matrix: (Units=GPa)
#
#
# Indices 1 2 3 4 5 6 
#
# 1 131.6468 70.7880 58.6077 0.0000 0.0000 0.0000
# 2 70.7880 69.2832 44.2313 0.0000 0.0000 0.0000
# 3 58.6077 44.2313 52.1223 0.0000 0.0000 0.0000
# 4 0.0000 0.0000 0.0000 17.1456 0.0000 0.0000
# 5 0.0000 0.0000 0.0000 0.0000 24.0518 0.0000
# 6 0.0000 0.0000 0.0000 0.0000 0.0000 -13.9533
#
#
#
# Elastic Compliance Matrix: (Units=1/GPa)
#
#
# Indices 1 2 3 4 5 6 
#
# 1 0.019310 -0.012805 -0.010846 0.000000 0.000000 0.000000
# 2 -0.012805 0.039989 -0.019537 0.000000 0.000000 0.000000
# 3 -0.010846 -0.019537 0.047961 0.000000 0.000000 0.000000
# 4 0.000000 0.000000 0.000000 0.058324 0.000000 0.000000
# 5 0.000000 0.000000 0.000000 0.000000 0.041577 0.000000
# 6 0.000000 0.000000 0.000000 0.000000 0.000000 -0.071668
#
#
# Mechanical properties :
#
#
# Convention : Reuss Voigt Hill
#
# Bulk Modulus (GPa) = 47.88449 66.70069 57.29259
# Shear Modulus (GPa) = 21.85019 10.74385 16.29702
#
# Velocity S-wave (km/s) = 3.47283 2.43521 2.99924
# Velocity P-wave (km/s) = 6.52008 6.68757 6.60435
#
# Compressibility (1/GPa) = 0.02088359
#
# Stress axis : x y z
#
# Youngs Moduli (GPa) = 51.78592 25.00673 20.85047
#
# Poissons Ratio (x) = 0.32022 0.22615
# Poissons Ratio (y) = 0.66313 0.40735
# Poissons Ratio (z) = 0.56169 0.48855
#
# Static dielectric constant tensor:
#      x y z
#    x 1.587740 0.000000 0.000000 
#    y 0.000000 1.599950 0.000000 
#    z 0.000000 0.000000 1.606270 
# 
# From -- ./inp_files/4552.got.cif
#   From: 2010.05.17/outbox.cif.g08.bks.cpg/sg57_3_cif.got.tgz:4552.got - 2010.06.03 13:58:18.
