data_PCOD9437891
_publ_section_title
;
Structure prediction by ZEFSAII (Michael W. Deem and Ramdas Pophale) SiO2 
 PCOD9437891
Probable space group: P B C M
;
_chemical_formula_sum "Si O2"
_cell_formula_units_Z 48
_cell_length_a 5.137843
_cell_length_b 23.842836
_cell_length_c 15.305667
_cell_angle_alpha 90.000000
_cell_angle_beta 90.000000
_cell_angle_gamma 90.000000
_cell_volume 1874.955657
_symmetry_space_group_name_H-M "P B C M"
_symmetry_group_IT_number 57
_symmetry_cell_setting 'orthorhombic'
loop_
_space_group_symop_operation_xyz
x,y,z
-x,-y,1/2+z
x,1/2-y,-z
-x,1/2+y,1/2-z
-x,-y,-z
x,y,1/2-z
-x,1/2+y,z
x,1/2-y,1/2+z
loop_
_atom_site_type_symbol
_atom_site_label
_atom_site_fract_x
_atom_site_fract_y
_atom_site_fract_z
Si Si1 0.266165 0.223413 0.437316
Si Si2 0.216350 0.872566 0.250000
Si Si3 0.021726 0.890728 0.929669
Si Si4 0.281548 0.449245 0.250000
Si Si5 0.707648 0.962081 0.446607
Si Si6 0.582740 0.344277 0.069590
Si Si7 0.245997 0.205714 0.250000
Si Si8 0.248782 0.867327 0.750000
O O1 0.034715 0.250000 0.500000
O O2 0.198645 0.156804 0.416286
O O3 0.425751 0.208695 0.532417
O O4 0.292328 0.240866 0.336801
O O5 0.929985 0.898884 0.250000
O O6 0.423433 0.924731 0.250000
O O7 0.274890 0.838598 0.338072
O O8 0.166879 0.898642 0.838108
O O9 0.924678 0.945658 0.980469
O O10 0.218443 0.861468 0.995125
O O11 0.238808 0.479536 0.154944
O O12 0.598826 0.899196 0.425938
O O13 0.500000 0.000000 0.500000
O O14 0.946016 0.186174 0.250000
O O15 0.458582 0.155190 0.250000
#
# Coordination Sequence:
#
# PCOD9437891 Si02
#       8
#     8   4   8   4   8   8   4   4
#     4  10  22  38  61  87 122 156 204 249 306 368
#     4  10  20  37  63  88 121 160 204 250 304 361
#     4  10  20  38  60  86 117 165 201 250 309 364
#     4  10  20  39  59  88 125 160 196 258 310 351
#     4  10  22  38  61  88 125 160 209 254 310 368
#     4  10  20  38  62  85 118 162 199 250 306 364
#     4  10  20  39  59  88 123 160 192 256 308 351
#     4  10  20  37  63  86 123 158 204 246 306 369
#
# _framework density 25.600604000000001
#
# number of rings (size 3 to 8) (size 9 to 14) (size 15 to 20)
#    0.000    2.000    3.333    0.000    0.000    2.667 
#    0.000    3.333    0.000    0.000    0.000    0.000 
#    0.000    0.000    0.000    0.000    0.000    0.000 
#
# Total GULP energy -267514.672448 kJ/mol
# GULP energy per Si atom -5573.222343 kJ/mol
# Density = 2.554234 g / cm^3
# Si number density = 25.600604 Si / 1000 Ang^3
#
#
#
# Elastic Constant Matrix: (Units=GPa)
#
#
# Indices 1 2 3 4 5 6 
#
# 1 47.1660 -4.7161 13.0153 0.0000 0.0000 0.0000
# 2 -4.7161 106.1956 32.9936 0.0000 0.0000 0.0000
# 3 13.0153 32.9936 281.6001 0.0000 0.0000 0.0000
# 4 0.0000 0.0000 0.0000 22.8894 0.0000 0.0000
# 5 0.0000 0.0000 0.0000 0.0000 52.1687 0.0000
# 6 0.0000 0.0000 0.0000 0.0000 0.0000 39.9858
#
#
#
# Elastic Compliance Matrix: (Units=1/GPa)
#
#
# Indices 1 2 3 4 5 6 
#
# 1 0.021653 0.001321 -0.001155 0.000000 0.000000 0.000000
# 2 0.001321 0.009853 -0.001215 0.000000 0.000000 0.000000
# 3 -0.001155 -0.001215 0.003747 0.000000 0.000000 0.000000
# 4 0.000000 0.000000 0.000000 0.043688 0.000000 0.000000
# 5 0.000000 0.000000 0.000000 0.000000 0.019169 0.000000
# 6 0.000000 0.000000 0.000000 0.000000 0.000000 0.025009
#
#
# Mechanical properties :
#
#
# Convention : Reuss Voigt Hill
#
# Bulk Modulus (GPa) = 30.16435 57.50526 43.83480
# Shear Modulus (GPa) = 36.69201 49.25338 42.97270
#
# Velocity S-wave (km/s) = 3.78993 4.39100 4.10149
# Velocity P-wave (km/s) = 5.56414 6.94400 6.29201
#
# Compressibility (1/GPa) = 0.03315172
#
# Stress axis : x y z
#
# Youngs Moduli (GPa) = 46.18380 101.49336 266.88385
#
# Poissons Ratio (x) = -0.13403 0.30838
# Poissons Ratio (y) = -0.06099 0.32438
# Poissons Ratio (z) = 0.05337 0.12336
#
# Static dielectric constant tensor:
#      x y z
#    x 2.043590 0.000000 0.000000 
#    y 0.000000 2.529450 0.000000 
#    z 0.000000 0.000000 1.992180 
# 
# From -- ./inp_files/15168.got.cif
#   From: 2010.05.17/outbox.cif.g08.bks.cpg/sg57_8_cif.got.tgz:15168.got - 2010.06.03 13:58:18.
