data_PCOD9437567
_publ_section_title
;
Structure prediction by ZEFSAII (Michael W. Deem and Ramdas Pophale) SiO2 
 PCOD9437567
Probable space group: P B C M
;
_chemical_formula_sum "Si O2"
_cell_formula_units_Z 48
_cell_length_a 15.608138
_cell_length_b 19.484556
_cell_length_c 8.616702
_cell_angle_alpha 90.000000
_cell_angle_beta 90.000000
_cell_angle_gamma 90.000000
_cell_volume 2620.491067
_symmetry_space_group_name_H-M "P B C M"
_symmetry_group_IT_number 57
_symmetry_cell_setting 'orthorhombic'
loop_
_space_group_symop_operation_xyz
x,y,z
-x,-y,1/2+z
x,1/2-y,-z
-x,1/2+y,1/2-z
-x,-y,-z
x,y,1/2-z
-x,1/2+y,z
x,1/2-y,1/2+z
loop_
_atom_site_type_symbol
_atom_site_label
_atom_site_fract_x
_atom_site_fract_y
_atom_site_fract_z
Si Si1 0.599211 0.425191 0.437334
Si Si2 0.749915 0.826671 0.062462
Si Si3 0.596766 0.924116 0.062624
Si Si4 0.908075 0.577905 0.937354
Si Si5 0.096211 0.580676 0.435477
Si Si6 0.752054 0.173266 0.564175
O O1 0.600713 0.427799 0.250000
O O2 0.501284 0.409548 0.485984
O O3 0.620864 0.500644 0.500773
O O4 0.668102 0.369140 0.489204
O O5 0.749436 0.824787 0.250000
O O6 0.664756 0.867363 0.011044
O O7 0.832816 0.870899 0.014429
O O8 0.752693 0.750000 0.000000
O O9 0.598646 0.926654 0.250000
O O10 0.915658 0.579963 0.750000
O O11 0.886843 0.498978 0.980314
O O12 0.999660 0.596095 0.009851
O O13 0.101574 0.585713 0.250000
O O14 0.164974 0.631068 0.509936
O O15 0.752564 0.250000 0.500000
O O16 0.750936 0.175910 0.750000
#
# Coordination Sequence:
#
# PCOD9437567 Si02
#       6
#     8   8   8   8   8   8
#     4   9  19  35  56  81 106 136 176 219 261 308
#     4  10  21  35  52  76 108 143 175 211 257 309
#     4   9  18  35  57  80 107 138 174 217 263 310
#     4   9  19  36  56  79 107 139 176 218 264 314
#     4  10  20  36  59  82 103 135 178 222 269 316
#     4  11  23  37  53  77 110 144 178 218 265 318
#
# _framework density 18.317177999999998
#
# number of rings (size 3 to 8) (size 9 to 14) (size 15 to 20)
#    0.000    2.333    0.000    2.000    0.000    6.000 
#    0.000    1.667    0.000    0.000    0.000    0.000 
#    0.000    0.000    0.000    0.000    0.000    0.000 
#
# Total GULP energy -267982.130462 kJ/mol
# GULP energy per Si atom -5582.961051 kJ/mol
# Density = 1.827549 g / cm^3
# Si number density = 18.317178 Si / 1000 Ang^3
#
#
#
# Elastic Constant Matrix: (Units=GPa)
#
#
# Indices 1 2 3 4 5 6 
#
# 1 146.0769 132.5923 34.1799 0.0000 0.0000 0.0000
# 2 132.5923 169.5320 34.4853 0.0000 0.0000 0.0000
# 3 34.1799 34.4853 17.7444 0.0000 0.0000 0.0000
# 4 0.0000 0.0000 0.0000 30.4943 0.0000 0.0000
# 5 0.0000 0.0000 0.0000 0.0000 11.5941 0.0000
# 6 0.0000 0.0000 0.0000 0.0000 0.0000 -3.8337
#
#
#
# Elastic Compliance Matrix: (Units=1/GPa)
#
#
# Indices 1 2 3 4 5 6 
#
# 1 0.026644 -0.017197 -0.017901 0.000000 0.000000 0.000000
# 2 -0.017197 0.020855 -0.007404 0.000000 0.000000 0.000000
# 3 -0.017901 -0.007404 0.105227 0.000000 0.000000 0.000000
# 4 0.000000 0.000000 0.000000 0.032793 0.000000 0.000000
# 5 0.000000 0.000000 0.000000 0.000000 0.086251 0.000000
# 6 0.000000 0.000000 0.000000 0.000000 0.000000 -0.260842
#
#
# Mechanical properties :
#
#
# Convention : Reuss Voigt Hill
#
# Bulk Modulus (GPa) = 14.76650 81.76316 48.26483
# Shear Modulus (GPa) = 42.19244 16.45731 29.32488
#
# Velocity S-wave (km/s) = 4.80462 3.00069 4.00553
# Velocity P-wave (km/s) = 6.23364 7.53259 6.91368
#
# Compressibility (1/GPa) = 0.06772086
#
# Stress axis : x y z
#
# Youngs Moduli (GPa) = 37.53233 47.95085 9.50330
#
# Poissons Ratio (x) = 0.82461 0.17011
# Poissons Ratio (y) = 0.64544 0.07037
# Poissons Ratio (z) = 0.67185 0.35505
#
# Static dielectric constant tensor:
#      x y z
#    x 1.626410 0.000000 0.000000 
#    y 0.000000 1.592290 0.000000 
#    z 0.000000 0.000000 1.620620 
# 
# From -- ./inp_files/4534.got.cif
#   From: 2010.05.17/outbox.cif.g08.bks.cpg/sg57_3_cif.got.tgz:4534.got - 2010.06.03 13:58:18.
