data_PCOD9437146
_publ_section_title
;
Structure prediction by ZEFSAII (Michael W. Deem and Ramdas Pophale) SiO2 
 PCOD9437146
Probable space group: P B C M
;
_chemical_formula_sum "Si O2"
_cell_formula_units_Z 48
_cell_length_a 16.841715
_cell_length_b 18.403011
_cell_length_c 8.702356
_cell_angle_alpha 90.000000
_cell_angle_beta 90.000000
_cell_angle_gamma 90.000000
_cell_volume 2697.193132
_symmetry_space_group_name_H-M "P B C M"
_symmetry_group_IT_number 57
_symmetry_cell_setting 'orthorhombic'
loop_
_space_group_symop_operation_xyz
x,y,z
-x,-y,1/2+z
x,1/2-y,-z
-x,1/2+y,1/2-z
-x,-y,-z
x,y,1/2-z
-x,1/2+y,z
x,1/2-y,1/2+z
loop_
_atom_site_type_symbol
_atom_site_label
_atom_site_fract_x
_atom_site_fract_y
_atom_site_fract_z
Si Si1 0.585161 0.521484 0.564829
Si Si2 0.742271 0.454023 0.066193
Si Si3 0.992030 0.581330 0.066038
Si Si4 0.848540 0.169142 0.434572
Si Si5 0.824742 0.903056 0.434740
Si Si6 0.336237 0.327317 0.065926
O O1 0.500000 0.500000 0.500000
O O2 0.586394 0.517113 0.750000
O O3 0.654550 0.470786 0.497098
O O4 0.609653 0.604031 0.520083
O O5 0.743106 0.456525 0.250000
O O6 0.778170 0.379074 0.005247
O O7 0.797474 0.518707 0.999399
O O8 0.987503 0.576917 0.250000
O O9 0.068897 0.628690 0.024280
O O10 0.910784 0.614640 0.000560
O O11 0.000000 0.500000 0.000000
O O12 0.848108 0.250000 0.500000
O O13 0.842112 0.169937 0.250000
O O14 0.827687 0.907444 0.250000
O O15 0.754158 0.848108 0.479818
O O16 0.337857 0.323550 0.250000
O O17 0.360244 0.250000 0.000000
#
# Coordination Sequence:
#
# PCOD9437146 Si02
#       6
#     8   8   8   8   8   8
#     4  10  21  39  62  90 119 149 190 236 283 343
#     4  11  21  36  60  85 111 148 190 232 285 345
#     4  11  22  35  56  82 112 152 197 242 290 342
#     4  11  24  40  57  81 115 153 195 245 294 342
#     4  10  20  35  55  81 113 149 192 238 282 338
#     4   9  20  36  56  83 117 151 184 232 286 337
#
# _framework density 17.796278999999998
#
# number of rings (size 3 to 8) (size 9 to 14) (size 15 to 20)
#    0.000    1.667    1.667    4.500    0.000    6.667 
#    0.000    4.167    0.000    2.000    0.000    0.000 
#    0.000    0.000    0.000    0.000    0.000    0.000 
#
# Total GULP energy -268152.238894 kJ/mol
# GULP energy per Si atom -5586.504977 kJ/mol
# Density = 1.775577 g / cm^3
# Si number density = 17.796279 Si / 1000 Ang^3
#
#
#
# Elastic Constant Matrix: (Units=GPa)
#
#
# Indices 1 2 3 4 5 6 
#
# 1 154.3754 79.3853 53.0847 0.0000 0.0000 0.0000
# 2 79.3853 137.4595 48.0777 0.0000 0.0000 0.0000
# 3 53.0847 48.0777 72.8873 0.0000 0.0000 0.0000
# 4 0.0000 0.0000 0.0000 30.6334 0.0000 0.0000
# 5 0.0000 0.0000 0.0000 0.0000 33.5482 0.0000
# 6 0.0000 0.0000 0.0000 0.0000 0.0000 17.9523
#
#
#
# Elastic Compliance Matrix: (Units=1/GPa)
#
#
# Indices 1 2 3 4 5 6 
#
# 1 0.010299 -0.004321 -0.004650 0.000000 0.000000 0.000000
# 2 -0.004321 0.011270 -0.004286 0.000000 0.000000 0.000000
# 3 -0.004650 -0.004286 0.019934 0.000000 0.000000 0.000000
# 4 0.000000 0.000000 0.000000 0.032644 0.000000 0.000000
# 5 0.000000 0.000000 0.000000 0.000000 0.029808 0.000000
# 6 0.000000 0.000000 0.000000 0.000000 0.000000 0.055703
#
#
# Mechanical properties :
#
#
# Convention : Reuss Voigt Hill
#
# Bulk Modulus (GPa) = 66.72678 80.64640 73.68659
# Shear Modulus (GPa) = 26.15471 28.70508 27.42990
#
# Velocity S-wave (km/s) = 3.83779 4.02055 3.93023
# Velocity P-wave (km/s) = 7.56402 8.18339 7.87979
#
# Compressibility (1/GPa) = 0.01498649
#
# Stress axis : x y z
#
# Youngs Moduli (GPa) = 97.09632 88.73323 50.16499
#
# Poissons Ratio (x) = 0.38345 0.23329
# Poissons Ratio (y) = 0.41959 0.21503
# Poissons Ratio (z) = 0.45155 0.38035
#
# Static dielectric constant tensor:
#      x y z
#    x 1.605190 0.000000 0.000000 
#    y 0.000000 1.596880 0.000000 
#    z 0.000000 0.000000 1.594280 
# 
# From -- ./inp_files/4685.got.cif
#   From: 2010.05.17/outbox.cif.g08.bks.cpg/sg57_3_cif.got.tgz:4685.got - 2010.06.03 13:58:18.
