data_PCOD9437427
_publ_section_title
;
Structure prediction by ZEFSAII (Michael W. Deem and Ramdas Pophale) SiO2 
 PCOD9437427
Probable space group: P B C M
;
_chemical_formula_sum "Si O2"
_cell_formula_units_Z 64
_cell_length_a 15.023050
_cell_length_b 25.750395
_cell_length_c 7.515903
_cell_angle_alpha 90.000000
_cell_angle_beta 90.000000
_cell_angle_gamma 90.000000
_cell_volume 2907.523104
_symmetry_space_group_name_H-M "P B C M"
_symmetry_group_IT_number 57
_symmetry_cell_setting 'orthorhombic'
loop_
_space_group_symop_operation_xyz
x,y,z
-x,-y,1/2+z
x,1/2-y,-z
-x,1/2+y,1/2-z
-x,-y,-z
x,y,1/2-z
-x,1/2+y,z
x,1/2-y,1/2+z
loop_
_atom_site_type_symbol
_atom_site_label
_atom_site_fract_x
_atom_site_fract_y
_atom_site_fract_z
Si Si1 0.419246 0.095946 0.468007
Si Si2 0.079479 0.645423 0.042285
Si Si3 0.905308 0.025613 0.962088
Si Si4 0.262552 0.809384 0.963130
Si Si5 0.698662 0.810437 0.537066
Si Si6 0.103853 0.311105 0.536797
Si Si7 0.277900 0.012167 0.043669
Si Si8 0.622532 0.093379 0.033699
O O1 0.422097 0.094493 0.250000
O O2 0.377599 0.150817 0.525325
O O3 0.520522 0.088366 0.526191
O O4 0.350458 0.051897 0.531236
O O5 0.074535 0.660366 0.250000
O O6 0.164086 0.676132 0.965724
O O7 0.982505 0.659049 0.965642
O O8 0.097454 0.584238 0.032267
O O9 0.894797 0.029343 0.750000
O O10 0.821588 0.992334 0.032417
O O11 0.000000 0.000000 0.000000
O O12 0.258858 0.815238 0.750000
O O13 0.332752 0.852583 0.025177
O O14 0.285935 0.750000 0.000000
O O15 0.682517 0.750000 0.500000
O O16 0.701823 0.815952 0.750000
O O17 0.797541 0.824927 0.467841
O O18 0.091274 0.250000 0.500000
O O19 0.107540 0.319157 0.750000
O O20 0.267475 0.027871 0.250000
O O21 0.319484 0.954854 0.032146
O O22 0.624003 0.091720 0.250000
#
# Coordination Sequence:
#
# PCOD9437427 Si02
#       8
#     8   8   8   8   8   8   8   8
#     4   9  19  35  58  83 108 145 187 225 276 338
#     4  10  20  36  56  79 110 145 185 228 277 336
#     4  11  24  38  57  84 114 147 183 227 278 334
#     4  10  21  35  54  81 113 150 189 231 281 337
#     4   9  18  34  54  77 108 143 180 223 272 325
#     4   9  18  31  52  76 103 141 179 221 268 322
#     4  10  21  38  60  84 109 144 188 229 274 336
#     4  10  20  37  58  82 113 146 182 232 286 329
#
# _framework density 22.011863999999999
#
# number of rings (size 3 to 8) (size 9 to 14) (size 15 to 20)
#    0.000    2.250    1.250    1.125    1.750    2.500 
#    0.000    1.250    0.000    0.000    0.000    0.000 
#    0.000    0.000    0.000    0.000    0.000    0.000 
#
# Total GULP energy -357455.125019 kJ/mol
# GULP energy per Si atom -5585.236328 kJ/mol
# Density = 2.196176 g / cm^3
# Si number density = 22.011864 Si / 1000 Ang^3
#
#
#
# Elastic Constant Matrix: (Units=GPa)
#
#
# Indices 1 2 3 4 5 6 
#
# 1 155.5535 39.1878 -0.8495 0.0000 0.0000 0.0000
# 2 39.1878 69.3926 -18.6273 0.0000 0.0000 0.0000
# 3 -0.8495 -18.6273 54.1474 0.0000 0.0000 0.0000
# 4 0.0000 0.0000 0.0000 22.4292 0.0000 0.0000
# 5 0.0000 0.0000 0.0000 0.0000 1549.5918 0.0000
# 6 0.0000 0.0000 0.0000 0.0000 0.0000 31.5033
#
#
#
# Elastic Compliance Matrix: (Units=1/GPa)
#
#
# Indices 1 2 3 4 5 6 
#
# 1 0.007603 -0.004695 -0.001496 0.000000 0.000000 0.000000
# 2 -0.004695 0.018777 0.006386 0.000000 0.000000 0.000000
# 3 -0.001496 0.006386 0.020641 0.000000 0.000000 0.000000
# 4 0.000000 0.000000 0.000000 0.044585 0.000000 0.000000
# 5 0.000000 0.000000 0.000000 0.000000 0.000645 0.000000
# 6 0.000000 0.000000 0.000000 0.000000 0.000000 0.031743
#
#
# Mechanical properties :
#
#
# Convention : Reuss Voigt Hill
#
# Bulk Modulus (GPa) = 21.09267 35.39062 28.24164
# Shear Modulus (GPa) = 35.86576 337.99704 186.93140
#
# Velocity S-wave (km/s) = 4.04094 12.40506 9.22537
# Velocity P-wave (km/s) = 5.60138 14.87594 11.23986
#
# Compressibility (1/GPa) = 0.04740983
#
# Stress axis : x y z
#
# Youngs Moduli (GPa) = 131.52057 53.25805 48.44637
#
# Poissons Ratio (x) = 0.25007 0.07248
# Poissons Ratio (y) = 0.61754 -0.30936
# Poissons Ratio (z) = 0.19675 -0.34009
#
# Static dielectric constant tensor:
#      x y z
#    x 1.814440 0.000000 0.000000 
#    y 0.000000 1.753450 0.000000 
#    z 0.000000 0.000000 1.863760 
# 
# From -- ./inp_files/5697.got.cif
#   From: 2010.05.17/outbox.cif.g08.bks.cpg/sg57_3_cif.got.tgz:5697.got - 2010.06.03 13:58:18.
