data_PCOD9437870
_publ_section_title
;
Structure prediction by ZEFSAII (Michael W. Deem and Ramdas Pophale) SiO2 
 PCOD9437870
Probable space group: P B C M
;
_chemical_formula_sum "Si O2"
_cell_formula_units_Z 48
_cell_length_a 16.015522
_cell_length_b 10.344644
_cell_length_c 13.944935
_cell_angle_alpha 90.000000
_cell_angle_beta 90.000000
_cell_angle_gamma 90.000000
_cell_volume 2310.325343
_symmetry_space_group_name_H-M "P B C M"
_symmetry_group_IT_number 57
_symmetry_cell_setting 'orthorhombic'
loop_
_space_group_symop_operation_xyz
x,y,z
-x,-y,1/2+z
x,1/2-y,-z
-x,1/2+y,1/2-z
-x,-y,-z
x,y,1/2-z
-x,1/2+y,z
x,1/2-y,1/2+z
loop_
_atom_site_type_symbol
_atom_site_label
_atom_site_fract_x
_atom_site_fract_y
_atom_site_fract_z
Si Si1 0.333039 0.676909 0.360845
Si Si2 0.513996 0.630505 0.439513
Si Si3 0.160529 0.785028 0.364521
Si Si4 0.255349 0.086505 0.930961
Si Si5 0.315260 0.137307 0.143076
Si Si6 0.905616 0.039475 0.019602
O O1 0.345838 0.703293 0.250000
O O2 0.423547 0.678222 0.406601
O O3 0.258277 0.770363 0.392593
O O4 0.293946 0.535534 0.376780
O O5 0.550161 0.750000 0.500000
O O6 0.500000 0.500000 0.500000
O O7 0.584789 0.613268 0.359636
O O8 0.153523 0.784633 0.250000
O O9 0.127423 0.911297 0.416769
O O10 0.110622 0.662498 0.409884
O O11 0.286777 0.214263 0.876843
O O12 0.285666 0.076814 0.041770
O O13 0.155188 0.071295 0.938549
O O14 0.285001 0.097605 0.250000
O O15 0.000000 0.000000 0.000000
#
# Coordination Sequence:
#
# PCOD9437870 Si02
#       6
#     8   8   8   8   8   8
#     4  10  20  37  62  88 119 165 207 252 308 367
#     4  12  23  39  62  92 130 169 216 268 316 368
#     4   9  21  39  61  90 119 156 208 257 311 381
#     4  10  21  40  60  84 122 163 203 256 311 377
#     4  11  22  39  59  89 125 165 208 252 308 371
#     4  10  22  40  63  89 122 160 200 257 326 383
#
# _framework density 20.776294
#
# number of rings (size 3 to 8) (size 9 to 14) (size 15 to 20)
#    0.000    1.667    3.333    1.000    4.667    4.667 
#    0.000    5.833    0.000    0.000    0.000    0.000 
#    0.000    0.000    0.000    0.000    0.000    0.000 
#
# Total GULP energy -267723.061982 kJ/mol
# GULP energy per Si atom -5577.563791 kJ/mol
# Density = 2.072901 g / cm^3
# Si number density = 20.776294 Si / 1000 Ang^3
#
#
#
# Elastic Constant Matrix: (Units=GPa)
#
#
# Indices 1 2 3 4 5 6 
#
# 1 145.5817 16.3569 20.0781 0.0000 0.0000 0.0000
# 2 16.3569 48.3039 1.6724 0.0000 0.0000 0.0000
# 3 20.0781 1.6724 112.6696 0.0000 0.0000 0.0000
# 4 0.0000 0.0000 0.0000 17.7028 0.0000 0.0000
# 5 0.0000 0.0000 0.0000 0.0000 23.5807 0.0000
# 6 0.0000 0.0000 0.0000 0.0000 0.0000 18.9121
#
#
#
# Elastic Compliance Matrix: (Units=1/GPa)
#
#
# Indices 1 2 3 4 5 6 
#
# 1 0.007317 -0.002434 -0.001268 0.000000 0.000000 0.000000
# 2 -0.002434 0.021522 0.000114 0.000000 0.000000 0.000000
# 3 -0.001268 0.000114 0.009100 0.000000 0.000000 0.000000
# 4 0.000000 0.000000 0.000000 0.056488 0.000000 0.000000
# 5 0.000000 0.000000 0.000000 0.000000 0.042408 0.000000
# 6 0.000000 0.000000 0.000000 0.000000 0.000000 0.052876
#
#
# Mechanical properties :
#
#
# Convention : Reuss Voigt Hill
#
# Bulk Modulus (GPa) = 32.50495 42.52998 37.51747
# Shear Modulus (GPa) = 24.13810 29.93564 27.03687
#
# Velocity S-wave (km/s) = 3.41223 3.79998 3.61131
# Velocity P-wave (km/s) = 5.58602 6.30619 5.95700
#
# Compressibility (1/GPa) = 0.03076455
#
# Stress axis : x y z
#
# Youngs Moduli (GPa) = 136.66209 46.46304 109.89315
#
# Poissons Ratio (x) = 0.11309 0.13933
# Poissons Ratio (y) = 0.33263 -0.01256
# Poissons Ratio (z) = 0.17327 -0.00531
#
# Static dielectric constant tensor:
#      x y z
#    x 1.763040 0.000000 0.000000 
#    y 0.000000 1.759420 0.000000 
#    z 0.000000 0.000000 1.801120 
# 
# From -- ./inp_files/18425.got.cif
#   From: 2010.05.17/outbox.cif.g08.bks.cpg/sg57_10_cif.got.tgz:18425.got - 2010.06.03 13:58:18.
