data_PCOD9437243
_publ_section_title
;
Structure prediction by ZEFSAII (Michael W. Deem and Ramdas Pophale) SiO2 
 PCOD9437243
Probable space group: P B C M
;
_chemical_formula_sum "Si O2"
_cell_formula_units_Z 64
_cell_length_a 12.972150
_cell_length_b 29.303303
_cell_length_c 8.901321
_cell_angle_alpha 90.000000
_cell_angle_beta 90.000000
_cell_angle_gamma 90.000000
_cell_volume 3383.631041
_symmetry_space_group_name_H-M "P B C M"
_symmetry_group_IT_number 57
_symmetry_cell_setting 'orthorhombic'
loop_
_space_group_symop_operation_xyz
x,y,z
-x,-y,1/2+z
x,1/2-y,-z
-x,1/2+y,1/2-z
-x,-y,-z
x,y,1/2-z
-x,1/2+y,z
x,1/2-y,1/2+z
loop_
_atom_site_type_symbol
_atom_site_label
_atom_site_fract_x
_atom_site_fract_y
_atom_site_fract_z
Si Si1 0.096131 0.204358 0.428625
Si Si2 0.555036 0.543991 0.430447
Si Si3 0.085339 0.638355 0.067865
Si Si4 0.279929 0.800935 0.567885
Si Si5 0.234671 0.069463 0.578466
Si Si6 0.017673 0.450851 0.930396
Si Si7 0.302214 0.324911 0.419736
Si Si8 0.508528 0.352859 0.569594
O O1 0.051374 0.250000 0.500000
O O2 0.096422 0.207199 0.250000
O O3 0.211707 0.198426 0.487328
O O4 0.020656 0.163597 0.474964
O O5 0.500000 0.500000 0.500000
O O6 0.555003 0.541161 0.250000
O O7 0.671216 0.545263 0.493697
O O8 0.502665 0.593193 0.471872
O O9 0.090704 0.638279 0.250000
O O10 0.182673 0.668095 0.016811
O O11 0.069442 0.585951 0.021257
O O12 0.278418 0.750000 0.500000
O O13 0.275760 0.797018 0.750000
O O14 0.383972 0.828845 0.529045
O O15 0.222925 0.052525 0.750000
O O16 0.267624 0.122242 0.585608
O O17 0.128899 0.065192 0.488971
O O18 0.018081 0.452800 0.750000
O O19 0.000000 0.500000 0.000000
O O20 0.306118 0.306762 0.250000
O O21 0.413862 0.325669 0.495322
O O22 0.497466 0.350947 0.750000
#
# Coordination Sequence:
#
# PCOD9437243 Si02
#       8
#     8   8   8   8   8   8   8   8
#     4  11  21  35  56  84 114 148 189 235 288 349
#     4  10  20  35  57  86 118 158 203 250 303 364
#     4   9  20  38  60  83 116 156 194 238 295 358
#     4  10  21  40  62  86 115 156 202 246 299 359
#     4  10  20  36  57  81 112 151 193 245 300 354
#     4  11  22  38  59  87 119 157 199 245 299 361
#     4  10  20  35  57  83 112 147 189 239 293 347
#     4   9  20  37  58  82 116 159 198 238 297 365
#
# _framework density 18.914591000000001
#
# number of rings (size 3 to 8) (size 9 to 14) (size 15 to 20)
#    0.000    2.000    1.250    2.250    0.000    3.500 
#    0.000    5.625    0.000    0.000    0.000    0.000 
#    0.000    0.000    0.000    0.000    0.000    0.000 
#
# Total GULP energy -357115.404136 kJ/mol
# GULP energy per Si atom -5579.928190 kJ/mol
# Density = 1.887154 g / cm^3
# Si number density = 18.914591 Si / 1000 Ang^3
#
#
#
# Elastic Constant Matrix: (Units=GPa)
#
#
# Indices 1 2 3 4 5 6 
#
# 1 136.2928 63.0284 38.3634 0.0000 0.0000 0.0000
# 2 63.0284 104.2518 35.4920 0.0000 0.0000 0.0000
# 3 38.3634 35.4920 60.2293 0.0000 0.0000 0.0000
# 4 0.0000 0.0000 0.0000 31.7488 0.0000 0.0000
# 5 0.0000 0.0000 0.0000 0.0000 23.2587 0.0000
# 6 0.0000 0.0000 0.0000 0.0000 0.0000 28.5982
#
#
#
# Elastic Compliance Matrix: (Units=1/GPa)
#
#
# Indices 1 2 3 4 5 6 
#
# 1 0.010840 -0.005258 -0.003806 0.000000 0.000000 0.000000
# 2 -0.005258 0.014550 -0.005225 0.000000 0.000000 0.000000
# 3 -0.003806 -0.005225 0.022107 0.000000 0.000000 0.000000
# 4 0.000000 0.000000 0.000000 0.031497 0.000000 0.000000
# 5 0.000000 0.000000 0.000000 0.000000 0.042995 0.000000
# 6 0.000000 0.000000 0.000000 0.000000 0.000000 0.034967
#
#
# Mechanical properties :
#
#
# Convention : Reuss Voigt Hill
#
# Bulk Modulus (GPa) = 52.85872 63.83796 58.34834
# Shear Modulus (GPa) = 26.06346 27.64714 26.85530
#
# Velocity S-wave (km/s) = 3.71611 3.82734 3.77214
# Velocity P-wave (km/s) = 6.81317 7.30447 7.06309
#
# Compressibility (1/GPa) = 0.01891835
#
# Stress axis : x y z
#
# Youngs Moduli (GPa) = 92.25103 68.72995 45.23540
#
# Poissons Ratio (x) = 0.36137 0.17218
# Poissons Ratio (y) = 0.48504 0.23635
# Poissons Ratio (z) = 0.35113 0.35911
#
# Static dielectric constant tensor:
#      x y z
#    x 1.647570 0.000000 0.000000 
#    y 0.000000 1.667600 0.000000 
#    z 0.000000 0.000000 1.645530 
# 
# From -- ./inp_files/3812.got.cif
#   From: 2010.05.17/outbox.cif.g08.bks.cpg/sg57_2_cif.got.tgz:3812.got - 2010.06.03 13:58:18.
