data_PCOD9437750
_publ_section_title
;
Structure prediction by ZEFSAII (Michael W. Deem and Ramdas Pophale) SiO2 
 PCOD9437750
Probable space group: P B C M
;
_chemical_formula_sum "Si O2"
_cell_formula_units_Z 48
_cell_length_a 29.771366
_cell_length_b 5.118845
_cell_length_c 15.833311
_cell_angle_alpha 90.000000
_cell_angle_beta 90.000000
_cell_angle_gamma 90.000000
_cell_volume 2412.917556
_symmetry_space_group_name_H-M "P B C M"
_symmetry_group_IT_number 57
_symmetry_cell_setting 'orthorhombic'
loop_
_space_group_symop_operation_xyz
x,y,z
-x,-y,1/2+z
x,1/2-y,-z
-x,1/2+y,1/2-z
-x,-y,-z
x,y,1/2-z
-x,1/2+y,z
x,1/2-y,1/2+z
loop_
_atom_site_type_symbol
_atom_site_label
_atom_site_fract_x
_atom_site_fract_y
_atom_site_fract_z
Si Si1 0.304428 0.750000 0.000000
Si Si2 0.873349 0.266052 0.599097
Si Si3 0.611198 0.486209 0.446147
Si Si4 0.474501 0.132284 0.351062
Si Si5 0.177923 0.224081 0.345220
Si Si6 0.027440 0.573943 0.352088
Si Si7 0.244605 0.250000 0.500000
O O1 0.339683 0.640557 0.929331
O O2 0.274294 0.502883 0.023251
O O3 0.862633 0.250000 0.500000
O O4 0.843140 0.490707 0.640787
O O5 0.924946 0.346094 0.610361
O O6 0.861104 0.990207 0.640803
O O7 0.589464 0.250000 0.500000
O O8 0.576195 0.561583 0.374885
O O9 0.618506 0.750000 0.500000
O O10 0.477674 0.138709 0.250000
O O11 0.508528 0.910459 0.383388
O O12 0.195665 0.199542 0.250000
O O13 0.214092 0.180656 0.419087
O O14 0.031992 0.581118 0.250000
O O15 0.009819 0.288776 0.376341
#
# Coordination Sequence:
#
# PCOD9437750 Si02
#       7
#     4   8   8   8   8   8   4
#     4  10  22  40  64  85 122 155 192 258 316 362
#     4  12  23  42  64  95 130 162 210 264 314 370
#     4  10  20  37  58  85 114 157 199 241 296 356
#     4  10  21  35  54  84 123 161 201 251 296 342
#     4  12  25  43  68  97 124 163 206 259 327 386
#     4  10  21  36  56  85 124 170 210 249 299 362
#     4  12  22  44  68  89 126 153 200 270 310 388
#
# _framework density 19.892931000000001
#
# number of rings (size 3 to 8) (size 9 to 14) (size 15 to 20)
#    0.500    0.667    2.500    4.500    0.000    4.000 
#    0.000    1.667    0.000    0.000    0.000    0.000 
#    0.000    0.000    0.000    0.000    0.000    0.000 
#
# Total GULP energy -267907.463425 kJ/mol
# GULP energy per Si atom -5581.405488 kJ/mol
# Density = 1.984765 g / cm^3
# Si number density = 19.892931 Si / 1000 Ang^3
#
#
#
# Elastic Constant Matrix: (Units=GPa)
#
#
# Indices 1 2 3 4 5 6 
#
# 1 69.5543 -6.2226 15.8180 0.0000 0.0000 0.0000
# 2 -6.2226 81.0946 10.6483 0.0000 0.0000 0.0000
# 3 15.8180 10.6483 69.8739 0.0000 0.0000 0.0000
# 4 0.0000 0.0000 0.0000 5.6032 0.0000 0.0000
# 5 0.0000 0.0000 0.0000 0.0000 -19.7715 0.0000
# 6 0.0000 0.0000 0.0000 0.0000 0.0000 34.7581
#
#
#
# Elastic Compliance Matrix: (Units=1/GPa)
#
#
# Indices 1 2 3 4 5 6 
#
# 1 0.015376 0.001670 -0.003735 0.000000 0.000000 0.000000
# 2 0.001670 0.012765 -0.002323 0.000000 0.000000 0.000000
# 3 -0.003735 -0.002323 0.015511 0.000000 0.000000 0.000000
# 4 0.000000 0.000000 0.000000 0.178469 0.000000 0.000000
# 5 0.000000 0.000000 0.000000 0.000000 -0.050578 0.000000
# 6 0.000000 0.000000 0.000000 0.000000 0.000000 0.028770
#
#
# Mechanical properties :
#
#
# Convention : Reuss Voigt Hill
#
# Bulk Modulus (GPa) = 28.67378 29.00113 28.83746
# Shear Modulus (GPa) = 22.65362 17.46990 20.06176
#
# Velocity S-wave (km/s) = 3.37824 2.96665 3.17911
# Velocity P-wave (km/s) = 5.44628 5.13273 5.29183
#
# Compressibility (1/GPa) = 0.03487506
#
# Stress axis : x y z
#
# Youngs Moduli (GPa) = 65.03554 78.34211 64.46966
#
# Poissons Ratio (x) = -0.13086 0.24082
# Poissons Ratio (y) = -0.10863 0.14979
# Poissons Ratio (z) = 0.24293 0.18202
#
# Static dielectric constant tensor:
#      x y z
#    x 1.697190 0.000000 0.000000 
#    y 0.000000 1.700350 0.000000 
#    z 0.000000 0.000000 1.699130 
# 
# From -- ./inp_files/19586.got.cif
#   From: 2010.05.17/outbox.cif.g08.bks.cpg/sg57_10_cif.got.tgz:19586.got - 2010.06.03 13:58:18.
