data_PCOD9437570
_publ_section_title
;
Structure prediction by ZEFSAII (Michael W. Deem and Ramdas Pophale) SiO2 
 PCOD9437570
Probable space group: P B C M
;
_chemical_formula_sum "Si O2"
_cell_formula_units_Z 48
_cell_length_a 18.403601
_cell_length_b 15.356414
_cell_length_c 8.608220
_cell_angle_alpha 90.000000
_cell_angle_beta 90.000000
_cell_angle_gamma 90.000000
_cell_volume 2432.797599
_symmetry_space_group_name_H-M "P B C M"
_symmetry_group_IT_number 57
_symmetry_cell_setting 'orthorhombic'
loop_
_space_group_symop_operation_xyz
x,y,z
-x,-y,1/2+z
x,1/2-y,-z
-x,1/2+y,1/2-z
-x,-y,-z
x,y,1/2-z
-x,1/2+y,z
x,1/2-y,1/2+z
loop_
_atom_site_type_symbol
_atom_site_label
_atom_site_fract_x
_atom_site_fract_y
_atom_site_fract_z
Si Si1 0.612682 0.844466 0.564507
Si Si2 0.890354 0.655649 0.435888
Si Si3 0.180169 0.976670 0.437280
Si Si4 0.549975 0.156760 0.935438
Si Si5 0.051545 0.655448 0.936113
Si Si6 0.665954 0.477208 0.933810
O O1 0.635066 0.750000 0.500000
O O2 0.617808 0.845161 0.750000
O O3 0.528826 0.857832 0.512503
O O4 0.656951 0.924051 0.492969
O O5 0.868491 0.750000 0.500000
O O6 0.891916 0.659830 0.250000
O O7 0.839404 0.575644 0.482505
O O8 0.972076 0.636653 0.494658
O O9 0.189949 0.973703 0.250000
O O10 0.111588 0.916089 0.476801
O O11 0.253713 0.947005 0.518761
O O12 0.541274 0.160846 0.750000
O O13 0.576450 0.250000 0.000000
O O14 0.605518 0.081732 0.982917
O O15 0.045108 0.659290 0.750000
O O16 0.073617 0.750000 0.000000
O O17 0.655010 0.472864 0.750000
#
# Coordination Sequence:
#
# PCOD9437570 Si02
#       6
#     8   8   8   8   8   8
#     4  11  22  40  64  90 119 152 194 242 289 343
#     4  10  20  36  59  84 112 145 187 234 284 338
#     4  10  23  40  56  80 115 154 190 234 287 342
#     4  11  22  40  64  90 119 152 194 242 289 343
#     4  10  20  36  59  84 112 145 187 234 284 338
#     4  12  25  40  59  86 119 158 197 238 291 348
#
# _framework density 19.730371000000002
#
# number of rings (size 3 to 8) (size 9 to 14) (size 15 to 20)
#    0.000    1.333    0.000    8.500    0.000    4.000 
#    0.000    3.333    0.000    0.000    0.000    0.000 
#    0.000    0.000    0.000    0.000    0.000    0.000 
#
# Total GULP energy -268491.434865 kJ/mol
# GULP energy per Si atom -5593.571560 kJ/mol
# Density = 1.968546 g / cm^3
# Si number density = 19.730371 Si / 1000 Ang^3
#
#
#
# Elastic Constant Matrix: (Units=GPa)
#
#
# Indices 1 2 3 4 5 6 
#
# 1 18.3228 12.8460 -3.0300 0.0000 0.0000 0.0000
# 2 12.8460 50.5806 0.5505 0.0000 0.0000 0.0000
# 3 -3.0300 0.5505 65.1023 0.0000 0.0000 0.0000
# 4 0.0000 0.0000 0.0000 32.5248 0.0000 0.0000
# 5 0.0000 0.0000 0.0000 0.0000 29.8486 0.0000
# 6 0.0000 0.0000 0.0000 0.0000 0.0000 5.3395
#
#
#
# Elastic Compliance Matrix: (Units=1/GPa)
#
#
# Indices 1 2 3 4 5 6 
#
# 1 0.067088 -0.017074 0.003267 0.000000 0.000000 0.000000
# 2 -0.017074 0.024118 -0.000999 0.000000 0.000000 0.000000
# 3 0.003267 -0.000999 0.015521 0.000000 0.000000 0.000000
# 4 0.000000 0.000000 0.000000 0.030746 0.000000 0.000000
# 5 0.000000 0.000000 0.000000 0.000000 0.033502 0.000000
# 6 0.000000 0.000000 0.000000 0.000000 0.000000 0.187282
#
#
# Mechanical properties :
#
#
# Convention : Reuss Voigt Hill
#
# Bulk Modulus (GPa) = 12.96769 17.19318 15.08043
# Shear Modulus (GPa) = 12.08977 21.78521 16.93749
#
# Velocity S-wave (km/s) = 2.47806 3.32647 2.93311
# Velocity P-wave (km/s) = 3.84375 4.84633 4.37386
#
# Compressibility (1/GPa) = 0.07711474
#
# Stress axis : x y z
#
# Youngs Moduli (GPa) = 14.90588 41.46354 64.42913
#
# Poissons Ratio (x) = 0.70794 -0.21048
# Poissons Ratio (y) = 0.25450 0.06434
# Poissons Ratio (z) = -0.04869 0.04141
#
# Static dielectric constant tensor:
#      x y z
#    x 1.672330 0.000000 0.000000 
#    y 0.000000 1.692160 0.000000 
#    z 0.000000 0.000000 1.659600 
# 
# From -- ./inp_files/6565.got.cif
#   From: 2010.05.17/outbox.cif.g08.bks.cpg/sg57_4_cif.got.tgz:6565.got - 2010.06.03 13:58:18.
