data_PCOD9437050
_publ_section_title
;
Structure prediction by ZEFSAII (Michael W. Deem and Ramdas Pophale) SiO2 
 PCOD9437050
Probable space group: P B C M
;
_chemical_formula_sum "Si O2"
_cell_formula_units_Z 64
_cell_length_a 13.381843
_cell_length_b 18.560135
_cell_length_c 14.179426
_cell_angle_alpha 90.000000
_cell_angle_beta 90.000000
_cell_angle_gamma 90.000000
_cell_volume 3521.727199
_symmetry_space_group_name_H-M "P B C M"
_symmetry_group_IT_number 57
_symmetry_cell_setting 'orthorhombic'
loop_
_space_group_symop_operation_xyz
x,y,z
-x,-y,1/2+z
x,1/2-y,-z
-x,1/2+y,1/2-z
-x,-y,-z
x,y,1/2-z
-x,1/2+y,z
x,1/2-y,1/2+z
loop_
_atom_site_type_symbol
_atom_site_label
_atom_site_fract_x
_atom_site_fract_y
_atom_site_fract_z
Si Si1 0.545361 0.305576 0.862357
Si Si2 0.239102 0.460253 0.972895
Si Si3 0.337676 0.663415 0.638382
Si Si4 0.587929 0.056938 0.013623
Si Si5 0.944295 0.630172 0.966251
Si Si6 0.103328 0.275485 0.640165
Si Si7 0.324258 0.171334 0.139106
Si Si8 0.861748 0.416435 0.360979
O O1 0.554457 0.311993 0.750000
O O2 0.619022 0.240881 0.891240
O O3 0.428453 0.289863 0.884141
O O4 0.568980 0.381808 0.909434
O O5 0.310510 0.512680 0.031584
O O6 0.306627 0.398417 0.925263
O O7 0.191184 0.508863 0.889950
O O8 0.150025 0.423206 0.030501
O O9 0.353988 0.656101 0.750000
O O10 0.396052 0.601720 0.582519
O O11 0.220444 0.646684 0.621791
O O12 0.500000 0.000000 0.000000
O O13 0.926686 0.697160 0.896197
O O14 0.044365 0.593185 0.929513
O O15 0.946647 0.665644 0.070947
O O16 0.079887 0.286611 0.750000
O O17 0.223232 0.282863 0.627194
O O18 0.328942 0.150628 0.250000
O O19 0.888170 0.415868 0.250000
#
# Coordination Sequence:
#
# PCOD9437050 Si02
#       8
#     8   8   8   8   8   8   8   8
#     4  10  20  37  57  82 114 151 191 231 280 340
#     4  10  20  35  53  82 114 144 194 230 282 337
#     4   9  21  39  59  83 111 149 197 235 275 342
#     4  11  21  35  55  86 116 155 184 231 291 341
#     4  10  20  36  57  83 111 147 187 241 282 335
#     4   9  19  36  56  83 112 142 183 233 286 336
#     4   9  17  32  57  80 106 144 184 229 274 332
#     4  10  20  37  61  82 109 149 194 240 287 342
#
# _framework density 18.172902000000001
#
# number of rings (size 3 to 8) (size 9 to 14) (size 15 to 20)
#    0.000    2.250    1.250    1.500    0.000    2.500 
#   13.500    1.250    0.000    0.000    0.000    0.000 
#    0.000    0.000    0.000    0.000    0.000    0.000 
#
# Total GULP energy -356876.783084 kJ/mol
# GULP energy per Si atom -5576.199736 kJ/mol
# Density = 1.813154 g / cm^3
# Si number density = 18.172902 Si / 1000 Ang^3
#
#
#
# Elastic Constant Matrix: (Units=GPa)
#
#
# Indices 1 2 3 4 5 6 
#
# 1 74.8031 29.8345 36.5863 0.0000 0.0000 0.0000
# 2 29.8345 64.8337 9.7152 0.0000 0.0000 0.0000
# 3 36.5863 9.7152 65.4415 0.0000 0.0000 0.0000
# 4 0.0000 0.0000 0.0000 10.5060 0.0000 0.0000
# 5 0.0000 0.0000 0.0000 0.0000 29.1345 0.0000
# 6 0.0000 0.0000 0.0000 0.0000 0.0000 27.9652
#
#
#
# Elastic Compliance Matrix: (Units=1/GPa)
#
#
# Indices 1 2 3 4 5 6 
#
# 1 0.022245 -0.008563 -0.011165 0.000000 0.000000 0.000000
# 2 -0.008563 0.019072 0.001956 0.000000 0.000000 0.000000
# 3 -0.011165 0.001956 0.021232 0.000000 0.000000 0.000000
# 4 0.000000 0.000000 0.000000 0.095184 0.000000 0.000000
# 5 0.000000 0.000000 0.000000 0.000000 0.034324 0.000000
# 6 0.000000 0.000000 0.000000 0.000000 0.000000 0.035759
#
#
# Mechanical properties :
#
#
# Convention : Reuss Voigt Hill
#
# Bulk Modulus (GPa) = 37.03104 39.70559 38.36831
# Shear Modulus (GPa) = 18.35803 22.11729 20.23766
#
# Velocity S-wave (km/s) = 3.18179 3.49241 3.34071
# Velocity P-wave (km/s) = 5.82406 6.17728 6.00327
#
# Compressibility (1/GPa) = 0.02700437
#
# Stress axis : x y z
#
# Youngs Moduli (GPa) = 44.95462 52.43423 47.09773
#
# Poissons Ratio (x) = 0.44901 0.52585
# Poissons Ratio (y) = 0.38496 -0.09213
# Poissons Ratio (z) = 0.50192 -0.10257
#
# Static dielectric constant tensor:
#      x y z
#    x 1.640470 0.000000 0.000000 
#    y 0.000000 1.618320 0.000000 
#    z 0.000000 0.000000 1.615960 
# 
# From -- ./inp_files/18005.got.cif
#   From: 2010.05.17/outbox.cif.g08.bks.cpg/sg57_10_cif.got.tgz:18005.got - 2010.06.03 13:58:18.
