data_PCOD9437629
_publ_section_title
;
Structure prediction by ZEFSAII (Michael W. Deem and Ramdas Pophale) SiO2 
 PCOD9437629
Probable space group: P B C M
;
_chemical_formula_sum "Si O2"
_cell_formula_units_Z 64
_cell_length_a 25.309595
_cell_length_b 15.308158
_cell_length_c 8.630871
_cell_angle_alpha 90.000000
_cell_angle_beta 90.000000
_cell_angle_gamma 90.000000
_cell_volume 3343.972962
_symmetry_space_group_name_H-M "P B C M"
_symmetry_group_IT_number 57
_symmetry_cell_setting 'orthorhombic'
loop_
_space_group_symop_operation_xyz
x,y,z
-x,-y,1/2+z
x,1/2-y,-z
-x,1/2+y,1/2-z
-x,-y,-z
x,y,1/2-z
-x,1/2+y,z
x,1/2-y,1/2+z
loop_
_atom_site_type_symbol
_atom_site_label
_atom_site_fract_x
_atom_site_fract_y
_atom_site_fract_z
Si Si1 0.490672 0.405628 0.433540
Si Si2 0.009616 0.149924 0.436258
Si Si3 0.621296 0.652940 0.064808
Si Si4 0.399062 0.844008 0.934765
Si Si5 0.078100 0.507373 0.437106
Si Si6 0.285178 0.848973 0.562532
Si Si7 0.262452 0.348532 0.564250
Si Si8 0.199497 0.991408 0.937050
O O1 0.500000 0.500000 0.500000
O O2 0.489346 0.400749 0.250000
O O3 0.433248 0.380658 0.495636
O O4 0.543776 0.359547 0.491869
O O5 0.010710 0.250000 0.500000
O O6 0.011398 0.155636 0.250000
O O7 0.957915 0.091383 0.481520
O O8 0.055825 0.083827 0.493989
O O9 0.616591 0.651182 0.250000
O O10 0.678687 0.615358 0.021426
O O11 0.624864 0.750000 0.000000
O O12 0.405444 0.848975 0.750000
O O13 0.343436 0.890615 0.977264
O O14 0.385361 0.750000 0.000000
O O15 0.075029 0.500164 0.250000
O O16 0.138743 0.522081 0.482925
O O17 0.277505 0.750000 0.500000
O O18 0.284785 0.842695 0.750000
O O19 0.238793 0.913934 0.510809
O O20 0.256181 0.250000 0.500000
O O21 0.259984 0.343974 0.750000
O O22 0.220439 0.416384 0.499535
O O23 0.201708 0.993335 0.750000
#
# Coordination Sequence:
#
# PCOD9437629 Si02
#       8
#     8   8   8   8   8   8   8   8
#     4  12  25  38  54  79 108 139 177 228 284 346
#     4  10  20  36  60  88 120 158 198 241 290 339
#     4  10  21  39  59  81 107 140 181 228 283 344
#     4  10  20  37  57  79 106 141 181 225 280 340
#     4   9  20  38  58  85 120 157 199 242 285 340
#     4   9  20  37  58  84 113 150 191 234 285 343
#     4  10  22  39  60  86 114 150 194 239 290 349
#     4  10  21  38  60  86 119 156 194 241 291 337
#
# _framework density 19.138911
#
# number of rings (size 3 to 8) (size 9 to 14) (size 15 to 20)
#    0.000    2.000    0.000    3.000    1.750    4.500 
#    0.000    0.000    0.000    0.000    0.000    0.000 
#    0.000    0.000    0.000    0.000    0.000    0.000 
#
# Total GULP energy -356505.847092 kJ/mol
# GULP energy per Si atom -5570.403861 kJ/mol
# Density = 1.909535 g / cm^3
# Si number density = 19.138911 Si / 1000 Ang^3
#
#
#
# Elastic Constant Matrix: (Units=GPa)
#
#
# Indices 1 2 3 4 5 6 
#
# 1 69.3891 -5.8362 13.6623 0.0000 0.0000 0.0000
# 2 -5.8362 62.1088 0.0975 0.0000 0.0000 0.0000
# 3 13.6623 0.0975 40.0249 0.0000 0.0000 0.0000
# 4 0.0000 0.0000 0.0000 28.9326 0.0000 0.0000
# 5 0.0000 0.0000 0.0000 0.0000 39.5871 0.0000
# 6 0.0000 0.0000 0.0000 0.0000 0.0000 27.1128
#
#
#
# Elastic Compliance Matrix: (Units=1/GPa)
#
#
# Indices 1 2 3 4 5 6 
#
# 1 0.015583 0.001473 -0.005323 0.000000 0.000000 0.000000
# 2 0.001473 0.016240 -0.000542 0.000000 0.000000 0.000000
# 3 -0.005323 -0.000542 0.026803 0.000000 0.000000 0.000000
# 4 0.000000 0.000000 0.000000 0.034563 0.000000 0.000000
# 5 0.000000 0.000000 0.000000 0.000000 0.025261 0.000000
# 6 0.000000 0.000000 0.000000 0.000000 0.000000 0.036883
#
#
# Mechanical properties :
#
#
# Convention : Reuss Voigt Hill
#
# Bulk Modulus (GPa) = 20.06374 20.81890 20.44132
# Shear Modulus (GPa) = 27.66533 30.03311 28.84922
#
# Velocity S-wave (km/s) = 3.80610 3.96563 3.88668
# Velocity P-wave (km/s) = 5.46088 5.64533 5.55387
#
# Compressibility (1/GPa) = 0.04984116
#
# Stress axis : x y z
#
# Youngs Moduli (GPa) = 64.17080 61.57634 37.30962
#
# Poissons Ratio (x) = -0.09068 0.19860
# Poissons Ratio (y) = -0.09450 0.02023
# Poissons Ratio (z) = 0.34158 0.03339
#
# Static dielectric constant tensor:
#      x y z
#    x 1.008490 0.000000 0.000000 
#    y 0.000000 1.653150 0.000000 
#    z 0.000000 0.000000 1.646740 
# 
# From -- ./inp_files/9386.got.cif
#   From: 2010.05.17/outbox.cif.g08.bks.cpg/sg57_5_cif.got.tgz:9386.got - 2010.06.03 13:58:18.
