data_PCOD9437205
_publ_section_title
;
Structure prediction by ZEFSAII (Michael W. Deem and Ramdas Pophale) SiO2 
 PCOD9437205
Probable space group: P B C M
;
_chemical_formula_sum "Si O2"
_cell_formula_units_Z 48
_cell_length_a 9.206654
_cell_length_b 18.911831
_cell_length_c 15.616621
_cell_angle_alpha 90.000000
_cell_angle_beta 90.000000
_cell_angle_gamma 90.000000
_cell_volume 2719.083039
_symmetry_space_group_name_H-M "P B C M"
_symmetry_group_IT_number 57
_symmetry_cell_setting 'orthorhombic'
loop_
_space_group_symop_operation_xyz
x,y,z
-x,-y,1/2+z
x,1/2-y,-z
-x,1/2+y,1/2-z
-x,-y,-z
x,y,1/2-z
-x,1/2+y,z
x,1/2-y,1/2+z
loop_
_atom_site_type_symbol
_atom_site_label
_atom_site_fract_x
_atom_site_fract_y
_atom_site_fract_z
Si Si1 0.076944 0.924560 0.507551
Si Si2 0.922252 0.320894 0.152267
Si Si3 0.415398 0.333323 0.849187
Si Si4 0.075529 0.328402 0.851447
Si Si5 0.423097 0.925575 0.512644
Si Si6 0.394023 0.709160 0.910440
O O1 0.052801 0.879380 0.420541
O O2 0.249775 0.933289 0.519646
O O3 0.012934 0.880149 0.586822
O O4 0.000000 0.000000 0.500000
O O5 0.946881 0.345316 0.250000
O O6 0.754512 0.296656 0.141880
O O7 0.019654 0.251642 0.136064
O O8 0.427174 0.351255 0.750000
O O9 0.245980 0.333708 0.872953
O O10 0.507049 0.387680 0.905431
O O11 0.484778 0.256316 0.865478
O O12 0.056433 0.344847 0.750000
O O13 0.446563 0.869010 0.435906
O O14 0.500000 0.000000 0.500000
O O15 0.359060 0.750000 0.000000
#
# Coordination Sequence:
#
# PCOD9437205 Si02
#       6
#     8   8   8   8   8   8
#     4  11  23  37  56  80 111 150 185 224 275 329
#     4  10  20  36  57  81 108 140 180 227 274 327
#     4  10  20  35  56  83 109 138 179 227 272 321
#     4  10  21  36  57  83 111 143 183 227 273 324
#     4  10  21  37  54  78 109 145 184 221 272 329
#     4   9  18  33  56  81 106 140 178 218 270 328
#
# _framework density 17.653009000000001
#
# number of rings (size 3 to 8) (size 9 to 14) (size 15 to 20)
#    0.000    2.000    0.000    5.000    0.000    8.000 
#    0.000    5.833    0.000    0.000    0.000    0.000 
#    0.000    0.000    0.000    0.000    0.000    0.000 
#
# Total GULP energy -267946.552203 kJ/mol
# GULP energy per Si atom -5582.219838 kJ/mol
# Density = 1.761283 g / cm^3
# Si number density = 17.653009 Si / 1000 Ang^3
#
#
#
# Elastic Constant Matrix: (Units=GPa)
#
#
# Indices 1 2 3 4 5 6 
#
# 1 121.7819 85.9185 71.2210 0.0000 0.0000 0.0000
# 2 85.9185 143.0206 64.8521 0.0000 0.0000 0.0000
# 3 71.2210 64.8521 90.9302 0.0000 0.0000 0.0000
# 4 0.0000 0.0000 0.0000 11.2852 0.0000 0.0000
# 5 0.0000 0.0000 0.0000 0.0000 30.0088 0.0000
# 6 0.0000 0.0000 0.0000 0.0000 0.0000 36.9818
#
#
#
# Elastic Compliance Matrix: (Units=1/GPa)
#
#
# Indices 1 2 3 4 5 6 
#
# 1 0.018779 -0.006816 -0.009848 0.000000 0.000000 0.000000
# 2 -0.006816 0.012808 -0.003796 0.000000 0.000000 0.000000
# 3 -0.009848 -0.003796 0.021418 0.000000 0.000000 0.000000
# 4 0.000000 0.000000 0.000000 0.088612 0.000000 0.000000
# 5 0.000000 0.000000 0.000000 0.000000 0.033324 0.000000
# 6 0.000000 0.000000 0.000000 0.000000 0.000000 0.027040
#
#
# Mechanical properties :
#
#
# Convention : Reuss Voigt Hill
#
# Bulk Modulus (GPa) = 82.74201 88.85731 85.79966
# Shear Modulus (GPa) = 20.24873 24.57125 22.40999
#
# Velocity S-wave (km/s) = 3.39047 3.73487 3.56683
# Velocity P-wave (km/s) = 7.89305 8.30926 8.10382
#
# Compressibility (1/GPa) = 0.01208576
#
# Stress axis : x y z
#
# Youngs Moduli (GPa) = 53.24963 78.07562 46.68996
#
# Poissons Ratio (x) = 0.53219 0.45978
# Poissons Ratio (y) = 0.36296 0.17723
# Poissons Ratio (z) = 0.52438 0.29637
#
# Static dielectric constant tensor:
#      x y z
#    x 1.589600 0.000000 0.000000 
#    y 0.000000 1.271670 0.000000 
#    z 0.000000 0.000000 1.580720 
# 
# From -- ./inp_files/16310.got.cif
#   From: 2010.05.17/outbox.cif.g08.bks.cpg/sg57_9_cif.got.tgz:16310.got - 2010.06.03 13:58:18.
