data_PCOD9437328
_publ_section_title
;
Structure prediction by ZEFSAII (Michael W. Deem and Ramdas Pophale) SiO2 
 PCOD9437328
Probable space group: P B C M
;
_chemical_formula_sum "Si O2"
_cell_formula_units_Z 64
_cell_length_a 5.385492
_cell_length_b 24.040732
_cell_length_c 22.875050
_cell_angle_alpha 90.000000
_cell_angle_beta 90.000000
_cell_angle_gamma 90.000000
_cell_volume 2961.659484
_symmetry_space_group_name_H-M "P B C M"
_symmetry_group_IT_number 57
_symmetry_cell_setting 'orthorhombic'
loop_
_space_group_symop_operation_xyz
x,y,z
-x,-y,1/2+z
x,1/2-y,-z
-x,1/2+y,1/2-z
-x,-y,-z
x,y,1/2-z
-x,1/2+y,z
x,1/2-y,1/2+z
loop_
_atom_site_type_symbol
_atom_site_label
_atom_site_fract_x
_atom_site_fract_y
_atom_site_fract_z
Si Si1 0.480016 0.255425 0.682499
Si Si2 0.843558 0.910337 0.899397
Si Si3 0.014895 0.674896 0.316262
Si Si4 0.103170 0.125598 0.970377
Si Si5 0.920653 0.976906 0.108359
Si Si6 0.462416 0.952680 0.683117
Si Si7 0.584503 0.156307 0.906662
Si Si8 0.717540 0.430136 0.185969
O O1 0.446348 0.235334 0.750000
O O2 0.217610 0.285055 0.665797
O O3 0.562538 0.207760 0.637447
O O4 0.719558 0.295450 0.683235
O O5 0.032099 0.879042 0.856375
O O6 0.599132 0.908566 0.858384
O O7 0.884787 0.975759 0.912383
O O8 0.869893 0.878369 0.960134
O O9 0.953166 0.657920 0.250000
O O10 0.341427 0.158172 0.946536
O O11 0.840148 0.148878 0.944432
O O12 0.136493 0.062579 0.945665
O O13 0.733434 0.015939 0.142589
O O14 0.010405 0.933523 0.158250
O O15 0.393862 0.935329 0.750000
O O16 0.649511 0.005211 0.691599
O O17 0.569259 0.102457 0.863737
O O18 0.701789 0.404304 0.250000
#
# Coordination Sequence:
#
# PCOD9437328 Si02
#       8
#     8   8   8   8   8   8   8   8
#     4  10  22  43  70  96 124 159 206 266 332 382
#     4  11  25  40  61  87 127 176 216 254 314 368
#     4  10  23  43  66  94 124 158 210 268 316 377
#     4  11  25  41  63  94 130 170 215 255 305 384
#     4  10  21  38  58  91 127 171 211 260 306 379
#     4  10  20  35  59  89 120 159 208 259 313 369
#     4  11  22  42  64  93 124 164 209 261 319 384
#     4   9  18  34  55  88 125 155 198 257 318 373
#
# _framework density 21.609506
#
# number of rings (size 3 to 8) (size 9 to 14) (size 15 to 20)
#    0.000    1.750    1.250    2.250    3.500    2.000 
#    0.000    5.000    0.000    0.000    0.000    0.000 
#    0.000    0.000    0.000    0.000    0.000    0.000 
#
# Total GULP energy -356426.525419 kJ/mol
# GULP energy per Si atom -5569.164460 kJ/mol
# Density = 2.156032 g / cm^3
# Si number density = 21.609506 Si / 1000 Ang^3
#
#
#
# Elastic Constant Matrix: (Units=GPa)
#
#
# Indices 1 2 3 4 5 6 
#
# 1 99.2686 13.7357 22.8564 0.0000 0.0000 0.0000
# 2 13.7357 54.6757 28.3507 0.0000 0.0000 0.0000
# 3 22.8564 28.3507 100.1944 0.0000 0.0000 0.0000
# 4 0.0000 0.0000 0.0000 27.6383 0.0000 0.0000
# 5 0.0000 0.0000 0.0000 0.0000 -114.8023 0.0000
# 6 0.0000 0.0000 0.0000 0.0000 0.0000 21.3631
#
#
#
# Elastic Compliance Matrix: (Units=1/GPa)
#
#
# Indices 1 2 3 4 5 6 
#
# 1 0.010762 -0.001677 -0.001981 0.000000 0.000000 0.000000
# 2 -0.001677 0.021696 -0.005756 0.000000 0.000000 0.000000
# 3 -0.001981 -0.005756 0.012061 0.000000 0.000000 0.000000
# 4 0.000000 0.000000 0.000000 0.036182 0.000000 0.000000
# 5 0.000000 0.000000 0.000000 0.000000 -0.008711 0.000000
# 6 0.000000 0.000000 0.000000 0.000000 0.000000 0.046810
#
#
# Mechanical properties :
#
#
# Convention : Reuss Voigt Hill
#
# Bulk Modulus (GPa) = 38.92358 42.66938 40.79648
# Shear Modulus (GPa) = 34.20195 -0.54712 16.82741
#
# Velocity S-wave (km/s) = 3.98267 -0.50372 2.79355
# Velocity P-wave (km/s) = 6.26101 4.41024 5.41527
#
# Compressibility (1/GPa) = 0.02569137
#
# Stress axis : x y z
#
# Youngs Moduli (GPa) = 92.92223 46.09202 82.91019
#
# Poissons Ratio (x) = 0.07728 0.16421
# Poissons Ratio (y) = 0.15579 0.47727
# Poissons Ratio (z) = 0.18404 0.26533
#
# Static dielectric constant tensor:
#      x y z
#    x 1.910370 0.000000 0.000000 
#    y 0.000000 1.825160 0.000000 
#    z 0.000000 0.000000 1.841530 
# 
# From -- ./inp_files/23886.got.cif
#   From: 2010.05.17/outbox.cif.g08.bks.cpg/sg57_12_cif.got.tgz:23886.got - 2010.06.03 13:58:18.
