data_PCOD9437681
_publ_section_title
;
Structure prediction by ZEFSAII (Michael W. Deem and Ramdas Pophale) SiO2 
 PCOD9437681
Probable space group: P B C M
;
_chemical_formula_sum "Si O2"
_cell_formula_units_Z 64
_cell_length_a 23.896961
_cell_length_b 15.464246
_cell_length_c 8.700136
_cell_angle_alpha 90.000000
_cell_angle_beta 90.000000
_cell_angle_gamma 90.000000
_cell_volume 3215.122066
_symmetry_space_group_name_H-M "P B C M"
_symmetry_group_IT_number 57
_symmetry_cell_setting 'orthorhombic'
loop_
_space_group_symop_operation_xyz
x,y,z
-x,-y,1/2+z
x,1/2-y,-z
-x,1/2+y,1/2-z
-x,-y,-z
x,y,1/2-z
-x,1/2+y,z
x,1/2-y,1/2+z
loop_
_atom_site_type_symbol
_atom_site_label
_atom_site_fract_x
_atom_site_fract_y
_atom_site_fract_z
Si Si1 0.497800 0.340844 0.933291
Si Si2 0.079733 0.519225 0.934967
Si Si3 0.621773 0.891004 0.066813
Si Si4 0.396759 0.576008 0.932925
Si Si5 0.210112 0.520091 0.933221
Si Si6 0.708335 0.338285 0.931732
Si Si7 0.989162 0.849045 0.565321
Si Si8 0.737404 0.834664 0.567704
O O1 0.496407 0.340780 0.750000
O O2 0.518641 0.250000 0.000000
O O3 0.435772 0.354412 0.998331
O O4 0.542352 0.409702 0.994421
O O5 0.072498 0.525394 0.750000
O O6 0.144988 0.529906 0.971166
O O7 0.058197 0.421947 0.978386
O O8 0.044036 0.596862 0.010611
O O9 0.618057 0.892589 0.250000
O O10 0.677186 0.842663 0.013195
O O11 0.626598 0.986335 0.996814
O O12 0.401006 0.574683 0.750000
O O13 0.351643 0.645608 0.988382
O O14 0.217854 0.536184 0.750000
O O15 0.228985 0.422025 0.963032
O O16 0.250151 0.584426 0.024370
O O17 0.700540 0.333259 0.750000
O O18 0.732309 0.250000 0.000000
O O19 0.984894 0.750000 0.500000
O O20 0.989073 0.841338 0.750000
O O21 0.766455 0.750000 0.500000
O O22 0.729467 0.826492 0.750000
#
# Coordination Sequence:
#
# PCOD9437681 Si02
#       8
#     8   8   8   8   8   8   8   8
#     4  12  25  42  61  87 119 154 198 252 310 374
#     4   9  20  39  62  90 125 167 213 260 310 363
#     4  12  24  41  63  89 119 156 202 252 311 377
#     4  12  24  42  64  89 120 156 199 251 312 377
#     4  10  22  42  65  90 125 165 210 262 312 365
#     4  12  25  42  65  92 123 163 209 257 313 376
#     4  10  20  36  61  93 129 169 211 257 309 365
#     4  11  23  40  63  90 123 163 207 257 314 374
#
# _framework density 19.905933000000001
#
# number of rings (size 3 to 8) (size 9 to 14) (size 15 to 20)
#    0.000    1.000    1.250    6.375    0.000    2.500 
#    0.000    0.000    0.000    0.000    0.000    0.000 
#    0.000    0.000    0.000    0.000    0.000    0.000 
#
# Total GULP energy -357773.430924 kJ/mol
# GULP energy per Si atom -5590.209858 kJ/mol
# Density = 1.986063 g / cm^3
# Si number density = 19.905933 Si / 1000 Ang^3
#
#
#
# Elastic Constant Matrix: (Units=GPa)
#
#
# Indices 1 2 3 4 5 6 
#
# 1 71.5317 4.5180 30.4969 0.0000 0.0000 0.0000
# 2 4.5180 107.1282 39.5738 0.0000 0.0000 0.0000
# 3 30.4969 39.5738 130.2198 0.0000 0.0000 0.0000
# 4 0.0000 0.0000 0.0000 33.8680 0.0000 0.0000
# 5 0.0000 0.0000 0.0000 0.0000 16.7910 0.0000
# 6 0.0000 0.0000 0.0000 0.0000 0.0000 30.6552
#
#
#
# Elastic Compliance Matrix: (Units=1/GPa)
#
#
# Indices 1 2 3 4 5 6 
#
# 1 0.015588 0.000779 -0.003887 0.000000 0.000000 0.000000
# 2 0.000779 0.010554 -0.003390 0.000000 0.000000 0.000000
# 3 -0.003887 -0.003390 0.009620 0.000000 0.000000 0.000000
# 4 0.000000 0.000000 0.000000 0.029526 0.000000 0.000000
# 5 0.000000 0.000000 0.000000 0.000000 0.059556 0.000000
# 6 0.000000 0.000000 0.000000 0.000000 0.000000 0.032621
#
#
# Mechanical properties :
#
#
# Convention : Reuss Voigt Hill
#
# Bulk Modulus (GPa) = 43.92708 50.89523 47.41115
# Shear Modulus (GPa) = 28.08203 31.88222 29.98213
#
# Velocity S-wave (km/s) = 3.76005 4.00640 3.88518
# Velocity P-wave (km/s) = 6.40046 6.85748 6.63291
#
# Compressibility (1/GPa) = 0.02276500
#
# Stress axis : x y z
#
# Youngs Moduli (GPa) = 64.15222 94.75128 103.95204
#
# Poissons Ratio (x) = -0.07377 0.40408
# Poissons Ratio (y) = -0.04995 0.35236
# Poissons Ratio (z) = 0.24937 0.32118
#
# Static dielectric constant tensor:
#      x y z
#    x 1.679050 0.000000 0.000000 
#    y 0.000000 1.711430 0.000000 
#    z 0.000000 0.000000 1.664130 
# 
# From -- ./inp_files/9363.got.cif
#   From: 2010.05.17/outbox.cif.g08.bks.cpg/sg57_5_cif.got.tgz:9363.got - 2010.06.03 13:58:18.
