data_PCOD9437688
_publ_section_title
;
Structure prediction by ZEFSAII (Michael W. Deem and Ramdas Pophale) SiO2 
 PCOD9437688
Probable space group: P B C M
;
_chemical_formula_sum "Si O2"
_cell_formula_units_Z 60
_cell_length_a 12.661568
_cell_length_b 17.457642
_cell_length_c 13.777911
_cell_angle_alpha 90.000000
_cell_angle_beta 90.000000
_cell_angle_gamma 90.000000
_cell_volume 3045.484897
_symmetry_space_group_name_H-M "P B C M"
_symmetry_group_IT_number 57
_symmetry_cell_setting 'orthorhombic'
loop_
_space_group_symop_operation_xyz
x,y,z
-x,-y,1/2+z
x,1/2-y,-z
-x,1/2+y,1/2-z
-x,-y,-z
x,y,1/2-z
-x,1/2+y,z
x,1/2-y,1/2+z
loop_
_atom_site_type_symbol
_atom_site_label
_atom_site_fract_x
_atom_site_fract_y
_atom_site_fract_z
Si Si1 0.872418 0.677825 0.139840
Si Si2 0.054586 0.698865 0.637901
Si Si3 0.399724 0.044455 0.637355
Si Si4 0.631619 0.514666 0.363246
Si Si5 0.766234 0.250000 0.000000
Si Si6 0.659750 0.835970 0.520571
Si Si7 0.962063 0.419975 0.536548
Si Si8 0.724604 0.080225 0.472702
O O1 0.832037 0.671341 0.250000
O O2 0.777115 0.676168 0.063947
O O3 0.947302 0.752051 0.133307
O O4 0.955386 0.611654 0.113898
O O5 0.073079 0.677369 0.750000
O O6 0.154891 0.744606 0.593177
O O7 0.040647 0.632992 0.559164
O O8 0.378084 0.053782 0.750000
O O9 0.349758 0.114572 0.577684
O O10 0.525414 0.035470 0.622728
O O11 0.353018 0.964715 0.597954
O O12 0.658038 0.516814 0.250000
O O13 0.612487 0.601010 0.403420
O O14 0.718169 0.470887 0.428752
O O15 0.703782 0.169908 0.006381
O O16 0.616384 0.750000 0.500000
O O17 0.841792 0.423785 0.570986
O O18 0.000000 0.500000 0.500000
#
# Coordination Sequence:
#
# PCOD9437688 Si02
#       8
#     8   8   8   8   4   8   8   8
#     4  11  22  38  59  83 120 165 201 245 295 349
#     4  10  20  37  57  78 120 166 198 244 299 345
#     4  10  23  44  63  85 125 163 195 249 320 375
#     4  10  22  44  64  87 124 162 198 250 319 376
#     4  10  20  38  60  90 122 154 212 256 298 356
#     4  11  22  38  65  92 119 154 208 256 300 361
#     4  11  21  35  55  86 122 155 204 248 291 355
#     4  10  20  36  62  89 120 161 203 252 303 358
#
# _framework density 19.701294999999998
#
# number of rings (size 3 to 8) (size 9 to 14) (size 15 to 20)
#    0.000    1.600    2.667    4.400    0.000    4.800 
#    4.800    3.333    0.000    0.000    0.000    0.000 
#    0.000    0.000    0.000    0.000    0.000    0.000 
#
# Total GULP energy -334593.449260 kJ/mol
# GULP energy per Si atom -5576.557488 kJ/mol
# Density = 1.965645 g / cm^3
# Si number density = 19.701295 Si / 1000 Ang^3
#
#
#
# Elastic Constant Matrix: (Units=GPa)
#
#
# Indices 1 2 3 4 5 6 
#
# 1 35.4245 19.6452 21.2796 0.0000 0.0000 0.0000
# 2 19.6452 119.8531 23.3579 0.0000 0.0000 0.0000
# 3 21.2796 23.3579 104.1310 0.0000 0.0000 0.0000
# 4 0.0000 0.0000 0.0000 11.1678 0.0000 0.0000
# 5 0.0000 0.0000 0.0000 0.0000 26.0743 0.0000
# 6 0.0000 0.0000 0.0000 0.0000 0.0000 17.5647
#
#
#
# Elastic Compliance Matrix: (Units=1/GPa)
#
#
# Indices 1 2 3 4 5 6 
#
# 1 0.034310 -0.004452 -0.006013 0.000000 0.000000 0.000000
# 2 -0.004452 0.009303 -0.001177 0.000000 0.000000 0.000000
# 3 -0.006013 -0.001177 0.011096 0.000000 0.000000 0.000000
# 4 0.000000 0.000000 0.000000 0.089543 0.000000 0.000000
# 5 0.000000 0.000000 0.000000 0.000000 0.038352 0.000000
# 6 0.000000 0.000000 0.000000 0.000000 0.000000 0.056932
#
#
# Mechanical properties :
#
#
# Convention : Reuss Voigt Hill
#
# Bulk Modulus (GPa) = 31.82149 43.10821 37.46485
# Shear Modulus (GPa) = 18.29528 23.96974 21.13251
#
# Velocity S-wave (km/s) = 3.05065 3.49185 3.27868
# Velocity P-wave (km/s) = 5.34749 6.17946 5.77847
#
# Compressibility (1/GPa) = 0.03142530
#
# Stress axis : x y z
#
# Youngs Moduli (GPa) = 29.14615 107.49636 90.12252
#
# Poissons Ratio (x) = 0.47857 0.54188
# Poissons Ratio (y) = 0.12976 0.10607
# Poissons Ratio (z) = 0.17525 0.12652
#
# Static dielectric constant tensor:
#      x y z
#    x 1.711390 0.000000 0.000000 
#    y 0.000000 1.708520 0.000000 
#    z 0.000000 0.000000 1.675530 
# 
# From -- ./inp_files/17921.got.cif
#   From: 2010.05.17/outbox.cif.g08.bks.cpg/sg57_9_cif.got.tgz:17921.got - 2010.06.03 13:58:18.
