data_PCOD9437018
_publ_section_title
;
Structure prediction by ZEFSAII (Michael W. Deem and Ramdas Pophale) SiO2 
 PCOD9437018
Probable space group: P B C M
;
_chemical_formula_sum "Si O2"
_cell_formula_units_Z 48
_cell_length_a 12.312708
_cell_length_b 12.045111
_cell_length_c 15.039482
_cell_angle_alpha 90.000000
_cell_angle_beta 90.000000
_cell_angle_gamma 90.000000
_cell_volume 2230.474512
_symmetry_space_group_name_H-M "P B C M"
_symmetry_group_IT_number 57
_symmetry_cell_setting 'orthorhombic'
loop_
_space_group_symop_operation_xyz
x,y,z
-x,-y,1/2+z
x,1/2-y,-z
-x,1/2+y,1/2-z
-x,-y,-z
x,y,1/2-z
-x,1/2+y,z
x,1/2-y,1/2+z
loop_
_atom_site_type_symbol
_atom_site_label
_atom_site_fract_x
_atom_site_fract_y
_atom_site_fract_z
Si Si1 0.321920 0.811607 0.908444
Si Si2 0.851943 0.150715 0.648623
Si Si3 0.232412 0.082972 0.358959
Si Si4 0.288336 0.060256 0.857764
Si Si5 0.430601 0.229808 0.142917
Si Si6 0.913548 0.713055 0.641750
O O1 0.233758 0.750108 0.847608
O O2 0.305404 0.942650 0.902987
O O3 0.446581 0.786250 0.885499
O O4 0.298735 0.750000 0.000000
O O5 0.879890 0.118631 0.750000
O O6 0.966157 0.188284 0.607361
O O7 0.796891 0.039989 0.609804
O O8 0.236734 0.083086 0.250000
O O9 0.348209 0.133113 0.388267
O O10 0.140770 0.171326 0.387617
O O11 0.294842 0.045197 0.750000
O O12 0.378339 0.152214 0.883406
O O13 0.172212 0.115793 0.878435
O O14 0.428698 0.227963 0.250000
O O15 0.917036 0.721413 0.750000
#
# Coordination Sequence:
#
# PCOD9437018 Si02
#       6
#     8   8   8   8   8   8
#     4  12  26  38  52  81 120 154 189 228 275 338
#     4  10  20  34  59  87 111 143 186 233 279 330
#     4   8  16  32  56  87 112 135 178 236 287 330
#     4   9  19  38  63  85 109 144 187 236 286 333
#     4   9  19  38  61  82 107 144 191 238 283 327
#     4   8  16  32  59  90 112 137 179 235 288 329
#
# _framework density 21.520083
#
# number of rings (size 3 to 8) (size 9 to 14) (size 15 to 20)
#    0.000    2.667    0.000    3.500    4.667    0.667 
#    0.000    0.833    0.000    0.000    0.000    0.000 
#    0.000    0.000    0.000    0.000    0.000    0.000 
#
# Total GULP energy -267975.355879 kJ/mol
# GULP energy per Si atom -5582.819914 kJ/mol
# Density = 2.147110 g / cm^3
# Si number density = 21.520083 Si / 1000 Ang^3
#
#
#
# Elastic Constant Matrix: (Units=GPa)
#
#
# Indices 1 2 3 4 5 6 
#
# 1 143.3258 64.3500 8.2314 0.0000 0.0000 0.0000
# 2 64.3500 92.7403 -9.4624 0.0000 0.0000 0.0000
# 3 8.2314 -9.4624 31.3645 0.0000 0.0000 0.0000
# 4 0.0000 0.0000 0.0000 5.7040 0.0000 0.0000
# 5 0.0000 0.0000 0.0000 0.0000 -86.1551 0.0000
# 6 0.0000 0.0000 0.0000 0.0000 0.0000 12.6463
#
#
#
# Elastic Compliance Matrix: (Units=1/GPa)
#
#
# Indices 1 2 3 4 5 6 
#
# 1 0.010932 -0.008129 -0.005321 0.000000 0.000000 0.000000
# 2 -0.008129 0.017169 0.007313 0.000000 0.000000 0.000000
# 3 -0.005321 0.007313 0.035486 0.000000 0.000000 0.000000
# 4 0.000000 0.000000 0.000000 0.175316 0.000000 0.000000
# 5 0.000000 0.000000 0.000000 0.000000 -0.011607 0.000000
# 6 0.000000 0.000000 0.000000 0.000000 0.000000 0.079074
#
#
# Mechanical properties :
#
#
# Convention : Reuss Voigt Hill
#
# Bulk Modulus (GPa) = 19.48799 43.74096 31.61447
# Shear Modulus (GPa) = 14.89208 0.05982 7.47595
#
# Velocity S-wave (km/s) = 2.63346 0.16691 1.86587
# Velocity P-wave (km/s) = 4.28044 4.51740 4.40052
#
# Compressibility (1/GPa) = 0.05131365
#
# Stress axis : x y z
#
# Youngs Moduli (GPa) = 91.47247 58.24410 28.18008
#
# Poissons Ratio (x) = 0.47344 0.14996
# Poissons Ratio (y) = 0.74354 -0.20608
# Poissons Ratio (z) = 0.48676 -0.42594
#
# Static dielectric constant tensor:
#      x y z
#    x 1.778820 0.000000 0.000000 
#    y 0.000000 1.738470 0.000000 
#    z 0.000000 0.000000 1.884050 
# 
# From -- ./inp_files/21778.got.cif
#   From: 2010.05.17/outbox.cif.g08.bks.cpg/sg57_11_cif.got.tgz:21778.got - 2010.06.03 13:58:18.
