data_PCOD9437133
_publ_section_title
;
Structure prediction by ZEFSAII (Michael W. Deem and Ramdas Pophale) SiO2 
 PCOD9437133
Probable space group: P B C M
;
_chemical_formula_sum "Si O2"
_cell_formula_units_Z 56
_cell_length_a 20.124235
_cell_length_b 8.663380
_cell_length_c 16.036973
_cell_angle_alpha 90.000000
_cell_angle_beta 90.000000
_cell_angle_gamma 90.000000
_cell_volume 2795.948337
_symmetry_space_group_name_H-M "P B C M"
_symmetry_group_IT_number 57
_symmetry_cell_setting 'orthorhombic'
loop_
_space_group_symop_operation_xyz
x,y,z
-x,-y,1/2+z
x,1/2-y,-z
-x,1/2+y,1/2-z
-x,-y,-z
x,y,1/2-z
-x,1/2+y,z
x,1/2-y,1/2+z
loop_
_atom_site_type_symbol
_atom_site_label
_atom_site_fract_x
_atom_site_fract_y
_atom_site_fract_z
Si Si1 0.535160 0.375474 0.559497
Si Si2 0.723210 0.841937 0.153892
Si Si3 0.094006 0.880759 0.851079
Si Si4 0.778529 0.099081 0.464240
Si Si5 0.037198 0.219933 0.849606
Si Si6 0.162349 0.141615 0.081202
Si Si7 0.575099 0.831653 0.347769
O O1 0.571232 0.250000 0.500000
O O2 0.500000 0.500000 0.500000
O O3 0.573551 0.489692 0.621656
O O4 0.478593 0.275615 0.606421
O O5 0.725446 0.897197 0.250000
O O6 0.782541 0.720290 0.140117
O O7 0.650253 0.772732 0.138419
O O8 0.734961 0.977102 0.086979
O O9 0.103481 0.874049 0.750000
O O10 0.161781 0.859524 0.900735
O O11 0.036763 0.761228 0.877963
O O12 0.065870 0.052218 0.872361
O O13 0.743633 0.250000 0.500000
O O14 0.811648 0.016836 0.544275
O O15 0.034908 0.223871 0.750000
O O16 0.090111 0.348416 0.878340
O O17 0.158299 0.250000 0.000000
O O18 0.560528 0.828245 0.250000
#
# Coordination Sequence:
#
# PCOD9437133 Si02
#       7
#     8   8   8   8   8   8   8
#     4   9  19  34  55  88 126 156 186 227 282 333
#     4  10  21  41  64  81 110 158 199 233 282 340
#     4  10  21  37  56  78 110 149 188 234 292 352
#     4  11  24  38  55  84 116 146 186 244 299 342
#     4  10  20  35  55  80 107 145 189 233 286 347
#     4  10  20  36  57  80 106 145 192 238 285 345
#     4  10  20  36  62  90 117 155 196 235 277 332
#
# _framework density 20.028983
#
# number of rings (size 3 to 8) (size 9 to 14) (size 15 to 20)
#    0.000    2.000    2.857    1.286    2.000    6.857 
#    0.000    3.571    0.000    6.857    0.000    0.000 
#    0.000    0.000    0.000    0.000    0.000    0.000 
#
# Total GULP energy -312349.167754 kJ/mol
# GULP energy per Si atom -5577.663710 kJ/mol
# Density = 1.998340 g / cm^3
# Si number density = 20.028983 Si / 1000 Ang^3
#
#
#
# Elastic Constant Matrix: (Units=GPa)
#
#
# Indices 1 2 3 4 5 6 
#
# 1 71.0969 0.2528 19.1458 0.0000 0.0000 0.0000
# 2 0.2528 62.2427 22.3198 0.0000 0.0000 0.0000
# 3 19.1458 22.3198 51.5940 0.0000 0.0000 0.0000
# 4 0.0000 0.0000 0.0000 169.6660 0.0000 0.0000
# 5 0.0000 0.0000 0.0000 0.0000 -21.2968 0.0000
# 6 0.0000 0.0000 0.0000 0.0000 0.0000 19.0057
#
#
#
# Elastic Compliance Matrix: (Units=1/GPa)
#
#
# Indices 1 2 3 4 5 6 
#
# 1 0.015932 0.002433 -0.006965 0.000000 0.000000 0.000000
# 2 0.002433 0.019388 -0.009290 0.000000 0.000000 0.000000
# 3 -0.006965 -0.009290 0.025985 0.000000 0.000000 0.000000
# 4 0.000000 0.000000 0.000000 0.005894 0.000000 0.000000
# 5 0.000000 0.000000 0.000000 0.000000 -0.046955 0.000000
# 6 0.000000 0.000000 0.000000 0.000000 0.000000 0.052616
#
#
# Mechanical properties :
#
#
# Convention : Reuss Voigt Hill
#
# Bulk Modulus (GPa) = 29.70743 29.81893 29.76318
# Shear Modulus (GPa) = 44.75333 43.02266 43.88800
#
# Velocity S-wave (km/s) = 4.73210 4.63970 4.68613
# Velocity P-wave (km/s) = 6.68741 6.60474 6.64621
#
# Compressibility (1/GPa) = 0.03366161
#
# Stress axis : x y z
#
# Youngs Moduli (GPa) = 62.76611 51.57948 38.48314
#
# Poissons Ratio (x) = -0.12548 0.26802
# Poissons Ratio (y) = -0.15269 0.35750
# Poissons Ratio (z) = 0.43714 0.47917
#
# Static dielectric constant tensor:
#      x y z
#    x 1.705950 0.000000 0.000000 
#    y 0.000000 1.747530 0.000000 
#    z 0.000000 0.000000 1.711300 
# 
# From -- ./inp_files/22997.got.cif
#   From: 2010.05.17/outbox.cif.g08.bks.cpg/sg57_12_cif.got.tgz:22997.got - 2010.06.03 13:58:18.
