data_PCOD9437800
_publ_section_title
;
Structure prediction by ZEFSAII (Michael W. Deem and Ramdas Pophale) SiO2 
 PCOD9437800
Probable space group: P B C M
;
_chemical_formula_sum "Si O2"
_cell_formula_units_Z 48
_cell_length_a 9.274759
_cell_length_b 31.517925
_cell_length_c 8.679565
_cell_angle_alpha 90.000000
_cell_angle_beta 90.000000
_cell_angle_gamma 90.000000
_cell_volume 2537.220497
_symmetry_space_group_name_H-M "P B C M"
_symmetry_group_IT_number 57
_symmetry_cell_setting 'orthorhombic'
loop_
_space_group_symop_operation_xyz
x,y,z
-x,-y,1/2+z
x,1/2-y,-z
-x,1/2+y,1/2-z
-x,-y,-z
x,y,1/2-z
-x,1/2+y,z
x,1/2-y,1/2+z
loop_
_atom_site_type_symbol
_atom_site_label
_atom_site_fract_x
_atom_site_fract_y
_atom_site_fract_z
Si Si1 0.906542 0.295258 0.064886
Si Si2 0.916577 0.040475 0.434185
Si Si3 0.083127 0.121141 0.935310
Si Si4 0.415095 0.704130 0.065590
Si Si5 0.581083 0.876440 0.064563
Si Si6 0.419296 0.541249 0.435561
O O1 0.894080 0.292753 0.250000
O O2 0.011554 0.333838 0.023924
O O3 0.957327 0.250000 0.000000
O O4 0.748027 0.303106 0.994765
O O5 0.921066 0.038662 0.250000
O O6 0.748878 0.040123 0.481583
O O7 0.994093 0.083023 0.490788
O O8 0.000000 0.000000 0.500000
O O9 0.074801 0.116753 0.750000
O O10 0.250865 0.119525 0.978890
O O11 0.415004 0.705145 0.250000
O O12 0.460664 0.750000 0.000000
O O13 0.513990 0.666434 0.003490
O O14 0.570938 0.875412 0.250000
O O15 0.493991 0.916654 0.000988
O O16 0.500000 0.500000 0.500000
O O17 0.427329 0.541467 0.250000
#
# Coordination Sequence:
#
# PCOD9437800 Si02
#       6
#     8   8   8   8   8   8
#     4  10  20  37  60  86 116 152 192 239 289 341
#     4  11  24  40  61  87 117 150 191 238 287 342
#     4  10  23  40  59  85 118 153 193 237 287 342
#     4  11  22  38  60  87 117 153 196 241 289 346
#     4  11  23  40  60  86 119 155 194 240 289 344
#     4  11  24  41  61  89 119 153 194 239 288 343
#
# _framework density 18.918340000000001
#
# number of rings (size 3 to 8) (size 9 to 14) (size 15 to 20)
#    0.000    1.333    0.000    6.500    0.000   12.667 
#    0.000    1.667    0.000    0.000    0.000    0.000 
#    0.000    0.000    0.000    0.000    0.000    0.000 
#
# Total GULP energy -268492.855038 kJ/mol
# GULP energy per Si atom -5593.601147 kJ/mol
# Density = 1.887528 g / cm^3
# Si number density = 18.918340 Si / 1000 Ang^3
#
#
#
# Elastic Constant Matrix: (Units=GPa)
#
#
# Indices 1 2 3 4 5 6 
#
# 1 181.4206 138.9224 70.4264 0.0000 0.0000 0.0000
# 2 138.9224 196.6932 70.3668 0.0000 0.0000 0.0000
# 3 70.4264 70.3668 80.9770 0.0000 0.0000 0.0000
# 4 0.0000 0.0000 0.0000 42.0427 0.0000 0.0000
# 5 0.0000 0.0000 0.0000 0.0000 29.9731 0.0000
# 6 0.0000 0.0000 0.0000 0.0000 0.0000 43.0104
#
#
#
# Elastic Compliance Matrix: (Units=1/GPa)
#
#
# Indices 1 2 3 4 5 6 
#
# 1 0.013227 -0.007585 -0.004913 0.000000 0.000000 0.000000
# 2 -0.007585 0.011727 -0.003594 0.000000 0.000000 0.000000
# 3 -0.004913 -0.003594 0.019745 0.000000 0.000000 0.000000
# 4 0.000000 0.000000 0.000000 0.023785 0.000000 0.000000
# 5 0.000000 0.000000 0.000000 0.000000 0.033363 0.000000
# 6 0.000000 0.000000 0.000000 0.000000 0.000000 0.023250
#
#
# Mechanical properties :
#
#
# Convention : Reuss Voigt Hill
#
# Bulk Modulus (GPa) = 79.89717 113.16910 96.53314
# Shear Modulus (GPa) = 30.96897 34.96357 32.96627
#
# Velocity S-wave (km/s) = 4.05035 4.30365 4.17892
# Velocity P-wave (km/s) = 8.01237 9.20027 8.62679
#
# Compressibility (1/GPa) = 0.01251609
#
# Stress axis : x y z
#
# Youngs Moduli (GPa) = 75.60252 85.27614 50.64606
#
# Poissons Ratio (x) = 0.64678 0.24882
# Poissons Ratio (y) = 0.57341 0.18201
# Poissons Ratio (z) = 0.37143 0.30646
#
# Static dielectric constant tensor:
#      x y z
#    x 1.634380 0.000000 0.000000 
#    y 0.000000 1.621540 0.000000 
#    z 0.000000 0.000000 1.637520 
# 
# From -- ./inp_files/2045.got.cif
#   From: 2010.05.17/outbox.cif.g08.bks.cpg/sg57_2_cif.got.tgz:2045.got - 2010.06.03 13:58:18.
