data_PCOD9437826
_publ_section_title
;
Structure prediction by ZEFSAII (Michael W. Deem and Ramdas Pophale) SiO2 
 PCOD9437826
Probable space group: P B C M
;
_chemical_formula_sum "Si O2"
_cell_formula_units_Z 48
_cell_length_a 29.149767
_cell_length_b 8.797238
_cell_length_c 10.109018
_cell_angle_alpha 90.000000
_cell_angle_beta 90.000000
_cell_angle_gamma 90.000000
_cell_volume 2592.330676
_symmetry_space_group_name_H-M "P B C M"
_symmetry_group_IT_number 57
_symmetry_cell_setting 'orthorhombic'
loop_
_space_group_symop_operation_xyz
x,y,z
-x,-y,1/2+z
x,1/2-y,-z
-x,1/2+y,1/2-z
-x,-y,-z
x,y,1/2-z
-x,1/2+y,z
x,1/2-y,1/2+z
loop_
_atom_site_type_symbol
_atom_site_label
_atom_site_fract_x
_atom_site_fract_y
_atom_site_fract_z
Si Si1 0.235280 0.065988 0.991392
Si Si2 0.717085 0.434774 0.250000
Si Si3 0.550559 0.568092 0.002983
Si Si4 0.709210 0.427655 0.750000
Si Si5 0.390529 0.440091 0.250000
Si Si6 0.614619 0.926698 0.750000
Si Si7 0.035148 0.096606 0.588812
Si Si8 0.862262 0.602995 0.594524
O O1 0.183029 0.017881 0.956428
O O2 0.267428 0.005663 0.875663
O O3 0.236444 0.250000 0.000000
O O4 0.255311 0.996868 0.124392
O O5 0.716061 0.252701 0.250000
O O6 0.664926 0.499252 0.250000
O O7 0.583176 0.529184 0.125724
O O8 0.545576 0.750000 0.000000
O O9 0.500000 0.500000 0.000000
O O10 0.578925 0.521595 0.875369
O O11 0.656050 0.468243 0.750000
O O12 0.380051 0.257904 0.250000
O O13 0.036979 0.250000 0.500000
O O14 0.024318 0.115039 0.750000
O O15 0.087177 0.030021 0.585967
O O16 0.000000 0.000000 0.500000
O O17 0.864328 0.750000 0.500000
O O18 0.855060 0.643462 0.750000
#
# Coordination Sequence:
#
# PCOD9437826 Si02
#       8
#     8   4   8   4   4   4   8   8
#     4  11  22  40  64  88 115 160 208 248 300 368
#     4  12  26  39  59  92 124 159 196 254 316 360
#     4  10  21  36  57  83 112 145 189 240 291 348
#     4  12  24  41  61  88 126 153 196 256 310 360
#     4  10  21  37  59  82 108 155 197 238 285 352
#     4  10  21  39  57  82 114 151 201 238 283 360
#     4  10  20  37  60  90 124 163 209 263 316 376
#     4   9  19  35  61  90 118 154 210 262 300 359
#
# _framework density 18.516157
#
# number of rings (size 3 to 8) (size 9 to 14) (size 15 to 20)
#    0.000    1.667    0.833    4.000    3.500    3.333 
#    0.000    1.667    0.000    0.000    0.000    0.000 
#    0.000    0.000    0.000    0.000    0.000    0.000 
#
# Total GULP energy -267593.398803 kJ/mol
# GULP energy per Si atom -5574.862475 kJ/mol
# Density = 1.847401 g / cm^3
# Si number density = 18.516157 Si / 1000 Ang^3
#
#
#
# Elastic Constant Matrix: (Units=GPa)
#
#
# Indices 1 2 3 4 5 6 
#
# 1 195.5242 58.7077 104.6149 0.0000 0.0000 0.0000
# 2 58.7077 65.0467 44.6351 0.0000 0.0000 0.0000
# 3 104.6149 44.6351 205.2916 0.0000 0.0000 0.0000
# 4 0.0000 0.0000 0.0000 28.4848 0.0000 0.0000
# 5 0.0000 0.0000 0.0000 0.0000 64.7001 0.0000
# 6 0.0000 0.0000 0.0000 0.0000 0.0000 25.9585
#
#
#
# Elastic Compliance Matrix: (Units=1/GPa)
#
#
# Indices 1 2 3 4 5 6 
#
# 1 0.008414 -0.005468 -0.003099 0.000000 0.000000 0.000000
# 2 -0.005468 0.021622 -0.001915 0.000000 0.000000 0.000000
# 3 -0.003099 -0.001915 0.006867 0.000000 0.000000 0.000000
# 4 0.000000 0.000000 0.000000 0.035106 0.000000 0.000000
# 5 0.000000 0.000000 0.000000 0.000000 0.015456 0.000000
# 6 0.000000 0.000000 0.000000 0.000000 0.000000 0.038523
#
#
# Mechanical properties :
#
#
# Convention : Reuss Voigt Hill
#
# Bulk Modulus (GPa) = 62.73482 97.97530 80.35506
# Shear Modulus (GPa) = 32.83732 41.02233 36.92983
#
# Velocity S-wave (km/s) = 4.21579 4.71200 4.47079
# Velocity P-wave (km/s) = 7.59288 9.09023 8.37509
#
# Compressibility (1/GPa) = 0.01594011
#
# Stress axis : x y z
#
# Youngs Moduli (GPa) = 118.84471 46.24813 145.62999
#
# Poissons Ratio (x) = 0.25287 0.45132
# Poissons Ratio (y) = 0.64981 0.27887
# Poissons Ratio (z) = 0.36831 0.08856
#
# Static dielectric constant tensor:
#      x y z
#    x 1.646630 0.000000 0.000000 
#    y 0.000000 1.635790 0.000000 
#    z 0.000000 0.000000 1.343510 
# 
# From -- ./inp_files/10228.got.cif
#   From: 2010.05.17/outbox.cif.g08.bks.cpg/sg57_6_cif.got.tgz:10228.got - 2010.06.03 13:58:18.
