data_PCOD9437064
_publ_section_title
;
Structure prediction by ZEFSAII (Michael W. Deem and Ramdas Pophale) SiO2 
 PCOD9437064
Probable space group: P B C M
;
_chemical_formula_sum "Si O2"
_cell_formula_units_Z 48
_cell_length_a 31.859031
_cell_length_b 9.432497
_cell_length_c 8.557169
_cell_angle_alpha 90.000000
_cell_angle_beta 90.000000
_cell_angle_gamma 90.000000
_cell_volume 2571.516690
_symmetry_space_group_name_H-M "P B C M"
_symmetry_group_IT_number 57
_symmetry_cell_setting 'orthorhombic'
loop_
_space_group_symop_operation_xyz
x,y,z
-x,-y,1/2+z
x,1/2-y,-z
-x,1/2+y,1/2-z
-x,-y,-z
x,y,1/2-z
-x,1/2+y,z
x,1/2-y,1/2+z
loop_
_atom_site_type_symbol
_atom_site_label
_atom_site_fract_x
_atom_site_fract_y
_atom_site_fract_z
Si Si1 0.290222 0.908064 0.938328
Si Si2 0.118149 0.410276 0.936816
Si Si3 0.631241 0.909268 0.438720
Si Si4 0.960468 0.410957 0.562866
Si Si5 0.538502 0.909748 0.062877
Si Si6 0.804752 0.410675 0.561671
O O1 0.291382 0.906273 0.750000
O O2 0.242966 0.953734 0.982400
O O3 0.328726 0.003025 0.995683
O O4 0.295814 0.750000 0.000000
O O5 0.115208 0.408360 0.750000
O O6 0.114964 0.250000 0.000000
O O7 0.080965 0.507268 0.005336
O O8 0.161459 0.483304 0.989994
O O9 0.634210 0.750000 0.500000
O O10 0.632378 0.907342 0.250000
O O11 0.584950 0.965311 0.484804
O O12 0.961311 0.250000 0.500000
O O13 0.961414 0.407591 0.750000
O O14 0.000000 0.500000 0.500000
O O15 0.536901 0.907502 0.250000
O O16 0.535291 0.750000 0.000000
O O17 0.500000 0.000000 0.000000
O O18 0.811552 0.250000 0.500000
O O19 0.808422 0.409959 0.750000
#
# Coordination Sequence:
#
# PCOD9437064 Si02
#       6
#     8   8   8   8   8   8
#     4   9  19  35  55  80 110 142 182 226 273 327
#     4  12  25  42  62  88 120 156 196 240 287 339
#     4   9  19  35  53  76 105 139 177 221 270 327
#     4  12  25  44  67  94 125 160 199 241 289 341
#     4  10  20  35  54  76 105 139 179 223 273 328
#     4  10  20  37  59  84 114 150 189 233 281 334
#
# _framework density 18.666027
#
# number of rings (size 3 to 8) (size 9 to 14) (size 15 to 20)
#    0.000    1.667    0.000    5.000    0.000    3.333 
#    0.000    3.333    0.000    0.000    0.000    0.000 
#    0.000    0.000    0.000    0.000    0.000    0.000 
#
# Total GULP energy -268131.819667 kJ/mol
# GULP energy per Si atom -5586.079576 kJ/mol
# Density = 1.862354 g / cm^3
# Si number density = 18.666027 Si / 1000 Ang^3
#
#
#
# Elastic Constant Matrix: (Units=GPa)
#
#
# Indices 1 2 3 4 5 6 
#
# 1 203.4602 115.9196 63.5934 0.0000 0.0000 0.0000
# 2 115.9196 128.8629 52.1837 0.0000 0.0000 0.0000
# 3 63.5934 52.1837 104.7141 0.0000 0.0000 0.0000
# 4 0.0000 0.0000 0.0000 35.5830 0.0000 0.0000
# 5 0.0000 0.0000 0.0000 0.0000 26.3333 0.0000
# 6 0.0000 0.0000 0.0000 0.0000 0.0000 43.3897
#
#
#
# Elastic Compliance Matrix: (Units=1/GPa)
#
#
# Indices 1 2 3 4 5 6 
#
# 1 0.010431 -0.008542 -0.002078 0.000000 0.000000 0.000000
# 2 -0.008542 0.016717 -0.003143 0.000000 0.000000 0.000000
# 3 -0.002078 -0.003143 0.012378 0.000000 0.000000 0.000000
# 4 0.000000 0.000000 0.000000 0.028103 0.000000 0.000000
# 5 0.000000 0.000000 0.000000 0.000000 0.037975 0.000000
# 6 0.000000 0.000000 0.000000 0.000000 0.000000 0.023047
#
#
# Mechanical properties :
#
#
# Convention : Reuss Voigt Hill
#
# Bulk Modulus (GPa) = 83.33402 100.04783 91.69093
# Shear Modulus (GPa) = 31.21530 34.75058 32.98294
#
# Velocity S-wave (km/s) = 4.09382 4.31943 4.20813
# Velocity P-wave (km/s) = 8.19070 8.86520 8.53462
#
# Compressibility (1/GPa) = 0.01199990
#
# Stress axis : x y z
#
# Youngs Moduli (GPa) = 95.86673 59.81940 80.78665
#
# Poissons Ratio (x) = 0.51097 0.16788
# Poissons Ratio (y) = 0.81888 0.25394
# Poissons Ratio (z) = 0.19922 0.18803
#
# Static dielectric constant tensor:
#      x y z
#    x 1.667520 0.000000 0.000000 
#    y 0.000000 1.594710 0.000000 
#    z 0.000000 0.000000 1.631360 
# 
# From -- ./inp_files/9987.got.cif
#   From: 2010.05.17/outbox.cif.g08.bks.cpg/sg57_5_cif.got.tgz:9987.got - 2010.06.03 13:58:18.
