data_PCOD9437843
_publ_section_title
;
Structure prediction by ZEFSAII (Michael W. Deem and Ramdas Pophale) SiO2 
 PCOD9437843
Probable space group: P B C M
;
_chemical_formula_sum "Si O2"
_cell_formula_units_Z 64
_cell_length_a 12.333717
_cell_length_b 31.934860
_cell_length_c 8.892115
_cell_angle_alpha 90.000000
_cell_angle_beta 90.000000
_cell_angle_gamma 90.000000
_cell_volume 3502.386470
_symmetry_space_group_name_H-M "P B C M"
_symmetry_group_IT_number 57
_symmetry_cell_setting 'orthorhombic'
loop_
_space_group_symop_operation_xyz
x,y,z
-x,-y,1/2+z
x,1/2-y,-z
-x,1/2+y,1/2-z
-x,-y,-z
x,y,1/2-z
-x,1/2+y,z
x,1/2-y,1/2+z
loop_
_atom_site_type_symbol
_atom_site_label
_atom_site_fract_x
_atom_site_fract_y
_atom_site_fract_z
Si Si1 0.992556 0.205090 0.069324
Si Si2 0.742573 0.443809 0.571206
Si Si3 0.375888 0.113640 0.073391
Si Si4 0.132332 0.124969 0.066295
Si Si5 0.397060 0.630331 0.928765
Si Si6 0.613060 0.986396 0.574188
Si Si7 0.990664 0.046185 0.069637
Si Si8 0.738969 0.205138 0.430133
O O1 0.001444 0.208142 0.250000
O O2 0.865895 0.197107 0.033805
O O3 0.063813 0.165553 0.018783
O O4 0.023294 0.250000 0.000000
O O5 0.725250 0.441393 0.750000
O O6 0.664192 0.410640 0.492139
O O7 0.708067 0.489149 0.510457
O O8 0.869249 0.436657 0.540054
O O9 0.389884 0.124550 0.250000
O O10 0.257615 0.128394 0.021009
O O11 0.374990 0.063240 0.063357
O O12 0.478623 0.129664 0.981988
O O13 0.130675 0.123838 0.250000
O O14 0.076513 0.081296 0.017191
O O15 0.390456 0.630799 0.750000
O O16 0.335020 0.669573 0.999407
O O17 0.613513 0.998054 0.750000
O O18 0.500000 0.000000 0.500000
O O19 0.002298 0.041868 0.250000
O O20 0.000000 0.000000 0.000000
O O21 0.711042 0.250000 0.500000
O O22 0.727916 0.205698 0.250000
#
# Coordination Sequence:
#
# PCOD9437843 Si02
#       8
#     8   8   8   8   8   8   8   8
#     4   9  18  35  61  89 115 144 181 227 279 337
#     4  11  22  36  56  82 113 148 188 234 288 340
#     4  10  21  37  57  78 108 151 195 237 283 339
#     4   9  18  36  59  81 109 151 193 229 281 344
#     4  12  24  37  56  82 112 146 189 235 281 333
#     4  11  21  34  54  79 109 148 194 241 288 337
#     4  10  21  37  57  82 113 149 189 235 287 347
#     4  10  20  37  61  88 118 146 178 223 280 341
#
# _framework density 18.273254000000001
#
# number of rings (size 3 to 8) (size 9 to 14) (size 15 to 20)
#    0.000    1.750    1.250    3.750    0.000    5.000 
#    0.000    2.500    0.000    1.500    0.000    0.000 
#    0.000    0.000    0.000    0.000    0.000    0.000 
#
# Total GULP energy -357508.756941 kJ/mol
# GULP energy per Si atom -5586.074327 kJ/mol
# Density = 1.823166 g / cm^3
# Si number density = 18.273254 Si / 1000 Ang^3
#
#
#
# Elastic Constant Matrix: (Units=GPa)
#
#
# Indices 1 2 3 4 5 6 
#
# 1 109.3946 65.5774 49.8615 0.0000 0.0000 0.0000
# 2 65.5774 108.3018 36.6935 0.0000 0.0000 0.0000
# 3 49.8615 36.6935 59.6988 0.0000 0.0000 0.0000
# 4 0.0000 0.0000 0.0000 31.0106 0.0000 0.0000
# 5 0.0000 0.0000 0.0000 0.0000 18.9854 0.0000
# 6 0.0000 0.0000 0.0000 0.0000 0.0000 35.9812
#
#
#
# Elastic Compliance Matrix: (Units=1/GPa)
#
#
# Indices 1 2 3 4 5 6 
#
# 1 0.018684 -0.007611 -0.010927 0.000000 0.000000 0.000000
# 2 -0.007611 0.014763 -0.002717 0.000000 0.000000 0.000000
# 3 -0.010927 -0.002717 0.027547 0.000000 0.000000 0.000000
# 4 0.000000 0.000000 0.000000 0.032247 0.000000 0.000000
# 5 0.000000 0.000000 0.000000 0.000000 0.052672 0.000000
# 6 0.000000 0.000000 0.000000 0.000000 0.000000 0.027792
#
#
# Mechanical properties :
#
#
# Convention : Reuss Voigt Hill
#
# Bulk Modulus (GPa) = 54.10175 64.62889 59.36532
# Shear Modulus (GPa) = 22.48427 25.54628 24.01528
#
# Velocity S-wave (km/s) = 3.51158 3.74306 3.62917
# Velocity P-wave (km/s) = 6.79065 7.35700 7.07949
#
# Compressibility (1/GPa) = 0.01848369
#
# Stress axis : x y z
#
# Youngs Moduli (GPa) = 53.52031 67.73893 36.30124
#
# Poissons Ratio (x) = 0.51558 0.39668
# Poissons Ratio (y) = 0.40736 0.09862
# Poissons Ratio (z) = 0.58484 0.18402
#
# Static dielectric constant tensor:
#      x y z
#    x 1.634810 0.000000 0.000000 
#    y 0.000000 1.621670 0.000000 
#    z 0.000000 0.000000 1.613520 
# 
# From -- ./inp_files/3751.got.cif
#   From: 2010.05.17/outbox.cif.g08.bks.cpg/sg57_2_cif.got.tgz:3751.got - 2010.06.03 13:58:18.
