data_PCOD9437937
_publ_section_title
;
Structure prediction by ZEFSAII (Michael W. Deem and Ramdas Pophale) SiO2 
 PCOD9437937
Probable space group: P B C M
;
_chemical_formula_sum "Si O2"
_cell_formula_units_Z 48
_cell_length_a 25.492048
_cell_length_b 9.395274
_cell_length_c 10.498518
_cell_angle_alpha 90.000000
_cell_angle_beta 90.000000
_cell_angle_gamma 90.000000
_cell_volume 2514.445200
_symmetry_space_group_name_H-M "P B C M"
_symmetry_group_IT_number 57
_symmetry_cell_setting 'orthorhombic'
loop_
_space_group_symop_operation_xyz
x,y,z
-x,-y,1/2+z
x,1/2-y,-z
-x,1/2+y,1/2-z
-x,-y,-z
x,y,1/2-z
-x,1/2+y,z
x,1/2-y,1/2+z
loop_
_atom_site_type_symbol
_atom_site_label
_atom_site_fract_x
_atom_site_fract_y
_atom_site_fract_z
Si Si1 0.617835 0.582685 0.517010
Si Si2 0.541513 0.625685 0.750000
Si Si3 0.829438 0.132163 0.107452
Si Si4 0.292538 0.873898 0.897194
Si Si5 0.030661 0.640998 0.614685
Si Si6 0.915031 0.911166 0.029450
Si Si7 0.565856 0.539370 0.250000
O O1 0.629204 0.750000 0.500000
O O2 0.572206 0.573008 0.623781
O O3 0.668192 0.500408 0.568773
O O4 0.598888 0.524261 0.380124
O O5 0.482873 0.567399 0.750000
O O6 0.544489 0.797468 0.750000
O O7 0.834421 0.193231 0.250000
O O8 0.768859 0.085380 0.091889
O O9 0.869201 0.001777 0.092209
O O10 0.840158 0.250000 0.000000
O O11 0.301326 0.828581 0.750000
O O12 0.301867 0.750000 0.000000
O O13 0.039449 0.750000 0.500000
O O14 0.041686 0.709876 0.750000
O O15 0.065884 0.501982 0.592977
O O16 0.969563 0.597417 0.607365
O O17 0.899336 0.750000 0.000000
#
# Coordination Sequence:
#
# PCOD9437937 Si02
#       7
#     8   4   8   8   8   8   4
#     4  10  21  38  60  85 121 158 195 241 291 343
#     4  10  20  38  56  86 122 158 196 239 284 341
#     4  10  22  41  62  84 114 151 192 240 294 347
#     4  10  22  40  62  87 114 149 196 245 291 347
#     4  10  22  39  59  84 116 155 194 234 286 346
#     4  10  22  36  58  87 118 149 191 240 287 345
#     4  10  22  34  58  88 120 158 196 235 288 339
#
# _framework density 19.089697999999999
#
# number of rings (size 3 to 8) (size 9 to 14) (size 15 to 20)
#    0.000    2.000    0.833    1.500    1.167   12.000 
#    0.000    0.000    0.000    0.000    0.000    0.000 
#    0.000    0.000    0.000    0.000    0.000    0.000 
#
# Total GULP energy -268018.502211 kJ/mol
# GULP energy per Si atom -5583.718796 kJ/mol
# Density = 1.904625 g / cm^3
# Si number density = 19.089698 Si / 1000 Ang^3
#
#
#
# Elastic Constant Matrix: (Units=GPa)
#
#
# Indices 1 2 3 4 5 6 
#
# 1 93.3501 46.5525 45.1835 0.0000 0.0000 0.0000
# 2 46.5525 77.6958 51.8971 0.0000 0.0000 0.0000
# 3 45.1835 51.8971 167.2908 0.0000 0.0000 0.0000
# 4 0.0000 0.0000 0.0000 19.9283 0.0000 0.0000
# 5 0.0000 0.0000 0.0000 0.0000 76.9405 0.0000
# 6 0.0000 0.0000 0.0000 0.0000 0.0000 33.3541
#
#
#
# Elastic Compliance Matrix: (Units=1/GPa)
#
#
# Indices 1 2 3 4 5 6 
#
# 1 0.015635 -0.008258 -0.001661 0.000000 0.000000 0.000000
# 2 -0.008258 0.020597 -0.004159 0.000000 0.000000 0.000000
# 3 -0.001661 -0.004159 0.007716 0.000000 0.000000 0.000000
# 4 0.000000 0.000000 0.000000 0.050180 0.000000 0.000000
# 5 0.000000 0.000000 0.000000 0.000000 0.012997 0.000000
# 6 0.000000 0.000000 0.000000 0.000000 0.000000 0.029981
#
#
# Mechanical properties :
#
#
# Convention : Reuss Voigt Hill
#
# Bulk Modulus (GPa) = 63.32565 69.51143 66.41854
# Shear Modulus (GPa) = 29.32096 39.02480 34.17288
#
# Velocity S-wave (km/s) = 3.92338 4.52628 4.23557
# Velocity P-wave (km/s) = 7.33271 7.98802 7.66737
#
# Compressibility (1/GPa) = 0.01579139
#
# Stress axis : x y z
#
# Youngs Moduli (GPa) = 63.96091 48.55109 129.59363
#
# Poissons Ratio (x) = 0.40095 0.21523
# Poissons Ratio (y) = 0.52821 0.53899
# Poissons Ratio (z) = 0.10623 0.20193
#
# Static dielectric constant tensor:
#      x y z
#    x 1.647780 0.000000 0.000000 
#    y 0.000000 1.646060 0.000000 
#    z 0.000000 0.000000 1.694400 
# 
# From -- ./inp_files/14415.got.cif
#   From: 2010.05.17/outbox.cif.g08.bks.cpg/sg57_8_cif.got.tgz:14415.got - 2010.06.03 13:58:18.
