data_PCOD9437454
_publ_section_title
;
Structure prediction by ZEFSAII (Michael W. Deem and Ramdas Pophale) SiO2 
 PCOD9437454
Probable space group: P B C M
;
_chemical_formula_sum "Si O2"
_cell_formula_units_Z 60
_cell_length_a 15.077723
_cell_length_b 8.464738
_cell_length_c 24.833279
_cell_angle_alpha 90.000000
_cell_angle_beta 90.000000
_cell_angle_gamma 90.000000
_cell_volume 3169.445940
_symmetry_space_group_name_H-M "P B C M"
_symmetry_group_IT_number 57
_symmetry_cell_setting 'orthorhombic'
loop_
_space_group_symop_operation_xyz
x,y,z
-x,-y,1/2+z
x,1/2-y,-z
-x,1/2+y,1/2-z
-x,-y,-z
x,y,1/2-z
-x,1/2+y,z
x,1/2-y,1/2+z
loop_
_atom_site_type_symbol
_atom_site_label
_atom_site_fract_x
_atom_site_fract_y
_atom_site_fract_z
Si Si1 0.539856 0.763140 0.880416
Si Si2 0.213898 0.863094 0.810726
Si Si3 0.271454 0.750000 0.500000
Si Si4 0.575497 0.461643 0.044205
Si Si5 0.591607 0.027780 0.186592
Si Si6 0.039144 0.062621 0.116713
Si Si7 0.125225 0.736851 0.586870
Si Si8 0.911163 0.846666 0.187271
O O1 0.467034 0.671472 0.916821
O O2 0.594892 0.630221 0.849253
O O3 0.590833 0.882166 0.920089
O O4 0.488932 0.869391 0.836603
O O5 0.196452 0.809160 0.750000
O O6 0.162919 0.757176 0.853052
O O7 0.318263 0.873668 0.820269
O O8 0.174461 0.040444 0.815315
O O9 0.337056 0.608301 0.516795
O O10 0.204527 0.788187 0.548386
O O11 0.500000 0.500000 0.000000
O O12 0.581249 0.992475 0.250000
O O13 0.093607 0.192251 0.150238
O O14 0.962016 0.153628 0.083903
O O15 0.096111 0.944498 0.080327
O O16 0.988722 0.952711 0.160608
O O17 0.928969 0.809779 0.250000
#
# Coordination Sequence:
#
# PCOD9437454 Si02
#       8
#     8   8   4   8   8   8   8   8
#     4  10  21  35  61  81 114 156 191 244 292 353
#     4   9  19  34  54  81 115 147 187 237 283 334
#     4  12  24  38  64  84 116 146 200 248 296 358
#     4  11  21  39  59  87 114 147 198 253 300 336
#     4  10  20  36  56  85 120 155 191 231 289 360
#     4   9  19  35  54  79 117 146 191 233 283 354
#     4  10  22  38  59  82 112 154 191 239 291 345
#     4   9  16  29  53  82 110 148 185 229 280 333
#
# _framework density 18.930754
#
# number of rings (size 3 to 8) (size 9 to 14) (size 15 to 20)
#    0.000    2.133    1.333    1.600    1.867    5.333 
#    0.000    0.000    0.000    7.200    0.000    0.000 
#    0.000    0.000    0.000    0.000    0.000    0.000 
#
# Total GULP energy -334748.970820 kJ/mol
# GULP energy per Si atom -5579.149514 kJ/mol
# Density = 1.888767 g / cm^3
# Si number density = 18.930754 Si / 1000 Ang^3
#
#
#
# Elastic Constant Matrix: (Units=GPa)
#
#
# Indices 1 2 3 4 5 6 
#
# 1 55.5065 1.1027 23.8077 0.0000 0.0000 0.0000
# 2 1.1027 54.7813 11.3993 0.0000 0.0000 0.0000
# 3 23.8077 11.3993 47.8624 0.0000 0.0000 0.0000
# 4 0.0000 0.0000 0.0000 30.1455 0.0000 0.0000
# 5 0.0000 0.0000 0.0000 0.0000 17.6101 0.0000
# 6 0.0000 0.0000 0.0000 0.0000 0.0000 17.2856
#
#
#
# Elastic Compliance Matrix: (Units=1/GPa)
#
#
# Indices 1 2 3 4 5 6 
#
# 1 0.023114 0.002028 -0.011980 0.000000 0.000000 0.000000
# 2 0.002028 0.019384 -0.005625 0.000000 0.000000 0.000000
# 3 -0.011980 -0.005625 0.028192 0.000000 0.000000 0.000000
# 4 0.000000 0.000000 0.000000 0.033172 0.000000 0.000000
# 5 0.000000 0.000000 0.000000 0.000000 0.056786 0.000000
# 6 0.000000 0.000000 0.000000 0.000000 0.000000 0.057852
#
#
# Mechanical properties :
#
#
# Convention : Reuss Voigt Hill
#
# Bulk Modulus (GPa) = 25.29427 25.64107 25.46767
# Shear Modulus (GPa) = 19.02339 21.13095 20.07717
#
# Velocity S-wave (km/s) = 3.17344 3.34462 3.26015
# Velocity P-wave (km/s) = 5.17862 5.33754 5.25868
#
# Compressibility (1/GPa) = 0.03953464
#
# Stress axis : x y z
#
# Youngs Moduli (GPa) = 43.26342 51.58855 35.47072
#
# Poissons Ratio (x) = -0.10461 0.42495
# Poissons Ratio (y) = -0.08773 0.19953
# Poissons Ratio (z) = 0.51831 0.29020
#
# Static dielectric constant tensor:
#      x y z
#    x 1.644300 0.000000 0.000000 
#    y 0.000000 1.661410 0.000000 
#    z 0.000000 0.000000 1.670190 
# 
# From -- ./inp_files/27421.got.cif
#   From: 2010.05.17/outbox.cif.g08.bks.cpg/sg57_14_cif.got.tgz:27421.got - 2010.06.03 13:58:18.
