data_PCOD9437885
_publ_section_title
;
Structure prediction by ZEFSAII (Michael W. Deem and Ramdas Pophale) SiO2 
 PCOD9437885
Probable space group: P B C M
;
_chemical_formula_sum "Si O2"
_cell_formula_units_Z 64
_cell_length_a 22.559180
_cell_length_b 9.126038
_cell_length_c 15.316504
_cell_angle_alpha 90.000000
_cell_angle_beta 90.000000
_cell_angle_gamma 90.000000
_cell_volume 3153.299566
_symmetry_space_group_name_H-M "P B C M"
_symmetry_group_IT_number 57
_symmetry_cell_setting 'orthorhombic'
loop_
_space_group_symop_operation_xyz
x,y,z
-x,-y,1/2+z
x,1/2-y,-z
-x,1/2+y,1/2-z
-x,-y,-z
x,y,1/2-z
-x,1/2+y,z
x,1/2-y,1/2+z
loop_
_atom_site_type_symbol
_atom_site_label
_atom_site_fract_x
_atom_site_fract_y
_atom_site_fract_z
Si Si1 0.284875 0.067125 0.151385
Si Si2 0.201311 0.147886 0.851650
Si Si3 0.744487 0.402645 0.525538
Si Si4 0.362181 0.950689 0.647631
Si Si5 0.932280 0.656497 0.852455
Si Si6 0.598883 0.764060 0.851013
Si Si7 0.479097 0.868055 0.938057
Si Si8 0.028897 0.872218 0.559254
O O1 0.273407 0.008353 0.250000
O O2 0.247137 0.217502 0.143770
O O3 0.354459 0.105101 0.145494
O O4 0.269771 0.972794 0.067874
O O5 0.201278 0.098128 0.750000
O O6 0.135101 0.200619 0.873806
O O7 0.219409 0.017777 0.916000
O O8 0.774467 0.250000 0.500000
O O9 0.685167 0.375055 0.584196
O O10 0.345348 0.940923 0.750000
O O11 0.430362 0.903864 0.634206
O O12 0.366276 0.120465 0.617131
O O13 0.942321 0.672073 0.750000
O O14 0.937701 0.482074 0.875047
O O15 0.978242 0.769014 0.897718
O O16 0.584600 0.734244 0.750000
O O17 0.538647 0.798411 0.899550
O O18 0.448686 0.750000 0.000000
O O19 0.500000 0.000000 0.000000
O O20 0.062655 0.750000 0.500000
O O21 0.000000 0.000000 0.500000
#
# Coordination Sequence:
#
# PCOD9437885 Si02
#       8
#     8   8   8   8   8   8   8   8
#     4  10  22  41  66  91 116 157 209 256 301 369
#     4  10  22  41  66  93 121 165 219 260 300 365
#     4  12  25  40  63  92 124 160 196 255 328 378
#     4  11  23  41  62  87 121 158 201 253 308 370
#     4  10  20  37  62  92 126 166 213 257 304 362
#     4  10  21  39  61  84 113 152 199 249 301 364
#     4  12  23  37  57  85 116 151 198 247 300 368
#     4   9  19  34  55  86 128 168 207 255 305 358
#
# _framework density 20.296199000000001
#
# number of rings (size 3 to 8) (size 9 to 14) (size 15 to 20)
#    0.000    1.500    2.500    2.625    0.000    4.500 
#    0.000    2.500    0.000    6.000    0.000    0.000 
#    0.000    0.000    0.000    0.000    0.000    0.000 
#
# Total GULP energy -356884.417896 kJ/mol
# GULP energy per Si atom -5576.319030 kJ/mol
# Density = 2.025000 g / cm^3
# Si number density = 20.296199 Si / 1000 Ang^3
#
#
#
# Elastic Constant Matrix: (Units=GPa)
#
#
# Indices 1 2 3 4 5 6 
#
# 1 71.9197 2.9893 23.7796 0.0000 0.0000 0.0000
# 2 2.9893 66.2657 31.4559 0.0000 0.0000 0.0000
# 3 23.7796 31.4559 88.6783 0.0000 0.0000 0.0000
# 4 0.0000 0.0000 0.0000 22.8394 0.0000 0.0000
# 5 0.0000 0.0000 0.0000 0.0000 1.8839 0.0000
# 6 0.0000 0.0000 0.0000 0.0000 0.0000 17.8257
#
#
#
# Elastic Compliance Matrix: (Units=1/GPa)
#
#
# Indices 1 2 3 4 5 6 
#
# 1 0.015383 0.001520 -0.004664 0.000000 0.000000 0.000000
# 2 0.001520 0.018297 -0.006898 0.000000 0.000000 0.000000
# 3 -0.004664 -0.006898 0.014974 0.000000 0.000000 0.000000
# 4 0.000000 0.000000 0.000000 0.043784 0.000000 0.000000
# 5 0.000000 0.000000 0.000000 0.000000 0.530824 0.000000
# 6 0.000000 0.000000 0.000000 0.000000 0.000000 0.056099
#
#
# Mechanical properties :
#
#
# Convention : Reuss Voigt Hill
#
# Bulk Modulus (GPa) = 35.00139 38.14591 36.57365
# Shear Modulus (GPa) = 7.05250 19.75237 13.40244
#
# Velocity S-wave (km/s) = 1.86610 3.12301 2.57250
# Velocity P-wave (km/s) = 4.68250 5.64266 5.18486
#
# Compressibility (1/GPa) = 0.02857029
#
# Stress axis : x y z
#
# Youngs Moduli (GPa) = 65.00486 54.65524 66.78114
#
# Poissons Ratio (x) = -0.08309 0.31150
# Poissons Ratio (y) = -0.09882 0.46064
# Poissons Ratio (z) = 0.30321 0.37700
#
# Static dielectric constant tensor:
#      x y z
#    x 1.718840 0.000000 0.000000 
#    y 0.000000 1.749430 0.000000 
#    z 0.000000 0.000000 1.747050 
# 
# From -- ./inp_files/19493.got.cif
#   From: 2010.05.17/outbox.cif.g08.bks.cpg/sg57_10_cif.got.tgz:19493.got - 2010.06.03 13:58:18.
