data_PCOD9437855
_publ_section_title
;
Structure prediction by ZEFSAII (Michael W. Deem and Ramdas Pophale) SiO2 
 PCOD9437855
Probable space group: P B C M
;
_chemical_formula_sum "Si O2"
_cell_formula_units_Z 64
_cell_length_a 14.923774
_cell_length_b 25.838675
_cell_length_c 8.422554
_cell_angle_alpha 90.000000
_cell_angle_beta 90.000000
_cell_angle_gamma 90.000000
_cell_volume 3247.825648
_symmetry_space_group_name_H-M "P B C M"
_symmetry_group_IT_number 57
_symmetry_cell_setting 'orthorhombic'
loop_
_space_group_symop_operation_xyz
x,y,z
-x,-y,1/2+z
x,1/2-y,-z
-x,1/2+y,1/2-z
-x,-y,-z
x,y,1/2-z
-x,1/2+y,z
x,1/2-y,1/2+z
loop_
_atom_site_type_symbol
_atom_site_label
_atom_site_fract_x
_atom_site_fract_y
_atom_site_fract_z
Si Si1 0.273419 0.589010 0.059461
Si Si2 0.010673 0.165499 0.942883
Si Si3 0.186460 0.804811 0.440396
Si Si4 0.475218 0.557773 0.057456
Si Si5 0.790837 0.806319 0.559083
Si Si6 0.788681 0.982070 0.564670
Si Si7 0.964834 0.553057 0.932488
Si Si8 0.652369 0.605592 0.439146
O O1 0.267296 0.585821 0.250000
O O2 0.376229 0.576876 0.011026
O O3 0.237649 0.644586 0.004025
O O4 0.217258 0.541548 0.985102
O O5 0.014556 0.166274 0.750000
O O6 0.001937 0.106482 0.004193
O O7 0.918369 0.192312 0.992217
O O8 0.106632 0.185471 0.001890
O O9 0.223844 0.750000 0.500000
O O10 0.188542 0.806447 0.250000
O O11 0.477625 0.556570 0.250000
O O12 0.551698 0.598058 0.999605
O O13 0.500000 0.500000 0.000000
O O14 0.761228 0.750000 0.500000
O O15 0.792660 0.807943 0.750000
O O16 0.721386 0.850698 0.500425
O O17 0.814129 0.977782 0.750000
O O18 0.859268 0.951006 0.459586
O O19 0.696784 0.951087 0.542393
O O20 0.989303 0.554465 0.750000
O O21 0.000000 0.500000 0.000000
O O22 0.646264 0.615468 0.250000
#
# Coordination Sequence:
#
# PCOD9437855 Si02
#       8
#     8   8   8   8   8   8   8   8
#     4  11  23  38  61  93 123 156 198 249 302 360
#     4  10  22  39  59  85 115 152 197 244 290 346
#     4  11  24  43  64  86 117 158 202 250 300 354
#     4  10  20  37  61  90 121 154 194 242 296 357
#     4  11  22  38  60  86 116 156 198 241 291 347
#     4  11  20  35  58  84 119 160 197 239 296 355
#     4  11  22  35  53  82 121 159 199 243 295 357
#     4   9  19  36  58  84 118 156 191 234 294 353
#
# _framework density 19.705492
#
# number of rings (size 3 to 8) (size 9 to 14) (size 15 to 20)
#    0.000    1.500    2.500    3.000    0.000    4.000 
#    0.000    1.875    0.000    1.500    0.000    0.000 
#    0.000    0.000    0.000    0.000    0.000    0.000 
#
# Total GULP energy -357213.796395 kJ/mol
# GULP energy per Si atom -5581.465569 kJ/mol
# Density = 1.966064 g / cm^3
# Si number density = 19.705492 Si / 1000 Ang^3
#
#
#
# Elastic Constant Matrix: (Units=GPa)
#
#
# Indices 1 2 3 4 5 6 
#
# 1 80.9142 39.8332 1.8349 0.0000 0.0000 0.0000
# 2 39.8332 151.9241 15.3408 0.0000 0.0000 0.0000
# 3 1.8349 15.3408 17.7186 0.0000 0.0000 0.0000
# 4 0.0000 0.0000 0.0000 29.0165 0.0000 0.0000
# 5 0.0000 0.0000 0.0000 0.0000 15.3094 0.0000
# 6 0.0000 0.0000 0.0000 0.0000 0.0000 14.8335
#
#
#
# Elastic Compliance Matrix: (Units=1/GPa)
#
#
# Indices 1 2 3 4 5 6 
#
# 1 0.014250 -0.003931 0.001928 0.000000 0.000000 0.000000
# 2 -0.003931 0.008297 -0.006777 0.000000 0.000000 0.000000
# 3 0.001928 -0.006777 0.062105 0.000000 0.000000 0.000000
# 4 0.000000 0.000000 0.000000 0.034463 0.000000 0.000000
# 5 0.000000 0.000000 0.000000 0.000000 0.065319 0.000000
# 6 0.000000 0.000000 0.000000 0.000000 0.000000 0.067415
#
#
# Mechanical properties :
#
#
# Convention : Reuss Voigt Hill
#
# Bulk Modulus (GPa) = 14.90469 40.50832 27.70650
# Shear Modulus (GPa) = 17.13654 24.73508 20.93581
#
# Velocity S-wave (km/s) = 2.95215 3.54678 3.26304
# Velocity P-wave (km/s) = 4.38183 6.11345 5.31859
#
# Compressibility (1/GPa) = 0.06709295
#
# Stress axis : x y z
#
# Youngs Moduli (GPa) = 70.17441 120.52298 16.10169
#
# Poissons Ratio (x) = 0.47377 -0.03104
# Poissons Ratio (y) = 0.27585 0.10911
# Poissons Ratio (z) = -0.13527 0.81674
#
# Static dielectric constant tensor:
#      x y z
#    x 1.758190 0.000000 0.000000 
#    y 0.000000 1.707610 0.000000 
#    z 0.000000 0.000000 1.686280 
# 
# From -- ./inp_files/5554.got.cif
#   From: 2010.05.17/outbox.cif.g08.bks.cpg/sg57_3_cif.got.tgz:5554.got - 2010.06.03 13:58:18.
