data_PCOD9437901
_publ_section_title
;
Structure prediction by ZEFSAII (Michael W. Deem and Ramdas Pophale) SiO2 
 PCOD9437901
Probable space group: P B C M
;
_chemical_formula_sum "Si O2"
_cell_formula_units_Z 48
_cell_length_a 19.241610
_cell_length_b 15.259596
_cell_length_c 8.770116
_cell_angle_alpha 90.000000
_cell_angle_beta 90.000000
_cell_angle_gamma 90.000000
_cell_volume 2575.074400
_symmetry_space_group_name_H-M "P B C M"
_symmetry_group_IT_number 57
_symmetry_cell_setting 'orthorhombic'
loop_
_space_group_symop_operation_xyz
x,y,z
-x,-y,1/2+z
x,1/2-y,-z
-x,1/2+y,1/2-z
-x,-y,-z
x,y,1/2-z
-x,1/2+y,z
x,1/2-y,1/2+z
loop_
_atom_site_type_symbol
_atom_site_label
_atom_site_fract_x
_atom_site_fract_y
_atom_site_fract_z
Si Si1 0.155289 0.657027 0.432306
Si Si2 0.494033 0.650657 0.066769
Si Si3 0.397957 0.501280 0.933305
Si Si4 0.764324 0.993959 0.932205
Si Si5 0.000807 0.097385 0.432266
Si Si6 0.143903 0.339801 0.431039
O O1 0.175249 0.750000 0.500000
O O2 0.163689 0.653552 0.250000
O O3 0.201116 0.583301 0.511453
O O4 0.073763 0.639871 0.466290
O O5 0.491710 0.657907 0.250000
O O6 0.559908 0.587684 0.024351
O O7 0.495156 0.750000 0.000000
O O8 0.430973 0.588253 0.009150
O O9 0.404871 0.511103 0.750000
O O10 0.317059 0.491738 0.971231
O O11 0.771431 0.985375 0.750000
O O12 0.807704 0.918022 0.012979
O O13 0.009488 0.094255 0.250000
O O14 0.066284 0.145625 0.505179
O O15 0.000000 0.000000 0.500000
O O16 0.171712 0.250000 0.500000
O O17 0.141226 0.336666 0.250000
#
# Coordination Sequence:
#
# PCOD9437901 Si02
#       6
#     8   8   8   8   8   8
#     4  11  24  40  60  87 117 155 201 248 300 358
#     4  10  20  37  63  92 122 155 194 238 287 344
#     4   9  21  40  61  89 121 156 197 240 290 346
#     4  11  23  41  63  87 121 158 197 247 299 356
#     4  11  22  38  62  88 117 153 199 252 305 358
#     4  12  25  41  61  87 119 157 204 251 302 360
#
# _framework density 18.640239000000001
#
# number of rings (size 3 to 8) (size 9 to 14) (size 15 to 20)
#    0.000    1.333    1.667    4.000    0.000    6.667 
#    0.000    1.667    0.000    0.000    0.000    0.000 
#    0.000    0.000    0.000    0.000    0.000    0.000 
#
# Total GULP energy -268242.688243 kJ/mol
# GULP energy per Si atom -5588.389338 kJ/mol
# Density = 1.859781 g / cm^3
# Si number density = 18.640239 Si / 1000 Ang^3
#
#
#
# Elastic Constant Matrix: (Units=GPa)
#
#
# Indices 1 2 3 4 5 6 
#
# 1 90.9626 25.2078 38.2372 0.0000 0.0000 0.0000
# 2 25.2078 138.4541 29.7480 0.0000 0.0000 0.0000
# 3 38.2372 29.7480 61.1471 0.0000 0.0000 0.0000
# 4 0.0000 0.0000 0.0000 26.4836 0.0000 0.0000
# 5 0.0000 0.0000 0.0000 0.0000 -246.3267 0.0000
# 6 0.0000 0.0000 0.0000 0.0000 0.0000 73.1307
#
#
#
# Elastic Compliance Matrix: (Units=1/GPa)
#
#
# Indices 1 2 3 4 5 6 
#
# 1 0.014993 -0.000799 -0.008987 0.000000 0.000000 0.000000
# 2 -0.000799 0.008108 -0.003445 0.000000 0.000000 0.000000
# 3 -0.008987 -0.003445 0.023650 0.000000 0.000000 0.000000
# 4 0.000000 0.000000 0.000000 0.037759 0.000000 0.000000
# 5 0.000000 0.000000 0.000000 0.000000 -0.004060 0.000000
# 6 0.000000 0.000000 0.000000 0.000000 0.000000 0.013674
#
#
# Mechanical properties :
#
#
# Convention : Reuss Voigt Hill
#
# Bulk Modulus (GPa) = 49.28715 52.99445 51.14080
# Shear Modulus (GPa) = 39.26230 -16.18442 11.53894
#
# Velocity S-wave (km/s) = 4.59444 -2.94981 2.49074
# Velocity P-wave (km/s) = 7.39215 4.10975 5.98055
#
# Compressibility (1/GPa) = 0.02028926
#
# Stress axis : x y z
#
# Youngs Moduli (GPa) = 66.69976 123.33099 42.28372
#
# Poissons Ratio (x) = 0.09851 0.37999
# Poissons Ratio (y) = 0.05328 0.14567
# Poissons Ratio (z) = 0.59941 0.42490
#
# Static dielectric constant tensor:
#      x y z
#    x 1.632660 0.000000 0.000000 
#    y 0.000000 1.606370 0.000000 
#    z 0.000000 0.000000 1.628950 
# 
# From -- ./inp_files/6528.got.cif
#   From: 2010.05.17/outbox.cif.g08.bks.cpg/sg57_4_cif.got.tgz:6528.got - 2010.06.03 13:58:18.
