data_PCOD9437814
_publ_section_title
;
Structure prediction by ZEFSAII (Michael W. Deem and Ramdas Pophale) SiO2 
 PCOD9437814
Probable space group: P B C M
;
_chemical_formula_sum "Si O2"
_cell_formula_units_Z 48
_cell_length_a 12.854112
_cell_length_b 24.004884
_cell_length_c 8.720311
_cell_angle_alpha 90.000000
_cell_angle_beta 90.000000
_cell_angle_gamma 90.000000
_cell_volume 2690.751959
_symmetry_space_group_name_H-M "P B C M"
_symmetry_group_IT_number 57
_symmetry_cell_setting 'orthorhombic'
loop_
_space_group_symop_operation_xyz
x,y,z
-x,-y,1/2+z
x,1/2-y,-z
-x,1/2+y,1/2-z
-x,-y,-z
x,y,1/2-z
-x,1/2+y,z
x,1/2-y,1/2+z
loop_
_atom_site_type_symbol
_atom_site_label
_atom_site_fract_x
_atom_site_fract_y
_atom_site_fract_z
Si Si1 0.003088 0.311152 0.933236
Si Si2 0.617360 0.688963 0.434240
Si Si3 0.806622 0.391502 0.934157
Si Si4 0.195855 0.379123 0.066896
Si Si5 0.883710 0.994764 0.567329
Si Si6 0.376705 0.810399 0.934333
O O1 0.017043 0.307880 0.750000
O O2 0.905839 0.351840 0.964224
O O3 0.983723 0.250000 0.000000
O O4 0.105260 0.337887 0.008080
O O5 0.644386 0.750000 0.500000
O O6 0.625945 0.689803 0.250000
O O7 0.695638 0.644264 0.503624
O O8 0.496681 0.678111 0.476531
O O9 0.802626 0.401076 0.750000
O O10 0.703786 0.357901 0.982681
O O11 0.822966 0.449681 0.018375
O O12 0.196264 0.380262 0.250000
O O13 0.169260 0.439894 0.001594
O O14 0.890098 0.989713 0.750000
O O15 0.000000 0.000000 0.500000
O O16 0.371510 0.806846 0.750000
O O17 0.347422 0.750000 0.000000
#
# Coordination Sequence:
#
# PCOD9437814 Si02
#       6
#     8   8   8   8   8   8
#     4  11  22  35  55  83 118 151 187 234 288 346
#     4  10  20  37  60  87 119 154 195 239 289 344
#     4  10  21  38  59  85 117 153 193 237 286 341
#     4  12  24  39  59  83 114 151 196 241 290 344
#     4  12  24  40  61  85 114 153 195 237 289 346
#     4   9  19  36  60  88 119 155 193 237 287 342
#
# _framework density 17.838878000000001
#
# number of rings (size 3 to 8) (size 9 to 14) (size 15 to 20)
#    0.000    1.333    1.667    5.000    0.000    2.000 
#    0.000    0.833    0.000    0.000    0.000    0.000 
#    0.000    0.000    0.000    0.000    0.000    0.000 
#
# Total GULP energy -268358.964691 kJ/mol
# GULP energy per Si atom -5590.811764 kJ/mol
# Density = 1.779828 g / cm^3
# Si number density = 17.838878 Si / 1000 Ang^3
#
#
#
# Elastic Constant Matrix: (Units=GPa)
#
#
# Indices 1 2 3 4 5 6 
#
# 1 90.4157 50.0200 36.3983 0.0000 0.0000 0.0000
# 2 50.0200 98.5821 37.7247 0.0000 0.0000 0.0000
# 3 36.3983 37.7247 81.8064 0.0000 0.0000 0.0000
# 4 0.0000 0.0000 0.0000 34.5453 0.0000 0.0000
# 5 0.0000 0.0000 0.0000 0.0000 13.1248 0.0000
# 6 0.0000 0.0000 0.0000 0.0000 0.0000 23.7557
#
#
#
# Elastic Compliance Matrix: (Units=1/GPa)
#
#
# Indices 1 2 3 4 5 6 
#
# 1 0.016497 -0.006754 -0.004226 0.000000 0.000000 0.000000
# 2 -0.006754 0.015082 -0.003950 0.000000 0.000000 0.000000
# 3 -0.004226 -0.003950 0.015926 0.000000 0.000000 0.000000
# 4 0.000000 0.000000 0.000000 0.028948 0.000000 0.000000
# 5 0.000000 0.000000 0.000000 0.000000 0.076192 0.000000
# 6 0.000000 0.000000 0.000000 0.000000 0.000000 0.042095
#
#
# Mechanical properties :
#
#
# Convention : Reuss Voigt Hill
#
# Bulk Modulus (GPa) = 56.66955 57.67670 57.17312
# Shear Modulus (GPa) = 21.69373 24.06256 22.87814
#
# Velocity S-wave (km/s) = 3.49104 3.67670 3.58507
# Velocity P-wave (km/s) = 6.93442 7.10115 7.01828
#
# Compressibility (1/GPa) = 0.01764616
#
# Stress axis : x y z
#
# Youngs Moduli (GPa) = 60.61542 66.30334 62.79113
#
# Poissons Ratio (x) = 0.44779 0.26535
# Poissons Ratio (y) = 0.40937 0.24804
# Poissons Ratio (z) = 0.25615 0.26191
#
# Static dielectric constant tensor:
#      x y z
#    x 1.602300 0.000000 0.000000 
#    y 0.000000 1.577400 0.000000 
#    z 0.000000 0.000000 1.595040 
# 
# From -- ./inp_files/3179.got.cif
#   From: 2010.05.17/outbox.cif.g08.bks.cpg/sg57_2_cif.got.tgz:3179.got - 2010.06.03 13:58:18.
