data_PCOD9437403
_publ_section_title
;
Structure prediction by ZEFSAII (Michael W. Deem and Ramdas Pophale) SiO2 
 PCOD9437403
Probable space group: P B C M
;
_chemical_formula_sum "Si O2"
_cell_formula_units_Z 64
_cell_length_a 14.559424
_cell_length_b 8.516524
_cell_length_c 28.830699
_cell_angle_alpha 90.000000
_cell_angle_beta 90.000000
_cell_angle_gamma 90.000000
_cell_volume 3574.882240
_symmetry_space_group_name_H-M "P B C M"
_symmetry_group_IT_number 57
_symmetry_cell_setting 'orthorhombic'
loop_
_space_group_symop_operation_xyz
x,y,z
-x,-y,1/2+z
x,1/2-y,-z
-x,1/2+y,1/2-z
-x,-y,-z
x,y,1/2-z
-x,1/2+y,z
x,1/2-y,1/2+z
loop_
_atom_site_type_symbol
_atom_site_label
_atom_site_fract_x
_atom_site_fract_y
_atom_site_fract_z
Si Si1 0.575988 0.889620 0.062228
Si Si2 0.219693 0.690143 0.551882
Si Si3 0.036782 0.505197 0.947575
Si Si4 0.023969 0.317402 0.196270
Si Si5 0.383263 0.029938 0.457151
Si Si6 0.267994 0.981815 0.616060
Si Si7 0.857923 0.371107 0.697273
Si Si8 0.892121 0.796547 0.398058
O O1 0.597202 0.705094 0.060558
O O2 0.627234 0.972805 0.105095
O O3 0.467583 0.921517 0.059511
O O4 0.614294 0.960490 0.013441
O O5 0.233831 0.750000 0.500000
O O6 0.115438 0.635527 0.556874
O O7 0.288300 0.544675 0.559239
O O8 0.243356 0.833450 0.584678
O O9 0.082115 0.341024 0.933154
O O10 0.955646 0.555674 0.913061
O O11 0.000000 0.500000 0.000000
O O12 0.038079 0.263496 0.250000
O O13 0.062546 0.494766 0.195481
O O14 0.081473 0.243019 0.153946
O O15 0.916685 0.284876 0.184983
O O16 0.209797 0.135155 0.600582
O O17 0.225022 0.929891 0.665276
O O18 0.825956 0.356509 0.750000
#
# Coordination Sequence:
#
# PCOD9437403 Si02
#       8
#     8   8   8   8   8   8   8   8
#     4  10  20  36  55  81 103 136 168 220 276 322
#     4  12  22  35  50  74 103 142 179 220 261 314
#     4  12  24  35  47  66 102 145 188 216 255 310
#     4   9  17  31  51  72  97 129 175 226 274 311
#     4  10  21  35  57  77 107 132 174 219 270 320
#     4  11  21  34  54  76 108 140 179 222 272 324
#     4   9  18  32  52  78 105 141 184 230 277 325
#     4  11  21  35  50  71 100 141 182 222 262 320
#
# _framework density 17.902687
#
# number of rings (size 3 to 8) (size 9 to 14) (size 15 to 20)
#    0.000    1.500    1.250    6.375    1.750    0.000 
#    0.000    0.000    0.000    0.000    0.000    3.500 
#    0.000    0.000    0.000    0.000    0.000    0.000 
#
# Total GULP energy -357071.740429 kJ/mol
# GULP energy per Si atom -5579.245944 kJ/mol
# Density = 1.786194 g / cm^3
# Si number density = 17.902687 Si / 1000 Ang^3
#
#
#
# Elastic Constant Matrix: (Units=GPa)
#
#
# Indices 1 2 3 4 5 6 
#
# 1 52.0057 -0.3974 10.6294 0.0000 0.0000 0.0000
# 2 -0.3974 26.0274 8.3570 0.0000 0.0000 0.0000
# 3 10.6294 8.3570 64.7026 0.0000 0.0000 0.0000
# 4 0.0000 0.0000 0.0000 21.9659 0.0000 0.0000
# 5 0.0000 0.0000 0.0000 0.0000 22.2765 0.0000
# 6 0.0000 0.0000 0.0000 0.0000 0.0000 32.4551
#
#
#
# Elastic Compliance Matrix: (Units=1/GPa)
#
#
# Indices 1 2 3 4 5 6 
#
# 1 0.019947 0.001415 -0.003460 0.000000 0.000000 0.000000
# 2 0.001415 0.040184 -0.005423 0.000000 0.000000 0.000000
# 3 -0.003460 -0.005423 0.016724 0.000000 0.000000 0.000000
# 4 0.000000 0.000000 0.000000 0.045525 0.000000 0.000000
# 5 0.000000 0.000000 0.000000 0.000000 0.044890 0.000000
# 6 0.000000 0.000000 0.000000 0.000000 0.000000 0.030812
#
#
# Mechanical properties :
#
#
# Convention : Reuss Voigt Hill
#
# Bulk Modulus (GPa) = 16.14972 19.99040 18.07006
# Shear Modulus (GPa) = 21.39901 23.61596 22.50749
#
# Velocity S-wave (km/s) = 3.46106 3.63592 3.54957
# Velocity P-wave (km/s) = 5.00123 5.36814 5.18793
#
# Compressibility (1/GPa) = 0.06192058
#
# Stress axis : x y z
#
# Youngs Moduli (GPa) = 50.13388 24.88567 59.79404
#
# Poissons Ratio (x) = -0.03522 0.20687
# Poissons Ratio (y) = -0.07096 0.32424
# Poissons Ratio (z) = 0.17345 0.13495
#
# Static dielectric constant tensor:
#      x y z
#    x 1.618170 0.000000 0.000000 
#    y 0.000000 1.670570 0.000000 
#    z 0.000000 0.000000 1.624540 
# 
# From -- ./inp_files/29895.got.cif
#   From: 2010.05.17/outbox.cif.g08.bks.cpg/sg57_15_cif.got.tgz:29895.got - 2010.06.03 13:58:18.
