data_PCOD9437128
_publ_section_title
;
Structure prediction by ZEFSAII (Michael W. Deem and Ramdas Pophale) SiO2 
 PCOD9437128
Probable space group: P B C M
;
_chemical_formula_sum "Si O2"
_cell_formula_units_Z 56
_cell_length_a 22.494596
_cell_length_b 14.711010
_cell_length_c 8.705612
_cell_angle_alpha 90.000000
_cell_angle_beta 90.000000
_cell_angle_gamma 90.000000
_cell_volume 2880.845685
_symmetry_space_group_name_H-M "P B C M"
_symmetry_group_IT_number 57
_symmetry_cell_setting 'orthorhombic'
loop_
_space_group_symop_operation_xyz
x,y,z
-x,-y,1/2+z
x,1/2-y,-z
-x,1/2+y,1/2-z
-x,-y,-z
x,y,1/2-z
-x,1/2+y,z
x,1/2-y,1/2+z
loop_
_atom_site_type_symbol
_atom_site_label
_atom_site_fract_x
_atom_site_fract_y
_atom_site_fract_z
Si Si1 0.787934 0.456132 0.437180
Si Si2 0.966832 0.851497 0.933624
Si Si3 0.366364 0.159001 0.068960
Si Si4 0.668544 0.149369 0.563970
Si Si5 0.775229 0.842469 0.931357
Si Si6 0.918564 0.050369 0.564638
Si Si7 0.565373 0.017286 0.936133
O O1 0.784195 0.460448 0.250000
O O2 0.727205 0.407379 0.487086
O O3 0.792437 0.559763 0.494514
O O4 0.852232 0.415566 0.475154
O O5 0.963598 0.843537 0.750000
O O6 0.927879 0.942443 0.976268
O O7 0.953918 0.750000 0.000000
O O8 0.031874 0.886682 0.986881
O O9 0.375355 0.160984 0.250000
O O10 0.295913 0.158240 0.043851
O O11 0.395953 0.068533 0.009457
O O12 0.392759 0.250000 0.000000
O O13 0.672745 0.250000 0.500000
O O14 0.669615 0.149877 0.750000
O O15 0.605916 0.103104 0.517210
O O16 0.787412 0.840734 0.750000
O O17 0.800774 0.750000 0.000000
O O18 0.925798 0.055023 0.750000
O O19 0.562254 0.018461 0.750000
O O20 0.500000 0.000000 0.000000
#
# Coordination Sequence:
#
# PCOD9437128 Si02
#       7
#     8   8   8   8   8   8   8
#     4   9  17  34  58  79 107 144 179 218 270 326
#     4  10  20  35  55  79 111 148 185 227 274 323
#     4   9  17  31  51  74  99 129 164 202 252 309
#     4  10  21  39  59  79 107 143 180 222 269 318
#     4   9  16  29  50  75 102 133 166 205 256 315
#     4   9  19  35  56  82 108 143 188 229 271 322
#     4  10  21  37  56  77 104 139 176 216 265 317
#
# _framework density 19.438737
#
# number of rings (size 3 to 8) (size 9 to 14) (size 15 to 20)
#    0.000    2.571    1.429    0.429    0.000    3.429 
#    0.000    6.429    0.000    0.000    0.000    0.000 
#    0.000    0.000    0.000    0.000    0.000    0.000 
#
# Total GULP energy -311889.798333 kJ/mol
# GULP energy per Si atom -5569.460685 kJ/mol
# Density = 1.939449 g / cm^3
# Si number density = 19.438737 Si / 1000 Ang^3
#
#
#
# Elastic Constant Matrix: (Units=GPa)
#
#
# Indices 1 2 3 4 5 6 
#
# 1 164.6458 18.0054 -23.0988 0.0000 0.0000 0.0000
# 2 18.0054 115.9799 36.8055 0.0000 0.0000 0.0000
# 3 -23.0988 36.8055 44.5865 0.0000 0.0000 0.0000
# 4 0.0000 0.0000 0.0000 33.4435 0.0000 0.0000
# 5 0.0000 0.0000 0.0000 0.0000 16.2963 0.0000
# 6 0.0000 0.0000 0.0000 0.0000 0.0000 4.2407
#
#
#
# Elastic Compliance Matrix: (Units=1/GPa)
#
#
# Indices 1 2 3 4 5 6 
#
# 1 0.007319 -0.003170 0.006409 0.000000 0.000000 0.000000
# 2 -0.003170 0.013056 -0.012420 0.000000 0.000000 0.000000
# 3 0.006409 -0.012420 0.036001 0.000000 0.000000 0.000000
# 4 0.000000 0.000000 0.000000 0.029901 0.000000 0.000000
# 5 0.000000 0.000000 0.000000 0.000000 0.061363 0.000000
# 6 0.000000 0.000000 0.000000 0.000000 0.000000 0.235809
#
#
# Mechanical properties :
#
#
# Convention : Reuss Voigt Hill
#
# Bulk Modulus (GPa) = 26.30605 43.18183 34.74394
# Shear Modulus (GPa) = 12.06325 30.36279 21.21302
#
# Velocity S-wave (km/s) = 2.49384 3.95647 3.30703
# Velocity P-wave (km/s) = 4.67488 6.56765 5.70038
#
# Compressibility (1/GPa) = 0.03801407
#
# Stress axis : x y z
#
# Youngs Moduli (GPa) = 136.62238 76.59555 27.77728
#
# Poissons Ratio (x) = 0.24282 -0.17802
# Poissons Ratio (y) = 0.43311 0.34498
# Poissons Ratio (z) = -0.87559 0.95128
#
# Static dielectric constant tensor:
#      x y z
#    x 1.701750 0.000000 0.000000 
#    y 0.000000 1.700210 0.000000 
#    z 0.000000 0.000000 1.667400 
# 
# From -- ./inp_files/8173.got.cif
#   From: 2010.05.17/outbox.cif.g08.bks.cpg/sg57_5_cif.got.tgz:8173.got - 2010.06.03 13:58:18.
