data_PCOD9437960
_publ_section_title
;
Structure prediction by ZEFSAII (Michael W. Deem and Ramdas Pophale) SiO2 
 PCOD9437960
Probable space group: P B C M
;
_chemical_formula_sum "Si O2"
_cell_formula_units_Z 32
_cell_length_a 8.832609
_cell_length_b 13.549901
_cell_length_c 14.284825
_cell_angle_alpha 90.000000
_cell_angle_beta 90.000000
_cell_angle_gamma 90.000000
_cell_volume 1709.621820
_symmetry_space_group_name_H-M "P B C M"
_symmetry_group_IT_number 57
_symmetry_cell_setting 'orthorhombic'
loop_
_space_group_symop_operation_xyz
x,y,z
-x,-y,1/2+z
x,1/2-y,-z
-x,1/2+y,1/2-z
-x,-y,-z
x,y,1/2-z
-x,1/2+y,z
x,1/2-y,1/2+z
loop_
_atom_site_type_symbol
_atom_site_label
_atom_site_fract_x
_atom_site_fract_y
_atom_site_fract_z
Si Si1 0.083156 0.304149 0.250000
Si Si2 0.645639 0.181489 0.250000
Si Si3 0.405332 0.526582 0.592914
Si Si4 0.170784 0.800628 0.403313
Si Si5 0.683919 0.631028 0.250000
Si Si6 0.365755 0.445080 0.250000
O O1 0.166104 0.197245 0.250000
O O2 0.213839 0.384610 0.250000
O O3 0.975692 0.318261 0.160380
O O4 0.723343 0.229270 0.159586
O O5 0.465958 0.198790 0.250000
O O6 0.665529 0.063144 0.250000
O O7 0.500000 0.500000 0.500000
O O8 0.268603 0.601775 0.576036
O O9 0.337473 0.437341 0.657160
O O10 0.529729 0.575726 0.660673
O O11 0.129247 0.750000 0.500000
#
# Coordination Sequence:
#
# PCOD9437960 Si02
#       6
#     4   4   8   8   4   4
#     4  11  24  38  56  85 124 155 186 235 296 358
#     4   9  19  38  61  81 108 147 193 237 280 336
#     4  10  21  39  63  86 110 149 202 246 282 338
#     4  11  22  37  56  84 117 152 187 234 293 349
#     4  10  20  38  59  85 111 148 193 241 292 345
#     4  10  21  38  60  85 111 150 194 239 286 337
#
# _framework density 18.717589
#
# number of rings (size 3 to 8) (size 9 to 14) (size 15 to 20)
#    0.000    2.000    0.000    7.500    0.000    6.000 
#    0.000    5.000    0.000    0.000    0.000    0.000 
#    0.000    0.000    0.000    0.000    0.000    0.000 
#
# Total GULP energy -178593.548915 kJ/mol
# GULP energy per Si atom -5581.048404 kJ/mol
# Density = 1.867499 g / cm^3
# Si number density = 18.717589 Si / 1000 Ang^3
#
#
#
# Elastic Constant Matrix: (Units=GPa)
#
#
# Indices 1 2 3 4 5 6 
#
# 1 143.6435 53.6594 61.7982 0.0000 0.0000 0.0000
# 2 53.6594 81.9105 33.5082 0.0000 0.0000 0.0000
# 3 61.7982 33.5082 155.9991 0.0000 0.0000 0.0000
# 4 0.0000 0.0000 0.0000 9.3200 0.0000 0.0000
# 5 0.0000 0.0000 0.0000 0.0000 2.1108 0.0000
# 6 0.0000 0.0000 0.0000 0.0000 0.0000 36.0979
#
#
#
# Elastic Compliance Matrix: (Units=1/GPa)
#
#
# Indices 1 2 3 4 5 6 
#
# 1 0.010274 -0.005554 -0.002877 0.000000 0.000000 0.000000
# 2 -0.005554 0.016386 -0.001320 0.000000 0.000000 0.000000
# 3 -0.002877 -0.001320 0.007834 0.000000 0.000000 0.000000
# 4 0.000000 0.000000 0.000000 0.107297 0.000000 0.000000
# 5 0.000000 0.000000 0.000000 0.000000 0.473760 0.000000
# 6 0.000000 0.000000 0.000000 0.000000 0.000000 0.027702
#
#
# Mechanical properties :
#
#
# Convention : Reuss Voigt Hill
#
# Bulk Modulus (GPa) = 66.69692 75.49829 71.09760
# Shear Modulus (GPa) = 7.48781 25.01154 16.24968
#
# Velocity S-wave (km/s) = 2.00227 3.65945 2.94964
# Velocity P-wave (km/s) = 6.40750 7.63404 7.04750
#
# Compressibility (1/GPa) = 0.01499320
#
# Stress axis : x y z
#
# Youngs Moduli (GPa) = 97.33258 61.02602 127.65629
#
# Poissons Ratio (x) = 0.33891 0.36728
# Poissons Ratio (y) = 0.54054 0.16848
# Poissons Ratio (z) = 0.28004 0.08054
#
# Static dielectric constant tensor:
#      x y z
#    x 1.628540 0.000000 0.000000 
#    y 0.000000 1.678680 0.000000 
#    z 0.000000 0.000000 1.655960 
# 
# From -- ./inp_files/15576.got.cif
#   From: 2010.05.17/outbox.cif.g08.bks.cpg/sg57_8_cif.got.tgz:15576.got - 2010.06.03 13:58:18.
