data_PCOD9437625
_publ_section_title
;
Structure prediction by ZEFSAII (Michael W. Deem and Ramdas Pophale) SiO2 
 PCOD9437625
Probable space group: P B C M
;
_chemical_formula_sum "Si O2"
_cell_formula_units_Z 48
_cell_length_a 15.574025
_cell_length_b 19.511369
_cell_length_c 8.482228
_cell_angle_alpha 90.000000
_cell_angle_beta 90.000000
_cell_angle_gamma 90.000000
_cell_volume 2577.499276
_symmetry_space_group_name_H-M "P B C M"
_symmetry_group_IT_number 57
_symmetry_cell_setting 'orthorhombic'
loop_
_space_group_symop_operation_xyz
x,y,z
-x,-y,1/2+z
x,1/2-y,-z
-x,1/2+y,1/2-z
-x,-y,-z
x,y,1/2-z
-x,1/2+y,z
x,1/2-y,1/2+z
loop_
_atom_site_type_symbol
_atom_site_label
_atom_site_fract_x
_atom_site_fract_y
_atom_site_fract_z
Si Si1 0.626640 0.827085 0.438611
Si Si2 0.026277 0.075125 0.439353
Si Si3 0.527036 0.425078 0.059200
Si Si4 0.721746 0.423800 0.058024
Si Si5 0.222890 0.077040 0.440498
Si Si6 0.876965 0.172725 0.560773
O O1 0.625999 0.750000 0.500000
O O2 0.625294 0.826058 0.250000
O O3 0.543069 0.869727 0.494377
O O4 0.710614 0.868028 0.494175
O O5 0.023351 0.074592 0.250000
O O6 0.124495 0.089487 0.488353
O O7 0.959728 0.130707 0.503258
O O8 0.000000 0.000000 0.500000
O O9 0.526602 0.426313 0.250000
O O10 0.624336 0.409591 0.006936
O O11 0.500000 0.500000 0.000000
O O12 0.722595 0.423431 0.250000
O O13 0.749187 0.500429 0.008940
O O14 0.792340 0.368879 0.005506
O O15 0.226689 0.078747 0.250000
O O16 0.877190 0.250000 0.500000
O O17 0.876854 0.172994 0.750000
#
# Coordination Sequence:
#
# PCOD9437625 Si02
#       6
#     8   8   8   8   8   8
#     4  11  24  39  58  88 121 156 195 242 294 347
#     4  11  22  38  62  91 119 156 199 244 296 353
#     4  10  20  36  60  88 116 151 195 240 288 346
#     4   9  18  36  61  86 117 154 192 238 293 350
#     4  10  20  38  63  87 115 155 195 240 295 348
#     4  11  23  41  61  88 122 159 197 244 300 353
#
# _framework density 18.622702
#
# number of rings (size 3 to 8) (size 9 to 14) (size 15 to 20)
#    0.000    1.667    3.333    1.500    0.000    3.333 
#    0.000    1.667    0.000    0.000    0.000    0.000 
#    0.000    0.000    0.000    0.000    0.000    0.000 
#
# Total GULP energy -268162.315062 kJ/mol
# GULP energy per Si atom -5586.714897 kJ/mol
# Density = 1.858032 g / cm^3
# Si number density = 18.622702 Si / 1000 Ang^3
#
#
#
# Elastic Constant Matrix: (Units=GPa)
#
#
# Indices 1 2 3 4 5 6 
#
# 1 229.5790 127.0487 39.8919 0.0000 0.0000 0.0000
# 2 127.0487 198.9077 33.0914 0.0000 0.0000 0.0000
# 3 39.8919 33.0914 29.5158 0.0000 0.0000 0.0000
# 4 0.0000 0.0000 0.0000 32.0332 0.0000 0.0000
# 5 0.0000 0.0000 0.0000 0.0000 20.6767 0.0000
# 6 0.0000 0.0000 0.0000 0.0000 0.0000 34.7329
#
#
#
# Elastic Compliance Matrix: (Units=1/GPa)
#
#
# Indices 1 2 3 4 5 6 
#
# 1 0.007475 -0.003803 -0.005839 0.000000 0.000000 0.000000
# 2 -0.003803 0.008115 -0.003958 0.000000 0.000000 0.000000
# 3 -0.005839 -0.003958 0.046209 0.000000 0.000000 0.000000
# 4 0.000000 0.000000 0.000000 0.031218 0.000000 0.000000
# 5 0.000000 0.000000 0.000000 0.000000 0.048364 0.000000
# 6 0.000000 0.000000 0.000000 0.000000 0.000000 0.028791
#
#
# Mechanical properties :
#
#
# Convention : Reuss Voigt Hill
#
# Bulk Modulus (GPa) = 28.90243 95.34071 62.12157
# Shear Modulus (GPa) = 23.93425 34.68660 29.31042
#
# Velocity S-wave (km/s) = 3.58888 4.32046 3.97156
# Velocity P-wave (km/s) = 5.72076 8.72901 7.37980
#
# Compressibility (1/GPa) = 0.03459917
#
# Stress axis : x y z
#
# Youngs Moduli (GPa) = 133.77861 123.22649 21.64057
#
# Poissons Ratio (x) = 0.46865 0.12636
# Poissons Ratio (y) = 0.50878 0.08566
# Poissons Ratio (z) = 0.78113 0.48775
#
# Static dielectric constant tensor:
#      x y z
#    x 1.644620 0.000000 0.000000 
#    y 0.000000 1.596510 0.000000 
#    z 0.000000 0.000000 1.643420 
# 
# From -- ./inp_files/4613.got.cif
#   From: 2010.05.17/outbox.cif.g08.bks.cpg/sg57_3_cif.got.tgz:4613.got - 2010.06.03 13:58:18.
