data_PCOD9437086
_publ_section_title
;
Structure prediction by ZEFSAII (Michael W. Deem and Ramdas Pophale) SiO2 
 PCOD9437086
Probable space group: P B C M
;
_chemical_formula_sum "Si O2"
_cell_formula_units_Z 56
_cell_length_a 19.771037
_cell_length_b 9.672517
_cell_length_c 13.766046
_cell_angle_alpha 90.000000
_cell_angle_beta 90.000000
_cell_angle_gamma 90.000000
_cell_volume 2632.559326
_symmetry_space_group_name_H-M "P B C M"
_symmetry_group_IT_number 57
_symmetry_cell_setting 'orthorhombic'
loop_
_space_group_symop_operation_xyz
x,y,z
-x,-y,1/2+z
x,1/2-y,-z
-x,1/2+y,1/2-z
-x,-y,-z
x,y,1/2-z
-x,1/2+y,z
x,1/2-y,1/2+z
loop_
_atom_site_type_symbol
_atom_site_label
_atom_site_fract_x
_atom_site_fract_y
_atom_site_fract_z
Si Si1 0.948769 0.354230 0.866033
Si Si2 0.925228 0.035701 0.634496
Si Si3 0.679656 0.534235 0.483588
Si Si4 0.506756 0.413837 0.637199
Si Si5 0.414522 0.840722 0.130629
Si Si6 0.370255 0.228805 0.638593
Si Si7 0.819342 0.086489 0.013664
O O1 0.945721 0.366312 0.750000
O O2 0.948973 0.191779 0.890218
O O3 0.880575 0.419773 0.909433
O O4 0.017200 0.429488 0.897989
O O5 0.918044 0.025425 0.750000
O O6 0.853481 0.022813 0.582624
O O7 0.649659 0.406928 0.421900
O O8 0.682618 0.660985 0.406514
O O9 0.631806 0.597044 0.568155
O O10 0.749982 0.491926 0.531842
O O11 0.523304 0.442863 0.750000
O O12 0.566716 0.315042 0.602004
O O13 0.476545 0.557525 0.599753
O O14 0.440965 0.312350 0.635040
O O15 0.408794 0.848535 0.250000
O O16 0.356590 0.194121 0.750000
O O17 0.805129 0.250000 0.000000
#
# Coordination Sequence:
#
# PCOD9437086 Si02
#       7
#     8   8   8   8   8   8   8
#     4   9  18  35  57  83 111 143 182 225 269 317
#     4   9  18  34  57  83 110 142 183 225 270 318
#     4  10  20  35  54  79 108 146 187 216 273 334
#     4   8  15  30  52  76 103 136 174 224 282 322
#     4   9  17  32  55  82 110 139 182 234 278 332
#     4   9  19  37  56  74 106 143 180 229 275 324
#     4  10  21  37  54  77 114 152 179 220 269 325
#
# _framework density 21.272075999999998
#
# number of rings (size 3 to 8) (size 9 to 14) (size 15 to 20)
#    0.000    2.857    0.000    1.714    0.000    2.286 
#    7.714    0.000    0.000    0.000    0.000    0.000 
#    0.000    0.000    0.000    0.000    0.000    0.000 
#
# Total GULP energy -312621.202205 kJ/mol
# GULP energy per Si atom -5582.521468 kJ/mol
# Density = 2.122366 g / cm^3
# Si number density = 21.272076 Si / 1000 Ang^3
#
#
#
# Elastic Constant Matrix: (Units=GPa)
#
#
# Indices 1 2 3 4 5 6 
#
# 1 45.1563 18.0390 -5.4445 0.0000 0.0000 0.0000
# 2 18.0390 71.8262 10.4510 0.0000 0.0000 0.0000
# 3 -5.4445 10.4510 74.7011 0.0000 0.0000 0.0000
# 4 0.0000 0.0000 0.0000 26.5369 0.0000 0.0000
# 5 0.0000 0.0000 0.0000 0.0000 12.1475 0.0000
# 6 0.0000 0.0000 0.0000 0.0000 0.0000 36.2231
#
#
#
# Elastic Compliance Matrix: (Units=1/GPa)
#
#
# Indices 1 2 3 4 5 6 
#
# 1 0.025166 -0.006724 0.002775 0.000000 0.000000 0.000000
# 2 -0.006724 0.016008 -0.002730 0.000000 0.000000 0.000000
# 3 0.002775 -0.002730 0.013971 0.000000 0.000000 0.000000
# 4 0.000000 0.000000 0.000000 0.037683 0.000000 0.000000
# 5 0.000000 0.000000 0.000000 0.000000 0.082321 0.000000
# 6 0.000000 0.000000 0.000000 0.000000 0.000000 0.027607
#
#
# Mechanical properties :
#
#
# Convention : Reuss Voigt Hill
#
# Bulk Modulus (GPa) = 23.93068 26.41942 25.17505
# Shear Modulus (GPa) = 21.73501 26.22405 23.97953
#
# Velocity S-wave (km/s) = 3.19997 3.51492 3.36114
# Velocity P-wave (km/s) = 4.99273 5.37770 5.18878
#
# Compressibility (1/GPa) = 0.04178736
#
# Stress axis : x y z
#
# Youngs Moduli (GPa) = 39.73615 62.46710 71.57771
#
# Poissons Ratio (x) = 0.42004 -0.19862
# Poissons Ratio (y) = 0.26719 0.19539
# Poissons Ratio (z) = -0.11026 0.17052
#
# Static dielectric constant tensor:
#      x y z
#    x 1.736910 0.000000 0.000000 
#    y 0.000000 1.783260 0.000000 
#    z 0.000000 0.000000 1.810640 
# 
# From -- ./inp_files/19347.got.cif
#   From: 2010.05.17/outbox.cif.g08.bks.cpg/sg57_10_cif.got.tgz:19347.got - 2010.06.03 13:58:18.
