data_PCOD9437657
_publ_section_title
;
Structure prediction by ZEFSAII (Michael W. Deem and Ramdas Pophale) SiO2 
 PCOD9437657
Probable space group: P B C M
;
_chemical_formula_sum "Si O2"
_cell_formula_units_Z 64
_cell_length_a 18.139738
_cell_length_b 10.905718
_cell_length_c 15.108446
_cell_angle_alpha 90.000000
_cell_angle_beta 90.000000
_cell_angle_gamma 90.000000
_cell_volume 2988.856541
_symmetry_space_group_name_H-M "P B C M"
_symmetry_group_IT_number 57
_symmetry_cell_setting 'orthorhombic'
loop_
_space_group_symop_operation_xyz
x,y,z
-x,-y,1/2+z
x,1/2-y,-z
-x,1/2+y,1/2-z
-x,-y,-z
x,y,1/2-z
-x,1/2+y,z
x,1/2-y,1/2+z
loop_
_atom_site_type_symbol
_atom_site_label
_atom_site_fract_x
_atom_site_fract_y
_atom_site_fract_z
Si Si1 0.403140 0.615297 0.545813
Si Si2 0.201650 0.903892 0.857938
Si Si3 0.941756 0.984992 0.351655
Si Si4 0.436069 0.131952 0.565045
Si Si5 0.282061 0.350605 0.146094
Si Si6 0.746619 0.136170 0.642902
Si Si7 0.860332 0.757641 0.601767
Si Si8 0.898482 0.024106 0.649077
O O1 0.395845 0.750000 0.500000
O O2 0.416892 0.498878 0.481201
O O3 0.480293 0.622080 0.600442
O O4 0.329089 0.591589 0.600524
O O5 0.197754 0.907940 0.750000
O O6 0.241497 0.778702 0.880153
O O7 0.116904 0.917580 0.889968
O O8 0.250097 0.019336 0.888102
O O9 0.957549 0.022912 0.250000
O O10 0.894155 0.861190 0.351925
O O11 0.021170 0.956041 0.393193
O O12 0.437085 0.250000 0.500000
O O13 0.368056 0.158459 0.628905
O O14 0.268536 0.345588 0.250000
O O15 0.228432 0.248635 0.105472
O O16 0.742674 0.121980 0.750000
O O17 0.822307 0.073835 0.609534
O O18 0.883602 0.750000 0.500000
O O19 0.889020 0.878595 0.647388
O O20 0.900713 0.074417 0.750000
#
# Coordination Sequence:
#
# PCOD9437657 Si02
#       8
#     8   8   8   8   8   8   8   8
#     4  10  22  41  61  87 120 157 193 237 298 363
#     4   8  16  33  56  83 110 145 193 238 278 338
#     4   9  19  37  61  82 110 154 199 240 288 346
#     4  10  22  39  62  88 120 154 192 238 297 362
#     4  10  20  36  61  86 112 152 200 239 286 353
#     4  10  21  36  58  87 117 149 195 246 293 342
#     4  11  23  37  56  82 119 154 190 245 293 348
#     4  10  22  37  58  85 114 150 194 245 295 345
#
# _framework density 21.412870999999999
#
# number of rings (size 3 to 8) (size 9 to 14) (size 15 to 20)
#    0.000    2.250    0.000    3.000    5.250    1.000 
#    0.000    0.625    0.000    4.500    0.000    0.000 
#    0.000    0.000    0.000    0.000    0.000    0.000 
#
# Total GULP energy -356888.575257 kJ/mol
# GULP energy per Si atom -5576.383988 kJ/mol
# Density = 2.136413 g / cm^3
# Si number density = 21.412871 Si / 1000 Ang^3
#
#
#
# Elastic Constant Matrix: (Units=GPa)
#
#
# Indices 1 2 3 4 5 6 
#
# 1 187.9239 -2.2685 23.9436 0.0000 0.0000 0.0000
# 2 -2.2685 38.1070 -4.9632 0.0000 0.0000 0.0000
# 3 23.9436 -4.9632 39.6837 0.0000 0.0000 0.0000
# 4 0.0000 0.0000 0.0000 2.4217 0.0000 0.0000
# 5 0.0000 0.0000 0.0000 0.0000 25.9615 0.0000
# 6 0.0000 0.0000 0.0000 0.0000 0.0000 32.4822
#
#
#
# Elastic Compliance Matrix: (Units=1/GPa)
#
#
# Indices 1 2 3 4 5 6 
#
# 1 0.005765 -0.000112 -0.003492 0.000000 0.000000 0.000000
# 2 -0.000112 0.026679 0.003404 0.000000 0.000000 0.000000
# 3 -0.003492 0.003404 0.027732 0.000000 0.000000 0.000000
# 4 0.000000 0.000000 0.000000 0.412932 0.000000 0.000000
# 5 0.000000 0.000000 0.000000 0.000000 0.038519 0.000000
# 6 0.000000 0.000000 0.000000 0.000000 0.000000 0.030786
#
#
# Mechanical properties :
#
#
# Convention : Reuss Voigt Hill
#
# Bulk Modulus (GPa) = 16.72916 33.23760 24.98338
# Shear Modulus (GPa) = 8.88514 28.77327 18.82920
#
# Velocity S-wave (km/s) = 2.03923 3.66968 2.96858
# Velocity P-wave (km/s) = 3.65708 5.78890 4.84177
#
# Compressibility (1/GPa) = 0.05977585
#
# Stress axis : x y z
#
# Youngs Moduli (GPa) = 173.46324 37.48322 36.05927
#
# Poissons Ratio (x) = 0.00419 0.12593
# Poissons Ratio (y) = 0.01937 -0.12275
# Poissons Ratio (z) = 0.60578 -0.12760
#
# Static dielectric constant tensor:
#      x y z
#    x 1.813380 0.000000 0.000000 
#    y 0.000000 1.779110 0.000000 
#    z 0.000000 0.000000 1.793290 
# 
# From -- ./inp_files/19153.got.cif
#   From: 2010.05.17/outbox.cif.g08.bks.cpg/sg57_10_cif.got.tgz:19153.got - 2010.06.03 13:58:18.
