data_PCOD9437334
_publ_section_title
;
Structure prediction by ZEFSAII (Michael W. Deem and Ramdas Pophale) SiO2 
 PCOD9437334
Probable space group: P B C M
;
_chemical_formula_sum "Si O2"
_cell_formula_units_Z 40
_cell_length_a 13.590728
_cell_length_b 8.142519
_cell_length_c 15.768594
_cell_angle_alpha 90.000000
_cell_angle_beta 90.000000
_cell_angle_gamma 90.000000
_cell_volume 1744.996149
_symmetry_space_group_name_H-M "P B C M"
_symmetry_group_IT_number 57
_symmetry_cell_setting 'orthorhombic'
loop_
_space_group_symop_operation_xyz
x,y,z
-x,-y,1/2+z
x,1/2-y,-z
-x,1/2+y,1/2-z
-x,-y,-z
x,y,1/2-z
-x,1/2+y,z
x,1/2-y,1/2+z
loop_
_atom_site_type_symbol
_atom_site_label
_atom_site_fract_x
_atom_site_fract_y
_atom_site_fract_z
Si Si1 0.160189 0.295526 0.411050
Si Si2 0.351835 0.129938 0.148671
Si Si3 0.955834 0.899907 0.250000
Si Si4 0.738570 0.349005 0.584716
Si Si5 0.448873 0.722460 0.851883
Si Si6 0.848305 0.251472 0.250000
O O1 0.110911 0.250000 0.500000
O O2 0.248768 0.167811 0.394776
O O3 0.085531 0.308922 0.333277
O O4 0.213213 0.472546 0.416358
O O5 0.335093 0.142957 0.250000
O O6 0.437527 0.258230 0.124222
O O7 0.401010 0.954242 0.130982
O O8 0.073156 0.896187 0.250000
O O9 0.911065 0.082248 0.250000
O O10 0.761023 0.250000 0.500000
O O11 0.621653 0.350455 0.600709
O O12 0.782333 0.254412 0.666493
O O13 0.444664 0.753102 0.750000
#
# Coordination Sequence:
#
# PCOD9437334 Si02
#       6
#     8   8   4   8   8   4
#     4  11  23  41  63  92 125 161 204 252 303 361
#     4  10  20  35  59  90 124 165 206 249 299 357
#     4  10  24  44  67  90 121 158 199 252 310 366
#     4  11  23  41  63  92 125 161 204 252 303 361
#     4  10  20  35  59  90 124 165 206 249 299 357
#     4  10  24  44  67  90 121 158 199 252 310 366
#
# _framework density 22.922685999999999
#
# number of rings (size 3 to 8) (size 9 to 14) (size 15 to 20)
#    0.000    1.600    2.000    2.400    0.000    6.400 
#    0.000    8.000    0.000    0.000    0.000    0.000 
#    0.000    0.000    0.000    0.000    0.000    0.000 
#
# Total GULP energy -223964.918096 kJ/mol
# GULP energy per Si atom -5599.122952 kJ/mol
# Density = 2.287051 g / cm^3
# Si number density = 22.922686 Si / 1000 Ang^3
#
#
#
# Elastic Constant Matrix: (Units=GPa)
#
#
# Indices 1 2 3 4 5 6 
#
# 1 45.4668 0.2334 12.4333 0.0000 0.0000 0.0000
# 2 0.2334 50.6370 26.9109 0.0000 0.0000 0.0000
# 3 12.4333 26.9109 106.0395 0.0000 0.0000 0.0000
# 4 0.0000 0.0000 0.0000 27.5038 0.0000 0.0000
# 5 0.0000 0.0000 0.0000 0.0000 -4.6130 0.0000
# 6 0.0000 0.0000 0.0000 0.0000 0.0000 33.7790
#
#
#
# Elastic Compliance Matrix: (Units=1/GPa)
#
#
# Indices 1 2 3 4 5 6 
#
# 1 0.022824 0.001522 -0.003062 0.000000 0.000000 0.000000
# 2 0.001522 0.022929 -0.005997 0.000000 0.000000 0.000000
# 3 -0.003062 -0.005997 0.011312 0.000000 0.000000 0.000000
# 4 0.000000 0.000000 0.000000 0.036359 0.000000 0.000000
# 5 0.000000 0.000000 0.000000 0.000000 -0.216780 0.000000
# 6 0.000000 0.000000 0.000000 0.000000 0.000000 0.029604
#
#
# Mechanical properties :
#
#
# Convention : Reuss Voigt Hill
#
# Bulk Modulus (GPa) = 23.81579 31.25538 27.53558
# Shear Modulus (GPa) = -77.30135 22.17168 -27.56483
#
# Velocity S-wave (km/s) = -5.81342 3.11342 -3.47149
# Velocity P-wave (km/s) = 5.88634 5.15647 2.00745
#
# Compressibility (1/GPa) = 0.04198895
#
# Stress axis : x y z
#
# Youngs Moduli (GPa) = 43.81406 43.61356 88.40531
#
# Poissons Ratio (x) = -0.06639 0.27074
# Poissons Ratio (y) = -0.06670 0.53020
# Poissons Ratio (z) = 0.13418 0.26157
#
# Static dielectric constant tensor:
#      x y z
#    x 1.797320 0.000000 0.000000 
#    y 0.000000 1.886990 0.000000 
#    z 0.000000 0.000000 1.851170 
# 
# From -- ./inp_files/18250.got.cif
#   From: 2010.05.17/outbox.cif.g08.bks.cpg/sg57_10_cif.got.tgz:18250.got - 2010.06.03 13:58:18.
