data_PCOD9437692
_publ_section_title
;
Structure prediction by ZEFSAII (Michael W. Deem and Ramdas Pophale) SiO2 
 PCOD9437692
Probable space group: P B C M
;
_chemical_formula_sum "Si O2"
_cell_formula_units_Z 64
_cell_length_a 17.003938
_cell_length_b 10.701659
_cell_length_c 17.594801
_cell_angle_alpha 90.000000
_cell_angle_beta 90.000000
_cell_angle_gamma 90.000000
_cell_volume 3201.732028
_symmetry_space_group_name_H-M "P B C M"
_symmetry_group_IT_number 57
_symmetry_cell_setting 'orthorhombic'
loop_
_space_group_symop_operation_xyz
x,y,z
-x,-y,1/2+z
x,1/2-y,-z
-x,1/2+y,1/2-z
-x,-y,-z
x,y,1/2-z
-x,1/2+y,z
x,1/2-y,1/2+z
loop_
_atom_site_type_symbol
_atom_site_label
_atom_site_fract_x
_atom_site_fract_y
_atom_site_fract_z
Si Si1 0.079198 0.709895 0.834833
Si Si2 0.316810 0.784763 0.911061
Si Si3 0.418395 0.311169 0.157755
Si Si4 0.791651 0.057643 0.892934
Si Si5 0.899627 0.864964 0.163886
Si Si6 0.161674 0.915212 0.566599
Si Si7 0.468452 0.911788 0.658334
Si Si8 0.744548 0.702857 0.161519
O O1 0.090268 0.763813 0.750000
O O2 0.133251 0.585748 0.839917
O O3 0.112153 0.800126 0.899860
O O4 0.987400 0.685502 0.845853
O O5 0.274653 0.662195 0.877288
O O6 0.250303 0.891465 0.904715
O O7 0.392672 0.834703 0.869255
O O8 0.331304 0.750000 0.000000
O O9 0.422904 0.316114 0.250000
O O10 0.460436 0.180738 0.133760
O O11 0.458253 0.442815 0.131426
O O12 0.326378 0.294303 0.136915
O O13 0.751558 0.924546 0.884415
O O14 0.826565 0.076529 0.977058
O O15 0.895224 0.917757 0.250000
O O16 0.830078 0.764960 0.157987
O O17 0.879692 0.965711 0.100997
O O18 0.471038 0.916978 0.750000
O O19 0.728645 0.671084 0.250000
#
# Coordination Sequence:
#
# PCOD9437692 Si02
#       8
#     8   8   8   8   8   8   8   8
#     4  10  21  37  58  86 116 152 200 253 307 365
#     4   9  20  38  59  81 118 153 197 246 301 363
#     4   9  20  36  59  91 125 156 200 254 308 366
#     4  10  22  38  58  86 118 157 199 247 305 372
#     4  10  22  37  59  83 112 155 201 249 305 366
#     4  10  21  40  58  82 118 155 200 249 300 367
#     4  10  20  36  62  92 120 157 204 253 304 370
#     4  10  21  38  58  85 120 155 197 253 309 361
#
# _framework density 19.989180999999999
#
# number of rings (size 3 to 8) (size 9 to 14) (size 15 to 20)
#    0.000    2.250    0.000    2.625    3.500    5.000 
#    2.250    0.625    2.750    0.000    0.000    0.000 
#    0.000    0.000    0.000    0.000    0.000    0.000 
#
# Total GULP energy -356720.094124 kJ/mol
# GULP energy per Si atom -5573.751471 kJ/mol
# Density = 1.994369 g / cm^3
# Si number density = 19.989181 Si / 1000 Ang^3
#
#
#
# Elastic Constant Matrix: (Units=GPa)
#
#
# Indices 1 2 3 4 5 6 
#
# 1 72.4206 28.9063 0.8701 0.0000 0.0000 0.0000
# 2 28.9063 99.7213 24.1479 0.0000 0.0000 0.0000
# 3 0.8701 24.1479 19.7113 0.0000 0.0000 0.0000
# 4 0.0000 0.0000 0.0000 -35.7890 0.0000 0.0000
# 5 0.0000 0.0000 0.0000 0.0000 6.5918 0.0000
# 6 0.0000 0.0000 0.0000 0.0000 0.0000 33.0074
#
#
#
# Elastic Compliance Matrix: (Units=1/GPa)
#
#
# Indices 1 2 3 4 5 6 
#
# 1 0.016305 -0.006472 0.007209 0.000000 0.000000 0.000000
# 2 -0.006472 0.016827 -0.020328 0.000000 0.000000 0.000000
# 3 0.007209 -0.020328 0.075318 0.000000 0.000000 0.000000
# 4 0.000000 0.000000 0.000000 -0.027942 0.000000 0.000000
# 5 0.000000 0.000000 0.000000 0.000000 0.151703 0.000000
# 6 0.000000 0.000000 0.000000 0.000000 0.000000 0.030296
#
#
# Mechanical properties :
#
#
# Convention : Reuss Voigt Hill
#
# Bulk Modulus (GPa) = 14.43691 33.30021 23.86856
# Shear Modulus (GPa) = 15.39510 9.95729 12.67619
#
# Velocity S-wave (km/s) = 2.77821 2.23431 2.52097
# Velocity P-wave (km/s) = 4.18680 4.83234 4.52110
#
# Compressibility (1/GPa) = 0.06926690
#
# Stress axis : x y z
#
# Youngs Moduli (GPa) = 61.33136 59.42990 13.27706
#
# Poissons Ratio (x) = 0.38463 -0.09571
# Poissons Ratio (y) = 0.39694 0.26990
# Poissons Ratio (z) = -0.44214 1.20810
#
# Static dielectric constant tensor:
#      x y z
#    x 1.703930 0.000000 0.000000 
#    y 0.000000 1.741680 0.000000 
#    z 0.000000 0.000000 1.711140 
# 
# From -- ./inp_files/22649.got.cif
#   From: 2010.05.17/outbox.cif.g08.bks.cpg/sg57_12_cif.got.tgz:22649.got - 2010.06.03 13:58:18.
