data_PCOD9437890
_publ_section_title
;
Structure prediction by ZEFSAII (Michael W. Deem and Ramdas Pophale) SiO2 
 PCOD9437890
Probable space group: P B C M
;
_chemical_formula_sum "Si O2"
_cell_formula_units_Z 56
_cell_length_a 8.018801
_cell_length_b 20.194480
_cell_length_c 14.823125
_cell_angle_alpha 90.000000
_cell_angle_beta 90.000000
_cell_angle_gamma 90.000000
_cell_volume 2400.390402
_symmetry_space_group_name_H-M "P B C M"
_symmetry_group_IT_number 57
_symmetry_cell_setting 'orthorhombic'
loop_
_space_group_symop_operation_xyz
x,y,z
-x,-y,1/2+z
x,1/2-y,-z
-x,1/2+y,1/2-z
-x,-y,-z
x,y,1/2-z
-x,1/2+y,z
x,1/2-y,1/2+z
loop_
_atom_site_type_symbol
_atom_site_label
_atom_site_fract_x
_atom_site_fract_y
_atom_site_fract_z
Si Si1 0.981311 0.617596 0.852536
Si Si2 0.487345 0.673110 0.647869
Si Si3 0.314430 0.100593 0.510684
Si Si4 0.817939 0.031956 0.980584
Si Si5 0.279911 0.617986 0.151325
Si Si6 0.142022 0.746164 0.892183
Si Si7 0.352788 0.186756 0.350918
O O1 0.969232 0.596445 0.750000
O O2 0.140026 0.582551 0.900193
O O3 0.001046 0.696847 0.858443
O O4 0.820067 0.598934 0.909442
O O5 0.504198 0.645994 0.750000
O O6 0.522090 0.623942 0.565007
O O7 0.310579 0.709136 0.638696
O O8 0.614184 0.735310 0.637807
O O9 0.261306 0.154226 0.435485
O O10 0.307641 0.028954 0.463843
O O11 0.758212 0.069982 0.069392
O O12 0.000000 0.000000 0.000000
O O13 0.265231 0.586338 0.250000
O O14 0.153321 0.679930 0.144482
O O15 0.464829 0.650287 0.144429
O O16 0.139585 0.750000 0.000000
O O17 0.285970 0.174715 0.250000
#
# Coordination Sequence:
#
# PCOD9437890 Si02
#       7
#     8   8   8   8   8   8   8
#     4  11  24  43  62  90 128 167 215 271 325 385
#     4  10  20  37  62  96 129 165 207 260 325 381
#     4  11  23  40  64  91 130 172 209 260 327 388
#     4  10  24  42  60  88 126 175 215 259 310 383
#     4  10  20  40  67  95 125 167 215 263 317 378
#     4  11  20  38  69  94 127 161 214 275 320 372
#     4   9  20  39  64  94 127 160 209 269 320 377
#
# _framework density 23.329536999999998
#
# number of rings (size 3 to 8) (size 9 to 14) (size 15 to 20)
#    0.000    1.714    1.429    4.714    0.000    5.143 
#    0.000    2.143    0.000    0.000    0.000    0.000 
#    0.000    0.000    0.000    0.000    0.000    0.000 
#
# Total GULP energy -313194.460669 kJ/mol
# GULP energy per Si atom -5592.758226 kJ/mol
# Density = 2.327644 g / cm^3
# Si number density = 23.329537 Si / 1000 Ang^3
#
#
#
# Elastic Constant Matrix: (Units=GPa)
#
#
# Indices 1 2 3 4 5 6 
#
# 1 50.2976 4.0992 14.4792 0.0000 0.0000 0.0000
# 2 4.0992 53.9701 10.0834 0.0000 0.0000 0.0000
# 3 14.4792 10.0834 168.7136 0.0000 0.0000 0.0000
# 4 0.0000 0.0000 0.0000 2.8237 0.0000 0.0000
# 5 0.0000 0.0000 0.0000 0.0000 23.7046 0.0000
# 6 0.0000 0.0000 0.0000 0.0000 0.0000 23.8050
#
#
#
# Elastic Compliance Matrix: (Units=1/GPa)
#
#
# Indices 1 2 3 4 5 6 
#
# 1 0.020467 -0.001240 -0.001682 0.000000 0.000000 0.000000
# 2 -0.001240 0.018813 -0.001018 0.000000 0.000000 0.000000
# 3 -0.001682 -0.001018 0.006132 0.000000 0.000000 0.000000
# 4 0.000000 0.000000 0.000000 0.354147 0.000000 0.000000
# 5 0.000000 0.000000 0.000000 0.000000 0.042186 0.000000
# 6 0.000000 0.000000 0.000000 0.000000 0.000000 0.042008
#
#
# Mechanical properties :
#
#
# Convention : Reuss Voigt Hill
#
# Bulk Modulus (GPa) = 26.64426 36.70054 31.67240
# Shear Modulus (GPa) = 9.91779 26.35462 18.13620
#
# Velocity S-wave (km/s) = 2.06407 3.36470 2.79120
# Velocity P-wave (km/s) = 4.13838 5.55522 4.89830
#
# Compressibility (1/GPa) = 0.03753153
#
# Stress axis : x y z
#
# Youngs Moduli (GPa) = 48.85907 53.15426 163.06752
#
# Poissons Ratio (x) = 0.06592 0.27434
# Poissons Ratio (y) = 0.06060 0.16600
# Poissons Ratio (z) = 0.08220 0.05411
#
# Static dielectric constant tensor:
#      x y z
#    x 1.975290 0.000000 0.000000 
#    y 0.000000 1.890100 0.000000 
#    z 0.000000 0.000000 1.912150 
# 
# From -- ./inp_files/16730.got.cif
#   From: 2010.05.17/outbox.cif.g08.bks.cpg/sg57_9_cif.got.tgz:16730.got - 2010.06.03 13:58:18.
