data_PCOD9437916
_publ_section_title
;
Structure prediction by ZEFSAII (Michael W. Deem and Ramdas Pophale) SiO2 
 PCOD9437916
Probable space group: P B C M
;
_chemical_formula_sum "Si O2"
_cell_formula_units_Z 48
_cell_length_a 5.623788
_cell_length_b 19.357939
_cell_length_c 18.821605
_cell_angle_alpha 90.000000
_cell_angle_beta 90.000000
_cell_angle_gamma 90.000000
_cell_volume 2049.012994
_symmetry_space_group_name_H-M "P B C M"
_symmetry_group_IT_number 57
_symmetry_cell_setting 'orthorhombic'
loop_
_space_group_symop_operation_xyz
x,y,z
-x,-y,1/2+z
x,1/2-y,-z
-x,1/2+y,1/2-z
-x,-y,-z
x,y,1/2-z
-x,1/2+y,z
x,1/2-y,1/2+z
loop_
_atom_site_type_symbol
_atom_site_label
_atom_site_fract_x
_atom_site_fract_y
_atom_site_fract_z
Si Si1 0.784104 0.626251 0.169692
Si Si2 0.025872 0.025213 0.672645
Si Si3 0.508552 0.702677 0.928775
Si Si4 0.006927 0.747511 0.413261
Si Si5 0.398595 0.552430 0.399496
Si Si6 0.268449 0.938777 0.044773
O O1 0.774070 0.653713 0.250000
O O2 0.887890 0.548594 0.174768
O O3 0.945840 0.673435 0.119928
O O4 0.521214 0.618124 0.135853
O O5 0.997609 0.058416 0.750000
O O6 0.930983 0.067537 0.605087
O O7 0.293123 0.999709 0.658215
O O8 0.766428 0.710533 0.893473
O O9 0.454585 0.623604 0.947830
O O10 0.266887 0.726919 0.889483
O O11 0.522432 0.750000 0.000000
O O12 0.020084 0.750000 0.500000
O O13 0.608905 0.511541 0.438759
O O14 0.204303 0.563102 0.461679
#
# Coordination Sequence:
#
# PCOD9437916 Si02
#       6
#     8   8   8   8   8   8
#     4  10  22  39  61  92 124 161 215 272 324 387
#     4  10  22  38  61  91 125 164 205 266 335 390
#     4  10  22  39  62  91 124 167 210 262 315 376
#     4  10  22  38  62  91 124 169 214 264 317 380
#     4  10  20  37  64  93 121 163 209 271 337 384
#     4  10  22  37  61  94 125 158 219 268 322 394
#
# _framework density 23.425913000000001
#
# number of rings (size 3 to 8) (size 9 to 14) (size 15 to 20)
#    0.000    2.000    0.000    3.000    9.333    0.667 
#    0.000    1.667    0.000    0.000    0.000    0.000 
#    0.000    0.000    0.000    0.000    0.000    0.000 
#
# Total GULP energy -267760.054359 kJ/mol
# GULP energy per Si atom -5578.334466 kJ/mol
# Density = 2.337259 g / cm^3
# Si number density = 23.425913 Si / 1000 Ang^3
#
#
#
# Elastic Constant Matrix: (Units=GPa)
#
#
# Indices 1 2 3 4 5 6 
#
# 1 108.2855 11.1733 25.0457 0.0000 0.0000 0.0000
# 2 11.1733 65.0866 21.1961 0.0000 0.0000 0.0000
# 3 25.0457 21.1961 127.9688 0.0000 0.0000 0.0000
# 4 0.0000 0.0000 0.0000 16.5795 0.0000 0.0000
# 5 0.0000 0.0000 0.0000 0.0000 10.6458 0.0000
# 6 0.0000 0.0000 0.0000 0.0000 0.0000 26.2656
#
#
#
# Elastic Compliance Matrix: (Units=1/GPa)
#
#
# Indices 1 2 3 4 5 6 
#
# 1 0.009748 -0.001112 -0.001724 0.000000 0.000000 0.000000
# 2 -0.001112 0.016367 -0.002493 0.000000 0.000000 0.000000
# 3 -0.001724 -0.002493 0.008565 0.000000 0.000000 0.000000
# 4 0.000000 0.000000 0.000000 0.060315 0.000000 0.000000
# 5 0.000000 0.000000 0.000000 0.000000 0.093933 0.000000
# 6 0.000000 0.000000 0.000000 0.000000 0.000000 0.038073
#
#
# Mechanical properties :
#
#
# Convention : Reuss Voigt Hill
#
# Bulk Modulus (GPa) = 41.62882 46.24121 43.93501
# Shear Modulus (GPa) = 20.35277 26.95992 23.65634
#
# Velocity S-wave (km/s) = 2.95076 3.39611 3.18124
# Velocity P-wave (km/s) = 5.42387 5.92961 5.68237
#
# Compressibility (1/GPa) = 0.02402182
#
# Stress axis : x y z
#
# Youngs Moduli (GPa) = 102.58218 61.09844 116.75776
#
# Poissons Ratio (x) = 0.06795 0.20126
# Poissons Ratio (y) = 0.11408 0.29111
# Poissons Ratio (z) = 0.17682 0.15234
#
# Static dielectric constant tensor:
#      x y z
#    x 1.991680 0.000000 0.000000 
#    y 0.000000 1.889870 0.000000 
#    z 0.000000 0.000000 1.904880 
# 
# From -- ./inp_files/23662.got.cif
#   From: 2010.05.17/outbox.cif.g08.bks.cpg/sg57_12_cif.got.tgz:23662.got - 2010.06.03 13:58:18.
