data_PCOD9437671
_publ_section_title
;
Structure prediction by ZEFSAII (Michael W. Deem and Ramdas Pophale) SiO2 
 PCOD9437671
Probable space group: P B C M
;
_chemical_formula_sum "Si O2"
_cell_formula_units_Z 48
_cell_length_a 8.077379
_cell_length_b 23.401803
_cell_length_c 11.375386
_cell_angle_alpha 90.000000
_cell_angle_beta 90.000000
_cell_angle_gamma 90.000000
_cell_volume 2150.234979
_symmetry_space_group_name_H-M "P B C M"
_symmetry_group_IT_number 57
_symmetry_cell_setting 'orthorhombic'
loop_
_space_group_symop_operation_xyz
x,y,z
-x,-y,1/2+z
x,1/2-y,-z
-x,1/2+y,1/2-z
-x,-y,-z
x,y,1/2-z
-x,1/2+y,z
x,1/2-y,1/2+z
loop_
_atom_site_type_symbol
_atom_site_label
_atom_site_fract_x
_atom_site_fract_y
_atom_site_fract_z
Si Si1 0.725901 0.105607 0.876213
Si Si2 0.993032 0.718848 0.119928
Si Si3 0.642075 0.261436 0.122421
Si Si4 0.181614 0.402809 0.877802
Si Si5 0.602873 0.548598 0.933112
Si Si6 0.151766 0.952335 0.880838
O O1 0.810886 0.090668 0.750000
O O2 0.711966 0.173992 0.881303
O O3 0.539355 0.081965 0.867145
O O4 0.795538 0.080932 0.999511
O O5 0.943568 0.742689 0.250000
O O6 0.923478 0.654960 0.114979
O O7 0.193079 0.722105 0.119625
O O8 0.938272 0.750000 0.000000
O O9 0.558269 0.253085 0.250000
O O10 0.547825 0.250000 0.000000
O O11 0.262516 0.406542 0.750000
O O12 0.047412 0.453771 0.887415
O O13 0.315502 0.407661 0.977023
O O14 0.752864 0.512553 0.878286
O O15 0.500000 0.500000 0.000000
O O16 0.187380 0.925516 0.750000
#
# Coordination Sequence:
#
# PCOD9437671 Si02
#       6
#     8   8   8   8   8   8
#     4  10  21  37  58  88 125 163 199 241 296 359
#     4   9  17  32  56  86 115 145 185 238 296 351
#     4   9  17  31  54  83 114 147 188 237 289 346
#     4  10  21  38  62  91 121 155 202 256 308 358
#     4  10  22  38  56  81 118 161 200 240 292 354
#     4  10  20  36  61  91 119 155 203 252 300 354
#
# _framework density 22.323142000000001
#
# number of rings (size 3 to 8) (size 9 to 14) (size 15 to 20)
#    0.000    2.333    0.000    3.000    0.000    7.333 
#    0.000    4.167    0.000    4.000    0.000    0.000 
#    0.000    0.000    0.000    0.000    0.000    0.000 
#
# Total GULP energy -267371.473115 kJ/mol
# GULP energy per Si atom -5570.239023 kJ/mol
# Density = 2.227233 g / cm^3
# Si number density = 22.323142 Si / 1000 Ang^3
#
#
#
# Elastic Constant Matrix: (Units=GPa)
#
#
# Indices 1 2 3 4 5 6 
#
# 1 20.0778 -0.1314 19.1553 0.0000 0.0000 0.0000
# 2 -0.1314 39.3470 24.8652 0.0000 0.0000 0.0000
# 3 19.1553 24.8652 235.6028 0.0000 0.0000 0.0000
# 4 0.0000 0.0000 0.0000 4.8732 0.0000 0.0000
# 5 0.0000 0.0000 0.0000 0.0000 40.5218 0.0000
# 6 0.0000 0.0000 0.0000 0.0000 0.0000 18.4898
#
#
#
# Elastic Compliance Matrix: (Units=1/GPa)
#
#
# Indices 1 2 3 4 5 6 
#
# 1 0.054365 0.003187 -0.004756 0.000000 0.000000 0.000000
# 2 0.003187 0.027418 -0.003153 0.000000 0.000000 0.000000
# 3 -0.004756 -0.003153 0.004964 0.000000 0.000000 0.000000
# 4 0.000000 0.000000 0.000000 0.205205 0.000000 0.000000
# 5 0.000000 0.000000 0.000000 0.000000 0.024678 0.000000
# 6 0.000000 0.000000 0.000000 0.000000 0.000000 0.054084
#
#
# Mechanical properties :
#
#
# Convention : Reuss Voigt Hill
#
# Bulk Modulus (GPa) = 12.93611 42.53398 27.73504
# Shear Modulus (GPa) = 12.31754 29.51952 20.91853
#
# Velocity S-wave (km/s) = 2.35156 3.64039 3.06449
# Velocity P-wave (km/s) = 3.63051 6.06342 4.99728
#
# Compressibility (1/GPa) = 0.07730301
#
# Stress axis : x y z
#
# Youngs Moduli (GPa) = 18.39419 36.47245 201.45506
#
# Poissons Ratio (x) = -0.11625 0.95821
# Poissons Ratio (y) = -0.05863 0.63515
# Poissons Ratio (z) = 0.08749 0.11499
#
# Static dielectric constant tensor:
#      x y z
#    x 1.780270 0.000000 0.000000 
#    y 0.000000 1.835470 0.000000 
#    z 0.000000 0.000000 1.784460 
# 
# From -- ./inp_files/11949.got.cif
#   From: 2010.05.17/outbox.cif.g08.bks.cpg/sg57_6_cif.got.tgz:11949.got - 2010.06.03 13:58:18.
