data_PCOD9437466
_publ_section_title
;
Structure prediction by ZEFSAII (Michael W. Deem and Ramdas Pophale) SiO2 
 PCOD9437466
Probable space group: P B C M
;
_chemical_formula_sum "Si O2"
_cell_formula_units_Z 64
_cell_length_a 15.960888
_cell_length_b 22.507601
_cell_length_c 8.419938
_cell_angle_alpha 90.000000
_cell_angle_beta 90.000000
_cell_angle_gamma 90.000000
_cell_volume 3024.789462
_symmetry_space_group_name_H-M "P B C M"
_symmetry_group_IT_number 57
_symmetry_cell_setting 'orthorhombic'
loop_
_space_group_symop_operation_xyz
x,y,z
-x,-y,1/2+z
x,1/2-y,-z
-x,1/2+y,1/2-z
-x,-y,-z
x,y,1/2-z
-x,1/2+y,z
x,1/2-y,1/2+z
loop_
_atom_site_type_symbol
_atom_site_label
_atom_site_fract_x
_atom_site_fract_y
_atom_site_fract_z
Si Si1 0.902331 0.897042 0.940774
Si Si2 0.804487 0.492783 0.440895
Si Si3 0.570622 0.877619 0.561132
Si Si4 0.960979 0.311139 0.061474
Si Si5 0.395832 0.867330 0.437448
Si Si6 0.212208 0.854492 0.057551
Si Si7 0.625226 0.499035 0.564889
Si Si8 0.256984 0.183177 0.441646
O O1 0.909414 0.893235 0.750000
O O2 0.881894 0.965129 0.983190
O O3 0.820809 0.858364 0.990030
O O4 0.983666 0.867260 0.013829
O O5 0.790354 0.498925 0.250000
O O6 0.810728 0.423244 0.476713
O O7 0.721837 0.515256 0.530004
O O8 0.576031 0.883399 0.750000
O O9 0.482427 0.847791 0.516441
O O10 0.573226 0.944019 0.489739
O O11 0.653092 0.842627 0.503694
O O12 0.956746 0.308451 0.250000
O O13 0.866263 0.317359 0.996158
O O14 0.000122 0.250000 0.000000
O O15 0.401231 0.856664 0.250000
O O16 0.306764 0.842078 0.499896
O O17 0.388603 0.938374 0.468243
O O18 0.215471 0.849380 0.250000
O O19 0.610847 0.486706 0.750000
O O20 0.245421 0.250000 0.500000
O O21 0.258359 0.182864 0.250000
#
# Coordination Sequence:
#
# PCOD9437466 Si02
#       8
#     8   8   8   8   8   8   8   8
#     4  10  20  37  60  87 115 148 182 227 289 345
#     4   9  17  35  59  83 116 153 184 224 286 346
#     4  11  21  36  54  78 111 150 191 234 278 330
#     4  11  23  40  60  85 111 146 193 238 282 334
#     4  10  20  36  57  81 110 147 186 233 285 337
#     4   8  18  37  60  82 112 149 186 230 284 341
#     4  11  20  31  51  83 117 151 187 226 272 332
#     4  10  22  38  56  78 110 150 188 230 281 336
#
# _framework density 21.158497000000001
#
# number of rings (size 3 to 8) (size 9 to 14) (size 15 to 20)
#    0.000    2.000    1.250    3.750    0.000    3.500 
#    0.000    6.875    0.000    3.000    0.000    0.000 
#    0.000    0.000    0.000    0.000    0.000    0.000 
#
# Total GULP energy -357388.840367 kJ/mol
# GULP energy per Si atom -5584.200631 kJ/mol
# Density = 2.111034 g / cm^3
# Si number density = 21.158497 Si / 1000 Ang^3
#
#
#
# Elastic Constant Matrix: (Units=GPa)
#
#
# Indices 1 2 3 4 5 6 
#
# 1 100.0253 6.2240 7.9835 0.0000 0.0000 0.0000
# 2 6.2240 20.6788 -0.4643 0.0000 0.0000 0.0000
# 3 7.9835 -0.4643 15.7179 0.0000 0.0000 0.0000
# 4 0.0000 0.0000 0.0000 12.1514 0.0000 0.0000
# 5 0.0000 0.0000 0.0000 0.0000 26.4988 0.0000
# 6 0.0000 0.0000 0.0000 0.0000 0.0000 17.7361
#
#
#
# Elastic Compliance Matrix: (Units=1/GPa)
#
#
# Indices 1 2 3 4 5 6 
#
# 1 0.010644 -0.003327 -0.005505 0.000000 0.000000 0.000000
# 2 -0.003327 0.049431 0.003150 0.000000 0.000000 0.000000
# 3 -0.005505 0.003150 0.066511 0.000000 0.000000 0.000000
# 4 0.000000 0.000000 0.000000 0.082295 0.000000 0.000000
# 5 0.000000 0.000000 0.000000 0.000000 0.037737 0.000000
# 6 0.000000 0.000000 0.000000 0.000000 0.000000 0.056382
#
#
# Mechanical properties :
#
#
# Convention : Reuss Voigt Hill
#
# Bulk Modulus (GPa) = 8.67889 18.21204 13.44546
# Shear Modulus (GPa) = 14.17350 19.45585 16.81467
#
# Velocity S-wave (km/s) = 2.59100 3.03566 2.82210
# Velocity P-wave (km/s) = 3.61411 4.57309 4.12158
#
# Compressibility (1/GPa) = 0.11522217
#
# Stress axis : x y z
#
# Youngs Moduli (GPa) = 93.95095 20.23025 15.03513
#
# Poissons Ratio (x) = 0.06731 0.08276
# Poissons Ratio (y) = 0.31259 -0.04736
# Poissons Ratio (z) = 0.51716 -0.06373
#
# Static dielectric constant tensor:
#      x y z
#    x 1.823080 0.000000 0.000000 
#    y 0.000000 1.747760 0.000000 
#    z 0.000000 0.000000 1.723560 
# 
# From -- ./inp_files/5755.got.cif
#   From: 2010.05.17/outbox.cif.g08.bks.cpg/sg57_3_cif.got.tgz:5755.got - 2010.06.03 13:58:18.
