data_PCOD9437835
_publ_section_title
;
Structure prediction by ZEFSAII (Michael W. Deem and Ramdas Pophale) SiO2 
 PCOD9437835
Probable space group: P B C M
;
_chemical_formula_sum "Si O2"
_cell_formula_units_Z 40
_cell_length_a 7.391711
_cell_length_b 8.584513
_cell_length_c 28.548121
_cell_angle_alpha 90.000000
_cell_angle_beta 90.000000
_cell_angle_gamma 90.000000
_cell_volume 1811.499298
_symmetry_space_group_name_H-M "P B C M"
_symmetry_group_IT_number 57
_symmetry_cell_setting 'orthorhombic'
loop_
_space_group_symop_operation_xyz
x,y,z
-x,-y,1/2+z
x,1/2-y,-z
-x,1/2+y,1/2-z
-x,-y,-z
x,y,1/2-z
-x,1/2+y,z
x,1/2-y,1/2+z
loop_
_atom_site_type_symbol
_atom_site_label
_atom_site_fract_x
_atom_site_fract_y
_atom_site_fract_z
Si Si1 0.924828 0.880493 0.933924
Si Si2 0.174235 0.400744 0.123779
Si Si3 0.560399 0.406192 0.141584
Si Si4 0.732792 0.172026 0.542429
Si Si5 0.302391 0.191703 0.305124
O O1 0.804406 0.743748 0.912220
O O2 0.096954 0.789344 0.953732
O O3 0.810840 0.997351 0.966148
O O4 0.016023 0.991068 0.894376
O O5 0.367544 0.484212 0.126765
O O6 0.152260 0.308760 0.172856
O O7 0.642790 0.342471 0.093440
O O8 0.686649 0.527865 0.168221
O O9 0.487815 0.278501 0.178480
O O10 0.621083 0.250000 0.500000
O O11 0.288735 0.175673 0.250000
#
# Coordination Sequence:
#
# PCOD9437835 Si02
#       5
#     8   8   8   8   8
#     4  10  20  39  58  82 123 164 191 242 297 357
#     4   9  21  37  60  83 116 156 192 243 299 344
#     4  10  20  38  59  89 114 152 199 253 286 346
#     4  11  21  37  60  89 121 161 202 240 298 355
#     4  10  20  37  61  86 115 153 197 245 304 357
#
# _framework density 22.081157000000001
#
# number of rings (size 3 to 8) (size 9 to 14) (size 15 to 20)
#    1.200    0.800    2.000    2.400    0.000    0.000 
#    0.000   14.000    0.000    0.000    0.000    0.000 
#    0.000    0.000    0.000    0.000    0.000    0.000 
#
# Total GULP energy -222724.388258 kJ/mol
# GULP energy per Si atom -5568.109706 kJ/mol
# Density = 2.203090 g / cm^3
# Si number density = 22.081157 Si / 1000 Ang^3
#
#
#
# Elastic Constant Matrix: (Units=GPa)
#
#
# Indices 1 2 3 4 5 6 
#
# 1 25.3937 1.9443 8.6509 0.0000 0.0000 0.0000
# 2 1.9443 84.7893 23.1434 0.0000 0.0000 0.0000
# 3 8.6509 23.1434 111.4224 0.0000 0.0000 0.0000
# 4 0.0000 0.0000 0.0000 25.4838 0.0000 0.0000
# 5 0.0000 0.0000 0.0000 0.0000 21.3683 0.0000
# 6 0.0000 0.0000 0.0000 0.0000 0.0000 23.7107
#
#
#
# Elastic Compliance Matrix: (Units=1/GPa)
#
#
# Indices 1 2 3 4 5 6 
#
# 1 0.040450 -0.000075 -0.003125 0.000000 0.000000 0.000000
# 2 -0.000075 0.012503 -0.002591 0.000000 0.000000 0.000000
# 3 -0.003125 -0.002591 0.009756 0.000000 0.000000 0.000000
# 4 0.000000 0.000000 0.000000 0.039241 0.000000 0.000000
# 5 0.000000 0.000000 0.000000 0.000000 0.046798 0.000000
# 6 0.000000 0.000000 0.000000 0.000000 0.000000 0.042175
#
#
# Mechanical properties :
#
#
# Convention : Reuss Voigt Hill
#
# Bulk Modulus (GPa) = 19.55908 32.12030 25.83969
# Shear Modulus (GPa) = 22.77418 26.63701 24.70559
#
# Velocity S-wave (km/s) = 3.21500 3.47698 3.34856
# Velocity P-wave (km/s) = 4.76012 5.54051 5.16507
#
# Compressibility (1/GPa) = 0.05112714
#
# Stress axis : x y z
#
# Youngs Moduli (GPa) = 24.72175 79.98134 102.50414
#
# Poissons Ratio (x) = 0.00597 0.32033
# Poissons Ratio (y) = 0.00184 0.26561
# Poissons Ratio (z) = 0.07726 0.20725
#
# Static dielectric constant tensor:
#      x y z
#    x 1.822870 0.000000 0.000000 
#    y 0.000000 1.838420 0.000000 
#    z 0.000000 0.000000 1.859420 
# 
# From -- ./inp_files/29373.got.cif
#   From: 2010.05.17/outbox.cif.g08.bks.cpg/sg57_15_cif.got.tgz:29373.got - 2010.06.03 13:58:18.
