data_PCOD9437181
_publ_section_title
;
Structure prediction by ZEFSAII (Michael W. Deem and Ramdas Pophale) SiO2 
 PCOD9437181
Probable space group: P B C M
;
_chemical_formula_sum "Si O2"
_cell_formula_units_Z 64
_cell_length_a 15.327713
_cell_length_b 24.929516
_cell_length_c 9.461896
_cell_angle_alpha 90.000000
_cell_angle_beta 90.000000
_cell_angle_gamma 90.000000
_cell_volume 3615.508418
_symmetry_space_group_name_H-M "P B C M"
_symmetry_group_IT_number 57
_symmetry_cell_setting 'orthorhombic'
loop_
_space_group_symop_operation_xyz
x,y,z
-x,-y,1/2+z
x,1/2-y,-z
-x,1/2+y,1/2-z
-x,-y,-z
x,y,1/2-z
-x,1/2+y,z
x,1/2-y,1/2+z
loop_
_atom_site_type_symbol
_atom_site_label
_atom_site_fract_x
_atom_site_fract_y
_atom_site_fract_z
Si Si1 0.221859 0.507309 0.412478
Si Si2 0.774790 0.618749 0.583328
Si Si3 0.900939 0.803970 0.916679
Si Si4 0.717185 0.375523 0.589211
Si Si5 0.614907 0.695561 0.582968
Si Si6 0.077943 0.641673 0.087327
Si Si7 0.060640 0.539147 0.585724
Si Si8 0.413988 0.805645 0.418077
O O1 0.185016 0.510354 0.250000
O O2 0.243846 0.444832 0.432980
O O3 0.284695 0.559324 0.417974
O O4 0.155892 0.521368 0.537100
O O5 0.796754 0.627112 0.750000
O O6 0.850518 0.645529 0.487800
O O7 0.686432 0.650957 0.549878
O O8 0.879011 0.800548 0.750000
O O9 0.006425 0.811623 0.926138
O O10 0.875567 0.750000 0.000000
O O11 0.693028 0.360334 0.750000
O O12 0.817268 0.354012 0.567467
O O13 0.652738 0.348926 0.478726
O O14 0.633665 0.750000 0.500000
O O15 0.620044 0.706706 0.750000
O O16 0.514990 0.678998 0.552898
O O17 0.068299 0.621709 0.250000
O O18 0.048145 0.598277 0.973951
O O19 0.045610 0.535871 0.750000
O O20 0.000000 0.500000 0.500000
O O21 0.397932 0.750000 0.500000
O O22 0.403648 0.798614 0.250000
#
# Coordination Sequence:
#
# PCOD9437181 Si02
#       8
#     8   8   8   8   8   8   8   8
#     4   9  19  35  54  76 105 140 177 217 263 317
#     4  10  20  36  57  79 105 141 181 220 266 317
#     4  11  23  37  53  76 107 141 178 222 269 319
#     4   9  18  35  56  79 109 142 175 215 265 318
#     4   9  19  35  55  79 106 136 174 220 268 318
#     4   9  20  37  53  72 101 136 173 212 256 307
#     4  11  20  30  48  72  99 132 172 216 258 301
#     4  10  20  35  56  81 107 136 173 218 266 317
#
# _framework density 17.701521
#
# number of rings (size 3 to 8) (size 9 to 14) (size 15 to 20)
#    0.000    2.250    0.000    3.750    0.000    8.000 
#    0.000    1.875    0.000    0.000    0.000    0.000 
#    0.000    0.000    0.000    0.000    0.000    0.000 
#
# Total GULP energy -356448.676131 kJ/mol
# GULP energy per Si atom -5569.510565 kJ/mol
# Density = 1.766123 g / cm^3
# Si number density = 17.701521 Si / 1000 Ang^3
#
#
#
# Elastic Constant Matrix: (Units=GPa)
#
#
# Indices 1 2 3 4 5 6 
#
# 1 64.6708 52.2820 45.4791 0.0000 0.0000 0.0000
# 2 52.2820 88.6070 49.2346 0.0000 0.0000 0.0000
# 3 45.4791 49.2346 98.3172 0.0000 0.0000 0.0000
# 4 0.0000 0.0000 0.0000 28.9965 0.0000 0.0000
# 5 0.0000 0.0000 0.0000 0.0000 22.1952 0.0000
# 6 0.0000 0.0000 0.0000 0.0000 0.0000 24.0464
#
#
#
# Elastic Compliance Matrix: (Units=1/GPa)
#
#
# Indices 1 2 3 4 5 6 
#
# 1 0.033313 -0.015370 -0.007713 0.000000 0.000000 0.000000
# 2 -0.015370 0.022729 -0.004272 0.000000 0.000000 0.000000
# 3 -0.007713 -0.004272 0.015878 0.000000 0.000000 0.000000
# 4 0.000000 0.000000 0.000000 0.034487 0.000000 0.000000
# 5 0.000000 0.000000 0.000000 0.000000 0.045055 0.000000
# 6 0.000000 0.000000 0.000000 0.000000 0.000000 0.041586
#
#
# Mechanical properties :
#
#
# Convention : Reuss Voigt Hill
#
# Bulk Modulus (GPa) = 58.10702 60.62073 59.36388
# Shear Modulus (GPa) = 19.72434 22.02090 20.87262
#
# Velocity S-wave (km/s) = 3.34170 3.53088 3.43759
# Velocity P-wave (km/s) = 6.91278 7.13745 7.02601
#
# Compressibility (1/GPa) = 0.01720962
#
# Stress axis : x y z
#
# Youngs Moduli (GPa) = 30.01860 43.99713 62.97999
#
# Poissons Ratio (x) = 0.67626 0.48573
# Poissons Ratio (y) = 0.46140 0.26905
# Poissons Ratio (z) = 0.23152 0.18795
#
# Static dielectric constant tensor:
#      x y z
#    x 1.647050 0.000000 0.000000 
#    y 0.000000 1.613340 0.000000 
#    z 0.000000 0.000000 1.583620 
# 
# From -- ./inp_files/5744.got.cif
#   From: 2010.05.17/outbox.cif.g08.bks.cpg/sg57_3_cif.got.tgz:5744.got - 2010.06.03 13:58:18.
