data_PCOD9437759
_publ_section_title
;
Structure prediction by ZEFSAII (Michael W. Deem and Ramdas Pophale) SiO2 
 PCOD9437759
Probable space group: P B C M
;
_chemical_formula_sum "Si O2"
_cell_formula_units_Z 48
_cell_length_a 10.220117
_cell_length_b 29.884903
_cell_length_c 8.390625
_cell_angle_alpha 90.000000
_cell_angle_beta 90.000000
_cell_angle_gamma 90.000000
_cell_volume 2562.725144
_symmetry_space_group_name_H-M "P B C M"
_symmetry_group_IT_number 57
_symmetry_cell_setting 'orthorhombic'
loop_
_space_group_symop_operation_xyz
x,y,z
-x,-y,1/2+z
x,1/2-y,-z
-x,1/2+y,1/2-z
-x,-y,-z
x,y,1/2-z
-x,1/2+y,z
x,1/2-y,1/2+z
loop_
_atom_site_type_symbol
_atom_site_label
_atom_site_fract_x
_atom_site_fract_y
_atom_site_fract_z
Si Si1 0.787379 0.877771 0.440960
Si Si2 0.614758 0.031791 0.057822
Si Si3 0.279390 0.699941 0.057710
Si Si4 0.510663 0.127550 0.443214
Si Si5 0.018171 0.199360 0.058762
Si Si6 0.866988 0.977717 0.057328
O O1 0.788260 0.878208 0.250000
O O2 0.637972 0.871125 0.497028
O O3 0.839873 0.926620 0.496997
O O4 0.879852 0.837536 0.498888
O O5 0.617592 0.032240 0.250000
O O6 0.580382 0.081630 0.004352
O O7 0.749502 0.009917 0.002064
O O8 0.500000 0.000000 0.000000
O O9 0.279139 0.698960 0.250000
O O10 0.394854 0.667512 0.002241
O O11 0.131051 0.687644 0.006363
O O12 0.303623 0.750000 0.000000
O O13 0.506167 0.128112 0.250000
O O14 0.021215 0.199789 0.250000
O O15 0.046156 0.250000 0.000000
O O16 0.866626 0.976851 0.250000
O O17 0.000000 0.000000 0.000000
#
# Coordination Sequence:
#
# PCOD9437759 Si02
#       6
#     8   8   8   8   8   8
#     4  11  23  39  57  85 120 152 192 240 286 340
#     4  10  20  37  59  82 114 151 190 235 282 336
#     4   9  20  38  60  86 113 144 186 233 282 338
#     4  10  21  37  59  85 113 151 193 234 286 343
#     4  10  21  39  63  87 115 152 190 235 288 343
#     4  10  23  39  57  84 117 152 194 241 286 339
#
# _framework density 18.730062
#
# number of rings (size 3 to 8) (size 9 to 14) (size 15 to 20)
#    0.000    2.000    1.667    1.000    2.333    4.000 
#    0.000    1.667    0.000    0.000    0.000    0.000 
#    0.000    0.000    0.000    0.000    0.000    0.000 
#
# Total GULP energy -267932.746308 kJ/mol
# GULP energy per Si atom -5581.932215 kJ/mol
# Density = 1.868743 g / cm^3
# Si number density = 18.730062 Si / 1000 Ang^3
#
#
#
# Elastic Constant Matrix: (Units=GPa)
#
#
# Indices 1 2 3 4 5 6 
#
# 1 210.4431 141.5386 28.3000 0.0000 0.0000 0.0000
# 2 141.5386 173.2490 29.9461 0.0000 0.0000 0.0000
# 3 28.3000 29.9461 18.6483 0.0000 0.0000 0.0000
# 4 0.0000 0.0000 0.0000 24.8277 0.0000 0.0000
# 5 0.0000 0.0000 0.0000 0.0000 17.6331 0.0000
# 6 0.0000 0.0000 0.0000 0.0000 0.0000 43.3991
#
#
#
# Elastic Compliance Matrix: (Units=1/GPa)
#
#
# Indices 1 2 3 4 5 6 
#
# 1 0.010670 -0.008192 -0.003037 0.000000 0.000000 0.000000
# 2 -0.008192 0.014279 -0.010498 0.000000 0.000000 0.000000
# 3 -0.003037 -0.010498 0.075092 0.000000 0.000000 0.000000
# 4 0.000000 0.000000 0.000000 0.040278 0.000000 0.000000
# 5 0.000000 0.000000 0.000000 0.000000 0.056712 0.000000
# 6 0.000000 0.000000 0.000000 0.000000 0.000000 0.023042
#
#
# Mechanical properties :
#
#
# Convention : Reuss Voigt Hill
#
# Bulk Modulus (GPa) = 17.67218 89.10107 53.38662
# Shear Modulus (GPa) = 17.70597 30.67568 24.19083
#
# Velocity S-wave (km/s) = 3.07795 4.05134 3.59771
# Velocity P-wave (km/s) = 4.69972 8.34020 6.76928
#
# Compressibility (1/GPa) = 0.05658611
#
# Stress axis : x y z
#
# Youngs Moduli (GPa) = 93.71909 70.03107 13.31697
#
# Poissons Ratio (x) = 0.57371 0.04045
# Poissons Ratio (y) = 0.76776 0.13980
# Poissons Ratio (z) = 0.28467 0.73520
#
# Static dielectric constant tensor:
#      x y z
#    x 1.663350 0.000000 0.000000 
#    y 0.000000 1.624820 0.000000 
#    z 0.000000 0.000000 1.667830 
# 
# From -- ./inp_files/2070.got.cif
#   From: 2010.05.17/outbox.cif.g08.bks.cpg/sg57_2_cif.got.tgz:2070.got - 2010.06.03 13:58:18.
