data_PCOD9437155
_publ_section_title
;
Structure prediction by ZEFSAII (Michael W. Deem and Ramdas Pophale) SiO2 
 PCOD9437155
Probable space group: P B C M
;
_chemical_formula_sum "Si O2"
_cell_formula_units_Z 40
_cell_length_a 13.827953
_cell_length_b 18.624377
_cell_length_c 8.857767
_cell_angle_alpha 90.000000
_cell_angle_beta 90.000000
_cell_angle_gamma 90.000000
_cell_volume 2281.202827
_symmetry_space_group_name_H-M "P B C M"
_symmetry_group_IT_number 57
_symmetry_cell_setting 'orthorhombic'
loop_
_space_group_symop_operation_xyz
x,y,z
-x,-y,1/2+z
x,1/2-y,-z
-x,1/2+y,1/2-z
-x,-y,-z
x,y,1/2-z
-x,1/2+y,z
x,1/2-y,1/2+z
loop_
_atom_site_type_symbol
_atom_site_label
_atom_site_fract_x
_atom_site_fract_y
_atom_site_fract_z
Si Si1 0.414665 0.827662 0.430066
Si Si2 0.098854 0.470679 0.069560
Si Si3 0.608893 0.888665 0.570930
Si Si4 0.178886 0.326753 0.930047
Si Si5 0.709750 0.035742 0.567901
O O1 0.395729 0.750000 0.500000
O O2 0.414270 0.821902 0.250000
O O3 0.519064 0.856346 0.482953
O O4 0.336600 0.888317 0.473778
O O5 0.094916 0.470639 0.250000
O O6 0.120005 0.390861 0.007389
O O7 0.189605 0.517972 0.012083
O O8 0.000000 0.500000 0.000000
O O9 0.588176 0.885783 0.750000
O O10 0.707598 0.844581 0.543180
O O11 0.635423 0.970892 0.530424
O O12 0.163513 0.327897 0.750000
O O13 0.155230 0.250000 0.000000
O O14 0.723971 0.032569 0.750000
#
# Coordination Sequence:
#
# PCOD9437155 Si02
#       5
#     8   8   8   8   8
#     4  11  22  34  51  76 110 147 182 220 263 313
#     4  11  22  38  61  84 107 139 178 224 275 329
#     4   9  18  33  54  78 107 141 179 221 264 314
#     4  10  20  35  55  83 115 144 178 223 271 319
#     4   9  20  38  56  77 105 139 180 226 270 319
#
# _framework density 17.534610000000001
#
# number of rings (size 3 to 8) (size 9 to 14) (size 15 to 20)
#    0.000    2.000    0.000    5.400    0.000    7.200 
#    0.000    1.000    0.000    2.400    0.000    0.000 
#    0.000    0.000    0.000    0.000    0.000    0.000 
#
# Total GULP energy -223429.945015 kJ/mol
# GULP energy per Si atom -5585.748625 kJ/mol
# Density = 1.749470 g / cm^3
# Si number density = 17.534610 Si / 1000 Ang^3
#
#
#
# Elastic Constant Matrix: (Units=GPa)
#
#
# Indices 1 2 3 4 5 6 
#
# 1 97.0603 96.2681 64.2293 0.0000 0.0000 0.0000
# 2 96.2681 181.0325 80.3157 0.0000 0.0000 0.0000
# 3 64.2293 80.3157 86.0844 0.0000 0.0000 0.0000
# 4 0.0000 0.0000 0.0000 29.0139 0.0000 0.0000
# 5 0.0000 0.0000 0.0000 0.0000 30.1653 0.0000
# 6 0.0000 0.0000 0.0000 0.0000 0.0000 16.2441
#
#
#
# Elastic Compliance Matrix: (Units=1/GPa)
#
#
# Indices 1 2 3 4 5 6 
#
# 1 0.027256 -0.009336 -0.011626 0.000000 0.000000 0.000000
# 2 -0.009336 0.012623 -0.004811 0.000000 0.000000 0.000000
# 3 -0.011626 -0.004811 0.024780 0.000000 0.000000 0.000000
# 4 0.000000 0.000000 0.000000 0.034466 0.000000 0.000000
# 5 0.000000 0.000000 0.000000 0.000000 0.033151 0.000000
# 6 0.000000 0.000000 0.000000 0.000000 0.000000 0.061561
#
#
# Mechanical properties :
#
#
# Convention : Reuss Voigt Hill
#
# Bulk Modulus (GPa) = 76.26412 93.97815 85.12114
# Shear Modulus (GPa) = 20.01963 23.30891 21.66427
#
# Velocity S-wave (km/s) = 3.38260 3.64992 3.51880
# Velocity P-wave (km/s) = 7.67098 8.45427 8.07213
#
# Compressibility (1/GPa) = 0.01311233
#
# Stress axis : x y z
#
# Youngs Moduli (GPa) = 36.68864 79.21899 40.35573
#
# Poissons Ratio (x) = 0.73962 0.46917
# Poissons Ratio (y) = 0.34254 0.19416
# Poissons Ratio (z) = 0.42654 0.38114
#
# Static dielectric constant tensor:
#      x y z
#    x 1.564830 0.000000 0.000000 
#    y 0.000000 1.595620 0.000000 
#    z 0.000000 0.000000 1.582180 
# 
# From -- ./inp_files/2681.got.cif
#   From: 2010.05.17/outbox.cif.g08.bks.cpg/sg57_2_cif.got.tgz:2681.got - 2010.06.03 13:58:18.
