data_PCOD9437094
_publ_section_title
;
Structure prediction by ZEFSAII (Michael W. Deem and Ramdas Pophale) SiO2 
 PCOD9437094
Probable space group: P B C M
;
_chemical_formula_sum "Si O2"
_cell_formula_units_Z 56
_cell_length_a 19.150668
_cell_length_b 17.436465
_cell_length_c 8.772392
_cell_angle_alpha 90.000000
_cell_angle_beta 90.000000
_cell_angle_gamma 90.000000
_cell_volume 2929.276718
_symmetry_space_group_name_H-M "P B C M"
_symmetry_group_IT_number 57
_symmetry_cell_setting 'orthorhombic'
loop_
_space_group_symop_operation_xyz
x,y,z
-x,-y,1/2+z
x,1/2-y,-z
-x,1/2+y,1/2-z
-x,-y,-z
x,y,1/2-z
-x,1/2+y,z
x,1/2-y,1/2+z
loop_
_atom_site_type_symbol
_atom_site_label
_atom_site_fract_x
_atom_site_fract_y
_atom_site_fract_z
Si Si1 0.673042 0.333948 0.434133
Si Si2 0.540389 0.428343 0.427196
Si Si3 0.851680 0.669103 0.430773
Si Si4 0.076881 0.489914 0.934063
Si Si5 0.209038 0.931643 0.931403
Si Si6 0.283554 0.078709 0.430865
Si Si7 0.405569 0.167242 0.572452
O O1 0.656939 0.250000 0.500000
O O2 0.671946 0.332008 0.250000
O O3 0.614203 0.396059 0.486409
O O4 0.748194 0.362001 0.494136
O O5 0.500000 0.500000 0.500000
O O6 0.551060 0.448008 0.250000
O O7 0.485822 0.358182 0.437542
O O8 0.871737 0.750000 0.500000
O O9 0.859482 0.674363 0.250000
O O10 0.895186 0.594612 0.481105
O O11 0.770934 0.647713 0.462113
O O12 0.077414 0.493986 0.750000
O O13 0.132631 0.550911 0.999552
O O14 0.000000 0.500000 0.000000
O O15 0.205213 0.923510 0.750000
O O16 0.254261 0.006405 0.978365
O O17 0.281462 0.061648 0.250000
O O18 0.358847 0.105379 0.484252
O O19 0.394880 0.250000 0.500000
O O20 0.385166 0.167566 0.750000
#
# Coordination Sequence:
#
# PCOD9437094 Si02
#       7
#     8   8   8   8   8   8   8
#     4  11  23  41  62  86 116 154 199 252 306 358
#     4  10  23  39  57  80 109 146 192 243 298 354
#     4   9  19  33  52  79 112 145 182 224 273 331
#     4  10  21  39  61  88 119 153 192 237 286 343
#     4  11  22  38  61  88 115 149 190 233 283 346
#     4  10  20  35  54  80 113 149 187 232 279 334
#     4  11  22  35  51  77 109 144 184 229 282 340
#
# _framework density 19.117346999999999
#
# number of rings (size 3 to 8) (size 9 to 14) (size 15 to 20)
#    0.000    1.714    0.000    5.571    0.000    9.143 
#    0.000    0.714    0.000    1.714    0.000    0.000 
#    0.000    0.000    0.000    0.000    0.000    0.000 
#
# Total GULP energy -312769.258251 kJ/mol
# GULP energy per Si atom -5585.165326 kJ/mol
# Density = 1.907383 g / cm^3
# Si number density = 19.117347 Si / 1000 Ang^3
#
#
#
# Elastic Constant Matrix: (Units=GPa)
#
#
# Indices 1 2 3 4 5 6 
#
# 1 121.8631 34.8960 38.9864 0.0000 0.0000 0.0000
# 2 34.8960 74.8294 29.0483 0.0000 0.0000 0.0000
# 3 38.9864 29.0483 78.3496 0.0000 0.0000 0.0000
# 4 0.0000 0.0000 0.0000 35.1906 0.0000 0.0000
# 5 0.0000 0.0000 0.0000 0.0000 28.9128 0.0000
# 6 0.0000 0.0000 0.0000 0.0000 0.0000 16.4187
#
#
#
# Elastic Compliance Matrix: (Units=1/GPa)
#
#
# Indices 1 2 3 4 5 6 
#
# 1 0.010423 -0.003326 -0.003953 0.000000 0.000000 0.000000
# 2 -0.003326 0.016672 -0.004526 0.000000 0.000000 0.000000
# 3 -0.003953 -0.004526 0.016409 0.000000 0.000000 0.000000
# 4 0.000000 0.000000 0.000000 0.028417 0.000000 0.000000
# 5 0.000000 0.000000 0.000000 0.000000 0.034587 0.000000
# 6 0.000000 0.000000 0.000000 0.000000 0.000000 0.060906
#
#
# Mechanical properties :
#
#
# Convention : Reuss Voigt Hill
#
# Bulk Modulus (GPa) = 50.27029 53.43374 51.85202
# Shear Modulus (GPa) = 25.29662 27.57851 26.43757
#
# Velocity S-wave (km/s) = 3.64157 3.80227 3.72278
# Velocity P-wave (km/s) = 6.63582 6.87658 6.75727
#
# Compressibility (1/GPa) = 0.01989246
#
# Stress axis : x y z
#
# Youngs Moduli (GPa) = 95.94055 59.98145 60.94390
#
# Poissons Ratio (x) = 0.19950 0.24093
# Poissons Ratio (y) = 0.31910 0.27584
# Poissons Ratio (z) = 0.37929 0.27148
#
# Static dielectric constant tensor:
#      x y z
#    x 1.671260 0.000000 0.000000 
#    y 0.000000 1.681980 0.000000 
#    z 0.000000 0.000000 1.648700 
# 
# From -- ./inp_files/8271.got.cif
#   From: 2010.05.17/outbox.cif.g08.bks.cpg/sg57_5_cif.got.tgz:8271.got - 2010.06.03 13:58:18.
