data_PCOD9437251
_publ_section_title
;
Structure prediction by ZEFSAII (Michael W. Deem and Ramdas Pophale) SiO2 
 PCOD9437251
Probable space group: P B C M
;
_chemical_formula_sum "Si O2"
_cell_formula_units_Z 56
_cell_length_a 22.153403
_cell_length_b 15.728062
_cell_length_c 7.804754
_cell_angle_alpha 90.000000
_cell_angle_beta 90.000000
_cell_angle_gamma 90.000000
_cell_volume 2719.411185
_symmetry_space_group_name_H-M "P B C M"
_symmetry_group_IT_number 57
_symmetry_cell_setting 'orthorhombic'
loop_
_space_group_symop_operation_xyz
x,y,z
-x,-y,1/2+z
x,1/2-y,-z
-x,1/2+y,1/2-z
-x,-y,-z
x,y,1/2-z
-x,1/2+y,z
x,1/2-y,1/2+z
loop_
_atom_site_type_symbol
_atom_site_label
_atom_site_fract_x
_atom_site_fract_y
_atom_site_fract_z
Si Si1 0.368393 0.344805 0.545529
Si Si2 0.629498 0.344379 0.956324
Si Si3 0.062861 0.153650 0.956391
Si Si4 0.499132 0.099592 0.456133
Si Si5 0.074875 0.653535 0.954715
Si Si6 0.848103 0.991854 0.047126
Si Si7 0.286943 0.996546 0.546730
O O1 0.348665 0.250000 0.500000
O O2 0.369489 0.353665 0.750000
O O3 0.436736 0.360199 0.478668
O O4 0.324631 0.417442 0.476303
O O5 0.626996 0.352193 0.750000
O O6 0.561102 0.359033 0.021829
O O7 0.673577 0.418086 0.023217
O O8 0.650302 0.250000 0.000000
O O9 0.060444 0.147016 0.750000
O O10 0.994036 0.140471 0.019383
O O11 0.108922 0.082808 0.023641
O O12 0.080987 0.250000 0.000000
O O13 0.498925 0.107975 0.250000
O O14 0.500000 0.000000 0.500000
O O15 0.074558 0.645649 0.750000
O O16 0.092568 0.750000 0.000000
O O17 0.118718 0.581717 0.025592
O O18 0.842450 0.974228 0.250000
O O19 0.780480 0.995228 0.974231
O O20 0.280668 0.980564 0.750000
#
# Coordination Sequence:
#
# PCOD9437251 Si02
#       7
#     8   8   8   8   8   8   8
#     4  11  23  38  59  85 112 147 188 232 282 335
#     4  10  21  37  57  81 109 143 182 226 277 329
#     4   9  19  35  56  83 113 144 183 230 280 332
#     4  10  20  35  58  85 111 141 180 229 283 333
#     4  10  20  35  57  84 113 146 183 229 280 331
#     4  10  21  37  57  82 113 149 188 230 279 330
#     4  10  22  40  58  79 113 152 188 232 278 326
#
# _framework density 20.592693000000001
#
# number of rings (size 3 to 8) (size 9 to 14) (size 15 to 20)
#    0.000    2.000    1.429    1.714    0.000    4.571 
#    0.000    2.857    0.000    0.000    0.000    0.000 
#    0.000    0.000    0.000    0.000    0.000    0.000 
#
# Total GULP energy -312832.415623 kJ/mol
# GULP energy per Si atom -5586.293136 kJ/mol
# Density = 2.054582 g / cm^3
# Si number density = 20.592693 Si / 1000 Ang^3
#
#
#
# Elastic Constant Matrix: (Units=GPa)
#
#
# Indices 1 2 3 4 5 6 
#
# 1 145.3397 89.3389 -2.0126 0.0000 0.0000 0.0000
# 2 89.3389 145.4109 -26.8517 0.0000 0.0000 0.0000
# 3 -2.0126 -26.8517 17.4884 0.0000 0.0000 0.0000
# 4 0.0000 0.0000 0.0000 29.2586 0.0000 0.0000
# 5 0.0000 0.0000 0.0000 0.0000 -2.5972 0.0000
# 6 0.0000 0.0000 0.0000 0.0000 0.0000 -1.5666
#
#
#
# Elastic Compliance Matrix: (Units=1/GPa)
#
#
# Indices 1 2 3 4 5 6 
#
# 1 0.013567 -0.011232 -0.015684 0.000000 0.000000 0.000000
# 2 -0.011232 0.018897 0.027722 0.000000 0.000000 0.000000
# 3 -0.015684 0.027722 0.097939 0.000000 0.000000 0.000000
# 4 0.000000 0.000000 0.000000 0.034178 0.000000 0.000000
# 5 0.000000 0.000000 0.000000 0.000000 -0.385032 0.000000
# 6 0.000000 0.000000 0.000000 0.000000 0.000000 -0.638323
#
#
# Mechanical properties :
#
#
# Convention : Reuss Voigt Hill
#
# Bulk Modulus (GPa) = 7.57488 47.68757 27.63123
# Shear Modulus (GPa) = -6.12460 21.53658 7.70599
#
# Velocity S-wave (km/s) = -1.72645 3.23745 1.93655
# Velocity P-wave (km/s) = 0.53642 6.09775 4.29504
#
# Compressibility (1/GPa) = 0.13201526
#
# Stress axis : x y z
#
# Youngs Moduli (GPa) = 73.70635 52.91877 10.21039
#
# Poissons Ratio (x) = 0.59438 0.16014
# Poissons Ratio (y) = 0.82786 -0.28305
# Poissons Ratio (z) = 1.15601 -1.46699
#
# Static dielectric constant tensor:
#      x y z
#    x 1.749200 0.000000 0.000000 
#    y 0.000000 1.694750 0.000000 
#    z 0.000000 0.000000 1.792540 
# 
# From -- ./inp_files/8020.got.cif
#   From: 2010.05.17/outbox.cif.g08.bks.cpg/sg57_5_cif.got.tgz:8020.got - 2010.06.03 13:58:18.
