data_PCOD9437632
_publ_section_title
;
Structure prediction by ZEFSAII (Michael W. Deem and Ramdas Pophale) SiO2 
 PCOD9437632
Probable space group: P B C M
;
_chemical_formula_sum "Si O2"
_cell_formula_units_Z 64
_cell_length_a 9.094162
_cell_length_b 24.628210
_cell_length_c 15.307650
_cell_angle_alpha 90.000000
_cell_angle_beta 90.000000
_cell_angle_gamma 90.000000
_cell_volume 3428.499245
_symmetry_space_group_name_H-M "P B C M"
_symmetry_group_IT_number 57
_symmetry_cell_setting 'orthorhombic'
loop_
_space_group_symop_operation_xyz
x,y,z
-x,-y,1/2+z
x,1/2-y,-z
-x,1/2+y,1/2-z
-x,-y,-z
x,y,1/2-z
-x,1/2+y,z
x,1/2-y,1/2+z
loop_
_atom_site_type_symbol
_atom_site_label
_atom_site_fract_x
_atom_site_fract_y
_atom_site_fract_z
Si Si1 0.308961 0.265395 0.654993
Si Si2 0.468835 0.375681 0.888497
Si Si3 0.328157 0.059471 0.846034
Si Si4 0.360738 0.001459 0.151188
Si Si5 0.962626 0.800605 0.942955
Si Si6 0.833188 0.486339 0.518860
Si Si7 0.682805 0.838418 0.445144
Si Si8 0.810833 0.117107 0.353831
O O1 0.331658 0.242276 0.750000
O O2 0.382493 0.324403 0.650758
O O3 0.138495 0.275098 0.632905
O O4 0.362160 0.221731 0.584492
O O5 0.409091 0.435320 0.862510
O O6 0.637720 0.369999 0.861879
O O7 0.434333 0.366651 0.990710
O O8 0.272286 0.043474 0.750000
O O9 0.312938 0.123351 0.861192
O O10 0.492450 0.035233 0.852337
O O11 0.239581 0.033996 0.925384
O O12 0.298762 0.996834 0.250000
O O13 0.255001 0.982961 0.072566
O O14 0.084613 0.838108 0.898978
O O15 0.021388 0.750000 0.000000
O O16 0.839799 0.832164 0.003499
O O17 0.827131 0.435380 0.584177
O O18 0.000000 0.500000 0.500000
O O19 0.845575 0.109492 0.250000
#
# Coordination Sequence:
#
# PCOD9437632 Si02
#       8
#     8   8   8   8   8   8   8   8
#     4  10  20  36  60  89 117 153 202 252 299 361
#     4  11  21  38  60  87 121 154 203 254 302 356
#     4  11  21  38  62  87 118 159 202 246 302 365
#     4  11  23  41  63  86 118 163 203 246 306 366
#     4   9  21  39  59  84 122 163 204 244 306 355
#     4  12  25  40  58  88 125 157 200 252 304 363
#     4  10  20  38  60  88 117 158 200 250 303 362
#     4  12  24  39  61  91 122 161 206 252 304 366
#
# _framework density 18.667059999999999
#
# number of rings (size 3 to 8) (size 9 to 14) (size 15 to 20)
#    0.000    1.250    2.500    5.250    1.750    2.000 
#    0.000    0.000    0.000    1.500    0.000    0.000 
#    0.000    0.000    0.000    0.000    0.000    0.000 
#
# Total GULP energy -356844.861186 kJ/mol
# GULP energy per Si atom -5575.700956 kJ/mol
# Density = 1.862457 g / cm^3
# Si number density = 18.667060 Si / 1000 Ang^3
#
#
#
# Elastic Constant Matrix: (Units=GPa)
#
#
# Indices 1 2 3 4 5 6 
#
# 1 69.8050 26.9568 51.7436 0.0000 0.0000 0.0000
# 2 26.9568 101.8693 51.1474 0.0000 0.0000 0.0000
# 3 51.7436 51.1474 149.0218 0.0000 0.0000 0.0000
# 4 0.0000 0.0000 0.0000 26.4618 0.0000 0.0000
# 5 0.0000 0.0000 0.0000 0.0000 8.0696 0.0000
# 6 0.0000 0.0000 0.0000 0.0000 0.0000 26.6799
#
#
#
# Elastic Compliance Matrix: (Units=1/GPa)
#
#
# Indices 1 2 3 4 5 6 
#
# 1 0.019671 -0.002146 -0.006094 0.000000 0.000000 0.000000
# 2 -0.002146 0.012094 -0.003406 0.000000 0.000000 0.000000
# 3 -0.006094 -0.003406 0.009995 0.000000 0.000000 0.000000
# 4 0.000000 0.000000 0.000000 0.037790 0.000000 0.000000
# 5 0.000000 0.000000 0.000000 0.000000 0.123922 0.000000
# 6 0.000000 0.000000 0.000000 0.000000 0.000000 0.037481
#
#
# Mechanical properties :
#
#
# Convention : Reuss Voigt Hill
#
# Bulk Modulus (GPa) = 54.14223 64.48796 59.31509
# Shear Modulus (GPa) = 18.49096 24.96549 21.72822
#
# Velocity S-wave (km/s) = 3.15074 3.66103 3.41543
# Velocity P-wave (km/s) = 6.50410 7.24515 6.88460
#
# Compressibility (1/GPa) = 0.01846987
#
# Stress axis : x y z
#
# Youngs Moduli (GPa) = 50.83522 82.68260 100.04658
#
# Poissons Ratio (x) = 0.17742 0.60967
# Poissons Ratio (y) = 0.10908 0.34076
# Poissons Ratio (z) = 0.30978 0.28162
#
# Static dielectric constant tensor:
#      x y z
#    x 1.615610 0.000000 0.000000 
#    y 0.000000 1.679290 0.000000 
#    z 0.000000 0.000000 1.679230 
# 
# From -- ./inp_files/16931.got.cif
#   From: 2010.05.17/outbox.cif.g08.bks.cpg/sg57_9_cif.got.tgz:16931.got - 2010.06.03 13:58:18.
