data_PCOD9437868
_publ_section_title
;
Structure prediction by ZEFSAII (Michael W. Deem and Ramdas Pophale) SiO2 
 PCOD9437868
Probable space group: P B C M
;
_chemical_formula_sum "Si O2"
_cell_formula_units_Z 32
_cell_length_a 9.375152
_cell_length_b 13.181467
_cell_length_c 12.771446
_cell_angle_alpha 90.000000
_cell_angle_beta 90.000000
_cell_angle_gamma 90.000000
_cell_volume 1578.273032
_symmetry_space_group_name_H-M "P B C M"
_symmetry_group_IT_number 57
_symmetry_cell_setting 'orthorhombic'
loop_
_space_group_symop_operation_xyz
x,y,z
-x,-y,1/2+z
x,1/2-y,-z
-x,1/2+y,1/2-z
-x,-y,-z
x,y,1/2-z
-x,1/2+y,z
x,1/2-y,1/2+z
loop_
_atom_site_type_symbol
_atom_site_label
_atom_site_fract_x
_atom_site_fract_y
_atom_site_fract_z
Si Si1 0.729260 0.048489 0.449902
Si Si2 0.139805 0.750000 0.500000
Si Si3 0.573288 0.941032 0.870825
Si Si4 0.900572 0.631477 0.626091
Si Si5 0.663363 0.750000 0.500000
O O1 0.766314 0.166245 0.441595
O O2 0.589653 0.021782 0.381364
O O3 0.679338 0.016453 0.567008
O O4 0.863222 0.981065 0.414718
O O5 0.038277 0.683444 0.574949
O O6 0.612563 0.928056 0.750000
O O7 0.580003 0.836626 0.937303
O O8 0.910635 0.632189 0.750000
O O9 0.766478 0.696254 0.583951
#
# Coordination Sequence:
#
# PCOD9437868 Si02
#       5
#     8   4   8   8   4
#     4  10  22  39  57  86 119 148 196 246 285 345
#     4  11  23  40  58  82 115 151 194 240 282 337
#     4  10  20  37  62  87 118 155 188 238 299 348
#     4  10  21  37  57  81 114 153 189 234 289 340
#     4   9  19  36  58  88 117 147 192 236 282 349
#
# _framework density 20.275324999999999
#
# number of rings (size 3 to 8) (size 9 to 14) (size 15 to 20)
#    0.000    2.000    0.000    3.000    0.000    3.000 
#    0.000    8.750    0.000    0.000    0.000    0.000 
#    0.000    0.000    0.000    0.000    0.000    0.000 
#
# Total GULP energy -178668.046406 kJ/mol
# GULP energy per Si atom -5583.376450 kJ/mol
# Density = 2.022918 g / cm^3
# Si number density = 20.275325 Si / 1000 Ang^3
#
#
#
# Elastic Constant Matrix: (Units=GPa)
#
#
# Indices 1 2 3 4 5 6 
#
# 1 58.3170 10.9960 22.2853 0.0000 0.0000 0.0000
# 2 10.9960 85.7541 -2.2079 0.0000 0.0000 0.0000
# 3 22.2853 -2.2079 111.6372 0.0000 0.0000 0.0000
# 4 0.0000 0.0000 0.0000 14.4517 0.0000 0.0000
# 5 0.0000 0.0000 0.0000 0.0000 4.3221 0.0000
# 6 0.0000 0.0000 0.0000 0.0000 0.0000 33.9450
#
#
#
# Elastic Compliance Matrix: (Units=1/GPa)
#
#
# Indices 1 2 3 4 5 6 
#
# 1 0.019105 -0.002549 -0.003864 0.000000 0.000000 0.000000
# 2 -0.002549 0.012007 0.000746 0.000000 0.000000 0.000000
# 3 -0.003864 0.000746 0.009744 0.000000 0.000000 0.000000
# 4 0.000000 0.000000 0.000000 0.069196 0.000000 0.000000
# 5 0.000000 0.000000 0.000000 0.000000 0.231370 0.000000
# 6 0.000000 0.000000 0.000000 0.000000 0.000000 0.029459
#
#
# Mechanical properties :
#
#
# Convention : Reuss Voigt Hill
#
# Bulk Modulus (GPa) = 33.87318 35.31722 34.59520
# Shear Modulus (GPa) = 12.75327 25.51942 19.13635
#
# Velocity S-wave (km/s) = 2.51072 3.55159 3.07551
# Velocity P-wave (km/s) = 5.01476 5.85448 5.45082
#
# Compressibility (1/GPa) = 0.02952188
#
# Stress axis : x y z
#
# Youngs Moduli (GPa) = 52.34231 83.28234 102.63012
#
# Poissons Ratio (x) = 0.21231 0.39658
# Poissons Ratio (y) = 0.13343 -0.07660
# Poissons Ratio (z) = 0.20226 -0.06216
#
# Static dielectric constant tensor:
#      x y z
#    x 1.717000 0.000000 0.000000 
#    y 0.000000 1.746050 0.000000 
#    z 0.000000 0.000000 1.685520 
# 
# From -- ./inp_files/11427.got.cif
#   From: 2010.05.17/outbox.cif.g08.bks.cpg/sg57_6_cif.got.tgz:11427.got - 2010.06.03 13:58:18.
