data_PCOD9437839
_publ_section_title
;
Structure prediction by ZEFSAII (Michael W. Deem and Ramdas Pophale) SiO2 
 PCOD9437839
Probable space group: P B C M
;
_chemical_formula_sum "Si O2"
_cell_formula_units_Z 48
_cell_length_a 9.241477
_cell_length_b 15.921563
_cell_length_c 15.552728
_cell_angle_alpha 90.000000
_cell_angle_beta 90.000000
_cell_angle_gamma 90.000000
_cell_volume 2288.409086
_symmetry_space_group_name_H-M "P B C M"
_symmetry_group_IT_number 57
_symmetry_cell_setting 'orthorhombic'
loop_
_space_group_symop_operation_xyz
x,y,z
-x,-y,1/2+z
x,1/2-y,-z
-x,1/2+y,1/2-z
-x,-y,-z
x,y,1/2-z
-x,1/2+y,z
x,1/2-y,1/2+z
loop_
_atom_site_type_symbol
_atom_site_label
_atom_site_fract_x
_atom_site_fract_y
_atom_site_fract_z
Si Si1 0.638080 0.583422 0.849118
Si Si2 0.824965 0.261383 0.102102
Si Si3 0.187338 0.925128 0.600439
Si Si4 0.134843 0.079824 0.148830
Si Si5 0.677135 0.427459 0.089773
Si Si6 0.156970 0.268253 0.146518
O O1 0.595160 0.600282 0.750000
O O2 0.738615 0.501278 0.850278
O O3 0.494738 0.568616 0.904107
O O4 0.731407 0.661663 0.884213
O O5 0.792871 0.168759 0.138991
O O6 0.729128 0.339390 0.131408
O O7 0.992912 0.283433 0.116775
O O8 0.803961 0.250000 0.000000
O O9 0.259083 0.927448 0.506409
O O10 0.014105 0.937342 0.598319
O O11 0.096275 0.083859 0.250000
O O12 0.192152 0.172029 0.122886
O O13 0.250142 0.007199 0.134795
O O14 0.156794 0.274267 0.250000
#
# Coordination Sequence:
#
# PCOD9437839 Si02
#       6
#     8   8   8   8   8   8
#     4  11  23  38  56  84 118 153 187 228 283 342
#     4   9  20  38  59  83 109 143 189 234 280 331
#     4  10  21  39  59  82 112 150 193 237 280 331
#     4  10  20  37  61  88 113 147 193 239 281 330
#     4  11  22  37  57  84 117 150 187 233 284 340
#     4   9  20  37  57  81 112 147 188 231 278 332
#
# _framework density 20.975270999999999
#
# number of rings (size 3 to 8) (size 9 to 14) (size 15 to 20)
#    0.000    2.000    0.000    3.000    0.000    7.333 
#    0.000    5.833    0.000    0.000    0.000    0.000 
#    0.000    0.000    0.000    0.000    0.000    0.000 
#
# Total GULP energy -268132.702094 kJ/mol
# GULP energy per Si atom -5586.097960 kJ/mol
# Density = 2.092753 g / cm^3
# Si number density = 20.975271 Si / 1000 Ang^3
#
#
#
# Elastic Constant Matrix: (Units=GPa)
#
#
# Indices 1 2 3 4 5 6 
#
# 1 111.6314 98.9149 12.3451 0.0000 0.0000 0.0000
# 2 98.9149 157.2970 13.5741 0.0000 0.0000 0.0000
# 3 12.3451 13.5741 44.2333 0.0000 0.0000 0.0000
# 4 0.0000 0.0000 0.0000 21.6068 0.0000 0.0000
# 5 0.0000 0.0000 0.0000 0.0000 3.2750 0.0000
# 6 0.0000 0.0000 0.0000 0.0000 0.0000 -3.1908
#
#
#
# Elastic Compliance Matrix: (Units=1/GPa)
#
#
# Indices 1 2 3 4 5 6 
#
# 1 0.020370 -0.012654 -0.001802 0.000000 0.000000 0.000000
# 2 -0.012654 0.014391 -0.000885 0.000000 0.000000 0.000000
# 3 -0.001802 -0.000885 0.023382 0.000000 0.000000 0.000000
# 4 0.000000 0.000000 0.000000 0.046282 0.000000 0.000000
# 5 0.000000 0.000000 0.000000 0.000000 0.305344 0.000000
# 6 0.000000 0.000000 0.000000 0.000000 0.000000 -0.313402
#
#
# Mechanical properties :
#
#
# Convention : Reuss Voigt Hill
#
# Bulk Modulus (GPa) = 36.41424 62.53663 49.47544
# Shear Modulus (GPa) = 36.71034 16.89337 26.80185
#
# Velocity S-wave (km/s) = 4.18804 2.84103 3.57849
# Velocity P-wave (km/s) = 6.38628 6.37504 6.38066
#
# Compressibility (1/GPa) = 0.02746178
#
# Stress axis : x y z
#
# Youngs Moduli (GPa) = 49.09264 69.48800 42.76834
#
# Poissons Ratio (x) = 0.87929 0.07706
# Poissons Ratio (y) = 0.62121 0.03784
# Poissons Ratio (z) = 0.08846 0.06147
#
# Static dielectric constant tensor:
#      x y z
#    x 1.693120 0.000000 0.000000 
#    y 0.000000 1.786810 0.000000 
#    z 0.000000 0.000000 1.790630 
# 
# From -- ./inp_files/20956.got.cif
#   From: 2010.05.17/outbox.cif.g08.bks.cpg/sg57_11_cif.got.tgz:20956.got - 2010.06.03 13:58:18.
