data_PCOD9437719
_publ_section_title
;
Structure prediction by ZEFSAII (Michael W. Deem and Ramdas Pophale) SiO2 
 PCOD9437719
Probable space group: P B C M
;
_chemical_formula_sum "Si O2"
_cell_formula_units_Z 56
_cell_length_a 15.272156
_cell_length_b 23.422484
_cell_length_c 7.824389
_cell_angle_alpha 90.000000
_cell_angle_beta 90.000000
_cell_angle_gamma 90.000000
_cell_volume 2798.876504
_symmetry_space_group_name_H-M "P B C M"
_symmetry_group_IT_number 57
_symmetry_cell_setting 'orthorhombic'
loop_
_space_group_symop_operation_xyz
x,y,z
-x,-y,1/2+z
x,1/2-y,-z
-x,1/2+y,1/2-z
-x,-y,-z
x,y,1/2-z
-x,1/2+y,z
x,1/2-y,1/2+z
loop_
_atom_site_type_symbol
_atom_site_label
_atom_site_fract_x
_atom_site_fract_y
_atom_site_fract_z
Si Si1 0.612691 0.448583 0.457258
Si Si2 0.584788 0.923468 0.544968
Si Si3 0.877342 0.640455 0.955939
Si Si4 0.898714 0.988733 0.045051
Si Si5 0.309985 0.185885 0.048353
Si Si6 0.790969 0.097838 0.949355
Si Si7 0.934592 0.315207 0.456158
O O1 0.616584 0.450037 0.250000
O O2 0.618586 0.514606 0.518635
O O3 0.518601 0.423811 0.507116
O O4 0.694460 0.411891 0.522914
O O5 0.595800 0.924209 0.750000
O O6 0.634665 0.867720 0.475074
O O7 0.880817 0.639886 0.750000
O O8 0.871766 0.574606 0.012978
O O9 0.969238 0.666125 0.019557
O O10 0.791841 0.675378 0.006221
O O11 0.889247 0.992071 0.250000
O O12 0.840014 0.037330 0.961763
O O13 0.000000 0.000000 0.000000
O O14 0.319637 0.182688 0.250000
O O15 0.336806 0.250000 0.000000
O O16 0.936766 0.178195 0.750000
O O17 0.857642 0.144144 0.024660
O O18 0.918268 0.250000 0.500000
O O19 0.779430 0.387045 0.250000
#
# Coordination Sequence:
#
# PCOD9437719 Si02
#       7
#     8   8   8   8   8   8   8
#     4   9  18  34  60  85 107 141 178 218 276 332
#     4   9  19  36  56  82 112 139 175 223 275 330
#     4  10  21  37  55  79 110 145 184 226 272 324
#     4  11  21  34  54  82 113 145 181 224 274 324
#     4  11  23  38  57  82 112 150 189 231 279 331
#     4  10  20  37  56  79 112 144 180 226 272 326
#     4  10  21  37  53  72 104 143 183 225 264 312
#
# _framework density 20.008027999999999
#
# number of rings (size 3 to 8) (size 9 to 14) (size 15 to 20)
#    0.000    2.000    1.429    2.143    0.000    6.286 
#    0.000    3.571    0.000    3.429    0.000    0.000 
#    0.000    0.000    0.000    0.000    0.000    0.000 
#
# Total GULP energy -312693.467375 kJ/mol
# GULP energy per Si atom -5583.811917 kJ/mol
# Density = 1.996249 g / cm^3
# Si number density = 20.008028 Si / 1000 Ang^3
#
#
#
# Elastic Constant Matrix: (Units=GPa)
#
#
# Indices 1 2 3 4 5 6 
#
# 1 130.3820 82.4154 -2.4082 0.0000 0.0000 0.0000
# 2 82.4154 143.1603 10.2064 0.0000 0.0000 0.0000
# 3 -2.4082 10.2064 21.7581 0.0000 0.0000 0.0000
# 4 0.0000 0.0000 0.0000 17.6009 0.0000 0.0000
# 5 0.0000 0.0000 0.0000 0.0000 19.3666 0.0000
# 6 0.0000 0.0000 0.0000 0.0000 0.0000 31.8047
#
#
#
# Elastic Compliance Matrix: (Units=1/GPa)
#
#
# Indices 1 2 3 4 5 6 
#
# 1 0.012551 -0.007578 0.004944 0.000000 0.000000 0.000000
# 2 -0.007578 0.011802 -0.006375 0.000000 0.000000 0.000000
# 3 0.004944 -0.006375 0.049498 0.000000 0.000000 0.000000
# 4 0.000000 0.000000 0.000000 0.056815 0.000000 0.000000
# 5 0.000000 0.000000 0.000000 0.000000 0.051635 0.000000
# 6 0.000000 0.000000 0.000000 0.000000 0.000000 0.031442
#
#
# Mechanical properties :
#
#
# Convention : Reuss Voigt Hill
#
# Bulk Modulus (GPa) = 17.91061 52.85862 35.38462
# Shear Modulus (GPa) = 19.97023 27.42689 23.69856
#
# Velocity S-wave (km/s) = 3.16272 3.70644 3.44532
# Velocity P-wave (km/s) = 4.72315 6.69276 5.79229
#
# Compressibility (1/GPa) = 0.05583283
#
# Stress axis : x y z
#
# Youngs Moduli (GPa) = 79.67363 84.72973 20.20299
#
# Poissons Ratio (x) = 0.64208 -0.09988
# Poissons Ratio (y) = 0.60377 0.12879
# Poissons Ratio (z) = -0.39390 0.54015
#
# Static dielectric constant tensor:
#      x y z
#    x 1.707060 0.000000 0.000000 
#    y 0.000000 1.697540 0.000000 
#    z 0.000000 0.000000 1.722240 
# 
# From -- ./inp_files/5258.got.cif
#   From: 2010.05.17/outbox.cif.g08.bks.cpg/sg57_3_cif.got.tgz:5258.got - 2010.06.03 13:58:18.
