data_PCOD9437594
_publ_section_title
;
Structure prediction by ZEFSAII (Michael W. Deem and Ramdas Pophale) SiO2 
 PCOD9437594
Probable space group: P B C M
;
_chemical_formula_sum "Si O2"
_cell_formula_units_Z 52
_cell_length_a 10.245189
_cell_length_b 13.552258
_cell_length_c 20.731345
_cell_angle_alpha 90.000000
_cell_angle_beta 90.000000
_cell_angle_gamma 90.000000
_cell_volume 2878.452813
_symmetry_space_group_name_H-M "P B C M"
_symmetry_group_IT_number 57
_symmetry_cell_setting 'orthorhombic'
loop_
_space_group_symop_operation_xyz
x,y,z
-x,-y,1/2+z
x,1/2-y,-z
-x,1/2+y,1/2-z
-x,-y,-z
x,y,1/2-z
-x,1/2+y,z
x,1/2-y,1/2+z
loop_
_atom_site_type_symbol
_atom_site_label
_atom_site_fract_x
_atom_site_fract_y
_atom_site_fract_z
Si Si1 0.416205 0.685268 0.399231
Si Si2 0.159719 0.682456 0.322897
Si Si3 0.170435 0.250000 0.000000
Si Si4 0.335052 0.612283 0.537286
Si Si5 0.929461 0.973447 0.676764
Si Si6 0.943744 0.346845 0.420037
Si Si7 0.688482 0.896355 0.598421
O O1 0.302159 0.657035 0.349954
O O2 0.394479 0.627169 0.466721
O O3 0.397125 0.801232 0.417881
O O4 0.558451 0.655148 0.374922
O O5 0.169783 0.721725 0.250000
O O6 0.057802 0.593491 0.322273
O O7 0.099576 0.760159 0.372452
O O8 0.073549 0.317045 0.042880
O O9 0.255778 0.177314 0.043865
O O10 0.345989 0.503703 0.567760
O O11 0.179561 0.634930 0.532961
O O12 0.905165 0.008754 0.750000
O O13 0.802933 0.914926 0.650321
O O14 0.955418 0.058534 0.625166
#
# Coordination Sequence:
#
# PCOD9437594 Si02
#       7
#     8   8   4   8   8   8   8
#     4  10  20  37  56  82 114 155 195 231 292 352
#     4  10  20  37  58  80 109 153 198 237 283 347
#     4  12  22  34  58  94 120 150 194 248 304 354
#     4   9  20  36  57  80 119 155 187 236 294 358
#     4  10  22  39  59  84 114 153 196 243 294 344
#     4  10  20  36  59  87 116 150 194 243 295 353
#     4  11  23  36  58  88 118 152 190 248 295 349
#
# _framework density 18.065259999999999
#
# number of rings (size 3 to 8) (size 9 to 14) (size 15 to 20)
#    0.000    1.846    1.538    3.692    2.154    1.846 
#    0.000    0.000    0.000    0.000    0.000    0.000 
#    0.000    0.000    0.000    0.000    0.000    0.000 
#
# Total GULP energy -290204.684847 kJ/mol
# GULP energy per Si atom -5580.859324 kJ/mol
# Density = 1.802414 g / cm^3
# Si number density = 18.065260 Si / 1000 Ang^3
#
#
#
# Elastic Constant Matrix: (Units=GPa)
#
#
# Indices 1 2 3 4 5 6 
#
# 1 118.5961 41.0049 31.3412 0.0000 0.0000 0.0000
# 2 41.0049 56.8953 1.7574 0.0000 0.0000 0.0000
# 3 31.3412 1.7574 56.6397 0.0000 0.0000 0.0000
# 4 0.0000 0.0000 0.0000 23.2963 0.0000 0.0000
# 5 0.0000 0.0000 0.0000 0.0000 4.4624 0.0000
# 6 0.0000 0.0000 0.0000 0.0000 0.0000 22.0269
#
#
#
# Elastic Compliance Matrix: (Units=1/GPa)
#
#
# Indices 1 2 3 4 5 6 
#
# 1 0.013688 -0.009640 -0.007275 0.000000 0.000000 0.000000
# 2 -0.009640 0.024382 0.004578 0.000000 0.000000 0.000000
# 3 -0.007275 0.004578 0.021539 0.000000 0.000000 0.000000
# 4 0.000000 0.000000 0.000000 0.042925 0.000000 0.000000
# 5 0.000000 0.000000 0.000000 0.000000 0.224096 0.000000
# 6 0.000000 0.000000 0.000000 0.000000 0.000000 0.045399
#
#
# Mechanical properties :
#
#
# Convention : Reuss Voigt Hill
#
# Bulk Modulus (GPa) = 28.62493 42.25979 35.44236
# Shear Modulus (GPa) = 12.24446 20.49230 16.36838
#
# Velocity S-wave (km/s) = 2.60627 3.37166 3.01336
# Velocity P-wave (km/s) = 4.99365 6.21298 5.63638
#
# Compressibility (1/GPa) = 0.03493459
#
# Stress axis : x y z
#
# Youngs Moduli (GPa) = 73.05917 41.01325 46.42769
#
# Poissons Ratio (x) = 0.39537 0.33775
# Poissons Ratio (y) = 0.70429 -0.21253
# Poissons Ratio (z) = 0.53149 -0.18775
#
# Static dielectric constant tensor:
#      x y z
#    x 1.618660 0.000000 0.000000 
#    y 0.000000 1.637430 0.000000 
#    z 0.000000 0.000000 1.592160 
# 
# From -- ./inp_files/24355.got.cif
#   From: 2010.05.17/outbox.cif.g08.bks.cpg/sg57_13_cif.got.tgz:24355.got - 2010.06.03 13:58:18.
