data_PCOD9437273
_publ_section_title
;
Structure prediction by ZEFSAII (Michael W. Deem and Ramdas Pophale) SiO2 
 PCOD9437273
Probable space group: P B C M
;
_chemical_formula_sum "Si O2"
_cell_formula_units_Z 56
_cell_length_a 14.739144
_cell_length_b 22.295072
_cell_length_c 8.444368
_cell_angle_alpha 90.000000
_cell_angle_beta 90.000000
_cell_angle_gamma 90.000000
_cell_volume 2774.906105
_symmetry_space_group_name_H-M "P B C M"
_symmetry_group_IT_number 57
_symmetry_cell_setting 'orthorhombic'
loop_
_space_group_symop_operation_xyz
x,y,z
-x,-y,1/2+z
x,1/2-y,-z
-x,1/2+y,1/2-z
-x,-y,-z
x,y,1/2-z
-x,1/2+y,z
x,1/2-y,1/2+z
loop_
_atom_site_type_symbol
_atom_site_label
_atom_site_fract_x
_atom_site_fract_y
_atom_site_fract_z
Si Si1 0.256521 0.814043 0.438084
Si Si2 0.398645 0.504222 0.567622
Si Si3 0.951162 0.561381 0.557803
Si Si4 0.614742 0.682495 0.438215
Si Si5 0.423182 0.626288 0.064578
Si Si6 0.059479 0.819331 0.059769
Si Si7 0.253136 0.085734 0.563234
O O1 0.226413 0.750000 0.500000
O O2 0.275452 0.816274 0.250000
O O3 0.346412 0.824786 0.539775
O O4 0.161139 0.846859 0.472061
O O5 0.500000 0.500000 0.500000
O O6 0.396158 0.485743 0.750000
O O7 0.381368 0.573995 0.542941
O O8 0.327098 0.465329 0.472982
O O9 0.954625 0.559872 0.750000
O O10 0.845554 0.564916 0.506192
O O11 0.000000 0.500000 0.500000
O O12 0.994159 0.625910 0.507350
O O13 0.614784 0.750000 0.500000
O O14 0.609416 0.684205 0.250000
O O15 0.522296 0.647944 0.490683
O O16 0.702949 0.645309 0.488615
O O17 0.428875 0.608675 0.250000
O O18 0.053516 0.813915 0.250000
O O19 0.041465 0.750000 0.000000
O O20 0.246943 0.095856 0.750000
#
# Coordination Sequence:
#
# PCOD9437273 Si02
#       7
#     8   8   8   8   8   8   8
#     4  10  20  35  57  87 122 162 203 251 306 364
#     4  12  24  40  63  90 123 161 203 250 305 365
#     4  10  24  44  66  96 129 165 211 268 325 385
#     4  11  24  41  63  90 125 168 211 260 314 369
#     4  11  23  38  59  89 125 163 207 252 305 366
#     4   9  20  40  63  90 124 162 210 263 321 384
#     4  11  24  43  65  92 126 164 211 260 312 377
#
# _framework density 20.180864
#
# number of rings (size 3 to 8) (size 9 to 14) (size 15 to 20)
#    0.000    1.429    1.429    3.429    2.000    5.714 
#    0.000    1.429    0.000    0.000    0.000    0.000 
#    0.000    0.000    0.000    0.000    0.000    0.000 
#
# Total GULP energy -312076.797247 kJ/mol
# GULP energy per Si atom -5572.799951 kJ/mol
# Density = 2.013493 g / cm^3
# Si number density = 20.180864 Si / 1000 Ang^3
#
#
#
# Elastic Constant Matrix: (Units=GPa)
#
#
# Indices 1 2 3 4 5 6 
#
# 1 127.6745 42.3748 14.3302 0.0000 0.0000 0.0000
# 2 42.3748 100.7830 11.8164 0.0000 0.0000 0.0000
# 3 14.3302 11.8164 32.9907 0.0000 0.0000 0.0000
# 4 0.0000 0.0000 0.0000 33.9047 0.0000 0.0000
# 5 0.0000 0.0000 0.0000 0.0000 19.0721 0.0000
# 6 0.0000 0.0000 0.0000 0.0000 0.0000 34.7854
#
#
#
# Elastic Compliance Matrix: (Units=1/GPa)
#
#
# Indices 1 2 3 4 5 6 
#
# 1 0.009338 -0.003602 -0.002766 0.000000 0.000000 0.000000
# 2 -0.003602 0.011747 -0.002643 0.000000 0.000000 0.000000
# 3 -0.002766 -0.002643 0.032460 0.000000 0.000000 0.000000
# 4 0.000000 0.000000 0.000000 0.029494 0.000000 0.000000
# 5 0.000000 0.000000 0.000000 0.000000 0.052433 0.000000
# 6 0.000000 0.000000 0.000000 0.000000 0.000000 0.028748
#
#
# Mechanical properties :
#
#
# Convention : Reuss Voigt Hill
#
# Bulk Modulus (GPa) = 28.15089 44.27676 36.21382
# Shear Modulus (GPa) = 25.76227 30.41423 28.08825
#
# Velocity S-wave (km/s) = 3.57679 3.88633 3.73477
# Velocity P-wave (km/s) = 5.57113 6.49043 6.04827
#
# Compressibility (1/GPa) = 0.03552286
#
# Stress axis : x y z
#
# Youngs Moduli (GPa) = 107.08464 85.13055 30.80747
#
# Poissons Ratio (x) = 0.30665 0.08522
# Poissons Ratio (y) = 0.38573 0.08141
# Poissons Ratio (z) = 0.29621 0.22497
#
# Static dielectric constant tensor:
#      x y z
#    x 2.167370 0.000000 0.000000 
#    y 0.000000 1.518500 0.000000 
#    z 0.000000 0.000000 1.715600 
# 
# From -- ./inp_files/5163.got.cif
#   From: 2010.05.17/outbox.cif.g08.bks.cpg/sg57_3_cif.got.tgz:5163.got - 2010.06.03 13:58:18.
