data_PCOD9437728
_publ_section_title
;
Structure prediction by ZEFSAII (Michael W. Deem and Ramdas Pophale) SiO2 
 PCOD9437728
Probable space group: P B C M
;
_chemical_formula_sum "Si O2"
_cell_formula_units_Z 64
_cell_length_a 9.930028
_cell_length_b 20.742588
_cell_length_c 15.116255
_cell_angle_alpha 90.000000
_cell_angle_beta 90.000000
_cell_angle_gamma 90.000000
_cell_volume 3113.562758
_symmetry_space_group_name_H-M "P B C M"
_symmetry_group_IT_number 57
_symmetry_cell_setting 'orthorhombic'
loop_
_space_group_symop_operation_xyz
x,y,z
-x,-y,1/2+z
x,1/2-y,-z
-x,1/2+y,1/2-z
-x,-y,-z
x,y,1/2-z
-x,1/2+y,z
x,1/2-y,1/2+z
loop_
_atom_site_type_symbol
_atom_site_label
_atom_site_fract_x
_atom_site_fract_y
_atom_site_fract_z
Si Si1 0.365887 0.477340 0.144446
Si Si2 0.885900 0.580870 0.358392
Si Si3 0.376505 0.332930 0.358440
Si Si4 0.665052 0.016578 0.649440
Si Si5 0.835026 0.725197 0.142913
Si Si6 0.137854 0.738259 0.350886
Si Si7 0.324494 0.652111 0.917972
Si Si8 0.186825 0.597543 0.092770
O O1 0.382586 0.473787 0.250000
O O2 0.322509 0.404786 0.119304
O O3 0.516748 0.490912 0.107899
O O4 0.264781 0.534845 0.126020
O O5 0.911971 0.577018 0.250000
O O6 0.787159 0.524225 0.389693
O O7 0.814778 0.649700 0.376147
O O8 0.028458 0.579944 0.408521
O O9 0.395717 0.328869 0.250000
O O10 0.275702 0.276336 0.386603
O O11 0.519877 0.328559 0.407160
O O12 0.656844 0.992107 0.750000
O O13 0.693956 0.092597 0.649692
O O14 0.838038 0.729752 0.250000
O O15 0.986213 0.741418 0.112089
O O16 0.134434 0.760985 0.250000
O O17 0.236824 0.785109 0.401197
O O18 0.184509 0.664014 0.351513
O O19 0.267815 0.619742 0.006378
#
# Coordination Sequence:
#
# PCOD9437728 Si02
#       8
#     8   8   8   8   8   8   8   8
#     4   9  18  34  55  79 107 142 184 228 271 321
#     4   9  18  35  57  80 108 143 186 232 272 318
#     4   9  18  34  56  83 112 143 183 226 269 322
#     4   9  19  35  54  78 108 145 190 231 269 320
#     4   8  16  32  56  82 103 132 180 232 270 307
#     4  10  20  37  58  78 103 139 184 229 273 323
#     4  11  22  35  53  80 115 147 175 220 281 336
#     4  11  22  35  53  80 112 143 180 226 277 332
#
# _framework density 20.555230000000002
#
# number of rings (size 3 to 8) (size 9 to 14) (size 15 to 20)
#    0.000    2.500    0.000    4.125    0.000    4.500 
#    0.000    6.250    0.000    1.500    0.000    0.000 
#    0.000    0.000    0.000    0.000    0.000    0.000 
#
# Total GULP energy -356747.919297 kJ/mol
# GULP energy per Si atom -5574.186239 kJ/mol
# Density = 2.050845 g / cm^3
# Si number density = 20.555230 Si / 1000 Ang^3
#
#
#
# Elastic Constant Matrix: (Units=GPa)
#
#
# Indices 1 2 3 4 5 6 
#
# 1 113.2381 94.4191 15.7962 0.0000 0.0000 0.0000
# 2 94.4191 119.0645 -3.7804 0.0000 0.0000 0.0000
# 3 15.7962 -3.7804 35.4705 0.0000 0.0000 0.0000
# 4 0.0000 0.0000 0.0000 20.4097 0.0000 0.0000
# 5 0.0000 0.0000 0.0000 0.0000 -45.4560 0.0000
# 6 0.0000 0.0000 0.0000 0.0000 0.0000 39.2646
#
#
#
# Elastic Compliance Matrix: (Units=1/GPa)
#
#
# Indices 1 2 3 4 5 6 
#
# 1 0.035247 -0.028546 -0.018739 0.000000 0.000000 0.000000
# 2 -0.028546 0.031547 0.016075 0.000000 0.000000 0.000000
# 3 -0.018739 0.016075 0.038251 0.000000 0.000000 0.000000
# 4 0.000000 0.000000 0.000000 0.048996 0.000000 0.000000
# 5 0.000000 0.000000 0.000000 0.000000 -0.021999 0.000000
# 6 0.000000 0.000000 0.000000 0.000000 0.000000 0.025468
#
#
# Mechanical properties :
#
#
# Convention : Reuss Voigt Hill
#
# Bulk Modulus (GPa) = 23.46130 53.40478 38.43304
# Shear Modulus (GPa) = 21.35488 13.59957 17.47722
#
# Velocity S-wave (km/s) = 3.22670 2.57497 2.91908
# Velocity P-wave (km/s) = 5.03197 5.90577 5.48629
#
# Compressibility (1/GPa) = 0.04262338
#
# Stress axis : x y z
#
# Youngs Moduli (GPa) = 28.37115 31.69919 26.14321
#
# Poissons Ratio (x) = 0.90489 0.48990
# Poissons Ratio (y) = 0.80989 -0.42025
# Poissons Ratio (z) = 0.53165 -0.50956
#
# Static dielectric constant tensor:
#      x y z
#    x 1.732340 0.000000 0.000000 
#    y 0.000000 1.705680 0.000000 
#    z 0.000000 0.000000 1.821210 
# 
# From -- ./inp_files/21394.got.cif
#   From: 2010.05.17/outbox.cif.g08.bks.cpg/sg57_11_cif.got.tgz:21394.got - 2010.06.03 13:58:18.
