data_PCOD9437368
_publ_section_title
;
Structure prediction by ZEFSAII (Michael W. Deem and Ramdas Pophale) SiO2 
 PCOD9437368
Probable space group: P B C M
;
_chemical_formula_sum "Si O2"
_cell_formula_units_Z 32
_cell_length_a 13.043828
_cell_length_b 5.264320
_cell_length_c 26.351103
_cell_angle_alpha 90.000000
_cell_angle_beta 90.000000
_cell_angle_gamma 90.000000
_cell_volume 1809.448149
_symmetry_space_group_name_H-M "P B C M"
_symmetry_group_IT_number 57
_symmetry_cell_setting 'orthorhombic'
loop_
_space_group_symop_operation_xyz
x,y,z
-x,-y,1/2+z
x,1/2-y,-z
-x,1/2+y,1/2-z
-x,-y,-z
x,y,1/2-z
-x,1/2+y,z
x,1/2-y,1/2+z
loop_
_atom_site_type_symbol
_atom_site_label
_atom_site_fract_x
_atom_site_fract_y
_atom_site_fract_z
Si Si1 0.713800 0.088259 0.551924
Si Si2 0.434218 0.659076 0.250000
Si Si3 0.045157 0.504508 0.941952
Si Si4 0.428087 0.250000 0.500000
Si Si5 0.428595 0.781993 0.861876
O O1 0.704582 0.250000 0.500000
O O2 0.659118 0.242162 0.596647
O O3 0.833312 0.032476 0.558230
O O4 0.650457 0.825949 0.544664
O O5 0.473172 0.367641 0.250000
O O6 0.384000 0.711871 0.195498
O O7 0.991876 0.745934 0.917377
O O8 0.000000 0.500000 0.000000
O O9 0.500000 0.500000 0.500000
O O10 0.505283 0.539942 0.867597
#
# Coordination Sequence:
#
# PCOD9437368 Si02
#       5
#     8   4   8   4   8
#     4  12  24  34  54  76 108 142 177 210 262 314
#     4   8  16  36  54  68  98 134 176 216 244 292
#     4  10  20  36  51  68  96 134 178 216 250 301
#     4  12  24  34  44  68 110 142 162 196 248 310
#     4  10  22  35  52  77 104 139 174 209 254 306
#
# _framework density 17.684951000000002
#
# number of rings (size 3 to 8) (size 9 to 14) (size 15 to 20)
#    0.000    1.500    3.750    3.000    3.500    0.000 
#    0.000    0.000    0.000    0.000    0.000    1.750 
#    0.000    0.000    0.000    0.000    0.000    0.000 
#
# Total GULP energy -178326.709911 kJ/mol
# GULP energy per Si atom -5572.709685 kJ/mol
# Density = 1.764470 g / cm^3
# Si number density = 17.684951 Si / 1000 Ang^3
#
#
#
# Elastic Constant Matrix: (Units=GPa)
#
#
# Indices 1 2 3 4 5 6 
#
# 1 141.4687 49.3274 44.0243 0.0000 0.0000 0.0000
# 2 49.3274 142.4519 11.6565 0.0000 0.0000 0.0000
# 3 44.0243 11.6565 98.3150 0.0000 0.0000 0.0000
# 4 0.0000 0.0000 0.0000 18.5631 0.0000 0.0000
# 5 0.0000 0.0000 0.0000 0.0000 7.3880 0.0000
# 6 0.0000 0.0000 0.0000 0.0000 0.0000 19.9920
#
#
#
# Elastic Compliance Matrix: (Units=1/GPa)
#
#
# Indices 1 2 3 4 5 6 
#
# 1 0.009262 -0.002896 -0.003804 0.000000 0.000000 0.000000
# 2 -0.002896 0.007994 0.000349 0.000000 0.000000 0.000000
# 3 -0.003804 0.000349 0.011833 0.000000 0.000000 0.000000
# 4 0.000000 0.000000 0.000000 0.053870 0.000000 0.000000
# 5 0.000000 0.000000 0.000000 0.000000 0.135355 0.000000
# 6 0.000000 0.000000 0.000000 0.000000 0.000000 0.050020
#
#
# Mechanical properties :
#
#
# Convention : Reuss Voigt Hill
#
# Bulk Modulus (GPa) = 61.02201 65.80578 63.41390
# Shear Modulus (GPa) = 17.45195 27.67042 22.56118
#
# Velocity S-wave (km/s) = 3.14478 3.95983 3.57561
# Velocity P-wave (km/s) = 6.91131 7.62875 7.27888
#
# Compressibility (1/GPa) = 0.01638753
#
# Stress axis : x y z
#
# Youngs Moduli (GPa) = 107.96408 125.09116 84.50590
#
# Poissons Ratio (x) = 0.36227 0.32148
# Poissons Ratio (y) = 0.31267 -0.02949
# Poissons Ratio (z) = 0.41072 -0.04366
#
# Static dielectric constant tensor:
#      x y z
#    x 1.591720 0.000000 0.000000 
#    y 0.000000 1.651460 0.000000 
#    z 0.000000 0.000000 1.624900 
# 
# From -- ./inp_files/28468.got.cif
#   From: 2010.05.17/outbox.cif.g08.bks.cpg/sg57_15_cif.got.tgz:28468.got - 2010.06.03 13:58:18.
