data_PCOD9437998
_publ_section_title
;
Structure prediction by ZEFSAII (Michael W. Deem and Ramdas Pophale) SiO2 
 PCOD9437998
Probable space group: P B C M
;
_chemical_formula_sum "Si O2"
_cell_formula_units_Z 56
_cell_length_a 12.113000
_cell_length_b 11.549959
_cell_length_c 21.112375
_cell_angle_alpha 90.000000
_cell_angle_beta 90.000000
_cell_angle_gamma 90.000000
_cell_volume 2953.719506
_symmetry_space_group_name_H-M "P B C M"
_symmetry_group_IT_number 57
_symmetry_cell_setting 'orthorhombic'
loop_
_space_group_symop_operation_xyz
x,y,z
-x,-y,1/2+z
x,1/2-y,-z
-x,1/2+y,1/2-z
-x,-y,-z
x,y,1/2-z
-x,1/2+y,z
x,1/2-y,1/2+z
loop_
_atom_site_type_symbol
_atom_site_label
_atom_site_fract_x
_atom_site_fract_y
_atom_site_fract_z
Si Si1 0.029598 0.748797 0.615508
Si Si2 0.412343 0.954441 0.590794
Si Si3 0.281724 0.763806 0.075023
Si Si4 0.285463 0.382965 0.324432
Si Si5 0.652295 0.509633 0.053820
Si Si6 0.046718 0.494650 0.323399
Si Si7 0.794806 0.712534 0.068287
O O1 0.151938 0.742371 0.587712
O O2 0.024015 0.875314 0.650604
O O3 0.010120 0.623266 0.649331
O O4 0.923922 0.759047 0.569939
O O5 0.347096 0.838757 0.608280
O O6 0.540923 0.931200 0.578823
O O7 0.386847 0.049661 0.643686
O O8 0.363503 0.995999 0.522279
O O9 0.335677 0.886991 0.087818
O O10 0.297942 0.750000 0.000000
O O11 0.298760 0.354497 0.250000
O O12 0.177439 0.466129 0.330135
O O13 0.257350 0.276357 0.371035
O O14 0.762418 0.579095 0.070076
O O15 0.017650 0.497959 0.250000
O O16 0.747396 0.750000 0.000000
#
# Coordination Sequence:
#
# PCOD9437998 Si02
#       7
#     8   8   8   8   8   8   8
#     4  11  21  36  59  88 125 164 204 259 312 366
#     4  10  20  38  61  87 116 160 204 258 304 370
#     4  10  21  36  56  90 123 154 197 252 315 371
#     4  10  21  39  61  86 120 164 208 251 309 375
#     4  10  22  36  63  90 122 154 207 260 308 367
#     4  10  21  37  58  84 121 168 213 252 303 378
#     4  11  22  37  61  92 124 164 206 257 316 373
#
# _framework density 18.959147000000002
#
# number of rings (size 3 to 8) (size 9 to 14) (size 15 to 20)
#    0.000    1.714    2.857    1.714    2.000    1.143 
#    0.000    5.000    0.000    2.571    0.000    0.000 
#    0.000    0.000    0.000    0.000    0.000    0.000 
#
# Total GULP energy -311812.940819 kJ/mol
# GULP energy per Si atom -5568.088229 kJ/mol
# Density = 1.891600 g / cm^3
# Si number density = 18.959147 Si / 1000 Ang^3
#
#
#
# Elastic Constant Matrix: (Units=GPa)
#
#
# Indices 1 2 3 4 5 6 
#
# 1 33.8651 8.9217 6.5348 0.0000 0.0000 0.0000
# 2 8.9217 86.0930 30.7781 0.0000 0.0000 0.0000
# 3 6.5348 30.7781 76.6212 0.0000 0.0000 0.0000
# 4 0.0000 0.0000 0.0000 18.5417 0.0000 0.0000
# 5 0.0000 0.0000 0.0000 0.0000 18.0661 0.0000
# 6 0.0000 0.0000 0.0000 0.0000 0.0000 24.2441
#
#
#
# Elastic Compliance Matrix: (Units=1/GPa)
#
#
# Indices 1 2 3 4 5 6 
#
# 1 0.030516 -0.002606 -0.001556 0.000000 0.000000 0.000000
# 2 -0.002606 0.013786 -0.005315 0.000000 0.000000 0.000000
# 3 -0.001556 -0.005315 0.015319 0.000000 0.000000 0.000000
# 4 0.000000 0.000000 0.000000 0.053933 0.000000 0.000000
# 5 0.000000 0.000000 0.000000 0.000000 0.055352 0.000000
# 6 0.000000 0.000000 0.000000 0.000000 0.000000 0.041247
#
#
# Mechanical properties :
#
#
# Convention : Reuss Voigt Hill
#
# Bulk Modulus (GPa) = 24.59057 32.11651 28.35354
# Shear Modulus (GPa) = 20.60480 22.19337 21.39908
#
# Velocity S-wave (km/s) = 3.30024 3.42510 3.36325
# Velocity P-wave (km/s) = 5.24601 5.71125 5.48356
#
# Compressibility (1/GPa) = 0.04066600
#
# Stress axis : x y z
#
# Youngs Moduli (GPa) = 32.77006 72.53931 65.27833
#
# Poissons Ratio (x) = 0.18905 0.10155
# Poissons Ratio (y) = 0.08540 0.34697
# Poissons Ratio (z) = 0.05098 0.38557
#
# Static dielectric constant tensor:
#      x y z
#    x 1.646420 0.000000 0.000000 
#    y 0.000000 1.717260 0.000000 
#    z 0.000000 0.000000 1.651760 
# 
# From -- ./inp_files/25053.got.cif
#   From: 2010.05.17/outbox.cif.g08.bks.cpg/sg57_13_cif.got.tgz:25053.got - 2010.06.03 13:58:18.
