data_PCOD9437307
_publ_section_title
;
Structure prediction by ZEFSAII (Michael W. Deem and Ramdas Pophale) SiO2 
 PCOD9437307
Probable space group: P B C M
;
_chemical_formula_sum "Si O2"
_cell_formula_units_Z 64
_cell_length_a 24.514048
_cell_length_b 15.535620
_cell_length_c 7.703575
_cell_angle_alpha 90.000000
_cell_angle_beta 90.000000
_cell_angle_gamma 90.000000
_cell_volume 2933.836701
_symmetry_space_group_name_H-M "P B C M"
_symmetry_group_IT_number 57
_symmetry_cell_setting 'orthorhombic'
loop_
_space_group_symop_operation_xyz
x,y,z
-x,-y,1/2+z
x,1/2-y,-z
-x,1/2+y,1/2-z
-x,-y,-z
x,y,1/2-z
-x,1/2+y,z
x,1/2-y,1/2+z
loop_
_atom_site_type_symbol
_atom_site_label
_atom_site_fract_x
_atom_site_fract_y
_atom_site_fract_z
Si Si1 0.240610 0.841578 0.958306
Si Si2 0.100901 0.444140 0.951934
Si Si3 0.580819 0.518666 0.960514
Si Si4 0.485080 0.647789 0.046621
Si Si5 0.704794 0.983112 0.037632
Si Si6 0.001567 0.655363 0.458456
Si Si7 0.878060 0.128916 0.052309
Si Si8 0.795226 0.653198 0.543377
O O1 0.236007 0.850057 0.750000
O O2 0.273928 0.923559 0.020094
O O3 0.178641 0.842479 0.030872
O O4 0.266428 0.750000 0.000000
O O5 0.094918 0.468375 0.750000
O O6 0.042472 0.413341 0.022259
O O7 0.123508 0.525804 0.052987
O O8 0.146090 0.370326 0.964744
O O9 0.580086 0.516226 0.750000
O O10 0.557016 0.425881 0.025297
O O11 0.642892 0.531476 0.018762
O O12 0.542550 0.599032 0.012413
O O13 0.474956 0.648406 0.250000
O O14 0.483233 0.750000 0.000000
O O15 0.704550 0.982084 0.250000
O O16 0.748782 0.912544 0.980816
O O17 0.980175 0.750000 0.500000
O O18 0.004311 0.644521 0.250000
O O19 0.063183 0.649845 0.529191
O O20 0.879577 0.162365 0.250000
O O21 0.779818 0.750000 0.500000
O O22 0.800372 0.643473 0.750000
#
# Coordination Sequence:
#
# PCOD9437307 Si02
#       8
#     8   8   8   8   8   8   8   8
#     4  10  20  36  57  82 110 146 187 229 283 340
#     4  11  22  36  55  81 108 140 186 232 282 345
#     4   9  19  37  60  85 116 155 197 240 281 330
#     4  10  20  35  58  88 122 158 193 233 282 334
#     4   9  19  38  60  82 114 153 191 234 287 334
#     4  10  22  36  52  77 107 139 178 227 283 343
#     4  10  20  37  57  77 106 143 181 228 287 342
#     4  11  22  39  60  82 111 149 189 236 288 342
#
# _framework density 21.814437999999999
#
# number of rings (size 3 to 8) (size 9 to 14) (size 15 to 20)
#    0.000    2.000    1.250    2.250    0.000    4.500 
#    0.000    3.125    0.000    0.000    0.000    0.000 
#    0.000    0.000    0.000    0.000    0.000    0.000 
#
# Total GULP energy -357280.120538 kJ/mol
# GULP energy per Si atom -5582.501883 kJ/mol
# Density = 2.176479 g / cm^3
# Si number density = 21.814438 Si / 1000 Ang^3
#
#
#
# Elastic Constant Matrix: (Units=GPa)
#
#
# Indices 1 2 3 4 5 6 
#
# 1 77.7488 14.3619 -3.8531 0.0000 0.0000 0.0000
# 2 14.3619 124.5736 -2.6010 0.0000 0.0000 0.0000
# 3 -3.8531 -2.6010 44.7937 0.0000 0.0000 0.0000
# 4 0.0000 0.0000 0.0000 20.1829 0.0000 0.0000
# 5 0.0000 0.0000 0.0000 0.0000 33.8612 0.0000
# 6 0.0000 0.0000 0.0000 0.0000 0.0000 21.5564
#
#
#
# Elastic Compliance Matrix: (Units=1/GPa)
#
#
# Indices 1 2 3 4 5 6 
#
# 1 0.013191 -0.001499 0.001048 0.000000 0.000000 0.000000
# 2 -0.001499 0.008207 0.000348 0.000000 0.000000 0.000000
# 3 0.001048 0.000348 0.022435 0.000000 0.000000 0.000000
# 4 0.000000 0.000000 0.000000 0.049547 0.000000 0.000000
# 5 0.000000 0.000000 0.000000 0.000000 0.029532 0.000000
# 6 0.000000 0.000000 0.000000 0.000000 0.000000 0.046390
#
#
# Mechanical properties :
#
#
# Convention : Reuss Voigt Hill
#
# Bulk Modulus (GPa) = 22.92222 29.21466 26.06844
# Shear Modulus (GPa) = 27.16632 31.06731 29.11681
#
# Velocity S-wave (km/s) = 3.53276 3.77790 3.65739
# Velocity P-wave (km/s) = 5.21260 5.69662 5.45997
#
# Compressibility (1/GPa) = 0.04362579
#
# Stress axis : x y z
#
# Youngs Moduli (GPa) = 75.81085 121.84057 44.57347
#
# Poissons Ratio (x) = 0.18262 -0.04670
# Poissons Ratio (y) = 0.11363 -0.01550
# Poissons Ratio (z) = -0.07942 -0.04236
#
# Static dielectric constant tensor:
#      x y z
#    x 1.790650 0.000000 0.000000 
#    y 0.000000 1.807530 0.000000 
#    z 0.000000 0.000000 1.837810 
# 
# From -- ./inp_files/9299.got.cif
#   From: 2010.05.17/outbox.cif.g08.bks.cpg/sg57_5_cif.got.tgz:9299.got - 2010.06.03 13:58:18.
