data_PCOD9437021
_publ_section_title
;
Structure prediction by ZEFSAII (Michael W. Deem and Ramdas Pophale) SiO2 
 PCOD9437021
Probable space group: P B C M
;
_chemical_formula_sum "Si O2"
_cell_formula_units_Z 40
_cell_length_a 11.247665
_cell_length_b 8.903881
_cell_length_c 21.400667
_cell_angle_alpha 90.000000
_cell_angle_beta 90.000000
_cell_angle_gamma 90.000000
_cell_volume 2143.231231
_symmetry_space_group_name_H-M "P B C M"
_symmetry_group_IT_number 57
_symmetry_cell_setting 'orthorhombic'
loop_
_space_group_symop_operation_xyz
x,y,z
-x,-y,1/2+z
x,1/2-y,-z
-x,1/2+y,1/2-z
-x,-y,-z
x,y,1/2-z
-x,1/2+y,z
x,1/2-y,1/2+z
loop_
_atom_site_type_symbol
_atom_site_label
_atom_site_fract_x
_atom_site_fract_y
_atom_site_fract_z
Si Si1 0.354104 0.186466 0.931167
Si Si2 0.977616 0.976011 0.638777
Si Si3 0.846451 0.257301 0.074543
Si Si4 0.407670 0.834951 0.566691
Si Si5 0.829728 0.793708 0.317620
O O1 0.465526 0.285061 0.906425
O O2 0.252443 0.190518 0.878790
O O3 0.394924 0.013696 0.940086
O O4 0.317738 0.250000 0.000000
O O5 0.895591 0.083508 0.596914
O O6 0.066031 0.082944 0.676819
O O7 0.893857 0.867061 0.678039
O O8 0.062095 0.868311 0.598039
O O9 0.713237 0.223138 0.098874
O O10 0.842364 0.250000 0.000000
O O11 0.410400 0.750000 0.500000
O O12 0.769044 0.810719 0.250000
#
# Coordination Sequence:
#
# PCOD9437021 Si02
#       5
#     8   8   8   8   8
#     4  11  23  39  65  91 121 160 204 251 299 357
#     4  10  22  38  60  84 121 163 199 243 304 364
#     4  10  20  34  59  93 124 150 198 252 303 356
#     4  10  21  37  61  91 123 159 197 244 307 357
#     4  11  24  42  63  87 122 160 204 247 302 361
#
# _framework density 18.663409999999999
#
# number of rings (size 3 to 8) (size 9 to 14) (size 15 to 20)
#    0.000    1.600    2.000    3.600    8.400    3.200 
#    0.000    1.000    0.000    0.000    0.000    0.000 
#    0.000    0.000    0.000    0.000    0.000    0.000 
#
# Total GULP energy -223140.665242 kJ/mol
# GULP energy per Si atom -5578.516631 kJ/mol
# Density = 1.862093 g / cm^3
# Si number density = 18.663410 Si / 1000 Ang^3
#
#
#
# Elastic Constant Matrix: (Units=GPa)
#
#
# Indices 1 2 3 4 5 6 
#
# 1 77.8057 32.6309 38.0893 0.0000 0.0000 0.0000
# 2 32.6309 127.3529 36.2332 0.0000 0.0000 0.0000
# 3 38.0893 36.2332 92.8410 0.0000 0.0000 0.0000
# 4 0.0000 0.0000 0.0000 -1.0725 0.0000 0.0000
# 5 0.0000 0.0000 0.0000 0.0000 -5.1121 0.0000
# 6 0.0000 0.0000 0.0000 0.0000 0.0000 21.6079
#
#
#
# Elastic Compliance Matrix: (Units=1/GPa)
#
#
# Indices 1 2 3 4 5 6 
#
# 1 0.016838 -0.002642 -0.005877 0.000000 0.000000 0.000000
# 2 -0.002642 0.009248 -0.002525 0.000000 0.000000 0.000000
# 3 -0.005877 -0.002525 0.014168 0.000000 0.000000 0.000000
# 4 0.000000 0.000000 0.000000 -0.932371 0.000000 0.000000
# 5 0.000000 0.000000 0.000000 0.000000 -0.195615 0.000000
# 6 0.000000 0.000000 0.000000 0.000000 0.000000 0.046279
#
#
# Mechanical properties :
#
#
# Convention : Reuss Voigt Hill
#
# Bulk Modulus (GPa) = 55.05153 56.87850 55.96501
# Shear Modulus (GPa) = -4.93432 15.82107 5.44338
#
# Velocity S-wave (km/s) = -1.62775 2.91470 1.70966
# Velocity P-wave (km/s) = 5.10179 6.47066 5.82656
#
# Compressibility (1/GPa) = 0.01816480
#
# Stress axis : x y z
#
# Youngs Moduli (GPa) = 59.39119 108.13606 70.58393
#
# Poissons Ratio (x) = 0.28572 0.41480
# Poissons Ratio (y) = 0.15692 0.17823
# Poissons Ratio (z) = 0.34902 0.27305
#
# Static dielectric constant tensor:
#      x y z
#    x 1.689850 0.000000 0.000000 
#    y 0.000000 1.644530 0.000000 
#    z 0.000000 0.000000 1.628600 
# 
# From -- ./inp_files/24844.got.cif
#   From: 2010.05.17/outbox.cif.g08.bks.cpg/sg57_13_cif.got.tgz:24844.got - 2010.06.03 13:58:18.
