data_PCOD9437492
_publ_section_title
;
Structure prediction by ZEFSAII (Michael W. Deem and Ramdas Pophale) SiO2 
 PCOD9437492
Probable space group: P B C M
;
_chemical_formula_sum "Si O2"
_cell_formula_units_Z 48
_cell_length_a 8.799104
_cell_length_b 29.035378
_cell_length_c 10.218130
_cell_angle_alpha 90.000000
_cell_angle_beta 90.000000
_cell_angle_gamma 90.000000
_cell_volume 2610.582118
_symmetry_space_group_name_H-M "P B C M"
_symmetry_group_IT_number 57
_symmetry_cell_setting 'orthorhombic'
loop_
_space_group_symop_operation_xyz
x,y,z
-x,-y,1/2+z
x,1/2-y,-z
-x,1/2+y,1/2-z
-x,-y,-z
x,y,1/2-z
-x,1/2+y,z
x,1/2-y,1/2+z
loop_
_atom_site_type_symbol
_atom_site_label
_atom_site_fract_x
_atom_site_fract_y
_atom_site_fract_z
Si Si1 0.693800 0.709024 0.750000
Si Si2 0.791010 0.287787 0.750000
Si Si3 0.629712 0.050395 0.099293
Si Si4 0.352479 0.850493 0.530951
Si Si5 0.336295 0.688754 0.750000
Si Si6 0.716539 0.646335 0.500092
Si Si7 0.656475 0.950009 0.096256
Si Si8 0.145223 0.191919 0.250000
O O1 0.510030 0.707698 0.750000
O O2 0.741652 0.680688 0.621400
O O3 0.760163 0.760218 0.750000
O O4 0.712158 0.311027 0.875929
O O5 0.767401 0.233433 0.750000
O O6 0.968077 0.297966 0.750000
O O7 0.570324 0.050201 0.250000
O O8 0.707319 0.099648 0.077343
O O9 0.719270 0.002150 0.084743
O O10 0.496300 0.049605 0.991279
O O11 0.314232 0.840558 0.380714
O O12 0.536850 0.850999 0.538115
O O13 0.748072 0.593894 0.544217
O O14 0.810530 0.663088 0.377396
O O15 0.622467 0.941631 0.250000
#
# Coordination Sequence:
#
# PCOD9437492 Si02
#       8
#     4   4   8   8   4   8   8   4
#     4  10  20  38  57  82 108 142 181 234 281 332
#     4  12  24  40  53  78 108 152 191 232 271 328
#     4   9  17  29  52  87 118 146 170 221 278 328
#     4  10  20  36  59  84 111 145 181 225 280 329
#     4  10  22  36  59  82 110 140 187 232 277 334
#     4  10  20  36  57  85 112 144 180 229 279 328
#     4   9  17  30  52  86 119 143 176 221 274 330
#     4  12  26  36  55  78 112 148 193 230 275 330
#
# _framework density 18.386702
#
# number of rings (size 3 to 8) (size 9 to 14) (size 15 to 20)
#    0.000    2.000    1.667    2.500    7.000    5.333 
#    0.000    0.000    0.000    1.000    0.000    0.000 
#    0.000    0.000    0.000    0.000    0.000    0.000 
#
# Total GULP energy -267650.651694 kJ/mol
# GULP energy per Si atom -5576.055244 kJ/mol
# Density = 1.834485 g / cm^3
# Si number density = 18.386702 Si / 1000 Ang^3
#
#
#
# Elastic Constant Matrix: (Units=GPa)
#
#
# Indices 1 2 3 4 5 6 
#
# 1 23.5152 24.1512 39.8812 0.0000 0.0000 0.0000
# 2 24.1512 93.1098 22.1298 0.0000 0.0000 0.0000
# 3 39.8812 22.1298 109.1739 0.0000 0.0000 0.0000
# 4 0.0000 0.0000 0.0000 35.6271 0.0000 0.0000
# 5 0.0000 0.0000 0.0000 0.0000 -28.4202 0.0000
# 6 0.0000 0.0000 0.0000 0.0000 0.0000 -0.0844
#
#
#
# Elastic Compliance Matrix: (Units=1/GPa)
#
#
# Indices 1 2 3 4 5 6 
#
# 1 0.165737 -0.030047 -0.054453 0.000000 0.000000 0.000000
# 2 -0.030047 0.016731 0.007585 0.000000 0.000000 0.000000
# 3 -0.054453 0.007585 0.027514 0.000000 0.000000 0.000000
# 4 0.000000 0.000000 0.000000 0.028069 0.000000 0.000000
# 5 0.000000 0.000000 0.000000 0.000000 -0.035186 0.000000
# 6 0.000000 0.000000 0.000000 0.000000 0.000000-11.852349
#
#
# Mechanical properties :
#
#
# Convention : Reuss Voigt Hill
#
# Bulk Modulus (GPa) = 17.80919 44.23594 31.02257
# Shear Modulus (GPa) = -0.43566 10.73362 5.14898
#
# Velocity S-wave (km/s) = -0.48729 2.41876 1.67525
# Velocity P-wave (km/s) = 3.06436 5.64902 4.54432
#
# Compressibility (1/GPa) = 0.05615077
#
# Stress axis : x y z
#
# Youngs Moduli (GPa) = 6.03366 59.76886 36.34532
#
# Poissons Ratio (x) = 1.79590 1.97911
# Poissons Ratio (y) = 0.18130 -0.27568
# Poissons Ratio (z) = 0.32855 -0.45334
#
# Static dielectric constant tensor:
#      x y z
#    x 1.592530 0.000000 0.000000 
#    y 0.000000 1.680320 0.000000 
#    z 0.000000 0.000000 1.627610 
# 
# From -- ./inp_files/2199.got.cif
#   From: 2010.05.17/outbox.cif.g08.bks.cpg/sg57_2_cif.got.tgz:2199.got - 2010.06.03 13:58:18.
