data_PCOD9437739
_publ_section_title
;
Structure prediction by ZEFSAII (Michael W. Deem and Ramdas Pophale) SiO2 
 PCOD9437739
Probable space group: P B C M
;
_chemical_formula_sum "Si O2"
_cell_formula_units_Z 64
_cell_length_a 21.439687
_cell_length_b 19.248605
_cell_length_c 8.556052
_cell_angle_alpha 90.000000
_cell_angle_beta 90.000000
_cell_angle_gamma 90.000000
_cell_volume 3530.946332
_symmetry_space_group_name_H-M "P B C M"
_symmetry_group_IT_number 57
_symmetry_cell_setting 'orthorhombic'
loop_
_space_group_symop_operation_xyz
x,y,z
-x,-y,1/2+z
x,1/2-y,-z
-x,1/2+y,1/2-z
-x,-y,-z
x,y,1/2-z
-x,1/2+y,z
x,1/2-y,1/2+z
loop_
_atom_site_type_symbol
_atom_site_label
_atom_site_fract_x
_atom_site_fract_y
_atom_site_fract_z
Si Si1 0.807763 0.031444 0.060207
Si Si2 0.504382 0.577647 0.062143
Si Si3 0.393527 0.675792 0.437939
Si Si4 0.249760 0.675063 0.060943
Si Si5 0.119642 0.325852 0.936146
Si Si6 0.062001 0.463929 0.437698
Si Si7 0.616736 0.828005 0.437949
Si Si8 0.751562 0.887265 0.439135
O O1 0.806674 0.033499 0.250000
O O2 0.787745 0.107484 0.005378
O O3 0.876980 0.008245 0.012914
O O4 0.761782 0.968093 0.014903
O O5 0.506785 0.577363 0.250000
O O6 0.441533 0.617416 0.011037
O O7 0.500000 0.500000 0.000000
O O8 0.563547 0.620303 0.999268
O O9 0.415466 0.750000 0.500000
O O10 0.393207 0.677347 0.250000
O O11 0.322038 0.665827 0.489121
O O12 0.248150 0.676712 0.250000
O O13 0.228026 0.750000 0.000000
O O14 0.118574 0.325635 0.750000
O O15 0.103205 0.250000 0.000000
O O16 0.074509 0.386470 0.999317
O O17 0.189440 0.345599 0.993842
O O18 0.060859 0.461582 0.250000
O O19 0.000000 0.500000 0.500000
O O20 0.607167 0.750000 0.500000
O O21 0.614882 0.827108 0.250000
O O22 0.685228 0.855925 0.487093
O O23 0.755388 0.883831 0.250000
#
# Coordination Sequence:
#
# PCOD9437739 Si02
#       8
#     8   8   8   8   8   8   8   8
#     4   8  16  32  56  79 105 142 181 221 268 326
#     4  11  24  39  55  78 106 141 184 232 281 336
#     4   9  19  34  55  76 100 134 176 219 270 327
#     4   9  17  32  54  78 104 135 174 220 269 323
#     4  11  21  35  57  85 117 150 187 233 281 333
#     4  10  20  37  58  83 113 150 194 232 276 331
#     4  11  23  38  58  81 111 147 185 229 281 339
#     4   9  19  35  57  83 110 145 186 229 280 337
#
# _framework density 18.125453
#
# number of rings (size 3 to 8) (size 9 to 14) (size 15 to 20)
#    0.000    2.250    0.000    3.750    1.750    4.000 
#    0.000    3.750    0.000    1.500    0.000    0.000 
#    0.000    0.000    0.000    0.000    0.000    0.000 
#
# Total GULP energy -357214.596799 kJ/mol
# GULP energy per Si atom -5581.478075 kJ/mol
# Density = 1.808420 g / cm^3
# Si number density = 18.125453 Si / 1000 Ang^3
#
#
#
# Elastic Constant Matrix: (Units=GPa)
#
#
# Indices 1 2 3 4 5 6 
#
# 1 91.2554 97.2386 29.6773 0.0000 0.0000 0.0000
# 2 97.2386 206.8767 40.4345 0.0000 0.0000 0.0000
# 3 29.6773 40.4345 41.6772 0.0000 0.0000 0.0000
# 4 0.0000 0.0000 0.0000 31.5850 0.0000 0.0000
# 5 0.0000 0.0000 0.0000 0.0000 25.5616 0.0000
# 6 0.0000 0.0000 0.0000 0.0000 0.0000 27.3175
#
#
#
# Elastic Compliance Matrix: (Units=1/GPa)
#
#
# Indices 1 2 3 4 5 6 
#
# 1 0.023709 -0.009680 -0.007491 0.000000 0.000000 0.000000
# 2 -0.009680 0.009917 -0.002728 0.000000 0.000000 0.000000
# 3 -0.007491 -0.002728 0.031975 0.000000 0.000000 0.000000
# 4 0.000000 0.000000 0.000000 0.031661 0.000000 0.000000
# 5 0.000000 0.000000 0.000000 0.000000 0.039121 0.000000
# 6 0.000000 0.000000 0.000000 0.000000 0.000000 0.036607
#
#
# Mechanical properties :
#
#
# Convention : Reuss Voigt Hill
#
# Bulk Modulus (GPa) = 38.75661 74.94556 56.85109
# Shear Modulus (GPa) = 22.58460 28.39008 25.48734
#
# Velocity S-wave (km/s) = 3.53372 3.96196 3.75395
# Velocity P-wave (km/s) = 6.17077 7.89731 7.08682
#
# Compressibility (1/GPa) = 0.02580205
#
# Stress axis : x y z
#
# Youngs Moduli (GPa) = 42.17809 100.83820 31.27394
#
# Poissons Ratio (x) = 0.97609 0.23429
# Poissons Ratio (y) = 0.40827 0.08533
# Poissons Ratio (z) = 0.31597 0.27513
#
# Static dielectric constant tensor:
#      x y z
#    x 1.608370 0.000000 0.000000 
#    y 0.000000 1.600540 0.000000 
#    z 0.000000 0.000000 1.619860 
# 
# From -- ./inp_files/8597.got.cif
#   From: 2010.05.17/outbox.cif.g08.bks.cpg/sg57_5_cif.got.tgz:8597.got - 2010.06.03 13:58:18.
