data_PCOD9437994
_publ_section_title
;
Structure prediction by ZEFSAII (Michael W. Deem and Ramdas Pophale) SiO2 
 PCOD9437994
Probable space group: P B C M
;
_chemical_formula_sum "Si O2"
_cell_formula_units_Z 48
_cell_length_a 17.044528
_cell_length_b 16.006988
_cell_length_c 8.857015
_cell_angle_alpha 90.000000
_cell_angle_beta 90.000000
_cell_angle_gamma 90.000000
_cell_volume 2416.473177
_symmetry_space_group_name_H-M "P B C M"
_symmetry_group_IT_number 57
_symmetry_cell_setting 'orthorhombic'
loop_
_space_group_symop_operation_xyz
x,y,z
-x,-y,1/2+z
x,1/2-y,-z
-x,1/2+y,1/2-z
-x,-y,-z
x,y,1/2-z
-x,1/2+y,z
x,1/2-y,1/2+z
loop_
_atom_site_type_symbol
_atom_site_label
_atom_site_fract_x
_atom_site_fract_y
_atom_site_fract_z
Si Si1 0.849913 0.420964 0.573026
Si Si2 0.413275 0.498524 0.068042
Si Si3 0.170744 0.117118 0.572478
Si Si4 0.993255 0.161662 0.570271
Si Si5 0.670308 0.663489 0.428734
Si Si6 0.689315 0.339045 0.567850
O O1 0.863948 0.403407 0.750000
O O2 0.823821 0.516926 0.561549
O O3 0.777911 0.363551 0.519295
O O4 0.930201 0.405005 0.486149
O O5 0.415042 0.494033 0.250000
O O6 0.366852 0.583533 0.026008
O O7 0.500000 0.500000 0.000000
O O8 0.369575 0.417163 0.003842
O O9 0.182860 0.139575 0.750000
O O10 0.082840 0.141998 0.526140
O O11 0.237735 0.156533 0.470545
O O12 0.969830 0.250000 0.500000
O O13 0.991232 0.165603 0.750000
O O14 0.640088 0.750000 0.500000
O O15 0.658550 0.663054 0.250000
O O16 0.666195 0.250000 0.500000
O O17 0.689362 0.333895 0.750000
#
# Coordination Sequence:
#
# PCOD9437994 Si02
#       6
#     8   8   8   8   8   8
#     4  10  20  38  61  86 121 164 207 261 320 369
#     4  11  24  46  70  97 133 169 210 263 322 383
#     4  10  21  40  62  87 124 165 209 265 322 375
#     4  11  23  36  54  83 120 164 212 263 315 372
#     4  12  25  42  68  99 130 171 217 265 322 385
#     4  10  22  40  65  93 128 168 207 257 314 374
#
# _framework density 19.863661
#
# number of rings (size 3 to 8) (size 9 to 14) (size 15 to 20)
#    0.000    1.333    1.667    4.000    0.000    7.333 
#    0.000    1.667    0.000    0.000    0.000    0.000 
#    0.000    0.000    0.000    0.000    0.000    0.000 
#
# Total GULP energy -268416.139218 kJ/mol
# GULP energy per Si atom -5592.002900 kJ/mol
# Density = 1.981845 g / cm^3
# Si number density = 19.863661 Si / 1000 Ang^3
#
#
#
# Elastic Constant Matrix: (Units=GPa)
#
#
# Indices 1 2 3 4 5 6 
#
# 1 106.0846 44.0042 41.6854 0.0000 0.0000 0.0000
# 2 44.0042 123.1522 44.7837 0.0000 0.0000 0.0000
# 3 41.6854 44.7837 68.6919 0.0000 0.0000 0.0000
# 4 0.0000 0.0000 0.0000 28.1499 0.0000 0.0000
# 5 0.0000 0.0000 0.0000 0.0000 30.1774 0.0000
# 6 0.0000 0.0000 0.0000 0.0000 0.0000 7.8298
#
#
#
# Elastic Compliance Matrix: (Units=1/GPa)
#
#
# Indices 1 2 3 4 5 6 
#
# 1 0.012858 -0.002303 -0.006301 0.000000 0.000000 0.000000
# 2 -0.002303 0.011056 -0.005810 0.000000 0.000000 0.000000
# 3 -0.006301 -0.005810 0.022170 0.000000 0.000000 0.000000
# 4 0.000000 0.000000 0.000000 0.035524 0.000000 0.000000
# 5 0.000000 0.000000 0.000000 0.000000 0.033137 0.000000
# 6 0.000000 0.000000 0.000000 0.000000 0.000000 0.127718
#
#
# Mechanical properties :
#
#
# Convention : Reuss Voigt Hill
#
# Bulk Modulus (GPa) = 57.95679 62.09727 60.02703
# Shear Modulus (GPa) = 18.04773 24.39511 21.22142
#
# Velocity S-wave (km/s) = 3.01754 3.50827 3.27211
# Velocity P-wave (km/s) = 6.43283 6.90943 6.67539
#
# Compressibility (1/GPa) = 0.01725423
#
# Stress axis : x y z
#
# Youngs Moduli (GPa) = 77.77421 90.45046 45.10649
#
# Poissons Ratio (x) = 0.20829 0.28423
# Poissons Ratio (y) = 0.17910 0.26209
# Poissons Ratio (z) = 0.49008 0.52555
#
# Static dielectric constant tensor:
#      x y z
#    x 1.699590 0.000000 0.000000 
#    y 0.000000 1.704400 0.000000 
#    z 0.000000 0.000000 1.669700 
# 
# From -- ./inp_files/6584.got.cif
#   From: 2010.05.17/outbox.cif.g08.bks.cpg/sg57_4_cif.got.tgz:6584.got - 2010.06.03 13:58:18.
