data_PCOD9437757
_publ_section_title
;
Structure prediction by ZEFSAII (Michael W. Deem and Ramdas Pophale) SiO2 
 PCOD9437757
Probable space group: P B C M
;
_chemical_formula_sum "Si O2"
_cell_formula_units_Z 48
_cell_length_a 18.367179
_cell_length_b 15.293552
_cell_length_c 8.776939
_cell_angle_alpha 90.000000
_cell_angle_beta 90.000000
_cell_angle_gamma 90.000000
_cell_volume 2465.436962
_symmetry_space_group_name_H-M "P B C M"
_symmetry_group_IT_number 57
_symmetry_cell_setting 'orthorhombic'
loop_
_space_group_symop_operation_xyz
x,y,z
-x,-y,1/2+z
x,1/2-y,-z
-x,1/2+y,1/2-z
-x,-y,-z
x,y,1/2-z
-x,1/2+y,z
x,1/2-y,1/2+z
loop_
_atom_site_type_symbol
_atom_site_label
_atom_site_fract_x
_atom_site_fract_y
_atom_site_fract_z
Si Si1 0.946131 0.844512 0.433049
Si Si2 0.529603 0.909269 0.932305
Si Si3 0.116233 0.657494 0.932402
Si Si4 0.326948 0.035119 0.567249
Si Si5 0.623515 0.339718 0.567934
Si Si6 0.826798 0.527525 0.066822
O O1 0.925472 0.750000 0.500000
O O2 0.939999 0.844789 0.250000
O O3 0.894303 0.916957 0.504837
O O4 0.031251 0.858107 0.473675
O O5 0.535804 0.914403 0.750000
O O6 0.463055 0.844839 0.968928
O O7 0.609184 0.902239 0.004785
O O8 0.500000 0.000000 0.000000
O O9 0.119655 0.663453 0.750000
O O10 0.161665 0.573406 0.981658
O O11 0.139665 0.750000 0.000000
O O12 0.328080 0.463254 0.250000
O O13 0.343495 0.933669 0.517881
O O14 0.248784 0.060242 0.502285
O O15 0.654405 0.250000 0.500000
O O16 0.630983 0.336495 0.750000
O O17 0.825390 0.531400 0.250000
#
# Coordination Sequence:
#
# PCOD9437757 Si02
#       6
#     8   8   8   8   8   8
#     4  10  20  37  59  82 108 142 184 233 281 331
#     4   9  17  32  52  74  98 129 168 209 251 303
#     4   9  20  36  56  82 112 146 186 229 277 330
#     4  10  21  36  52  75 105 140 178 218 265 319
#     4   9  19  33  52  77 104 133 170 212 259 313
#     4  11  22  36  55  82 113 148 186 227 278 336
#
# _framework density 19.469165
#
# number of rings (size 3 to 8) (size 9 to 14) (size 15 to 20)
#    0.000    2.333    0.000    3.500    0.000    6.667 
#    0.000    4.167    0.000    2.000    0.000    0.000 
#    0.000    0.000    0.000    0.000    0.000    0.000 
#
# Total GULP energy -267801.951730 kJ/mol
# GULP energy per Si atom -5579.207328 kJ/mol
# Density = 1.942485 g / cm^3
# Si number density = 19.469165 Si / 1000 Ang^3
#
#
#
# Elastic Constant Matrix: (Units=GPa)
#
#
# Indices 1 2 3 4 5 6 
#
# 1 53.9825 -2.4688 15.4468 0.0000 0.0000 0.0000
# 2 -2.4688 27.9082 8.2460 0.0000 0.0000 0.0000
# 3 15.4468 8.2460 35.0648 0.0000 0.0000 0.0000
# 4 0.0000 0.0000 0.0000 28.5561 0.0000 0.0000
# 5 0.0000 0.0000 0.0000 0.0000 22.0108 0.0000
# 6 0.0000 0.0000 0.0000 0.0000 0.0000 8.3169
#
#
#
# Elastic Compliance Matrix: (Units=1/GPa)
#
#
# Indices 1 2 3 4 5 6 
#
# 1 0.021861 0.005136 -0.010838 0.000000 0.000000 0.000000
# 2 0.005136 0.039714 -0.011602 0.000000 0.000000 0.000000
# 3 -0.010838 -0.011602 0.036021 0.000000 0.000000 0.000000
# 4 0.000000 0.000000 0.000000 0.035019 0.000000 0.000000
# 5 0.000000 0.000000 0.000000 0.000000 0.045432 0.000000
# 6 0.000000 0.000000 0.000000 0.000000 0.000000 0.120237
#
#
# Mechanical properties :
#
#
# Convention : Reuss Voigt Hill
#
# Bulk Modulus (GPa) = 15.87589 17.71151 16.79370
# Shear Modulus (GPa) = 14.12878 18.15886 16.14382
#
# Velocity S-wave (km/s) = 2.69681 3.05732 2.88271
# Velocity P-wave (km/s) = 4.22718 4.64542 4.44123
#
# Compressibility (1/GPa) = 0.06298858
#
# Stress axis : x y z
#
# Youngs Moduli (GPa) = 45.74442 25.17992 27.76136
#
# Poissons Ratio (x) = -0.12933 0.30087
# Poissons Ratio (y) = -0.23495 0.32209
# Poissons Ratio (z) = 0.49577 0.29214
#
# Static dielectric constant tensor:
#      x y z
#    x 1.693800 0.000000 0.000000 
#    y 0.000000 1.677540 0.000000 
#    z 0.000000 0.000000 1.650300 
# 
# From -- ./inp_files/6518.got.cif
#   From: 2010.05.17/outbox.cif.g08.bks.cpg/sg57_4_cif.got.tgz:6518.got - 2010.06.03 13:58:18.
