data_PCOD9437779
_publ_section_title
;
Structure prediction by ZEFSAII (Michael W. Deem and Ramdas Pophale) SiO2 
 PCOD9437779
Probable space group: P B C M
;
_chemical_formula_sum "Si O2"
_cell_formula_units_Z 64
_cell_length_a 14.819660
_cell_length_b 9.281358
_cell_length_c 23.015504
_cell_angle_alpha 90.000000
_cell_angle_beta 90.000000
_cell_angle_gamma 90.000000
_cell_volume 3165.703630
_symmetry_space_group_name_H-M "P B C M"
_symmetry_group_IT_number 57
_symmetry_cell_setting 'orthorhombic'
loop_
_space_group_symop_operation_xyz
x,y,z
-x,-y,1/2+z
x,1/2-y,-z
-x,1/2+y,1/2-z
-x,-y,-z
x,y,1/2-z
-x,1/2+y,z
x,1/2-y,1/2+z
loop_
_atom_site_type_symbol
_atom_site_label
_atom_site_fract_x
_atom_site_fract_y
_atom_site_fract_z
Si Si1 0.175247 0.217471 0.067241
Si Si2 0.387689 0.935223 0.961453
Si Si3 0.209171 0.537742 0.397877
Si Si4 0.009950 0.888532 0.887322
Si Si5 0.060969 0.638192 0.686166
Si Si6 0.732187 0.283289 0.183762
Si Si7 0.445786 0.258803 0.434572
Si Si8 0.664605 0.508684 0.407267
O O1 0.201750 0.363710 0.102358
O O2 0.236896 0.080446 0.083369
O O3 0.070253 0.181069 0.076236
O O4 0.191750 0.250000 0.000000
O O5 0.284678 0.916527 0.943728
O O6 0.455357 0.808609 0.943355
O O7 0.427974 0.072870 0.925772
O O8 0.380095 0.961176 0.030929
O O9 0.109526 0.595536 0.413977
O O10 0.244990 0.623410 0.341057
O O11 0.024649 0.795642 0.829053
O O12 0.975965 0.041554 0.865394
O O13 0.030683 0.592376 0.750000
O O14 0.169036 0.642463 0.685088
O O15 0.697568 0.278894 0.250000
O O16 0.673112 0.380439 0.139362
O O17 0.403592 0.250000 0.500000
O O18 0.394600 0.150525 0.391743
#
# Coordination Sequence:
#
# PCOD9437779 Si02
#       8
#     8   8   8   8   8   8   8   8
#     4  12  22  42  60  89 135 174 207 262 326 404
#     4  11  23  40  65 105 131 169 209 267 337 392
#     4  11  24  42  63  91 136 173 214 267 324 391
#     4  11  22  39  58  88 124 177 215 254 325 381
#     4  10  20  37  59  85 117 159 225 277 307 357
#     4  10  24  42  62  93 128 169 221 273 318 379
#     4  10  21  37  62 102 131 160 209 260 326 390
#     4  11  20  40  66  93 134 165 207 267 327 391
#
# _framework density 20.216674000000001
#
# number of rings (size 3 to 8) (size 9 to 14) (size 15 to 20)
#    0.000    1.250    5.000    2.250    3.500    1.000 
#    4.500    0.625    0.000    0.750    0.000    0.000 
#    0.000    0.000    0.000    0.000    0.000    0.000 
#
# Total GULP energy -356566.535978 kJ/mol
# GULP energy per Si atom -5571.352125 kJ/mol
# Density = 2.017066 g / cm^3
# Si number density = 20.216674 Si / 1000 Ang^3
#
#
#
# Elastic Constant Matrix: (Units=GPa)
#
#
# Indices 1 2 3 4 5 6 
#
# 1 105.7898 40.5205 29.7476 0.0000 0.0000 0.0000
# 2 40.5205 113.7780 40.8988 0.0000 0.0000 0.0000
# 3 29.7476 40.8988 62.9127 0.0000 0.0000 0.0000
# 4 0.0000 0.0000 0.0000 19.5984 0.0000 0.0000
# 5 0.0000 0.0000 0.0000 0.0000 15.9081 0.0000
# 6 0.0000 0.0000 0.0000 0.0000 0.0000 33.0974
#
#
#
# Elastic Compliance Matrix: (Units=1/GPa)
#
#
# Indices 1 2 3 4 5 6 
#
# 1 0.011550 -0.002806 -0.003637 0.000000 0.000000 0.000000
# 2 -0.002806 0.012151 -0.006572 0.000000 0.000000 0.000000
# 3 -0.003637 -0.006572 0.021888 0.000000 0.000000 0.000000
# 4 0.000000 0.000000 0.000000 0.051024 0.000000 0.000000
# 5 0.000000 0.000000 0.000000 0.000000 0.062861 0.000000
# 6 0.000000 0.000000 0.000000 0.000000 0.000000 0.030214
#
#
# Mechanical properties :
#
#
# Convention : Reuss Voigt Hill
#
# Bulk Modulus (GPa) = 51.13157 56.09047 53.61102
# Shear Modulus (GPa) = 22.49835 25.14169 23.82002
#
# Velocity S-wave (km/s) = 3.33958 3.53031 3.43627
# Velocity P-wave (km/s) = 6.34169 6.66501 6.50536
#
# Compressibility (1/GPa) = 0.01955739
#
# Stress axis : x y z
#
# Youngs Moduli (GPa) = 86.57809 82.29863 45.68817
#
# Poissons Ratio (x) = 0.23093 0.16618
# Poissons Ratio (y) = 0.24294 0.30028
# Poissons Ratio (z) = 0.31491 0.54090
#
# Static dielectric constant tensor:
#      x y z
#    x 1.759670 0.000000 0.000000 
#    y 0.000000 1.806730 0.000000 
#    z 0.000000 0.000000 1.696400 
# 
# From -- ./inp_files/27511.got.cif
#   From: 2010.05.17/outbox.cif.g08.bks.cpg/sg57_14_cif.got.tgz:27511.got - 2010.06.03 13:58:18.
