data_PCOD9437863
_publ_section_title
;
Structure prediction by ZEFSAII (Michael W. Deem and Ramdas Pophale) SiO2 
 PCOD9437863
Probable space group: P B C M
;
_chemical_formula_sum "Si O2"
_cell_formula_units_Z 64
_cell_length_a 12.559450
_cell_length_b 17.655336
_cell_length_c 13.668815
_cell_angle_alpha 90.000000
_cell_angle_beta 90.000000
_cell_angle_gamma 90.000000
_cell_volume 3030.940940
_symmetry_space_group_name_H-M "P B C M"
_symmetry_group_IT_number 57
_symmetry_cell_setting 'orthorhombic'
loop_
_space_group_symop_operation_xyz
x,y,z
-x,-y,1/2+z
x,1/2-y,-z
-x,1/2+y,1/2-z
-x,-y,-z
x,y,1/2-z
-x,1/2+y,z
x,1/2-y,1/2+z
loop_
_atom_site_type_symbol
_atom_site_label
_atom_site_fract_x
_atom_site_fract_y
_atom_site_fract_z
Si Si1 0.459167 0.555434 0.134981
Si Si2 0.780416 0.654355 0.865141
Si Si3 0.749219 0.424115 0.984332
Si Si4 0.353932 0.701264 0.902348
Si Si5 0.917872 0.798378 0.635676
Si Si6 0.547445 0.884396 0.432724
Si Si7 0.100416 0.055447 0.000207
Si Si8 0.847177 0.198281 0.357037
O O1 0.476313 0.574687 0.250000
O O2 0.335851 0.565678 0.102959
O O3 0.478086 0.466320 0.115257
O O4 0.519537 0.603555 0.049215
O O5 0.760455 0.650073 0.750000
O O6 0.830537 0.735786 0.889590
O O7 0.670310 0.636609 0.919468
O O8 0.869238 0.593238 0.896861
O O9 0.800015 0.500697 0.020778
O O10 0.832252 0.364265 0.940098
O O11 0.692548 0.380693 0.071831
O O12 0.474826 0.678813 0.877155
O O13 0.256613 0.747547 0.854560
O O14 0.368532 0.750000 0.000000
O O15 0.904213 0.816250 0.750000
O O16 0.909937 0.874757 0.573914
O O17 0.037848 0.764169 0.624863
O O18 0.000000 0.000000 0.000000
O O19 0.853907 0.161469 0.250000
#
# Coordination Sequence:
#
# PCOD9437863 Si02
#       8
#     8   8   8   8   8   8   8   8
#     4  10  20  38  65  98 136 174 222 280 345 408
#     4  11  25  44  69  96 132 184 230 275 341 417
#     4  10  20  37  61  94 127 163 215 267 336 402
#     4   9  21  37  60  89 127 165 212 267 330 395
#     4  10  24  44  63  93 134 178 226 278 337 406
#     4  10  21  39  64  98 133 176 229 277 338 401
#     4  12  24  39  68  98 129 174 223 279 340 400
#     4  10  20  37  62  91 126 166 217 278 335 397
#
# _framework density 21.115553999999999
#
# number of rings (size 3 to 8) (size 9 to 14) (size 15 to 20)
#    0.000    1.750    2.500    1.125    1.750    4.000 
#    0.000    1.250    0.000    8.250    0.000    0.000 
#    0.000    0.000    0.000    0.000    0.000    0.000 
#
# Total GULP energy -356695.326602 kJ/mol
# GULP energy per Si atom -5573.364478 kJ/mol
# Density = 2.106749 g / cm^3
# Si number density = 21.115554 Si / 1000 Ang^3
#
#
#
# Elastic Constant Matrix: (Units=GPa)
#
#
# Indices 1 2 3 4 5 6 
#
# 1 130.4824 60.8405 52.4265 0.0000 0.0000 0.0000
# 2 60.8405 99.1879 19.4118 0.0000 0.0000 0.0000
# 3 52.4265 19.4118 83.2947 0.0000 0.0000 0.0000
# 4 0.0000 0.0000 0.0000 9.2446 0.0000 0.0000
# 5 0.0000 0.0000 0.0000 0.0000 64.5598 0.0000
# 6 0.0000 0.0000 0.0000 0.0000 0.0000 45.8862
#
#
#
# Elastic Compliance Matrix: (Units=1/GPa)
#
#
# Indices 1 2 3 4 5 6 
#
# 1 0.013791 -0.007084 -0.007029 0.000000 0.000000 0.000000
# 2 -0.007084 0.014202 0.001149 0.000000 0.000000 0.000000
# 3 -0.007029 0.001149 0.016162 0.000000 0.000000 0.000000
# 4 0.000000 0.000000 0.000000 0.108171 0.000000 0.000000
# 5 0.000000 0.000000 0.000000 0.000000 0.015490 0.000000
# 6 0.000000 0.000000 0.000000 0.000000 0.000000 0.021793
#
#
# Mechanical properties :
#
#
# Convention : Reuss Voigt Hill
#
# Bulk Modulus (GPa) = 54.86436 64.25808 59.56122
# Shear Modulus (GPa) = 22.56185 35.95721 29.25953
#
# Velocity S-wave (km/s) = 3.27233 4.13107 3.72652
# Velocity P-wave (km/s) = 6.34955 7.29740 6.83991
#
# Compressibility (1/GPa) = 0.01822677
#
# Stress axis : x y z
#
# Youngs Moduli (GPa) = 72.51054 70.41249 61.87257
#
# Poissons Ratio (x) = 0.49877 0.43493
# Poissons Ratio (y) = 0.51363 -0.07107
# Poissons Ratio (z) = 0.50971 -0.08088
#
# Static dielectric constant tensor:
#      x y z
#    x 1.902330 0.000000 0.000000 
#    y 0.000000 1.772020 0.000000 
#    z 0.000000 0.000000 1.779770 
# 
# From -- ./inp_files/17956.got.cif
#   From: 2010.05.17/outbox.cif.g08.bks.cpg/sg57_9_cif.got.tgz:17956.got - 2010.06.03 13:58:18.
