data_PCOD9437473
_publ_section_title
;
Structure prediction by ZEFSAII (Michael W. Deem and Ramdas Pophale) SiO2 
 PCOD9437473
Probable space group: P B C M
;
_chemical_formula_sum "Si O2"
_cell_formula_units_Z 48
_cell_length_a 12.131244
_cell_length_b 25.887932
_cell_length_c 8.666710
_cell_angle_alpha 90.000000
_cell_angle_beta 90.000000
_cell_angle_gamma 90.000000
_cell_volume 2721.804713
_symmetry_space_group_name_H-M "P B C M"
_symmetry_group_IT_number 57
_symmetry_cell_setting 'orthorhombic'
loop_
_space_group_symop_operation_xyz
x,y,z
-x,-y,1/2+z
x,1/2-y,-z
-x,1/2+y,1/2-z
-x,-y,-z
x,y,1/2-z
-x,1/2+y,z
x,1/2-y,1/2+z
loop_
_atom_site_type_symbol
_atom_site_label
_atom_site_fract_x
_atom_site_fract_y
_atom_site_fract_z
Si Si1 0.237129 0.898947 0.436182
Si Si2 0.377138 0.000784 0.065325
Si Si3 0.622401 0.306884 0.566074
Si Si4 0.618470 0.693121 0.935533
Si Si5 0.000786 0.941801 0.436397
Si Si6 0.237414 0.403871 0.436318
O O1 0.240045 0.892915 0.250000
O O2 0.288253 0.848466 0.512849
O O3 0.112320 0.912510 0.483399
O O4 0.312490 0.948370 0.476737
O O5 0.380776 0.003833 0.250000
O O6 0.310314 0.049443 0.000875
O O7 0.500000 0.000000 0.000000
O O8 0.647179 0.250000 0.500000
O O9 0.615187 0.304384 0.750000
O O10 0.502356 0.321969 0.498519
O O11 0.613006 0.695341 0.750000
O O12 0.707778 0.650330 0.982560
O O13 0.643467 0.750000 0.000000
O O14 0.001925 0.944879 0.250000
O O15 0.888877 0.912915 0.484809
O O16 0.000000 0.000000 0.500000
O O17 0.240894 0.406120 0.250000
#
# Coordination Sequence:
#
# PCOD9437473 Si02
#       6
#     8   8   8   8   8   8
#     4  10  21  37  55  79 112 147 184 228 276 328
#     4  11  22  34  52  80 112 146 181 226 279 330
#     4  11  22  37  59  84 110 145 184 228 277 331
#     4  10  20  36  57  82 111 145 181 224 277 331
#     4  10  20  37  58  80 110 149 188 230 276 327
#     4  10  21  36  56  81 111 145 183 228 278 329
#
# _framework density 17.635356000000002
#
# number of rings (size 3 to 8) (size 9 to 14) (size 15 to 20)
#    0.000    1.667    1.667    4.500    0.000    7.333 
#    0.000    0.833    0.000    2.000    0.000    0.000 
#    0.000    0.000    0.000    0.000    0.000    0.000 
#
# Total GULP energy -268155.641721 kJ/mol
# GULP energy per Si atom -5586.575869 kJ/mol
# Density = 1.759522 g / cm^3
# Si number density = 17.635356 Si / 1000 Ang^3
#
#
#
# Elastic Constant Matrix: (Units=GPa)
#
#
# Indices 1 2 3 4 5 6 
#
# 1 192.1372 108.9411 45.7785 0.0000 0.0000 0.0000
# 2 108.9411 126.2525 42.1954 0.0000 0.0000 0.0000
# 3 45.7785 42.1954 42.8588 0.0000 0.0000 0.0000
# 4 0.0000 0.0000 0.0000 32.3371 0.0000 0.0000
# 5 0.0000 0.0000 0.0000 0.0000 22.7338 0.0000
# 6 0.0000 0.0000 0.0000 0.0000 0.0000 17.7489
#
#
#
# Elastic Compliance Matrix: (Units=1/GPa)
#
#
# Indices 1 2 3 4 5 6 
#
# 1 0.010517 -0.007930 -0.003427 0.000000 0.000000 0.000000
# 2 -0.007930 0.017784 -0.009039 0.000000 0.000000 0.000000
# 3 -0.003427 -0.009039 0.035891 0.000000 0.000000 0.000000
# 4 0.000000 0.000000 0.000000 0.030924 0.000000 0.000000
# 5 0.000000 0.000000 0.000000 0.000000 0.043987 0.000000
# 6 0.000000 0.000000 0.000000 0.000000 0.000000 0.056341
#
#
# Mechanical properties :
#
#
# Convention : Reuss Voigt Hill
#
# Bulk Modulus (GPa) = 42.73101 83.89763 63.31432
# Shear Modulus (GPa) = 20.48873 25.51952 23.00412
#
# Velocity S-wave (km/s) = 3.41221 3.80816 3.61561
# Velocity P-wave (km/s) = 6.30929 8.18614 7.30822
#
# Compressibility (1/GPa) = 0.02340221
#
# Stress axis : x y z
#
# Youngs Moduli (GPa) = 95.08133 56.22987 27.86209
#
# Poissons Ratio (x) = 0.44590 0.09547
# Poissons Ratio (y) = 0.75400 0.25183
# Poissons Ratio (z) = 0.32580 0.50824
#
# Static dielectric constant tensor:
#      x y z
#    x 1.592520 0.000000 0.000000 
#    y 0.000000 1.572380 0.000000 
#    z 0.000000 0.000000 1.598600 
# 
# From -- ./inp_files/3133.got.cif
#   From: 2010.05.17/outbox.cif.g08.bks.cpg/sg57_2_cif.got.tgz:3133.got - 2010.06.03 13:58:18.
