data_PCOD9437112
_publ_section_title
;
Structure prediction by ZEFSAII (Michael W. Deem and Ramdas Pophale) SiO2 
 PCOD9437112
Probable space group: P B C M
;
_chemical_formula_sum "Si O2"
_cell_formula_units_Z 48
_cell_length_a 18.685107
_cell_length_b 13.372837
_cell_length_c 7.796876
_cell_angle_alpha 90.000000
_cell_angle_beta 90.000000
_cell_angle_gamma 90.000000
_cell_volume 1948.227941
_symmetry_space_group_name_H-M "P B C M"
_symmetry_group_IT_number 57
_symmetry_cell_setting 'orthorhombic'
loop_
_space_group_symop_operation_xyz
x,y,z
-x,-y,1/2+z
x,1/2-y,-z
-x,1/2+y,1/2-z
-x,-y,-z
x,y,1/2-z
-x,1/2+y,z
x,1/2-y,1/2+z
loop_
_atom_site_type_symbol
_atom_site_label
_atom_site_fract_x
_atom_site_fract_y
_atom_site_fract_z
Si Si1 0.699721 0.365918 0.454962
Si Si2 0.062987 0.858146 0.057919
Si Si3 0.916181 0.920720 0.549053
Si Si4 0.763629 0.939905 0.449922
Si Si5 0.541596 0.368644 0.043439
Si Si6 0.612238 0.866773 0.456651
O O1 0.710078 0.250000 0.500000
O O2 0.700183 0.374629 0.250000
O O3 0.758791 0.440163 0.528542
O O4 0.620311 0.399674 0.521770
O O5 0.089745 0.869560 0.250000
O O6 0.080282 0.965401 0.974619
O O7 0.088994 0.750000 0.000000
O O8 0.976241 0.858260 0.048435
O O9 0.936379 0.919090 0.750000
O O10 0.833598 0.892620 0.532672
O O11 0.765788 0.914668 0.250000
O O12 0.687615 0.905596 0.526231
O O13 0.542017 0.378513 0.250000
O O14 0.464547 0.407698 0.976684
O O15 0.540865 0.250000 0.000000
O O16 0.611318 0.750000 0.500000
O O17 0.612178 0.879957 0.250000
#
# Coordination Sequence:
#
# PCOD9437112 Si02
#       6
#     8   8   8   8   8   8
#     4  10  20  35  55  78 106 143 187 235 286 337
#     4  10  21  39  65  92 115 144 181 222 271 326
#     4  10  22  40  60  85 118 150 185 228 270 321
#     4  11  23  37  54  80 116 152 186 227 276 331
#     4   8  15  30  51  74 101 135 181 234 283 331
#     4   9  19  35  54  77 106 143 186 233 283 332
#
# _framework density 24.637775000000001
#
# number of rings (size 3 to 8) (size 9 to 14) (size 15 to 20)
#    0.000    2.333    0.000    2.000    0.000    6.000 
#    0.000    3.333    0.000    0.000    0.000    0.000 
#    0.000    0.000    0.000    0.000    0.000    0.000 
#
# Total GULP energy -268073.135902 kJ/mol
# GULP energy per Si atom -5584.856998 kJ/mol
# Density = 2.458170 g / cm^3
# Si number density = 24.637775 Si / 1000 Ang^3
#
#
#
# Elastic Constant Matrix: (Units=GPa)
#
#
# Indices 1 2 3 4 5 6 
#
# 1 102.8944 -11.5511 -10.2875 0.0000 0.0000 0.0000
# 2 -11.5511 53.3259 -11.7070 0.0000 0.0000 0.0000
# 3 -10.2875 -11.7070 62.1805 0.0000 0.0000 0.0000
# 4 0.0000 0.0000 0.0000 23.6948 0.0000 0.0000
# 5 0.0000 0.0000 0.0000 0.0000 18.2088 0.0000
# 6 0.0000 0.0000 0.0000 0.0000 0.0000 16.2418
#
#
#
# Elastic Compliance Matrix: (Units=1/GPa)
#
#
# Indices 1 2 3 4 5 6 
#
# 1 0.010242 0.002702 0.002203 0.000000 0.000000 0.000000
# 2 0.002702 0.020274 0.004264 0.000000 0.000000 0.000000
# 3 0.002203 0.004264 0.017250 0.000000 0.000000 0.000000
# 4 0.000000 0.000000 0.000000 0.042203 0.000000 0.000000
# 5 0.000000 0.000000 0.000000 0.000000 0.054918 0.000000
# 6 0.000000 0.000000 0.000000 0.000000 0.000000 0.061570
#
#
# Mechanical properties :
#
#
# Convention : Reuss Voigt Hill
#
# Bulk Modulus (GPa) = 15.12726 16.81218 15.96972
# Shear Modulus (GPa) = 23.79219 28.42550 26.10885
#
# Velocity S-wave (km/s) = 3.11091 3.40035 3.25885
# Velocity P-wave (km/s) = 4.36542 4.71753 4.54489
#
# Compressibility (1/GPa) = 0.06610582
#
# Stress axis : x y z
#
# Youngs Moduli (GPa) = 97.63372 49.32397 57.97241
#
# Poissons Ratio (x) = -0.13329 -0.12773
# Poissons Ratio (y) = -0.26384 -0.24721
# Poissons Ratio (z) = -0.21512 -0.21033
#
# Static dielectric constant tensor:
#      x y z
#    x 2.004790 0.000000 0.000000 
#    y 0.000000 1.994470 0.000000 
#    z 0.000000 0.000000 1.915680 
# 
# From -- ./inp_files/6567.got.cif
#   From: 2010.05.17/outbox.cif.g08.bks.cpg/sg57_4_cif.got.tgz:6567.got - 2010.06.03 13:58:18.
