data_PCOD9437294
_publ_section_title
;
Structure prediction by ZEFSAII (Michael W. Deem and Ramdas Pophale) SiO2 
 PCOD9437294
Probable space group: P B C M
;
_chemical_formula_sum "Si O2"
_cell_formula_units_Z 48
_cell_length_a 10.714206
_cell_length_b 13.149439
_cell_length_c 18.403799
_cell_angle_alpha 90.000000
_cell_angle_beta 90.000000
_cell_angle_gamma 90.000000
_cell_volume 2592.833913
_symmetry_space_group_name_H-M "P B C M"
_symmetry_group_IT_number 57
_symmetry_cell_setting 'orthorhombic'
loop_
_space_group_symop_operation_xyz
x,y,z
-x,-y,1/2+z
x,1/2-y,-z
-x,1/2+y,1/2-z
-x,-y,-z
x,y,1/2-z
-x,1/2+y,z
x,1/2-y,1/2+z
loop_
_atom_site_type_symbol
_atom_site_label
_atom_site_fract_x
_atom_site_fract_y
_atom_site_fract_z
Si Si1 0.693052 0.806464 0.572074
Si Si2 0.472921 0.549216 0.421879
Si Si3 0.116733 0.022576 0.447047
Si Si4 0.924550 0.454683 0.834454
Si Si5 0.225025 0.646573 0.458665
Si Si6 0.693334 0.892305 0.165698
O O1 0.642186 0.750000 0.500000
O O2 0.597346 0.891524 0.601094
O O3 0.817832 0.867696 0.549334
O O4 0.711082 0.716501 0.628872
O O5 0.500000 0.500000 0.500000
O O6 0.364021 0.633667 0.428196
O O7 0.413569 0.460319 0.372643
O O8 0.057763 0.011621 0.367106
O O9 0.212456 0.941619 0.480178
O O10 0.000000 0.000000 0.500000
O O11 0.930652 0.424002 0.750000
O O12 0.869831 0.371765 0.891418
O O13 0.822542 0.544646 0.841267
O O14 0.200845 0.750000 0.500000
O O15 0.663778 0.881577 0.250000
#
# Coordination Sequence:
#
# PCOD9437294 Si02
#       6
#     8   8   8   8   8   8
#     4  12  21  35  64  88 116 153 201 242 293 356
#     4  11  20  37  62  87 118 151 192 241 292 347
#     4  10  21  35  54  85 117 147 195 244 289 333
#     4   9  20  40  59  79 117 157 194 240 296 347
#     4  10  20  35  58  86 116 149 193 239 289 345
#     4  10  23  41  60  87 119 158 197 241 296 356
#
# _framework density 18.512563
#
# number of rings (size 3 to 8) (size 9 to 14) (size 15 to 20)
#    0.000    1.667    3.333    2.500    0.000    6.667 
#    0.000    2.500    0.000    0.000    0.000    0.000 
#    0.000    0.000    0.000    0.000    0.000    0.000 
#
# Total GULP energy -267521.374531 kJ/mol
# GULP energy per Si atom -5573.361969 kJ/mol
# Density = 1.847043 g / cm^3
# Si number density = 18.512563 Si / 1000 Ang^3
#
#
#
# Elastic Constant Matrix: (Units=GPa)
#
#
# Indices 1 2 3 4 5 6 
#
# 1 61.7507 19.8848 16.6848 0.0000 0.0000 0.0000
# 2 19.8848 112.5976 57.8311 0.0000 0.0000 0.0000
# 3 16.6848 57.8311 116.4574 0.0000 0.0000 0.0000
# 4 0.0000 0.0000 0.0000 31.5436 0.0000 0.0000
# 5 0.0000 0.0000 0.0000 0.0000 25.5062 0.0000
# 6 0.0000 0.0000 0.0000 0.0000 0.0000 9.9542
#
#
#
# Elastic Compliance Matrix: (Units=1/GPa)
#
#
# Indices 1 2 3 4 5 6 
#
# 1 0.017314 -0.002394 -0.001292 0.000000 0.000000 0.000000
# 2 -0.002394 0.012253 -0.005742 0.000000 0.000000 0.000000
# 3 -0.001292 -0.005742 0.011623 0.000000 0.000000 0.000000
# 4 0.000000 0.000000 0.000000 0.031702 0.000000 0.000000
# 5 0.000000 0.000000 0.000000 0.000000 0.039206 0.000000
# 6 0.000000 0.000000 0.000000 0.000000 0.000000 0.100460
#
#
# Mechanical properties :
#
#
# Convention : Reuss Voigt Hill
#
# Bulk Modulus (GPa) = 44.77253 53.28967 49.03110
# Shear Modulus (GPa) = 20.93286 26.49447 23.71366
#
# Velocity S-wave (km/s) = 3.36629 3.78717 3.58292
# Velocity P-wave (km/s) = 6.27269 6.92616 6.60751
#
# Compressibility (1/GPa) = 0.02233512
#
# Stress axis : x y z
#
# Youngs Moduli (GPa) = 57.75623 81.61292 86.03569
#
# Poissons Ratio (x) = 0.19541 0.11112
# Poissons Ratio (y) = 0.13829 0.49398
# Poissons Ratio (z) = 0.07460 0.46859
#
# Static dielectric constant tensor:
#      x y z
#    x 1.703840 0.000000 0.000000 
#    y 0.000000 1.644160 0.000000 
#    z 0.000000 0.000000 1.636740 
# 
# From -- ./inp_files/21787.got.cif
#   From: 2010.05.17/outbox.cif.g08.bks.cpg/sg57_11_cif.got.tgz:21787.got - 2010.06.03 13:58:18.
