data_PCOD9437758
_publ_section_title
;
Structure prediction by ZEFSAII (Michael W. Deem and Ramdas Pophale) SiO2 
 PCOD9437758
Probable space group: P B C M
;
_chemical_formula_sum "Si O2"
_cell_formula_units_Z 48
_cell_length_a 16.865776
_cell_length_b 18.382613
_cell_length_c 8.733721
_cell_angle_alpha 90.000000
_cell_angle_beta 90.000000
_cell_angle_gamma 90.000000
_cell_volume 2707.776947
_symmetry_space_group_name_H-M "P B C M"
_symmetry_group_IT_number 57
_symmetry_cell_setting 'orthorhombic'
loop_
_space_group_symop_operation_xyz
x,y,z
-x,-y,1/2+z
x,1/2-y,-z
-x,1/2+y,1/2-z
-x,-y,-z
x,y,1/2-z
-x,1/2+y,z
x,1/2-y,1/2+z
loop_
_atom_site_type_symbol
_atom_site_label
_atom_site_fract_x
_atom_site_fract_y
_atom_site_fract_z
Si Si1 0.822952 0.399152 0.932896
Si Si2 0.252199 0.044638 0.433869
Si Si3 0.416909 0.524986 0.933426
Si Si4 0.331522 0.672781 0.565978
Si Si5 0.150076 0.330637 0.066631
Si Si6 0.990000 0.418883 0.433339
O O1 0.822124 0.396080 0.750000
O O2 0.798658 0.480036 0.989329
O O3 0.755496 0.346991 0.001603
O O4 0.910410 0.384747 0.996662
O O5 0.243958 0.039064 0.250000
O O6 0.219290 0.120499 0.493791
O O7 0.343580 0.027951 0.474349
O O8 0.327998 0.674719 0.750000
O O9 0.388654 0.605925 0.980720
O O10 0.500000 0.500000 0.000000
O O11 0.357343 0.750000 0.500000
O O12 0.577244 0.025327 0.750000
O O13 0.158277 0.329124 0.250000
O O14 0.067335 0.371321 0.029604
O O15 0.150078 0.250000 0.000000
O O16 0.982565 0.423694 0.250000
O O17 0.000000 0.500000 0.500000
#
# Coordination Sequence:
#
# PCOD9437758 Si02
#       6
#     8   8   8   8   8   8
#     4  11  21  34  56  84 112 150 193 231 283 340
#     4  10  20  37  59  82 112 147 187 233 280 334
#     4   9  20  37  60  89 116 147 186 230 280 340
#     4  10  21  38  58  85 118 151 188 235 291 343
#     4  11  24  39  57  82 112 150 194 238 290 339
#     4  11  22  36  56  82 113 151 198 242 286 338
#
# _framework density 17.726718000000002
#
# number of rings (size 3 to 8) (size 9 to 14) (size 15 to 20)
#    0.000    1.667    1.667    4.500    0.000    6.667 
#    0.000    2.500    0.000    2.000    0.000    0.000 
#    0.000    0.000    0.000    0.000    0.000    0.000 
#
# Total GULP energy -268157.009660 kJ/mol
# GULP energy per Si atom -5586.604368 kJ/mol
# Density = 1.768637 g / cm^3
# Si number density = 17.726718 Si / 1000 Ang^3
#
#
#
# Elastic Constant Matrix: (Units=GPa)
#
#
# Indices 1 2 3 4 5 6 
#
# 1 151.0766 80.2757 58.2313 0.0000 0.0000 0.0000
# 2 80.2757 138.8440 54.9909 0.0000 0.0000 0.0000
# 3 58.2313 54.9909 79.7955 0.0000 0.0000 0.0000
# 4 0.0000 0.0000 0.0000 32.8039 0.0000 0.0000
# 5 0.0000 0.0000 0.0000 0.0000 32.8713 0.0000
# 6 0.0000 0.0000 0.0000 0.0000 0.0000 16.7624
#
#
#
# Elastic Compliance Matrix: (Units=1/GPa)
#
#
# Indices 1 2 3 4 5 6 
#
# 1 0.010797 -0.004294 -0.004920 0.000000 0.000000 0.000000
# 2 -0.004294 0.011614 -0.004870 0.000000 0.000000 0.000000
# 3 -0.004920 -0.004870 0.019479 0.000000 0.000000 0.000000
# 4 0.000000 0.000000 0.000000 0.030484 0.000000 0.000000
# 5 0.000000 0.000000 0.000000 0.000000 0.030422 0.000000
# 6 0.000000 0.000000 0.000000 0.000000 0.000000 0.059657
#
#
# Mechanical properties :
#
#
# Convention : Reuss Voigt Hill
#
# Bulk Modulus (GPa) = 72.87901 84.07911 78.47906
# Shear Modulus (GPa) = 25.61537 28.23539 26.92538
#
# Velocity S-wave (km/s) = 3.80546 3.99534 3.90155
# Velocity P-wave (km/s) = 7.77885 8.29562 8.04139
#
# Compressibility (1/GPa) = 0.01372137
#
# Stress axis : x y z
#
# Youngs Moduli (GPa) = 92.61634 86.10424 51.33790
#
# Poissons Ratio (x) = 0.36973 0.25259
# Poissons Ratio (y) = 0.39769 0.25002
# Poissons Ratio (z) = 0.45569 0.41934
#
# Static dielectric constant tensor:
#      x y z
#    x 1.595660 0.000000 0.000000 
#    y 0.000000 1.600200 0.000000 
#    z 0.000000 0.000000 1.610730 
# 
# From -- ./inp_files/4665.got.cif
#   From: 2010.05.17/outbox.cif.g08.bks.cpg/sg57_3_cif.got.tgz:4665.got - 2010.06.03 13:58:18.
