data_PCOD9437874
_publ_section_title
;
Structure prediction by ZEFSAII (Michael W. Deem and Ramdas Pophale) SiO2 
 PCOD9437874
Probable space group: P B C M
;
_chemical_formula_sum "Si O2"
_cell_formula_units_Z 64
_cell_length_a 10.030035
_cell_length_b 18.772279
_cell_length_c 16.940256
_cell_angle_alpha 90.000000
_cell_angle_beta 90.000000
_cell_angle_gamma 90.000000
_cell_volume 3189.623466
_symmetry_space_group_name_H-M "P B C M"
_symmetry_group_IT_number 57
_symmetry_cell_setting 'orthorhombic'
loop_
_space_group_symop_operation_xyz
x,y,z
-x,-y,1/2+z
x,1/2-y,-z
-x,1/2+y,1/2-z
-x,-y,-z
x,y,1/2-z
-x,1/2+y,z
x,1/2-y,1/2+z
loop_
_atom_site_type_symbol
_atom_site_label
_atom_site_fract_x
_atom_site_fract_y
_atom_site_fract_z
Si Si1 0.916928 0.706549 0.344463
Si Si2 0.038639 0.037776 0.159652
Si Si3 0.543869 0.913869 0.659620
Si Si4 0.274293 0.522268 0.931040
Si Si5 0.745455 0.437861 0.610862
Si Si6 0.606692 0.342577 0.157498
Si Si7 0.622310 0.755850 0.654492
Si Si8 0.802122 0.270300 0.590508
O O1 0.930470 0.717924 0.250000
O O2 0.775003 0.737265 0.371601
O O3 0.923169 0.620800 0.355643
O O4 0.042907 0.740104 0.388098
O O5 0.074652 0.021273 0.250000
O O6 0.879753 0.031193 0.149003
O O7 0.125151 0.989365 0.101750
O O8 0.594071 0.919208 0.750000
O O9 0.394314 0.943936 0.655697
O O10 0.549672 0.830689 0.636404
O O11 0.638055 0.957345 0.601596
O O12 0.339840 0.592250 0.893114
O O13 0.272726 0.529337 0.024459
O O14 0.771563 0.353251 0.603082
O O15 0.596885 0.361977 0.250000
O O16 0.465867 0.310657 0.127496
O O17 0.711101 0.278173 0.146232
O O18 0.624226 0.751218 0.750000
O O19 0.775902 0.250000 0.500000
#
# Coordination Sequence:
#
# PCOD9437874 Si02
#       8
#     8   8   8   8   8   8   8   8
#     4   9  18  35  61  86 109 148 205 253 287 344
#     4  10  20  37  62  89 117 156 206 251 296 357
#     4  11  21  38  62  87 117 157 209 254 295 358
#     4  12  23  39  59  91 127 161 193 252 322 368
#     4  11  23  38  61  88 123 159 204 254 307 360
#     4  11  22  37  61  88 120 160 199 245 307 367
#     4   9  18  35  60  87 111 148 202 250 288 346
#     4  11  21  38  56  85 122 158 199 246 300 360
#
# _framework density 20.065065000000001
#
# number of rings (size 3 to 8) (size 9 to 14) (size 15 to 20)
#    0.000    1.500    3.750    2.625    0.000    1.000 
#    0.000    3.125    0.000    1.500    0.000    0.000 
#    0.000    0.000    0.000    0.000    0.000    0.000 
#
# Total GULP energy -357596.624699 kJ/mol
# GULP energy per Si atom -5587.447261 kJ/mol
# Density = 2.001940 g / cm^3
# Si number density = 20.065065 Si / 1000 Ang^3
#
#
#
# Elastic Constant Matrix: (Units=GPa)
#
#
# Indices 1 2 3 4 5 6 
#
# 1 94.2739 -13.2099 -7.2034 0.0000 0.0000 0.0000
# 2 -13.2099 21.0236 -0.3196 0.0000 0.0000 0.0000
# 3 -7.2034 -0.3196 45.2995 0.0000 0.0000 0.0000
# 4 0.0000 0.0000 0.0000 5.4217 0.0000 0.0000
# 5 0.0000 0.0000 0.0000 0.0000 -14.8878 0.0000
# 6 0.0000 0.0000 0.0000 0.0000 0.0000 -80.5678
#
#
#
# Elastic Compliance Matrix: (Units=1/GPa)
#
#
# Indices 1 2 3 4 5 6 
#
# 1 0.011798 0.007442 0.001929 0.000000 0.000000 0.000000
# 2 0.007442 0.052265 0.001552 0.000000 0.000000 0.000000
# 3 0.001929 0.001552 0.022393 0.000000 0.000000 0.000000
# 4 0.000000 0.000000 0.000000 0.184446 0.000000 0.000000
# 5 0.000000 0.000000 0.000000 0.000000 -0.067169 0.000000
# 6 0.000000 0.000000 0.000000 0.000000 0.000000 -0.012412
#
#
# Mechanical properties :
#
#
# Convention : Reuss Voigt Hill
#
# Bulk Modulus (GPa) = 9.23345 13.23678 11.23512
# Shear Modulus (GPa) = 24.32195 -5.91814 9.20191
#
# Velocity S-wave (km/s) = 3.48538 -1.71927 2.14383
# Velocity P-wave (km/s) = 4.56168 1.63404 3.42629
#
# Compressibility (1/GPa) = 0.10830188
#
# Stress axis : x y z
#
# Youngs Moduli (GPa) = 84.76318 19.13308 44.65697
#
# Poissons Ratio (x) = -0.14239 -0.08612
# Poissons Ratio (y) = -0.63082 -0.06932
# Poissons Ratio (z) = -0.16347 -0.02970
#
# Static dielectric constant tensor:
#      x y z
#    x 1.730870 0.000000 0.000000 
#    y 0.000000 1.693210 0.000000 
#    z 0.000000 0.000000 1.701210 
# 
# From -- ./inp_files/21443.got.cif
#   From: 2010.05.17/outbox.cif.g08.bks.cpg/sg57_11_cif.got.tgz:21443.got - 2010.06.03 13:58:18.
