data_PCOD9437818
_publ_section_title
;
Structure prediction by ZEFSAII (Michael W. Deem and Ramdas Pophale) SiO2 
 PCOD9437818
Probable space group: P B C M
;
_chemical_formula_sum "Si O2"
_cell_formula_units_Z 40
_cell_length_a 9.814210
_cell_length_b 9.274019
_cell_length_c 18.209577
_cell_angle_alpha 90.000000
_cell_angle_beta 90.000000
_cell_angle_gamma 90.000000
_cell_volume 1657.384166
_symmetry_space_group_name_H-M "P B C M"
_symmetry_group_IT_number 57
_symmetry_cell_setting 'orthorhombic'
loop_
_space_group_symop_operation_xyz
x,y,z
-x,-y,1/2+z
x,1/2-y,-z
-x,1/2+y,1/2-z
-x,-y,-z
x,y,1/2-z
-x,1/2+y,z
x,1/2-y,1/2+z
loop_
_atom_site_type_symbol
_atom_site_label
_atom_site_fract_x
_atom_site_fract_y
_atom_site_fract_z
Si Si1 0.627761 0.440803 0.547850
Si Si2 0.801228 0.087098 0.905052
Si Si3 0.430386 0.396977 0.829687
Si Si4 0.012043 0.194143 0.415316
Si Si5 0.232632 0.368961 0.169915
O O1 0.500000 0.500000 0.500000
O O2 0.731816 0.399791 0.484399
O O3 0.542897 0.355994 0.609610
O O4 0.714456 0.542476 0.600855
O O5 0.863283 0.245877 0.890406
O O6 0.681139 0.017956 0.855021
O O7 0.925788 0.968324 0.910162
O O8 0.488445 0.439732 0.750000
O O9 0.346294 0.252478 0.821856
O O10 0.030374 0.250000 0.500000
O O11 0.103116 0.282338 0.358125
O O12 0.208135 0.438287 0.250000
#
# Coordination Sequence:
#
# PCOD9437818 Si02
#       5
#     8   8   8   8   8
#     4  10  20  37  60  88 120 159 208 261 312 374
#     4  10  22  38  63  94 122 163 210 259 312 374
#     4   9  20  39  62  88 123 160 205 262 322 379
#     4  11  21  39  63  86 124 162 208 257 312 374
#     4  10  21  38  60  85 120 166 205 257 329 387
#
# _framework density 24.134416999999999
#
# number of rings (size 3 to 8) (size 9 to 14) (size 15 to 20)
#    0.000    2.000    2.000    1.200    0.000    0.800 
#    7.200    0.000    0.000    0.000    0.000    0.000 
#    0.000    0.000    0.000    0.000    0.000    0.000 
#
# Total GULP energy -222887.021029 kJ/mol
# GULP energy per Si atom -5572.175526 kJ/mol
# Density = 2.407949 g / cm^3
# Si number density = 24.134417 Si / 1000 Ang^3
#
#
#
# Elastic Constant Matrix: (Units=GPa)
#
#
# Indices 1 2 3 4 5 6 
#
# 1 100.6743 42.2312 25.5618 0.0000 0.0000 0.0000
# 2 42.2312 76.1540 19.8650 0.0000 0.0000 0.0000
# 3 25.5618 19.8650 128.2662 0.0000 0.0000 0.0000
# 4 0.0000 0.0000 0.0000 22.2967 0.0000 0.0000
# 5 0.0000 0.0000 0.0000 0.0000 -45.6735 0.0000
# 6 0.0000 0.0000 0.0000 0.0000 0.0000 12.2452
#
#
#
# Elastic Compliance Matrix: (Units=1/GPa)
#
#
# Indices 1 2 3 4 5 6 
#
# 1 0.013239 -0.006933 -0.001564 0.000000 0.000000 0.000000
# 2 -0.006933 0.017315 -0.001300 0.000000 0.000000 0.000000
# 3 -0.001564 -0.001300 0.008309 0.000000 0.000000 0.000000
# 4 0.000000 0.000000 0.000000 0.044850 0.000000 0.000000
# 5 0.000000 0.000000 0.000000 0.000000 -0.021895 0.000000
# 6 0.000000 0.000000 0.000000 0.000000 0.000000 0.081664
#
#
# Mechanical properties :
#
#
# Convention : Reuss Voigt Hill
#
# Bulk Modulus (GPa) = 51.90034 53.37894 52.63964
# Shear Modulus (GPa) = 29.49829 12.26944 20.88386
#
# Velocity S-wave (km/s) = 3.49986 2.25717 2.94481
# Velocity P-wave (km/s) = 6.15495 5.38131 5.78109
#
# Compressibility (1/GPa) = 0.01926770
#
# Stress axis : x y z
#
# Youngs Moduli (GPa) = 75.53606 57.75234 120.34565
#
# Poissons Ratio (x) = 0.40042 0.18828
# Poissons Ratio (y) = 0.52372 0.15644
# Poissons Ratio (z) = 0.11818 0.07507
#
# Static dielectric constant tensor:
#      x y z
#    x 1.706650 0.000000 0.000000 
#    y 0.000000 1.990710 0.000000 
#    z 0.000000 0.000000 1.899620 
# 
# From -- ./inp_files/20536.got.cif
#   From: 2010.05.17/outbox.cif.g08.bks.cpg/sg57_11_cif.got.tgz:20536.got - 2010.06.03 13:58:18.
