data_PCOD9437917
_publ_section_title
;
Structure prediction by ZEFSAII (Michael W. Deem and Ramdas Pophale) SiO2 
 PCOD9437917
Probable space group: P B C M
;
_chemical_formula_sum "Si O2"
_cell_formula_units_Z 56
_cell_length_a 20.264059
_cell_length_b 8.884143
_cell_length_c 14.757269
_cell_angle_alpha 90.000000
_cell_angle_beta 90.000000
_cell_angle_gamma 90.000000
_cell_volume 2656.733399
_symmetry_space_group_name_H-M "P B C M"
_symmetry_group_IT_number 57
_symmetry_cell_setting 'orthorhombic'
loop_
_space_group_symop_operation_xyz
x,y,z
-x,-y,1/2+z
x,1/2-y,-z
-x,1/2+y,1/2-z
-x,-y,-z
x,y,1/2-z
-x,1/2+y,z
x,1/2-y,1/2+z
loop_
_atom_site_type_symbol
_atom_site_label
_atom_site_fract_x
_atom_site_fract_y
_atom_site_fract_z
Si Si1 0.963324 0.874579 0.059843
Si Si2 0.338102 0.906693 0.144398
Si Si3 0.589736 0.877645 0.140350
Si Si4 0.282617 0.405169 0.480172
Si Si5 0.921234 0.330722 0.644395
Si Si6 0.223670 0.655926 0.144812
Si Si7 0.538046 0.208275 0.140442
O O1 0.021338 0.772422 0.102656
O O2 0.925002 0.750000 0.000000
O O3 0.924110 0.989342 0.123817
O O4 0.000000 0.000000 0.000000
O O5 0.344848 0.958527 0.250000
O O6 0.282959 0.775381 0.143048
O O7 0.406805 0.830373 0.113241
O O8 0.312875 0.026775 0.072331
O O9 0.599323 0.873411 0.250000
O O10 0.657222 0.864646 0.087095
O O11 0.535314 0.754511 0.113425
O O12 0.559529 0.041023 0.115946
O O13 0.245865 0.250000 0.500000
O O14 0.240468 0.527934 0.426974
O O15 0.930071 0.312525 0.750000
O O16 0.847648 0.276036 0.620291
O O17 0.219807 0.601452 0.250000
O O18 0.538785 0.213272 0.250000
#
# Coordination Sequence:
#
# PCOD9437917 Si02
#       7
#     8   8   8   8   8   8   8
#     4   9  19  34  55  90 131 162 196 242 294 346
#     4  10  22  42  62  84 116 158 209 253 300 370
#     4  10  21  39  61  87 119 156 197 250 313 369
#     4  12  26  39  58  91 120 158 198 258 316 368
#     4  10  20  37  64  93 122 162 203 246 298 357
#     4  10  22  43  67  87 117 163 211 254 301 362
#     4   9  19  36  60  86 115 153 194 247 305 362
#
# _framework density 21.078514999999999
#
# number of rings (size 3 to 8) (size 9 to 14) (size 15 to 20)
#    0.000    2.000    1.429    1.286    2.000    5.714 
#    0.000    1.429    0.000    6.857    0.000    0.000 
#    0.000    0.000    0.000    0.000    0.000    0.000 
#
# Total GULP energy -312616.265884 kJ/mol
# GULP energy per Si atom -5582.433319 kJ/mol
# Density = 2.103054 g / cm^3
# Si number density = 21.078515 Si / 1000 Ang^3
#
#
#
# Elastic Constant Matrix: (Units=GPa)
#
#
# Indices 1 2 3 4 5 6 
#
# 1 64.1816 -5.1433 14.7323 0.0000 0.0000 0.0000
# 2 -5.1433 76.4878 28.0588 0.0000 0.0000 0.0000
# 3 14.7323 28.0588 78.1042 0.0000 0.0000 0.0000
# 4 0.0000 0.0000 0.0000 26.8641 0.0000 0.0000
# 5 0.0000 0.0000 0.0000 0.0000 -171.4716 0.0000
# 6 0.0000 0.0000 0.0000 0.0000 0.0000 19.8970
#
#
#
# Elastic Compliance Matrix: (Units=1/GPa)
#
#
# Indices 1 2 3 4 5 6 
#
# 1 0.016733 0.002630 -0.004101 0.000000 0.000000 0.000000
# 2 0.002630 0.015472 -0.006054 0.000000 0.000000 0.000000
# 3 -0.004101 -0.006054 0.015752 0.000000 0.000000 0.000000
# 4 0.000000 0.000000 0.000000 0.037224 0.000000 0.000000
# 5 0.000000 0.000000 0.000000 0.000000 -0.005832 0.000000
# 6 0.000000 0.000000 0.000000 0.000000 0.000000 0.050259
#
#
# Mechanical properties :
#
#
# Convention : Reuss Voigt Hill
#
# Bulk Modulus (GPa) = 30.39014 32.67437 31.53225
# Shear Modulus (GPa) = 32.12801 -12.86707 9.63047
#
# Velocity S-wave (km/s) = 3.90834 -2.47338 2.13981
# Velocity P-wave (km/s) = 5.90049 2.71627 4.59314
#
# Compressibility (1/GPa) = 0.03290541
#
# Stress axis : x y z
#
# Youngs Moduli (GPa) = 59.76271 64.63406 63.48447
#
# Poissons Ratio (x) = -0.16996 0.26034
# Poissons Ratio (y) = -0.15715 0.38435
# Poissons Ratio (z) = 0.24508 0.39131
#
# Static dielectric constant tensor:
#      x y z
#    x 1.761760 0.000000 0.000000 
#    y 0.000000 1.768830 0.000000 
#    z 0.000000 0.000000 1.815530 
# 
# From -- ./inp_files/19345.got.cif
#   From: 2010.05.17/outbox.cif.g08.bks.cpg/sg57_10_cif.got.tgz:19345.got - 2010.06.03 13:58:18.
