data_PCOD9437713
_publ_section_title
;
Structure prediction by ZEFSAII (Michael W. Deem and Ramdas Pophale) SiO2 
 PCOD9437713
Probable space group: P B C M
;
_chemical_formula_sum "Si O2"
_cell_formula_units_Z 44
_cell_length_a 8.475168
_cell_length_b 14.752413
_cell_length_c 15.707444
_cell_angle_alpha 90.000000
_cell_angle_beta 90.000000
_cell_angle_gamma 90.000000
_cell_volume 1963.888821
_symmetry_space_group_name_H-M "P B C M"
_symmetry_group_IT_number 57
_symmetry_cell_setting 'orthorhombic'
loop_
_space_group_symop_operation_xyz
x,y,z
-x,-y,1/2+z
x,1/2-y,-z
-x,1/2+y,1/2-z
-x,-y,-z
x,y,1/2-z
-x,1/2+y,z
x,1/2-y,1/2+z
loop_
_atom_site_type_symbol
_atom_site_label
_atom_site_fract_x
_atom_site_fract_y
_atom_site_fract_z
Si Si1 0.368824 0.000027 0.102249
Si Si2 0.845419 0.087257 0.750000
Si Si3 0.559643 0.167208 0.148522
Si Si4 0.388056 0.350901 0.351909
Si Si5 0.833701 0.424603 0.552675
Si Si6 0.947946 0.617100 0.594716
O O1 0.252729 0.969457 0.176769
O O2 0.526904 0.941510 0.117182
O O3 0.425065 0.103041 0.108514
O O4 0.281620 0.971441 0.016533
O O5 0.941976 0.141018 0.826113
O O6 0.561764 0.151643 0.250000
O O7 0.511491 0.270397 0.132762
O O8 0.727205 0.140454 0.109256
O O9 0.361712 0.357422 0.250000
O O10 0.221369 0.336284 0.396803
O O11 0.910417 0.508128 0.604074
O O12 0.965962 0.374869 0.495879
#
# Coordination Sequence:
#
# PCOD9437713 Si02
#       6
#     8   4   8   8   8   8
#     4  11  21  42  67  93 131 176 226 272 335 401
#     4  10  20  36  72  86 128 182 212 266 344 388
#     4  11  23  39  69 102 132 173 236 272 332 406
#     4  11  22  39  72  98 128 181 229 276 329 409
#     4  10  23  40  68  99 131 176 217 281 343 409
#     4  10  21  40  68  99 133 174 223 271 348 400
#
# _framework density 22.404527000000002
#
# number of rings (size 3 to 8) (size 9 to 14) (size 15 to 20)
#    0.000    1.455    4.545    0.545    1.273    0.727 
#    0.000    0.000   44.000    0.000    0.000    0.000 
#    2.727    0.000    0.000    0.000    0.000    0.000 
#
# Total GULP energy -245165.344296 kJ/mol
# GULP energy per Si atom -5571.939643 kJ/mol
# Density = 2.235353 g / cm^3
# Si number density = 22.404527 Si / 1000 Ang^3
#
#
#
# Elastic Constant Matrix: (Units=GPa)
#
#
# Indices 1 2 3 4 5 6 
#
# 1 84.2522 2.4533 17.5181 0.0000 0.0000 0.0000
# 2 2.4533 36.1798 19.8993 0.0000 0.0000 0.0000
# 3 17.5181 19.8993 59.9766 0.0000 0.0000 0.0000
# 4 0.0000 0.0000 0.0000 16.1853 0.0000 0.0000
# 5 0.0000 0.0000 0.0000 0.0000 24.3801 0.0000
# 6 0.0000 0.0000 0.0000 0.0000 0.0000 30.9018
#
#
#
# Elastic Compliance Matrix: (Units=1/GPa)
#
#
# Indices 1 2 3 4 5 6 
#
# 1 0.012698 0.001442 -0.004187 0.000000 0.000000 0.000000
# 2 0.001442 0.033973 -0.011693 0.000000 0.000000 0.000000
# 3 -0.004187 -0.011693 0.021776 0.000000 0.000000 0.000000
# 4 0.000000 0.000000 0.000000 0.061785 0.000000 0.000000
# 5 0.000000 0.000000 0.000000 0.000000 0.041017 0.000000
# 6 0.000000 0.000000 0.000000 0.000000 0.000000 0.032361
#
#
# Mechanical properties :
#
#
# Convention : Reuss Voigt Hill
#
# Bulk Modulus (GPa) = 25.27148 28.90557 27.08852
# Shear Modulus (GPa) = 20.35206 23.66262 22.00734
#
# Velocity S-wave (km/s) = 3.01722 3.25338 3.13752
# Velocity P-wave (km/s) = 4.84172 5.20022 5.02417
#
# Compressibility (1/GPa) = 0.03957030
#
# Stress axis : x y z
#
# Youngs Moduli (GPa) = 78.75399 29.43499 45.92268
#
# Poissons Ratio (x) = -0.04245 0.19229
# Poissons Ratio (y) = -0.11356 0.53697
# Poissons Ratio (z) = 0.32976 0.34418
#
# Static dielectric constant tensor:
#      x y z
#    x 1.864190 0.000000 0.000000 
#    y 0.000000 1.815710 0.000000 
#    z 0.000000 0.000000 1.815000 
# 
# From -- ./inp_files/20844.got.cif
#   From: 2010.05.17/outbox.cif.g08.bks.cpg/sg57_11_cif.got.tgz:20844.got - 2010.06.03 13:58:18.
