data_PCOD9437014
_publ_section_title
;
Structure prediction by ZEFSAII (Michael W. Deem and Ramdas Pophale) SiO2 
 PCOD9437014
Probable space group: P B C M
;
_chemical_formula_sum "Si O2"
_cell_formula_units_Z 48
_cell_length_a 14.852002
_cell_length_b 18.657922
_cell_length_c 9.187319
_cell_angle_alpha 90.000000
_cell_angle_beta 90.000000
_cell_angle_gamma 90.000000
_cell_volume 2545.874953
_symmetry_space_group_name_H-M "P B C M"
_symmetry_group_IT_number 57
_symmetry_cell_setting 'orthorhombic'
loop_
_space_group_symop_operation_xyz
x,y,z
-x,-y,1/2+z
x,1/2-y,-z
-x,1/2+y,1/2-z
-x,-y,-z
x,y,1/2-z
-x,1/2+y,z
x,1/2-y,1/2+z
loop_
_atom_site_type_symbol
_atom_site_label
_atom_site_fract_x
_atom_site_fract_y
_atom_site_fract_z
Si Si1 0.476389 0.825358 0.922589
Si Si2 0.385503 0.071915 0.580300
Si Si3 0.308001 0.918831 0.923774
Si Si4 0.880958 0.063953 0.578436
Si Si5 0.219987 0.320076 0.419308
Si Si6 0.938901 0.897835 0.921475
O O1 0.489878 0.818420 0.750000
O O2 0.374533 0.852523 0.949345
O O3 0.493891 0.750000 0.000000
O O4 0.542043 0.886415 0.984951
O O5 0.414372 0.071163 0.750000
O O6 0.293026 0.116868 0.571296
O O7 0.362322 0.991164 0.534675
O O8 0.289883 0.924324 0.750000
O O9 0.214732 0.916600 0.009322
O O10 0.883492 0.080013 0.750000
O O11 0.963298 0.101666 0.495229
O O12 0.898876 0.978479 0.561370
O O13 0.256349 0.250000 0.500000
O O14 0.203577 0.304765 0.250000
O O15 0.129295 0.344964 0.498395
O O16 0.944744 0.882535 0.750000
#
# Coordination Sequence:
#
# PCOD9437014 Si02
#       6
#     8   8   8   8   8   8
#     4  11  24  40  60  84 117 156 195 239 292 350
#     4  10  21  38  61  87 116 150 193 244 296 349
#     4  10  21  39  61  88 117 151 194 245 295 345
#     4  10  20  34  58  88 115 148 189 238 289 342
#     4  11  22  36  56  83 119 157 194 241 294 352
#     4  10  20  35  56  83 116 152 191 235 286 345
#
# _framework density 18.854028
#
# number of rings (size 3 to 8) (size 9 to 14) (size 15 to 20)
#    0.000    1.667    1.667    3.000    0.000    6.000 
#    0.000    0.833    0.000    2.000    0.000    0.000 
#    0.000    0.000    0.000    0.000    0.000    0.000 
#
# Total GULP energy -268249.759645 kJ/mol
# GULP energy per Si atom -5588.536659 kJ/mol
# Density = 1.881112 g / cm^3
# Si number density = 18.854028 Si / 1000 Ang^3
#
#
#
# Elastic Constant Matrix: (Units=GPa)
#
#
# Indices 1 2 3 4 5 6 
#
# 1 98.0788 3.4028 54.6243 0.0000 0.0000 0.0000
# 2 3.4028 30.6595 14.5603 0.0000 0.0000 0.0000
# 3 54.6243 14.5603 87.6960 0.0000 0.0000 0.0000
# 4 0.0000 0.0000 0.0000 23.0846 0.0000 0.0000
# 5 0.0000 0.0000 0.0000 0.0000 32.9007 0.0000
# 6 0.0000 0.0000 0.0000 0.0000 0.0000 7.0251
#
#
#
# Elastic Compliance Matrix: (Units=1/GPa)
#
#
# Indices 1 2 3 4 5 6 
#
# 1 0.015894 0.003189 -0.010429 0.000000 0.000000 0.000000
# 2 0.003189 0.036048 -0.007971 0.000000 0.000000 0.000000
# 3 -0.010429 -0.007971 0.019223 0.000000 0.000000 0.000000
# 4 0.000000 0.000000 0.000000 0.043319 0.000000 0.000000
# 5 0.000000 0.000000 0.000000 0.000000 0.030394 0.000000
# 6 0.000000 0.000000 0.000000 0.000000 0.000000 0.142347
#
#
# Mechanical properties :
#
#
# Convention : Reuss Voigt Hill
#
# Bulk Modulus (GPa) = 24.54537 40.17878 32.36208
# Shear Modulus (GPa) = 15.09529 22.19188 18.64359
#
# Velocity S-wave (km/s) = 2.83263 3.43452 3.14799
# Velocity P-wave (km/s) = 4.87291 6.08971 5.51497
#
# Compressibility (1/GPa) = 0.04074088
#
# Stress axis : x y z
#
# Youngs Moduli (GPa) = 62.91733 27.74075 52.02131
#
# Poissons Ratio (x) = -0.08847 0.54256
# Poissons Ratio (y) = -0.20064 0.41469
# Poissons Ratio (z) = 0.65620 0.22113
#
# Static dielectric constant tensor:
#      x y z
#    x 1.632370 0.000000 0.000000 
#    y 0.000000 1.641530 0.000000 
#    z 0.000000 0.000000 1.628240 
# 
# From -- ./inp_files/4640.got.cif
#   From: 2010.05.17/outbox.cif.g08.bks.cpg/sg57_3_cif.got.tgz:4640.got - 2010.06.03 13:58:18.
