data_PCOD9437576
_publ_section_title
;
Structure prediction by ZEFSAII (Michael W. Deem and Ramdas Pophale) SiO2 
 PCOD9437576
Probable space group: P B C M
;
_chemical_formula_sum "Si O2"
_cell_formula_units_Z 56
_cell_length_a 7.640204
_cell_length_b 12.176005
_cell_length_c 24.370461
_cell_angle_alpha 90.000000
_cell_angle_beta 90.000000
_cell_angle_gamma 90.000000
_cell_volume 2267.114826
_symmetry_space_group_name_H-M "P B C M"
_symmetry_group_IT_number 57
_symmetry_cell_setting 'orthorhombic'
loop_
_space_group_symop_operation_xyz
x,y,z
-x,-y,1/2+z
x,1/2-y,-z
-x,1/2+y,1/2-z
-x,-y,-z
x,y,1/2-z
-x,1/2+y,z
x,1/2-y,1/2+z
loop_
_atom_site_type_symbol
_atom_site_label
_atom_site_fract_x
_atom_site_fract_y
_atom_site_fract_z
Si Si1 0.284807 0.930880 0.499456
Si Si2 0.507979 0.036642 0.906717
Si Si3 0.835839 0.974754 0.352715
Si Si4 0.320547 0.398961 0.812080
Si Si5 0.947833 0.612008 0.054733
Si Si6 0.970544 0.744828 0.851525
Si Si7 0.313965 0.693776 0.310443
O O1 0.412515 0.948736 0.551439
O O2 0.108799 0.869776 0.514324
O O3 0.391429 0.884996 0.448251
O O4 0.207590 0.048291 0.475991
O O5 0.635964 0.984299 0.860930
O O6 0.336885 0.082232 0.877901
O O7 0.936005 0.874068 0.327304
O O8 0.754430 0.067799 0.314480
O O9 0.958955 0.030150 0.399625
O O10 0.338179 0.443777 0.750000
O O11 0.135922 0.336716 0.817161
O O12 0.479919 0.311700 0.819570
O O13 0.903789 0.722202 0.087673
O O14 0.180349 0.753040 0.852359
O O15 0.280284 0.738646 0.250000
#
# Coordination Sequence:
#
# PCOD9437576 Si02
#       7
#     8   8   8   8   8   8   8
#     4   9  16  32  61  80 114 161 194 240 307 354
#     4   9  17  34  58  85 115 152 197 249 302 357
#     4   9  20  35  57  86 119 153 198 253 301 360
#     4  10  20  36  59  85 112 154 203 247 303 361
#     4   9  18  34  57  84 114 157 198 244 297 362
#     4  11  20  37  59  85 123 159 200 248 307 362
#     4   9  20  38  57  83 118 157 202 250 301 357
#
# _framework density 24.700998999999999
#
# number of rings (size 3 to 8) (size 9 to 14) (size 15 to 20)
#    0.000    2.571    1.429    1.286    0.000    1.143 
#    2.571    6.429    3.143    6.857    0.000    0.000 
#    0.000    0.000    0.000    0.000    0.000    0.000 
#
# Total GULP energy -312188.917238 kJ/mol
# GULP energy per Si atom -5574.802094 kJ/mol
# Density = 2.464478 g / cm^3
# Si number density = 24.700999 Si / 1000 Ang^3
#
#
#
# Elastic Constant Matrix: (Units=GPa)
#
#
# Indices 1 2 3 4 5 6 
#
# 1 98.7900 -1.2616 21.0108 0.0000 0.0000 0.0000
# 2 -1.2616 34.0020 7.7987 0.0000 0.0000 0.0000
# 3 21.0108 7.7987 90.1013 0.0000 0.0000 0.0000
# 4 0.0000 0.0000 0.0000 0.7920 0.0000 0.0000
# 5 0.0000 0.0000 0.0000 0.0000 33.6730 0.0000
# 6 0.0000 0.0000 0.0000 0.0000 0.0000 13.1810
#
#
#
# Elastic Compliance Matrix: (Units=1/GPa)
#
#
# Indices 1 2 3 4 5 6 
#
# 1 0.010683 0.000987 -0.002577 0.000000 0.000000 0.000000
# 2 0.000987 0.030097 -0.002835 0.000000 0.000000 0.000000
# 3 -0.002577 -0.002835 0.011945 0.000000 0.000000 0.000000
# 4 0.000000 0.000000 0.000000 1.262571 0.000000 0.000000
# 5 0.000000 0.000000 0.000000 0.000000 0.029697 0.000000
# 6 0.000000 0.000000 0.000000 0.000000 0.000000 0.075867
#
#
# Mechanical properties :
#
#
# Convention : Reuss Voigt Hill
#
# Bulk Modulus (GPa) = 22.79160 30.88767 26.83963
# Shear Modulus (GPa) = 3.46180 22.55224 13.00702
#
# Velocity S-wave (km/s) = 1.18513 3.02488 2.29722
# Velocity P-wave (km/s) = 3.33463 4.97309 4.23387
#
# Compressibility (1/GPa) = 0.04387582
#
# Stress axis : x y z
#
# Youngs Moduli (GPa) = 93.60579 33.22591 83.71793
#
# Poissons Ratio (x) = -0.03281 0.21571
# Poissons Ratio (y) = -0.09242 0.23736
# Poissons Ratio (z) = 0.24119 0.09420
#
# Static dielectric constant tensor:
#      x y z
#    x 1.954600 0.000000 0.000000 
#    y 0.000000 2.023240 0.000000 
#    z 0.000000 0.000000 2.023370 
# 
# From -- ./inp_files/29633.got.cif
#   From: 2010.05.17/outbox.cif.g08.bks.cpg/sg57_15_cif.got.tgz:29633.got - 2010.06.03 13:58:18.
