data_PCOD9437004
_publ_section_title
;
Structure prediction by ZEFSAII (Michael W. Deem and Ramdas Pophale) SiO2 
 PCOD9437004
Probable space group: P B C M
;
_chemical_formula_sum "Si O2"
_cell_formula_units_Z 60
_cell_length_a 8.092547
_cell_length_b 12.273752
_cell_length_c 27.541256
_cell_angle_alpha 90.000000
_cell_angle_beta 90.000000
_cell_angle_gamma 90.000000
_cell_volume 2735.560450
_symmetry_space_group_name_H-M "P B C M"
_symmetry_group_IT_number 57
_symmetry_cell_setting 'orthorhombic'
loop_
_space_group_symop_operation_xyz
x,y,z
-x,-y,1/2+z
x,1/2-y,-z
-x,1/2+y,1/2-z
-x,-y,-z
x,y,1/2-z
-x,1/2+y,z
x,1/2-y,1/2+z
loop_
_atom_site_type_symbol
_atom_site_label
_atom_site_fract_x
_atom_site_fract_y
_atom_site_fract_z
Si Si1 0.769200 0.081875 0.577057
Si Si2 0.687240 0.515033 0.518888
Si Si3 0.042758 0.468985 0.661905
Si Si4 0.562984 0.024549 0.118180
Si Si5 0.204965 0.359559 0.330546
Si Si6 0.842296 0.750000 0.500000
Si Si7 0.972111 0.275304 0.598997
Si Si8 0.369842 0.142468 0.197396
O O1 0.807893 0.206477 0.588370
O O2 0.792355 0.050257 0.521075
O O3 0.897396 0.017712 0.610534
O O4 0.593328 0.039650 0.595499
O O5 0.500000 0.500000 0.500000
O O6 0.684833 0.461318 0.572110
O O7 0.737573 0.643061 0.517307
O O8 0.207794 0.433082 0.689512
O O9 0.937481 0.560180 0.689377
O O10 0.944303 0.364436 0.641428
O O11 0.488158 0.121090 0.151086
O O12 0.655124 0.942224 0.153142
O O13 0.293839 0.263101 0.302515
O O14 0.115012 0.298575 0.375387
O O15 0.948275 0.705429 0.454174
O O16 0.447360 0.119028 0.250000
#
# Coordination Sequence:
#
# PCOD9437004 Si02
#       8
#     8   8   8   8   8   4   8   8
#     4   9  19  36  55  86 127 167 215 248 302 369
#     4  10  21  35  58  87 124 172 213 256 304 370
#     4   9  19  38  61  88 121 164 208 260 316 379
#     4  10  21  38  61  88 125 166 207 260 315 374
#     4  10  21  38  64  90 121 162 205 257 319 378
#     4  12  20  34  58  84 126 174 212 264 302 374
#     4  10  20  34  57  89 125 169 212 252 302 371
#     4  10  23  42  64  90 121 158 206 267 331 389
#
# _framework density 21.933347000000001
#
# number of rings (size 3 to 8) (size 9 to 14) (size 15 to 20)
#    0.000    2.133    2.667    0.000    1.867    3.733 
#    0.000    5.333    0.000    0.000    0.000    0.000 
#    0.000    0.000    0.000    0.000    0.000    0.000 
#
# Total GULP energy -334317.848609 kJ/mol
# GULP energy per Si atom -5571.964143 kJ/mol
# Density = 2.188343 g / cm^3
# Si number density = 21.933347 Si / 1000 Ang^3
#
#
#
# Elastic Constant Matrix: (Units=GPa)
#
#
# Indices 1 2 3 4 5 6 
#
# 1 21.8999 5.1779 14.0477 0.0000 0.0000 0.0000
# 2 5.1779 60.7004 10.0585 0.0000 0.0000 0.0000
# 3 14.0477 10.0585 88.0798 0.0000 0.0000 0.0000
# 4 0.0000 0.0000 0.0000 0.4075 0.0000 0.0000
# 5 0.0000 0.0000 0.0000 0.0000 3.9355 0.0000
# 6 0.0000 0.0000 0.0000 0.0000 0.0000 36.9433
#
#
#
# Elastic Compliance Matrix: (Units=1/GPa)
#
#
# Indices 1 2 3 4 5 6 
#
# 1 0.051427 -0.003086 -0.007850 0.000000 0.000000 0.000000
# 2 -0.003086 0.016977 -0.001447 0.000000 0.000000 0.000000
# 3 -0.007850 -0.001447 0.012770 0.000000 0.000000 0.000000
# 4 0.000000 0.000000 0.000000 2.453705 0.000000 0.000000
# 5 0.000000 0.000000 0.000000 0.000000 0.254097 0.000000
# 6 0.000000 0.000000 0.000000 0.000000 0.000000 0.027068
#
#
# Mechanical properties :
#
#
# Convention : Reuss Voigt Hill
#
# Bulk Modulus (GPa) = 17.72725 25.47202 21.59963
# Shear Modulus (GPa) = 1.74849 17.68368 9.71608
#
# Velocity S-wave (km/s) = 0.89382 2.84253 2.10700
# Velocity P-wave (km/s) = 3.02739 4.73412 3.97347
#
# Compressibility (1/GPa) = 0.05641033
#
# Stress axis : x y z
#
# Youngs Moduli (GPa) = 19.44499 58.90212 78.30575
#
# Poissons Ratio (x) = 0.18178 0.61467
# Poissons Ratio (y) = 0.06001 0.11327
# Poissons Ratio (z) = 0.15264 0.08521
#
# Static dielectric constant tensor:
#      x y z
#    x 1.861030 0.000000 0.000000 
#    y 0.000000 1.882430 0.000000 
#    z 0.000000 0.000000 1.785710 
# 
# From -- ./inp_files/28386.got.cif
#   From: 2010.05.17/outbox.cif.g08.bks.cpg/sg57_15_cif.got.tgz:28386.got - 2010.06.03 13:58:18.
