data_PCOD9437848
_publ_section_title
;
Structure prediction by ZEFSAII (Michael W. Deem and Ramdas Pophale) SiO2 
 PCOD9437848
Probable space group: P B C M
;
_chemical_formula_sum "Si O2"
_cell_formula_units_Z 56
_cell_length_a 15.993705
_cell_length_b 11.164527
_cell_length_c 14.952484
_cell_angle_alpha 90.000000
_cell_angle_beta 90.000000
_cell_angle_gamma 90.000000
_cell_volume 2669.947710
_symmetry_space_group_name_H-M "P B C M"
_symmetry_group_IT_number 57
_symmetry_cell_setting 'orthorhombic'
loop_
_space_group_symop_operation_xyz
x,y,z
-x,-y,1/2+z
x,1/2-y,-z
-x,1/2+y,1/2-z
-x,-y,-z
x,y,1/2-z
-x,1/2+y,z
x,1/2-y,1/2+z
loop_
_atom_site_type_symbol
_atom_site_label
_atom_site_fract_x
_atom_site_fract_y
_atom_site_fract_z
Si Si1 0.213600 0.837127 0.857084
Si Si2 0.813317 0.537557 0.348833
Si Si3 0.330507 0.619491 0.854237
Si Si4 0.678825 0.926269 0.144722
Si Si5 0.507414 0.625413 0.552568
Si Si6 0.906376 0.020994 0.032987
Si Si7 0.165118 0.205750 0.904371
O O1 0.196121 0.838081 0.750000
O O2 0.259197 0.714047 0.881431
O O3 0.130925 0.864281 0.915147
O O4 0.283119 0.941674 0.874905
O O5 0.834471 0.484318 0.250000
O O6 0.714632 0.509500 0.362317
O O7 0.855617 0.491492 0.439751
O O8 0.836522 0.677350 0.344796
O O9 0.347632 0.641002 0.750000
O O10 0.416162 0.638722 0.904326
O O11 0.692359 0.905868 0.250000
O O12 0.583875 0.900944 0.119727
O O13 0.739360 0.837195 0.091733
O O14 0.524644 0.750000 0.500000
O O15 0.500000 0.500000 0.500000
O O16 0.885830 0.916425 0.106716
O O17 0.000000 0.000000 0.000000
O O18 0.134618 0.250000 0.000000
#
# Coordination Sequence:
#
# PCOD9437848 Si02
#       7
#     8   8   8   8   8   8   8
#     4   9  20  41  67  94 130 174 221 272 337 403
#     4  10  22  40  62  89 126 165 209 260 319 386
#     4  10  23  43  63  89 126 175 219 268 334 401
#     4  10  20  37  61  88 119 162 209 261 316 376
#     4  12  27  39  61  94 131 169 222 280 334 395
#     4  10  22  40  67  97 126 164 212 266 331 401
#     4   9  19  37  62  86 122 153 204 255 315 383
#
# _framework density 20.974193
#
# number of rings (size 3 to 8) (size 9 to 14) (size 15 to 20)
#    0.000    2.000    0.000    2.143   10.000    1.143 
#    7.714    1.429    0.000    0.000    0.000    0.000 
#    0.000    0.000    0.000    0.000    0.000    0.000 
#
# Total GULP energy -311966.425860 kJ/mol
# GULP energy per Si atom -5570.829033 kJ/mol
# Density = 2.092645 g / cm^3
# Si number density = 20.974193 Si / 1000 Ang^3
#
#
#
# Elastic Constant Matrix: (Units=GPa)
#
#
# Indices 1 2 3 4 5 6 
#
# 1 114.9467 19.6038 24.6003 0.0000 0.0000 0.0000
# 2 19.6038 79.6265 25.2475 0.0000 0.0000 0.0000
# 3 24.6003 25.2475 46.7816 0.0000 0.0000 0.0000
# 4 0.0000 0.0000 0.0000 27.8716 0.0000 0.0000
# 5 0.0000 0.0000 0.0000 0.0000 4.3030 0.0000
# 6 0.0000 0.0000 0.0000 0.0000 0.0000 14.9279
#
#
#
# Elastic Compliance Matrix: (Units=1/GPa)
#
#
# Indices 1 2 3 4 5 6 
#
# 1 0.009862 -0.000945 -0.004676 0.000000 0.000000 0.000000
# 2 -0.000945 0.015242 -0.007729 0.000000 0.000000 0.000000
# 3 -0.004676 -0.007729 0.028006 0.000000 0.000000 0.000000
# 4 0.000000 0.000000 0.000000 0.035879 0.000000 0.000000
# 5 0.000000 0.000000 0.000000 0.000000 0.232397 0.000000
# 6 0.000000 0.000000 0.000000 0.000000 0.000000 0.066989
#
#
# Mechanical properties :
#
#
# Convention : Reuss Voigt Hill
#
# Bulk Modulus (GPa) = 37.86468 42.25090 40.05779
# Shear Modulus (GPa) = 11.79588 20.88070 16.33829
#
# Velocity S-wave (km/s) = 2.37407 3.15864 2.79403
# Velocity P-wave (km/s) = 5.06035 5.78711 5.43589
#
# Compressibility (1/GPa) = 0.02640984
#
# Stress axis : x y z
#
# Youngs Moduli (GPa) = 101.40398 65.60822 35.70699
#
# Poissons Ratio (x) = 0.06203 0.16695
# Poissons Ratio (y) = 0.09587 0.27597
# Poissons Ratio (z) = 0.47412 0.50707
#
# Static dielectric constant tensor:
#      x y z
#    x 1.755200 0.000000 0.000000 
#    y 0.000000 1.950270 0.000000 
#    z 0.000000 0.000000 1.764770 
# 
# From -- ./inp_files/18544.got.cif
#   From: 2010.05.17/outbox.cif.g08.bks.cpg/sg57_10_cif.got.tgz:18544.got - 2010.06.03 13:58:18.
