data_PCOD9437966
_publ_section_title
;
Structure prediction by ZEFSAII (Michael W. Deem and Ramdas Pophale) SiO2 
 PCOD9437966
Probable space group: P B C M
;
_chemical_formula_sum "Si O2"
_cell_formula_units_Z 64
_cell_length_a 20.253915
_cell_length_b 19.608228
_cell_length_c 8.216995
_cell_angle_alpha 90.000000
_cell_angle_beta 90.000000
_cell_angle_gamma 90.000000
_cell_volume 3263.325194
_symmetry_space_group_name_H-M "P B C M"
_symmetry_group_IT_number 57
_symmetry_cell_setting 'orthorhombic'
loop_
_space_group_symop_operation_xyz
x,y,z
-x,-y,1/2+z
x,1/2-y,-z
-x,1/2+y,1/2-z
-x,-y,-z
x,y,1/2-z
-x,1/2+y,z
x,1/2-y,1/2+z
loop_
_atom_site_type_symbol
_atom_site_label
_atom_site_fract_x
_atom_site_fract_y
_atom_site_fract_z
Si Si1 0.469500 0.326708 0.053305
Si Si2 0.091676 0.090946 0.446332
Si Si3 0.962637 0.327945 0.443468
Si Si4 0.379998 0.826274 0.446705
Si Si5 0.776844 0.827297 0.945283
Si Si6 0.865283 0.056362 0.949415
Si Si7 0.713842 0.053589 0.554940
Si Si8 0.653252 0.912476 0.057129
O O1 0.469007 0.327959 0.250000
O O2 0.544609 0.340153 0.997862
O O3 0.415582 0.381014 0.994601
O O4 0.451534 0.250000 0.000000
O O5 0.088616 0.091678 0.250000
O O6 0.160020 0.127580 0.494380
O O7 0.030031 0.133576 0.509813
O O8 0.095999 0.012197 0.500259
O O9 0.961434 0.250000 0.500000
O O10 0.958153 0.326744 0.250000
O O11 0.902866 0.375759 0.505252
O O12 0.362328 0.750000 0.500000
O O13 0.380442 0.828269 0.250000
O O14 0.328791 0.882702 0.507346
O O15 0.771105 0.830717 0.750000
O O16 0.786824 0.750000 0.000000
O O17 0.710799 0.858197 0.021151
O O18 0.864832 0.056013 0.750000
O O19 0.789358 0.052372 0.005176
O O20 0.718016 0.060078 0.750000
O O21 0.676331 0.983552 0.518055
O O22 0.647452 0.922186 0.250000
#
# Coordination Sequence:
#
# PCOD9437966 Si02
#       8
#     8   8   8   8   8   8   8   8
#     4   9  19  35  53  79 112 147 187 231 278 329
#     4  10  20  38  61  83 110 144 184 228 274 329
#     4  11  23  38  58  84 115 146 183 228 277 329
#     4   9  19  36  59  82 109 146 188 232 280 334
#     4  11  22  36  56  81 113 149 187 228 274 328
#     4   9  19  38  60  82 110 147 185 227 275 330
#     4  10  20  38  60  82 111 149 187 227 282 336
#     4  11  22  35  53  80 115 148 187 234 277 330
#
# _framework density 19.611896999999999
#
# number of rings (size 3 to 8) (size 9 to 14) (size 15 to 20)
#    0.000    2.000    1.250    2.250    0.000    5.500 
#    0.000    1.875    0.000    0.000    0.000    0.000 
#    0.000    0.000    0.000    0.000    0.000    0.000 
#
# Total GULP energy -357427.238384 kJ/mol
# GULP energy per Si atom -5584.800600 kJ/mol
# Density = 1.956726 g / cm^3
# Si number density = 19.611897 Si / 1000 Ang^3
#
#
#
# Elastic Constant Matrix: (Units=GPa)
#
#
# Indices 1 2 3 4 5 6 
#
# 1 89.9796 100.8079 8.1434 0.0000 0.0000 0.0000
# 2 100.8079 170.5145 10.7869 0.0000 0.0000 0.0000
# 3 8.1434 10.7869 3.3100 0.0000 0.0000 0.0000
# 4 0.0000 0.0000 0.0000 16.7105 0.0000 0.0000
# 5 0.0000 0.0000 0.0000 0.0000 4.4924 0.0000
# 6 0.0000 0.0000 0.0000 0.0000 0.0000 36.5829
#
#
#
# Elastic Compliance Matrix: (Units=1/GPa)
#
#
# Indices 1 2 3 4 5 6 
#
# 1 0.034253 -0.018794 -0.023024 0.000000 0.000000 0.000000
# 2 -0.018794 0.017699 -0.011443 0.000000 0.000000 0.000000
# 3 -0.023024 -0.011443 0.396053 0.000000 0.000000 0.000000
# 4 0.000000 0.000000 0.000000 0.059842 0.000000 0.000000
# 5 0.000000 0.000000 0.000000 0.000000 0.222597 0.000000
# 6 0.000000 0.000000 0.000000 0.000000 0.000000 0.027335
#
#
# Mechanical properties :
#
#
# Convention : Reuss Voigt Hill
#
# Bulk Modulus (GPa) = 2.92840 55.92005 29.42422
# Shear Modulus (GPa) = 5.11181 21.16156 13.13668
#
# Velocity S-wave (km/s) = 1.61621 3.28840 2.59092
# Velocity P-wave (km/s) = 2.23143 6.55693 4.89758
#
# Compressibility (1/GPa) = 0.34148393
#
# Stress axis : x y z
#
# Youngs Moduli (GPa) = 29.19488 56.49964 2.52492
#
# Poissons Ratio (x) = 1.06183 0.05813
# Poissons Ratio (y) = 0.54868 0.02889
# Poissons Ratio (z) = 0.67218 0.64652
#
# Static dielectric constant tensor:
#      x y z
#    x 1.687300 0.000000 0.000000 
#    y 0.000000 1.665290 0.000000 
#    z 0.000000 0.000000 1.687910 
# 
# From -- ./inp_files/8419.got.cif
#   From: 2010.05.17/outbox.cif.g08.bks.cpg/sg57_5_cif.got.tgz:8419.got - 2010.06.03 13:58:18.
