data_PCOD9437396
_publ_section_title
;
Structure prediction by ZEFSAII (Michael W. Deem and Ramdas Pophale) SiO2 
 PCOD9437396
Probable space group: P B C M
;
_chemical_formula_sum "Si O2"
_cell_formula_units_Z 64
_cell_length_a 14.333534
_cell_length_b 10.028775
_cell_length_c 25.486312
_cell_angle_alpha 90.000000
_cell_angle_beta 90.000000
_cell_angle_gamma 90.000000
_cell_volume 3663.600960
_symmetry_space_group_name_H-M "P B C M"
_symmetry_group_IT_number 57
_symmetry_cell_setting 'orthorhombic'
loop_
_space_group_symop_operation_xyz
x,y,z
-x,-y,1/2+z
x,1/2-y,-z
-x,1/2+y,1/2-z
-x,-y,-z
x,y,1/2-z
-x,1/2+y,z
x,1/2-y,1/2+z
loop_
_atom_site_type_symbol
_atom_site_label
_atom_site_fract_x
_atom_site_fract_y
_atom_site_fract_z
Si Si1 0.580640 0.330884 0.186372
Si Si2 0.407759 0.521073 0.186385
Si Si3 0.212877 0.048116 0.866853
Si Si4 0.885720 0.799522 0.686618
Si Si5 0.900626 0.220602 0.347684
Si Si6 0.861027 0.601789 0.977541
Si Si7 0.075948 0.633971 0.543305
Si Si8 0.775210 0.057711 0.690326
O O1 0.585653 0.330332 0.250000
O O2 0.493393 0.423796 0.172628
O O3 0.677674 0.394173 0.165898
O O4 0.571957 0.175371 0.171855
O O5 0.393840 0.515022 0.250000
O O6 0.315059 0.474323 0.156747
O O7 0.164877 0.173408 0.838664
O O8 0.207410 0.069954 0.929554
O O9 0.151943 0.918157 0.853617
O O10 0.884323 0.792188 0.750000
O O11 0.992894 0.802439 0.668537
O O12 0.830783 0.931722 0.667908
O O13 0.896642 0.301323 0.402126
O O14 0.844293 0.316670 0.309011
O O15 0.966721 0.593661 0.954080
O O16 0.847491 0.750000 0.000000
O O17 0.864182 0.491548 0.023465
O O18 0.082702 0.750000 0.500000
O O19 0.752675 0.017546 0.750000
#
# Coordination Sequence:
#
# PCOD9437396 Si02
#       8
#     8   8   8   8   8   8   8   8
#     4   9  19  37  58  83 112 149 188 236 288 329
#     4  10  21  37  60  86 116 145 186 241 289 341
#     4  12  23  37  58  86 112 152 197 240 290 344
#     4  11  25  36  50  81 124 165 195 227 271 339
#     4  12  22  36  57  82 117 156 198 234 282 341
#     4  10  22  36  56  80 112 146 192 246 291 340
#     4  10  20  36  55  79 109 148 193 245 289 326
#     4  10  22  38  55  79 119 161 196 229 276 340
#
# _framework density 17.469152000000001
#
# number of rings (size 3 to 8) (size 9 to 14) (size 15 to 20)
#    0.000    1.500    3.750    1.500    3.500    2.500 
#    0.000    0.000    0.000    0.000    0.000    4.375 
#    0.000    0.000    0.000    0.000    0.000    0.000 
#
# Total GULP energy -357232.552870 kJ/mol
# GULP energy per Si atom -5581.758639 kJ/mol
# Density = 1.742939 g / cm^3
# Si number density = 17.469152 Si / 1000 Ang^3
#
#
#
# Elastic Constant Matrix: (Units=GPa)
#
#
# Indices 1 2 3 4 5 6 
#
# 1 143.5221 75.9207 27.5079 0.0000 0.0000 0.0000
# 2 75.9207 128.6898 21.7905 0.0000 0.0000 0.0000
# 3 27.5079 21.7905 56.1863 0.0000 0.0000 0.0000
# 4 0.0000 0.0000 0.0000 11.4351 0.0000 0.0000
# 5 0.0000 0.0000 0.0000 0.0000 9.1958 0.0000
# 6 0.0000 0.0000 0.0000 0.0000 0.0000 24.2757
#
#
#
# Elastic Compliance Matrix: (Units=1/GPa)
#
#
# Indices 1 2 3 4 5 6 
#
# 1 0.010566 -0.005734 -0.002949 0.000000 0.000000 0.000000
# 2 -0.005734 0.011429 -0.001625 0.000000 0.000000 0.000000
# 3 -0.002949 -0.001625 0.019872 0.000000 0.000000 0.000000
# 4 0.000000 0.000000 0.000000 0.087450 0.000000 0.000000
# 5 0.000000 0.000000 0.000000 0.000000 0.108745 0.000000
# 6 0.000000 0.000000 0.000000 0.000000 0.000000 0.041193
#
#
# Mechanical properties :
#
#
# Convention : Reuss Voigt Hill
#
# Bulk Modulus (GPa) = 47.05835 64.31515 55.68675
# Shear Modulus (GPa) = 16.28903 22.52660 19.40782
#
# Velocity S-wave (km/s) = 3.05691 3.59487 3.33675
# Velocity P-wave (km/s) = 6.28140 7.35711 6.84044
#
# Compressibility (1/GPa) = 0.02125021
#
# Stress axis : x y z
#
# Youngs Moduli (GPa) = 94.64285 87.49972 50.32211
#
# Poissons Ratio (x) = 0.50173 0.14841
# Poissons Ratio (y) = 0.54269 0.08177
# Poissons Ratio (z) = 0.27911 0.14219
#
# Static dielectric constant tensor:
#      x y z
#    x 1.583320 0.000000 0.000000 
#    y 0.000000 1.605430 0.000000 
#    z 0.000000 0.000000 1.618010 
# 
# From -- ./inp_files/29780.got.cif
#   From: 2010.05.17/outbox.cif.g08.bks.cpg/sg57_15_cif.got.tgz:29780.got - 2010.06.03 13:58:18.
