data_PCOD9437515
_publ_section_title
;
Structure prediction by ZEFSAII (Michael W. Deem and Ramdas Pophale) SiO2 
 PCOD9437515
Probable space group: P B C M
;
_chemical_formula_sum "Si O2"
_cell_formula_units_Z 48
_cell_length_a 19.246613
_cell_length_b 15.704771
_cell_length_c 8.686200
_cell_angle_alpha 90.000000
_cell_angle_beta 90.000000
_cell_angle_gamma 90.000000
_cell_volume 2625.522514
_symmetry_space_group_name_H-M "P B C M"
_symmetry_group_IT_number 57
_symmetry_cell_setting 'orthorhombic'
loop_
_space_group_symop_operation_xyz
x,y,z
-x,-y,1/2+z
x,1/2-y,-z
-x,1/2+y,1/2-z
-x,-y,-z
x,y,1/2-z
-x,1/2+y,z
x,1/2-y,1/2+z
loop_
_atom_site_type_symbol
_atom_site_label
_atom_site_fract_x
_atom_site_fract_y
_atom_site_fract_z
Si Si1 0.327369 0.657616 0.934800
Si Si2 0.577425 0.502546 0.065346
Si Si3 0.173905 0.842379 0.564929
Si Si4 0.171619 0.157728 0.935425
Si Si5 0.077384 0.999874 0.935994
Si Si6 0.667395 0.656932 0.565126
O O1 0.322950 0.662699 0.750000
O O2 0.380471 0.583060 0.977921
O O3 0.348122 0.750000 0.000000
O O4 0.250852 0.638219 0.001276
O O5 0.575324 0.507036 0.250000
O O6 0.500000 0.500000 0.000000
O O7 0.618742 0.583661 0.000923
O O8 0.153810 0.750000 0.500000
O O9 0.177384 0.838712 0.750000
O O10 0.120107 0.915569 0.518747
O O11 0.169617 0.161094 0.750000
O O12 0.120870 0.082675 0.987502
O O13 0.251911 0.140310 0.979554
O O14 0.152026 0.250000 0.000000
O O15 0.074795 0.001341 0.750000
O O16 0.000000 0.000000 0.000000
O O17 0.648920 0.750000 0.500000
O O18 0.663140 0.658037 0.750000
#
# Coordination Sequence:
#
# PCOD9437515 Si02
#       6
#     8   8   8   8   8   8
#     4  10  21  37  59  85 110 141 183 229 275 325
#     4  11  24  39  56  82 115 150 187 227 275 330
#     4  10  20  36  58  82 108 141 181 225 273 324
#     4   9  19  36  57  81 107 138 179 224 270 321
#     4  10  22  37  53  77 110 146 181 219 268 323
#     4  10  20  37  61  85 111 144 183 230 279 329
#
# _framework density 18.282074999999999
#
# number of rings (size 3 to 8) (size 9 to 14) (size 15 to 20)
#    0.000    2.000    0.000    4.000    0.000    8.000 
#    0.000    5.000    0.000    0.000    0.000    0.000 
#    0.000    0.000    0.000    0.000    0.000    0.000 
#
# Total GULP energy -268146.191017 kJ/mol
# GULP energy per Si atom -5586.378980 kJ/mol
# Density = 1.824046 g / cm^3
# Si number density = 18.282075 Si / 1000 Ang^3
#
#
#
# Elastic Constant Matrix: (Units=GPa)
#
#
# Indices 1 2 3 4 5 6 
#
# 1 150.9597 150.9276 49.0277 0.0000 0.0000 0.0000
# 2 150.9276 196.0752 57.7621 0.0000 0.0000 0.0000
# 3 49.0277 57.7621 46.3509 0.0000 0.0000 0.0000
# 4 0.0000 0.0000 0.0000 33.4232 0.0000 0.0000
# 5 0.0000 0.0000 0.0000 0.0000 32.2963 0.0000
# 6 0.0000 0.0000 0.0000 0.0000 0.0000 -12.2305
#
#
#
# Elastic Compliance Matrix: (Units=1/GPa)
#
#
# Indices 1 2 3 4 5 6 
#
# 1 0.029348 -0.021245 -0.004568 0.000000 0.000000 0.000000
# 2 -0.021245 0.023438 -0.006736 0.000000 0.000000 0.000000
# 3 -0.004568 -0.006736 0.034800 0.000000 0.000000 0.000000
# 4 0.000000 0.000000 0.000000 0.029919 0.000000 0.000000
# 5 0.000000 0.000000 0.000000 0.000000 0.030963 0.000000
# 6 0.000000 0.000000 0.000000 0.000000 0.000000 -0.081763
#
#
# Mechanical properties :
#
#
# Convention : Reuss Voigt Hill
#
# Bulk Modulus (GPa) = 44.46638 100.98007 72.72323
# Shear Modulus (GPa) = 35.89382 19.74236 27.81809
#
# Velocity S-wave (km/s) = 4.43576 3.28971 3.90501
# Velocity P-wave (km/s) = 7.11406 8.35368 7.75867
#
# Compressibility (1/GPa) = 0.02248890
#
# Stress axis : x y z
#
# Youngs Moduli (GPa) = 34.07348 42.66641 28.73533
#
# Poissons Ratio (x) = 0.90645 0.13126
# Poissons Ratio (y) = 0.72389 0.19356
# Poissons Ratio (z) = 0.15564 0.28739
#
# Static dielectric constant tensor:
#      x y z
#    x 1.597030 0.000000 0.000000 
#    y 0.000000 1.612190 0.000000 
#    z 0.000000 0.000000 1.619060 
# 
# From -- ./inp_files/6470.got.cif
#   From: 2010.05.17/outbox.cif.g08.bks.cpg/sg57_4_cif.got.tgz:6470.got - 2010.06.03 13:58:18.
