data_PCOD9437456
_publ_section_title
;
Structure prediction by ZEFSAII (Michael W. Deem and Ramdas Pophale) SiO2 
 PCOD9437456
Probable space group: P B C M
;
_chemical_formula_sum "Si O2"
_cell_formula_units_Z 64
_cell_length_a 30.953991
_cell_length_b 5.485056
_cell_length_c 17.836844
_cell_angle_alpha 90.000000
_cell_angle_beta 90.000000
_cell_angle_gamma 90.000000
_cell_volume 3028.417394
_symmetry_space_group_name_H-M "P B C M"
_symmetry_group_IT_number 57
_symmetry_cell_setting 'orthorhombic'
loop_
_space_group_symop_operation_xyz
x,y,z
-x,-y,1/2+z
x,1/2-y,-z
-x,1/2+y,1/2-z
-x,-y,-z
x,y,1/2-z
-x,1/2+y,z
x,1/2-y,1/2+z
loop_
_atom_site_type_symbol
_atom_site_label
_atom_site_fract_x
_atom_site_fract_y
_atom_site_fract_z
Si Si1 0.167681 0.259007 0.908714
Si Si2 0.025041 0.714568 0.340453
Si Si3 0.323815 0.655235 0.424861
Si Si4 0.526629 0.162607 0.164033
Si Si5 0.120091 0.742326 0.409178
Si Si6 0.266094 0.251134 0.090603
Si Si7 0.407051 0.396155 0.067281
Si Si8 0.649377 0.953313 0.836631
O O1 0.141410 0.500170 0.885230
O O2 0.217451 0.287229 0.884106
O O3 0.146901 0.999838 0.885667
O O4 0.167861 0.250000 0.000000
O O5 0.029252 0.714988 0.250000
O O6 0.072017 0.721171 0.377388
O O7 0.000689 0.462513 0.361455
O O8 0.301207 0.750000 0.500000
O O9 0.286026 0.508631 0.384422
O O10 0.361945 0.498123 0.466037
O O11 0.354286 0.768646 0.360775
O O12 0.543641 0.146578 0.250000
O O13 0.493071 0.933885 0.156667
O O14 0.561766 0.095519 0.102073
O O15 0.118910 0.750000 0.500000
O O16 0.303957 0.079248 0.121795
O O17 0.266316 0.250000 0.000000
O O18 0.388710 0.208705 0.129603
O O19 0.429359 0.250000 0.000000
O O20 0.653363 0.909131 0.750000
#
# Coordination Sequence:
#
# PCOD9437456 Si02
#       8
#     8   8   8   8   8   8   8   8
#     4   9  20  34  58  86 116 155 196 241 292 353
#     4  10  21  37  58  82 111 151 195 239 295 360
#     4  11  20  36  62  89 117 157 206 252 301 361
#     4  10  24  44  65  93 129 166 202 245 306 371
#     4  10  20  36  56  87 118 148 194 244 297 353
#     4  10  20  36  60  84 114 159 203 247 294 360
#     4  11  23  40  64  91 121 157 203 253 302 366
#     4  11  23  38  58  88 122 154 197 255 307 354
#
# _framework density 21.133151000000002
#
# number of rings (size 3 to 8) (size 9 to 14) (size 15 to 20)
#    0.000    1.750    2.500    1.875    3.500    4.000 
#    0.000    1.250    0.000    0.000    0.000    0.000 
#    0.000    0.000    0.000    0.000    0.000    0.000 
#
# Total GULP energy -356587.277376 kJ/mol
# GULP energy per Si atom -5571.676209 kJ/mol
# Density = 2.108505 g / cm^3
# Si number density = 21.133151 Si / 1000 Ang^3
#
#
#
# Elastic Constant Matrix: (Units=GPa)
#
#
# Indices 1 2 3 4 5 6 
#
# 1 83.7596 8.7054 6.5072 0.0000 0.0000 0.0000
# 2 8.7054 48.1995 -12.3676 0.0000 0.0000 0.0000
# 3 6.5072 -12.3676 39.7233 0.0000 0.0000 0.0000
# 4 0.0000 0.0000 0.0000 14.0386 0.0000 0.0000
# 5 0.0000 0.0000 0.0000 0.0000 -32.3928 0.0000
# 6 0.0000 0.0000 0.0000 0.0000 0.0000 10.3080
#
#
#
# Elastic Compliance Matrix: (Units=1/GPa)
#
#
# Indices 1 2 3 4 5 6 
#
# 1 0.012485 -0.003021 -0.002986 0.000000 0.000000 0.000000
# 2 -0.003021 0.023279 0.007743 0.000000 0.000000 0.000000
# 3 -0.002986 0.007743 0.028074 0.000000 0.000000 0.000000
# 4 0.000000 0.000000 0.000000 0.071232 0.000000 0.000000
# 5 0.000000 0.000000 0.000000 0.000000 -0.030871 0.000000
# 6 0.000000 0.000000 0.000000 0.000000 0.000000 0.097012
#
#
# Mechanical properties :
#
#
# Convention : Reuss Voigt Hill
#
# Bulk Modulus (GPa) = 14.85658 19.70805 17.28231
# Shear Modulus (GPa) = 22.70911 9.64659 16.17785
#
# Velocity S-wave (km/s) = 3.28162 2.13883 2.76981
# Velocity P-wave (km/s) = 4.62645 3.93006 4.29240
#
# Compressibility (1/GPa) = 0.06731023
#
# Stress axis : x y z
#
# Youngs Moduli (GPa) = 80.09694 42.95630 35.62028
#
# Poissons Ratio (x) = 0.12977 0.10635
# Poissons Ratio (y) = 0.24198 -0.27580
# Poissons Ratio (z) = 0.23915 -0.33260
#
# Static dielectric constant tensor:
#      x y z
#    x 1.745500 0.000000 0.000000 
#    y 0.000000 2.629460 0.000000 
#    z 0.000000 0.000000 1.839050 
# 
# From -- ./inp_files/23181.got.cif
#   From: 2010.05.17/outbox.cif.g08.bks.cpg/sg57_12_cif.got.tgz:23181.got - 2010.06.03 13:58:18.
