data_PCOD9437383
_publ_section_title
;
Structure prediction by ZEFSAII (Michael W. Deem and Ramdas Pophale) SiO2 
 PCOD9437383
Probable space group: P B C M
;
_chemical_formula_sum "Si O2"
_cell_formula_units_Z 48
_cell_length_a 18.570098
_cell_length_b 8.104708
_cell_length_c 15.777284
_cell_angle_alpha 90.000000
_cell_angle_beta 90.000000
_cell_angle_gamma 90.000000
_cell_volume 2374.563628
_symmetry_space_group_name_H-M "P B C M"
_symmetry_group_IT_number 57
_symmetry_cell_setting 'orthorhombic'
loop_
_space_group_symop_operation_xyz
x,y,z
-x,-y,1/2+z
x,1/2-y,-z
-x,1/2+y,1/2-z
-x,-y,-z
x,y,1/2-z
-x,1/2+y,z
x,1/2-y,1/2+z
loop_
_atom_site_type_symbol
_atom_site_label
_atom_site_fract_x
_atom_site_fract_y
_atom_site_fract_z
Si Si1 0.100350 0.466237 0.843860
Si Si2 0.401337 0.498149 0.846089
Si Si3 0.327132 0.550727 0.485397
Si Si4 0.437641 0.611084 0.154337
Si Si5 0.168148 0.554169 0.010426
Si Si6 0.959565 0.850801 0.412486
O O1 0.122043 0.516722 0.750000
O O2 0.160346 0.483745 0.915466
O O3 0.072952 0.279258 0.847433
O O4 0.032106 0.571954 0.876722
O O5 0.376884 0.456263 0.750000
O O6 0.418322 0.694921 0.846738
O O7 0.477810 0.410831 0.862702
O O8 0.348311 0.469839 0.924828
O O9 0.325425 0.750000 0.500000
O O10 0.388242 0.522396 0.415168
O O11 0.246773 0.506281 0.455993
O O12 0.424547 0.547925 0.250000
O O13 0.162549 0.750000 0.000000
O O14 0.101662 0.483655 0.064140
O O15 0.973545 0.750000 0.500000
#
# Coordination Sequence:
#
# PCOD9437383 Si02
#       6
#     8   8   8   8   8   8
#     4  11  21  35  56  81 105 133 172 218 259 305
#     4   9  17  30  50  73  99 128 165 209 251 297
#     4   9  18  32  51  73  99 134 170 204 250 307
#     4   9  17  31  49  72  98 128 167 211 252 296
#     4  10  20  36  55  76 105 141 176 211 258 313
#     4  10  20  36  56  77 105 138 171 209 258 312
#
# _framework density 20.214238999999999
#
# number of rings (size 3 to 8) (size 9 to 14) (size 15 to 20)
#    0.000    2.333    0.000    4.500    0.000    0.667 
#    0.000   10.000    0.000    2.000    0.000    0.000 
#    0.000    0.000    0.000    0.000    0.000    0.000 
#
# Total GULP energy -267910.263154 kJ/mol
# GULP energy per Si atom -5581.463816 kJ/mol
# Density = 2.016823 g / cm^3
# Si number density = 20.214239 Si / 1000 Ang^3
#
#
#
# Elastic Constant Matrix: (Units=GPa)
#
#
# Indices 1 2 3 4 5 6 
#
# 1 40.0389 -0.7299 -2.1382 0.0000 0.0000 0.0000
# 2 -0.7299 28.6995 -4.8500 0.0000 0.0000 0.0000
# 3 -2.1382 -4.8500 42.4392 0.0000 0.0000 0.0000
# 4 0.0000 0.0000 0.0000 8.7783 0.0000 0.0000
# 5 0.0000 0.0000 0.0000 0.0000 23.2993 0.0000
# 6 0.0000 0.0000 0.0000 0.0000 0.0000 14.4711
#
#
#
# Elastic Compliance Matrix: (Units=1/GPa)
#
#
# Indices 1 2 3 4 5 6 
#
# 1 0.025064 0.000868 0.001362 0.000000 0.000000 0.000000
# 2 0.000868 0.035560 0.004108 0.000000 0.000000 0.000000
# 3 0.001362 0.004108 0.024101 0.000000 0.000000 0.000000
# 4 0.000000 0.000000 0.000000 0.113917 0.000000 0.000000
# 5 0.000000 0.000000 0.000000 0.000000 0.042920 0.000000
# 6 0.000000 0.000000 0.000000 0.000000 0.000000 0.069103
#
#
# Mechanical properties :
#
#
# Convention : Reuss Voigt Hill
#
# Bulk Modulus (GPa) = 10.26698 10.63794 10.45246
# Shear Modulus (GPa) = 15.13054 17.23613 16.18334
#
# Velocity S-wave (km/s) = 2.73886 2.92322 2.83254
# Velocity P-wave (km/s) = 3.88483 4.08261 3.98494
#
# Compressibility (1/GPa) = 0.09739965
#
# Stress axis : x y z
#
# Youngs Moduli (GPa) = 39.89748 28.12143 41.49180
#
# Poissons Ratio (x) = -0.02440 -0.05651
# Poissons Ratio (y) = -0.03461 -0.17043
# Poissons Ratio (z) = -0.05434 -0.11551
#
# Static dielectric constant tensor:
#      x y z
#    x 1.694400 0.000000 0.000000 
#    y 0.000000 1.732870 0.000000 
#    z 0.000000 0.000000 1.731060 
# 
# From -- ./inp_files/18950.got.cif
#   From: 2010.05.17/outbox.cif.g08.bks.cpg/sg57_10_cif.got.tgz:18950.got - 2010.06.03 13:58:18.
