data_PCOD9437935
_publ_section_title
;
Structure prediction by ZEFSAII (Michael W. Deem and Ramdas Pophale) SiO2 
 PCOD9437935
Probable space group: P B C M
;
_chemical_formula_sum "Si O2"
_cell_formula_units_Z 60
_cell_length_a 6.917043
_cell_length_b 24.713830
_cell_length_c 20.483629
_cell_angle_alpha 90.000000
_cell_angle_beta 90.000000
_cell_angle_gamma 90.000000
_cell_volume 3501.607241
_symmetry_space_group_name_H-M "P B C M"
_symmetry_group_IT_number 57
_symmetry_cell_setting 'orthorhombic'
loop_
_space_group_symop_operation_xyz
x,y,z
-x,-y,1/2+z
x,1/2-y,-z
-x,1/2+y,1/2-z
-x,-y,-z
x,y,1/2-z
-x,1/2+y,z
x,1/2-y,1/2+z
loop_
_atom_site_type_symbol
_atom_site_label
_atom_site_fract_x
_atom_site_fract_y
_atom_site_fract_z
Si Si1 0.631325 0.303202 0.899366
Si Si2 0.141947 0.931555 0.054861
Si Si3 0.875529 0.946848 0.573119
Si Si4 0.975929 0.358647 0.673574
Si Si5 0.905808 0.250000 0.000000
Si Si6 0.262309 0.243765 0.173165
Si Si7 0.459749 0.110684 0.999472
Si Si8 0.120738 0.163584 0.921118
O O1 0.464948 0.272380 0.860141
O O2 0.536804 0.341541 0.954145
O O3 0.768303 0.339507 0.853505
O O4 0.770997 0.262563 0.938414
O O5 0.037705 0.882584 0.092712
O O6 0.126093 0.989679 0.088969
O O7 0.359724 0.917147 0.035497
O O8 0.024828 0.936977 0.986517
O O9 0.940991 0.908056 0.631409
O O10 0.667646 0.929175 0.544450
O O11 0.964950 0.371686 0.750000
O O12 0.120367 0.307692 0.665222
O O13 0.036997 0.198904 0.981644
O O14 0.286627 0.254044 0.250000
O O15 0.169057 0.294684 0.136092
O O16 0.314781 0.135156 0.946068
#
# Coordination Sequence:
#
# PCOD9437935 Si02
#       8
#     8   8   8   8   4   8   8   8
#     4  12  20  35  56  86 117 148 187 235 291 345
#     4  10  21  36  59  86 115 146 182 240 294 342
#     4  10  20  38  56  85 117 144 187 236 292 340
#     4  11  22  38  58  82 115 153 193 233 277 343
#     4  12  20  34  56  84 124 146 184 240 296 342
#     4  11  24  39  55  79 117 159 194 232 278 343
#     4  11  19  34  59  86 115 144 181 243 296 341
#     4  11  22  36  54  86 114 151 190 233 285 343
#
# _framework density 17.134989000000001
#
# number of rings (size 3 to 8) (size 9 to 14) (size 15 to 20)
#    0.000    1.067    5.333    3.200    0.000    0.000 
#    0.000    0.667    0.000    0.800    0.000    0.000 
#    0.000    0.000    0.000    0.000    0.000    0.000 
#
# Total GULP energy -335171.732050 kJ/mol
# GULP energy per Si atom -5586.195534 kJ/mol
# Density = 1.709599 g / cm^3
# Si number density = 17.134989 Si / 1000 Ang^3
#
#
#
# Elastic Constant Matrix: (Units=GPa)
#
#
# Indices 1 2 3 4 5 6 
#
# 1 91.5601 37.4405 20.1518 0.0000 0.0000 0.0000
# 2 37.4405 120.7721 42.1365 0.0000 0.0000 0.0000
# 3 20.1518 42.1365 76.0988 0.0000 0.0000 0.0000
# 4 0.0000 0.0000 0.0000 19.5699 0.0000 0.0000
# 5 0.0000 0.0000 0.0000 0.0000 16.7959 0.0000
# 6 0.0000 0.0000 0.0000 0.0000 0.0000 21.7136
#
#
#
# Elastic Compliance Matrix: (Units=1/GPa)
#
#
# Indices 1 2 3 4 5 6 
#
# 1 0.012637 -0.003408 -0.001459 0.000000 0.000000 0.000000
# 2 -0.003408 0.011182 -0.005289 0.000000 0.000000 0.000000
# 3 -0.001459 -0.005289 0.016456 0.000000 0.000000 0.000000
# 4 0.000000 0.000000 0.000000 0.051099 0.000000 0.000000
# 5 0.000000 0.000000 0.000000 0.000000 0.059538 0.000000
# 6 0.000000 0.000000 0.000000 0.000000 0.000000 0.046054
#
#
# Mechanical properties :
#
#
# Convention : Reuss Voigt Hill
#
# Bulk Modulus (GPa) = 50.09646 54.20983 52.15314
# Shear Modulus (GPa) = 22.32818 24.19603 23.26211
#
# Velocity S-wave (km/s) = 3.61373 3.76185 3.68853
# Velocity P-wave (km/s) = 6.83461 7.11156 6.97446
#
# Compressibility (1/GPa) = 0.01996149
#
# Stress axis : x y z
#
# Youngs Moduli (GPa) = 79.13473 89.42951 60.76909
#
# Poissons Ratio (x) = 0.30481 0.08867
# Poissons Ratio (y) = 0.26973 0.32141
# Poissons Ratio (z) = 0.11546 0.47299
#
# Static dielectric constant tensor:
#      x y z
#    x 1.587770 0.000000 0.000000 
#    y 0.000000 1.589130 0.000000 
#    z 0.000000 0.000000 1.551660 
# 
# From -- ./inp_files/23815.got.cif
#   From: 2010.05.17/outbox.cif.g08.bks.cpg/sg57_12_cif.got.tgz:23815.got - 2010.06.03 13:58:18.
