data_PCOD9437098
_publ_section_title
;
Structure prediction by ZEFSAII (Michael W. Deem and Ramdas Pophale) SiO2 
 PCOD9437098
Probable space group: P B C M
;
_chemical_formula_sum "Si O2"
_cell_formula_units_Z 48
_cell_length_a 13.936653
_cell_length_b 14.091655
_cell_length_c 14.247762
_cell_angle_alpha 90.000000
_cell_angle_beta 90.000000
_cell_angle_gamma 90.000000
_cell_volume 2798.125188
_symmetry_space_group_name_H-M "P B C M"
_symmetry_group_IT_number 57
_symmetry_cell_setting 'orthorhombic'
loop_
_space_group_symop_operation_xyz
x,y,z
-x,-y,1/2+z
x,1/2-y,-z
-x,1/2+y,1/2-z
-x,-y,-z
x,y,1/2-z
-x,1/2+y,z
x,1/2-y,1/2+z
loop_
_atom_site_type_symbol
_atom_site_label
_atom_site_fract_x
_atom_site_fract_y
_atom_site_fract_z
Si Si1 0.756238 0.649765 0.546244
Si Si2 0.674617 0.105115 0.750000
Si Si3 0.101200 0.017026 0.050417
Si Si4 0.398372 0.994710 0.950160
Si Si5 0.817729 0.573068 0.250000
Si Si6 0.554491 0.923351 0.250000
Si Si7 0.742409 0.351348 0.455643
Si Si8 0.724746 0.714756 0.750000
O O1 0.739172 0.750000 0.500000
O O2 0.850174 0.600427 0.508690
O O3 0.669402 0.581094 0.517799
O O4 0.762970 0.665648 0.656579
O O5 0.559819 0.092139 0.750000
O O6 0.706396 0.154375 0.652456
O O7 0.731805 0.004670 0.750000
O O8 0.116431 0.052832 0.158115
O O9 0.166733 0.922381 0.042350
O O10 0.000000 0.000000 0.000000
O O11 0.415003 0.015736 0.840725
O O12 0.500000 0.000000 0.000000
O O13 0.341214 0.901326 0.982170
O O14 0.763347 0.676076 0.250000
O O15 0.612265 0.821610 0.250000
O O16 0.764862 0.250000 0.500000
#
# Coordination Sequence:
#
# PCOD9437098 Si02
#       8
#     8   4   8   8   4   4   8   4
#     4  10  20  35  58  85 119 151 193 248 292 345
#     4  10  20  39  56  83 122 157 197 238 286 353
#     4  10  22  40  64  87 114 154 197 245 305 362
#     4  10  20  35  54  83 119 160 195 240 286 342
#     4  10  20  39  63  87 119 155 195 249 307 355
#     4  10  20  35  55  89 121 157 208 238 279 347
#     4  10  22  40  58  82 122 157 194 244 296 349
#     4  10  20  35  56  91 122 151 196 245 292 341
#
# _framework density 17.154343999999998
#
# number of rings (size 3 to 8) (size 9 to 14) (size 15 to 20)
#    0.000    2.000    3.333    0.000    0.000    2.667 
#    3.000    2.500    0.000    0.000    0.000    0.000 
#    0.000    0.000    0.000    0.000    0.000    0.000 
#
# Total GULP energy -267343.150076 kJ/mol
# GULP energy per Si atom -5569.648960 kJ/mol
# Density = 1.711530 g / cm^3
# Si number density = 17.154344 Si / 1000 Ang^3
#
#
#
# Elastic Constant Matrix: (Units=GPa)
#
#
# Indices 1 2 3 4 5 6 
#
# 1 76.9967 -4.3247 42.0300 0.0000 0.0000 0.0000
# 2 -4.3247 62.6456 30.6496 0.0000 0.0000 0.0000
# 3 42.0300 30.6496 111.8254 0.0000 0.0000 0.0000
# 4 0.0000 0.0000 0.0000 21.1598 0.0000 0.0000
# 5 0.0000 0.0000 0.0000 0.0000 31.3860 0.0000
# 6 0.0000 0.0000 0.0000 0.0000 0.0000 7.5610
#
#
#
# Elastic Compliance Matrix: (Units=1/GPa)
#
#
# Indices 1 2 3 4 5 6 
#
# 1 0.017677 0.005163 -0.008059 0.000000 0.000000 0.000000
# 2 0.005163 0.019943 -0.007407 0.000000 0.000000 0.000000
# 3 -0.008059 -0.007407 0.014002 0.000000 0.000000 0.000000
# 4 0.000000 0.000000 0.000000 0.047260 0.000000 0.000000
# 5 0.000000 0.000000 0.000000 0.000000 0.031861 0.000000
# 6 0.000000 0.000000 0.000000 0.000000 0.000000 0.132258
#
#
# Mechanical properties :
#
#
# Convention : Reuss Voigt Hill
#
# Bulk Modulus (GPa) = 32.24105 43.13082 37.68593
# Shear Modulus (GPa) = 17.01007 24.22886 20.61946
#
# Velocity S-wave (km/s) = 3.15237 3.76227 3.47074
# Velocity P-wave (km/s) = 5.66440 6.63855 6.17073
#
# Compressibility (1/GPa) = 0.03101636
#
# Stress axis : x y z
#
# Youngs Moduli (GPa) = 56.57147 50.14286 71.42046
#
# Poissons Ratio (x) = -0.25890 0.57558
# Poissons Ratio (y) = -0.29209 0.52899
# Poissons Ratio (z) = 0.45591 0.37139
#
# Static dielectric constant tensor:
#      x y z
#    x 1.571210 0.000000 0.000000 
#    y 0.000000 1.573930 0.000000 
#    z 0.000000 0.000000 1.600210 
# 
# From -- ./inp_files/13765.got.cif
#   From: 2010.05.17/outbox.cif.g08.bks.cpg/sg57_7_cif.got.tgz:13765.got - 2010.06.03 13:58:18.
