data_PCOD9437829
_publ_section_title
;
Structure prediction by ZEFSAII (Michael W. Deem and Ramdas Pophale) SiO2 
 PCOD9437829
Probable space group: P B C M
;
_chemical_formula_sum "Si O2"
_cell_formula_units_Z 64
_cell_length_a 11.678704
_cell_length_b 16.576676
_cell_length_c 16.070849
_cell_angle_alpha 90.000000
_cell_angle_beta 90.000000
_cell_angle_gamma 90.000000
_cell_volume 3111.221425
_symmetry_space_group_name_H-M "P B C M"
_symmetry_group_IT_number 57
_symmetry_cell_setting 'orthorhombic'
loop_
_space_group_symop_operation_xyz
x,y,z
-x,-y,1/2+z
x,1/2-y,-z
-x,1/2+y,1/2-z
-x,-y,-z
x,y,1/2-z
-x,1/2+y,z
x,1/2-y,1/2+z
loop_
_atom_site_type_symbol
_atom_site_label
_atom_site_fract_x
_atom_site_fract_y
_atom_site_fract_z
Si Si1 0.302242 0.736378 0.654877
Si Si2 0.322289 0.582594 0.103394
Si Si3 0.813703 0.546887 0.153059
Si Si4 0.291376 0.089022 0.898485
Si Si5 0.590922 0.900935 0.924946
Si Si6 0.161531 0.612367 0.552215
Si Si7 0.563993 0.764708 0.345006
Si Si8 0.910232 0.845932 0.993845
O O1 0.284689 0.711223 0.750000
O O2 0.294021 0.833027 0.647605
O O3 0.213502 0.690812 0.596697
O O4 0.433287 0.713866 0.630585
O O5 0.288558 0.497871 0.144368
O O6 0.458595 0.581703 0.090105
O O7 0.253066 0.585267 0.016904
O O8 0.839009 0.557527 0.250000
O O9 0.677108 0.552708 0.136180
O O10 0.852433 0.460495 0.117517
O O11 0.868308 0.615382 0.093297
O O12 0.351923 0.159971 0.848421
O O13 0.370193 0.081192 0.981622
O O14 0.168743 0.114521 0.934562
O O15 0.606273 0.805935 0.905170
O O16 0.041432 0.631582 0.509536
O O17 0.557516 0.732965 0.250000
O O18 0.895000 0.750000 0.000000
#
# Coordination Sequence:
#
# PCOD9437829 Si02
#       8
#     8   8   8   8   8   8   8   8
#     4  10  23  41  62  92 130 170 214 263 328 388
#     4  11  22  37  64  95 128 167 209 261 320 383
#     4  11  24  42  69  98 129 166 213 271 323 377
#     4  11  21  36  62  92 123 163 215 262 316 382
#     4  10  20  37  60  93 128 161 212 253 313 385
#     4  12  23  44  67  93 125 171 222 267 313 382
#     4  10  21  37  59  90 131 171 208 264 325 382
#     4  11  24  44  70  93 127 171 220 270 316 381
#
# _framework density 20.570699000000001
#
# number of rings (size 3 to 8) (size 9 to 14) (size 15 to 20)
#    0.000    1.250    2.500    5.250    1.750    3.000 
#    0.000    4.375    0.000    0.000    0.000    0.000 
#    0.000    0.000    0.000    0.000    0.000    0.000 
#
# Total GULP energy -357810.879652 kJ/mol
# GULP energy per Si atom -5590.794995 kJ/mol
# Density = 2.052388 g / cm^3
# Si number density = 20.570699 Si / 1000 Ang^3
#
#
#
# Elastic Constant Matrix: (Units=GPa)
#
#
# Indices 1 2 3 4 5 6 
#
# 1 104.4334 44.3037 33.1130 0.0000 0.0000 0.0000
# 2 44.3037 112.7754 20.6365 0.0000 0.0000 0.0000
# 3 33.1130 20.6365 71.2345 0.0000 0.0000 0.0000
# 4 0.0000 0.0000 0.0000 22.7863 0.0000 0.0000
# 5 0.0000 0.0000 0.0000 0.0000 15.1876 0.0000
# 6 0.0000 0.0000 0.0000 0.0000 0.0000 25.4234
#
#
#
# Elastic Compliance Matrix: (Units=1/GPa)
#
#
# Indices 1 2 3 4 5 6 
#
# 1 0.012860 -0.004180 -0.004767 0.000000 0.000000 0.000000
# 2 -0.004180 0.010722 -0.001163 0.000000 0.000000 0.000000
# 3 -0.004767 -0.001163 0.016591 0.000000 0.000000 0.000000
# 4 0.000000 0.000000 0.000000 0.043886 0.000000 0.000000
# 5 0.000000 0.000000 0.000000 0.000000 0.065843 0.000000
# 6 0.000000 0.000000 0.000000 0.000000 0.000000 0.039334
#
#
# Mechanical properties :
#
#
# Convention : Reuss Voigt Hill
#
# Bulk Modulus (GPa) = 50.11747 53.83884 51.97815
# Shear Modulus (GPa) = 23.13661 25.37213 24.25437
#
# Velocity S-wave (km/s) = 3.35735 3.51581 3.43749
# Velocity P-wave (km/s) = 6.28056 6.53533 6.40921
#
# Compressibility (1/GPa) = 0.01995312
#
# Stress axis : x y z
#
# Youngs Moduli (GPa) = 77.75929 93.26567 60.27329
#
# Poissons Ratio (x) = 0.38983 0.28733
# Poissons Ratio (y) = 0.32502 0.07011
# Poissons Ratio (z) = 0.37069 0.10849
#
# Static dielectric constant tensor:
#      x y z
#    x 1.712850 0.000000 0.000000 
#    y 0.000000 1.759430 0.000000 
#    z 0.000000 0.000000 1.714290 
# 
# From -- ./inp_files/22005.got.cif
#   From: 2010.05.17/outbox.cif.g08.bks.cpg/sg57_12_cif.got.tgz:22005.got - 2010.06.03 13:58:18.
