data_PCOD9437220
_publ_section_title
;
Structure prediction by ZEFSAII (Michael W. Deem and Ramdas Pophale) SiO2 
 PCOD9437220
Probable space group: P B C M
;
_chemical_formula_sum "Si O2"
_cell_formula_units_Z 64
_cell_length_a 12.881280
_cell_length_b 29.371362
_cell_length_c 7.689625
_cell_angle_alpha 90.000000
_cell_angle_beta 90.000000
_cell_angle_gamma 90.000000
_cell_volume 2909.298397
_symmetry_space_group_name_H-M "P B C M"
_symmetry_group_IT_number 57
_symmetry_cell_setting 'orthorhombic'
loop_
_space_group_symop_operation_xyz
x,y,z
-x,-y,1/2+z
x,1/2-y,-z
-x,1/2+y,1/2-z
-x,-y,-z
x,y,1/2-z
-x,1/2+y,z
x,1/2-y,1/2+z
loop_
_atom_site_type_symbol
_atom_site_label
_atom_site_fract_x
_atom_site_fract_y
_atom_site_fract_z
Si Si1 0.885079 0.982349 0.040924
Si Si2 0.485289 0.552456 0.041447
Si Si3 0.137519 0.379839 0.047771
Si Si4 0.450646 0.803100 0.042313
Si Si5 0.774841 0.333270 0.044538
Si Si6 0.253153 0.933784 0.539146
Si Si7 0.633540 0.629378 0.453067
Si Si8 0.009165 0.699843 0.540429
O O1 0.872018 0.980952 0.250000
O O2 0.869116 0.931029 0.972500
O O3 0.804353 0.020666 0.976766
O O4 0.000000 0.000000 0.000000
O O5 0.484487 0.558150 0.250000
O O6 0.372159 0.567270 0.976846
O O7 0.577237 0.584200 0.973373
O O8 0.500000 0.500000 0.000000
O O9 0.107706 0.384738 0.250000
O O10 0.061651 0.341454 0.972391
O O11 0.255851 0.362878 0.039151
O O12 0.452654 0.809412 0.250000
O O13 0.339106 0.821082 0.972686
O O14 0.459097 0.750000 0.000000
O O15 0.547754 0.831321 0.970358
O O16 0.768781 0.323739 0.250000
O O17 0.872961 0.305798 0.972748
O O18 0.797786 0.386704 0.019306
O O19 0.252936 0.934259 0.750000
O O20 0.656077 0.622478 0.250000
O O21 0.968323 0.750000 0.500000
O O22 0.012532 0.696116 0.750000
#
# Coordination Sequence:
#
# PCOD9437220 Si02
#       8
#     8   8   8   8   8   8   8   8
#     4  10  21  37  59  86 119 160 202 249 301 360
#     4  10  21  36  56  83 115 153 197 243 293 349
#     4  10  22  41  62  84 120 163 202 248 302 363
#     4  11  23  39  62  90 121 159 201 248 305 364
#     4  10  21  38  61  90 120 154 196 243 301 363
#     4  10  20  35  56  84 118 155 195 242 298 351
#     4  11  23  40  61  87 120 157 202 252 300 358
#     4  10  22  40  62  88 116 151 195 246 303 360
#
# _framework density 21.998429999999999
#
# number of rings (size 3 to 8) (size 9 to 14) (size 15 to 20)
#    0.000    1.750    1.250    2.625    0.000    6.500 
#    0.000    1.250    0.000    0.000    0.000    0.000 
#    0.000    0.000    0.000    0.000    0.000    0.000 
#
# Total GULP energy -357704.660723 kJ/mol
# GULP energy per Si atom -5589.135324 kJ/mol
# Density = 2.194836 g / cm^3
# Si number density = 21.998430 Si / 1000 Ang^3
#
#
#
# Elastic Constant Matrix: (Units=GPa)
#
#
# Indices 1 2 3 4 5 6 
#
# 1 102.6128 40.3640 -8.8449 0.0000 0.0000 0.0000
# 2 40.3640 135.8839 -16.7543 0.0000 0.0000 0.0000
# 3 -8.8449 -16.7543 37.8018 0.0000 0.0000 0.0000
# 4 0.0000 0.0000 0.0000 27.5430 0.0000 0.0000
# 5 0.0000 0.0000 0.0000 0.0000 15.5785 0.0000
# 6 0.0000 0.0000 0.0000 0.0000 0.0000 36.2091
#
#
#
# Elastic Compliance Matrix: (Units=1/GPa)
#
#
# Indices 1 2 3 4 5 6 
#
# 1 0.011086 -0.003145 0.001200 0.000000 0.000000 0.000000
# 2 -0.003145 0.008677 0.003110 0.000000 0.000000 0.000000
# 3 0.001200 0.003110 0.028113 0.000000 0.000000 0.000000
# 4 0.000000 0.000000 0.000000 0.036307 0.000000 0.000000
# 5 0.000000 0.000000 0.000000 0.000000 0.064191 0.000000
# 6 0.000000 0.000000 0.000000 0.000000 0.000000 0.027617
#
#
# Mechanical properties :
#
#
# Convention : Reuss Voigt Hill
#
# Bulk Modulus (GPa) = 19.91831 33.98090 26.94960
# Shear Modulus (GPa) = 26.26096 33.30169 29.78132
#
# Velocity S-wave (km/s) = 3.45884 3.89501 3.68338
# Velocity P-wave (km/s) = 5.00255 5.97567 5.51063
#
# Compressibility (1/GPa) = 0.05020507
#
# Stress axis : x y z
#
# Youngs Moduli (GPa) = 90.20410 115.24840 35.57093
#
# Poissons Ratio (x) = 0.36247 -0.04268
# Poissons Ratio (y) = 0.28370 -0.11062
# Poissons Ratio (z) = -0.10824 -0.35840
#
# Static dielectric constant tensor:
#      x y z
#    x 1.801830 0.000000 0.000000 
#    y 0.000000 1.804110 0.000000 
#    z 0.000000 0.000000 1.818200 
# 
# From -- ./inp_files/3876.got.cif
#   From: 2010.05.17/outbox.cif.g08.bks.cpg/sg57_2_cif.got.tgz:3876.got - 2010.06.03 13:58:18.
