data_PCOD9437290
_publ_section_title
;
Structure prediction by ZEFSAII (Michael W. Deem and Ramdas Pophale) SiO2 
 PCOD9437290
Probable space group: P B C M
;
_chemical_formula_sum "Si O2"
_cell_formula_units_Z 64
_cell_length_a 25.042303
_cell_length_b 14.995287
_cell_length_c 8.395228
_cell_angle_alpha 90.000000
_cell_angle_beta 90.000000
_cell_angle_gamma 90.000000
_cell_volume 3152.546808
_symmetry_space_group_name_H-M "P B C M"
_symmetry_group_IT_number 57
_symmetry_cell_setting 'orthorhombic'
loop_
_space_group_symop_operation_xyz
x,y,z
-x,-y,1/2+z
x,1/2-y,-z
-x,1/2+y,1/2-z
-x,-y,-z
x,y,1/2-z
-x,1/2+y,z
x,1/2-y,1/2+z
loop_
_atom_site_type_symbol
_atom_site_label
_atom_site_fract_x
_atom_site_fract_y
_atom_site_fract_z
Si Si1 0.369778 0.029729 0.941352
Si Si2 0.769690 0.159712 0.940028
Si Si3 0.941130 0.981420 0.935419
Si Si4 0.151293 0.351797 0.558013
Si Si5 0.533529 0.650570 0.942486
Si Si6 0.588381 0.151022 0.940488
Si Si7 0.746532 0.535458 0.941618
Si Si8 0.889248 0.156521 0.063606
O O1 0.372249 0.030172 0.750000
O O2 0.421077 0.083753 0.002863
O O3 0.312449 0.071554 0.985039
O O4 0.374976 0.927972 0.996659
O O5 0.777619 0.165426 0.750000
O O6 0.740706 0.250000 0.000000
O O7 0.826084 0.160092 0.033108
O O8 0.747127 0.063563 0.984509
O O9 0.947112 0.962529 0.750000
O O10 0.902331 0.903454 0.001471
O O11 0.910133 0.073226 0.965454
O O12 0.000000 0.000000 0.000000
O O13 0.152707 0.250000 0.500000
O O14 0.151050 0.353409 0.750000
O O15 0.203587 0.406489 0.501605
O O16 0.533597 0.648900 0.750000
O O17 0.472811 0.630477 0.994708
O O18 0.545916 0.750000 0.000000
O O19 0.589880 0.151359 0.750000
O O20 0.601655 0.250000 0.000000
O O21 0.750539 0.528715 0.750000
O O22 0.900637 0.145275 0.250000
O O23 0.912047 0.250000 0.000000
#
# Coordination Sequence:
#
# PCOD9437290 Si02
#       8
#     8   8   8   8   8   8   8   8
#     4  10  22  38  57  85 120 155 198 252 303 359
#     4  11  21  36  59  87 117 152 195 242 296 359
#     4  11  24  42  65  95 129 165 206 253 306 361
#     4  11  25  45  69  93 124 165 210 255 303 360
#     4   9  19  36  57  83 115 152 197 249 304 362
#     4  10  20  35  58  85 116 157 199 245 304 367
#     4  11  23  40  62  88 121 162 205 252 307 362
#     4  11  21  36  61  90 122 158 195 241 296 356
#
# _framework density 20.301047000000001
#
# number of rings (size 3 to 8) (size 9 to 14) (size 15 to 20)
#    0.000    1.500    1.250    4.875    0.000    5.000 
#    0.000    2.500    0.000    0.000    0.000    0.000 
#    0.000    0.000    0.000    0.000    0.000    0.000 
#
# Total GULP energy -357379.988111 kJ/mol
# GULP energy per Si atom -5584.062314 kJ/mol
# Density = 2.025484 g / cm^3
# Si number density = 20.301047 Si / 1000 Ang^3
#
#
#
# Elastic Constant Matrix: (Units=GPa)
#
#
# Indices 1 2 3 4 5 6 
#
# 1 122.4695 64.0992 18.5665 0.0000 0.0000 0.0000
# 2 64.0992 118.0693 4.4717 0.0000 0.0000 0.0000
# 3 18.5665 4.4717 32.8714 0.0000 0.0000 0.0000
# 4 0.0000 0.0000 0.0000 34.6462 0.0000 0.0000
# 5 0.0000 0.0000 0.0000 0.0000 15.2053 0.0000
# 6 0.0000 0.0000 0.0000 0.0000 0.0000 -16.7767
#
#
#
# Elastic Compliance Matrix: (Units=1/GPa)
#
#
# Indices 1 2 3 4 5 6 
#
# 1 0.012546 -0.006577 -0.006192 0.000000 0.000000 0.000000
# 2 -0.006577 0.011961 0.002088 0.000000 0.000000 0.000000
# 3 -0.006192 0.002088 0.033635 0.000000 0.000000 0.000000
# 4 0.000000 0.000000 0.000000 0.028863 0.000000 0.000000
# 5 0.000000 0.000000 0.000000 0.000000 0.065766 0.000000
# 6 0.000000 0.000000 0.000000 0.000000 0.000000 -0.059607
#
#
# Mechanical properties :
#
#
# Convention : Reuss Voigt Hill
#
# Bulk Modulus (GPa) = 27.18854 49.74277 38.46566
# Shear Modulus (GPa) = 39.43634 19.03316 29.23475
#
# Velocity S-wave (km/s) = 4.41225 3.06526 3.79893
# Velocity P-wave (km/s) = 6.27527 6.08962 6.18314
#
# Compressibility (1/GPa) = 0.03678020
#
# Stress axis : x y z
#
# Youngs Moduli (GPa) = 79.70572 83.60493 29.73118
#
# Poissons Ratio (x) = 0.54985 0.18408
# Poissons Ratio (y) = 0.52420 -0.06206
# Poissons Ratio (z) = 0.49351 -0.17453
#
# Static dielectric constant tensor:
#      x y z
#    x 1.774840 0.000000 0.000000 
#    y 0.000000 1.731100 0.000000 
#    z 0.000000 0.000000 -2.706180 
# 
# From -- ./inp_files/9505.got.cif
#   From: 2010.05.17/outbox.cif.g08.bks.cpg/sg57_5_cif.got.tgz:9505.got - 2010.06.03 13:58:18.
