data_PCOD9437007
_publ_section_title
;
Structure prediction by ZEFSAII (Michael W. Deem and Ramdas Pophale) SiO2 
 PCOD9437007
Probable space group: P B C M
;
_chemical_formula_sum "Si O2"
_cell_formula_units_Z 36
_cell_length_a 22.048021
_cell_length_b 9.193973
_cell_length_c 9.037705
_cell_angle_alpha 90.000000
_cell_angle_beta 90.000000
_cell_angle_gamma 90.000000
_cell_volume 1832.023327
_symmetry_space_group_name_H-M "P B C M"
_symmetry_group_IT_number 57
_symmetry_cell_setting 'orthorhombic'
loop_
_space_group_symop_operation_xyz
x,y,z
-x,-y,1/2+z
x,1/2-y,-z
-x,1/2+y,1/2-z
-x,-y,-z
x,y,1/2-z
-x,1/2+y,z
x,1/2-y,1/2+z
loop_
_atom_site_type_symbol
_atom_site_label
_atom_site_fract_x
_atom_site_fract_y
_atom_site_fract_z
Si Si1 0.555794 0.589423 0.929845
Si Si2 0.335736 0.908541 0.427293
Si Si3 0.000612 0.250000 0.000000
Si Si4 0.782608 0.597645 0.426514
Si Si5 0.910775 0.509394 0.088625
O O1 0.553091 0.593037 0.750000
O O2 0.554087 0.750000 0.000000
O O3 0.500000 0.500000 0.000000
O O4 0.616181 0.509961 0.988431
O O5 0.338656 0.750000 0.500000
O O6 0.348567 0.903243 0.250000
O O7 0.269276 0.978420 0.447604
O O8 0.954655 0.378494 0.043595
O O9 0.048515 0.155039 0.094166
O O10 0.765528 0.750000 0.500000
O O11 0.787936 0.625283 0.250000
O O12 0.847779 0.545169 0.491914
O O13 0.890203 0.463902 0.250000
#
# Coordination Sequence:
#
# PCOD9437007 Si02
#       5
#     8   8   4   8   8
#     4  12  25  44  70 101 138 175 217 261 312 368
#     4  11  24  42  65  93 128 168 214 265 318 376
#     4  10  20  34  58  80 114 148 200 244 314 372
#     4  10  22  40  60  85 120 159 206 256 311 376
#     4  10  20  36  55  82 114 151 197 252 310 372
#
# _framework density 19.650404000000002
#
# number of rings (size 3 to 8) (size 9 to 14) (size 15 to 20)
#    0.000    1.333    1.111    4.667    1.556    3.556 
#    0.000    1.111    0.000    0.000    0.000    0.000 
#    0.000    0.000    0.000    0.000    0.000    0.000 
#
# Total GULP energy -200530.881420 kJ/mol
# GULP energy per Si atom -5570.302262 kJ/mol
# Density = 1.960568 g / cm^3
# Si number density = 19.650404 Si / 1000 Ang^3
#
#
#
# Elastic Constant Matrix: (Units=GPa)
#
#
# Indices 1 2 3 4 5 6 
#
# 1 110.9546 69.8250 61.5081 0.0000 0.0000 0.0000
# 2 69.8250 173.3233 68.3874 0.0000 0.0000 0.0000
# 3 61.5081 68.3874 118.2947 0.0000 0.0000 0.0000
# 4 0.0000 0.0000 0.0000 23.8767 0.0000 0.0000
# 5 0.0000 0.0000 0.0000 0.0000 26.6911 0.0000
# 6 0.0000 0.0000 0.0000 0.0000 0.0000 34.2915
#
#
#
# Elastic Compliance Matrix: (Units=1/GPa)
#
#
# Indices 1 2 3 4 5 6 
#
# 1 0.014246 -0.003649 -0.005298 0.000000 0.000000 0.000000
# 2 -0.003649 0.008409 -0.002964 0.000000 0.000000 0.000000
# 3 -0.005298 -0.002964 0.012922 0.000000 0.000000 0.000000
# 4 0.000000 0.000000 0.000000 0.041882 0.000000 0.000000
# 5 0.000000 0.000000 0.000000 0.000000 0.037466 0.000000
# 6 0.000000 0.000000 0.000000 0.000000 0.000000 0.029162
#
#
# Mechanical properties :
#
#
# Convention : Reuss Voigt Hill
#
# Bulk Modulus (GPa) = 85.06948 89.11263 87.09106
# Shear Modulus (GPa) = 29.09928 30.49532 29.79730
#
# Velocity S-wave (km/s) = 3.85236 3.94368 3.89829
# Velocity P-wave (km/s) = 7.94814 8.13537 8.04230
#
# Compressibility (1/GPa) = 0.01175510
#
# Stress axis : x y z
#
# Youngs Moduli (GPa) = 70.19646 118.91944 77.38903
#
# Poissons Ratio (x) = 0.43390 0.40999
# Poissons Ratio (y) = 0.25613 0.22940
# Poissons Ratio (z) = 0.37189 0.35250
#
# Static dielectric constant tensor:
#      x y z
#    x 1.743500 0.000000 0.000000 
#    y 0.000000 1.676560 0.000000 
#    z 0.000000 0.000000 1.729650 
# 
# From -- ./inp_files/7643.got.cif
#   From: 2010.05.17/outbox.cif.g08.bks.cpg/sg57_4_cif.got.tgz:7643.got - 2010.06.03 13:58:18.
