data_PCOD9437547
_publ_section_title
;
Structure prediction by ZEFSAII (Michael W. Deem and Ramdas Pophale) SiO2 
 PCOD9437547
Probable space group: P B C M
;
_chemical_formula_sum "Si O2"
_cell_formula_units_Z 28
_cell_length_a 7.222333
_cell_length_b 12.817015
_cell_length_c 13.472013
_cell_angle_alpha 90.000000
_cell_angle_beta 90.000000
_cell_angle_gamma 90.000000
_cell_volume 1247.087409
_symmetry_space_group_name_H-M "P B C M"
_symmetry_group_IT_number 57
_symmetry_cell_setting 'orthorhombic'
loop_
_space_group_symop_operation_xyz
x,y,z
-x,-y,1/2+z
x,1/2-y,-z
-x,1/2+y,1/2-z
-x,-y,-z
x,y,1/2-z
-x,1/2+y,z
x,1/2-y,1/2+z
loop_
_atom_site_type_symbol
_atom_site_label
_atom_site_fract_x
_atom_site_fract_y
_atom_site_fract_z
Si Si1 0.931352 0.750000 0.500000
Si Si2 0.641542 0.602318 0.432691
Si Si3 0.084142 0.927672 0.136680
Si Si4 0.677129 0.504085 0.638555
O O1 0.788778 0.694333 0.423213
O O2 0.049958 0.834855 0.440764
O O3 0.620391 0.582655 0.550606
O O4 0.440144 0.600640 0.383303
O O5 0.744214 0.500135 0.389974
O O6 0.097178 0.890039 0.250000
O O7 0.898850 0.999843 0.129843
O O8 0.635613 0.539691 0.750000
#
# Coordination Sequence:
#
# PCOD9437547 Si02
#       4
#     4   8   8   8
#     4  10  20  36  58  86 114 146 190 238 278 328
#     4  10  20  37  58  80 115 151 185 234 286 336
#     4  10  21  38  58  82 115 151 188 231 282 339
#     4   9  18  34  56  78 103 143 187 227 278 334
#
# _framework density 22.452314000000001
#
# number of rings (size 3 to 8) (size 9 to 14) (size 15 to 20)
#    0.000    2.286    0.000    4.286    0.000    2.286 
#    0.000   24.286    0.000    6.857    0.000    0.000 
#    0.000    0.000    0.000    0.000    0.000    0.000 
#
# Total GULP energy -156190.880563 kJ/mol
# GULP energy per Si atom -5578.245734 kJ/mol
# Density = 2.240121 g / cm^3
# Si number density = 22.452314 Si / 1000 Ang^3
#
#
#
# Elastic Constant Matrix: (Units=GPa)
#
#
# Indices 1 2 3 4 5 6 
#
# 1 83.1540 21.3667 24.1452 0.0000 0.0000 0.0000
# 2 21.3667 60.5644 14.9268 0.0000 0.0000 0.0000
# 3 24.1452 14.9268 123.7543 0.0000 0.0000 0.0000
# 4 0.0000 0.0000 0.0000 12.1815 0.0000 0.0000
# 5 0.0000 0.0000 0.0000 0.0000 26.9755 0.0000
# 6 0.0000 0.0000 0.0000 0.0000 0.0000 22.8791
#
#
#
# Elastic Compliance Matrix: (Units=1/GPa)
#
#
# Indices 1 2 3 4 5 6 
#
# 1 0.013765 -0.004323 -0.002164 0.000000 0.000000 0.000000
# 2 -0.004323 0.018375 -0.001373 0.000000 0.000000 0.000000
# 3 -0.002164 -0.001373 0.008668 0.000000 0.000000 0.000000
# 4 0.000000 0.000000 0.000000 0.082092 0.000000 0.000000
# 5 0.000000 0.000000 0.000000 0.000000 0.037071 0.000000
# 6 0.000000 0.000000 0.000000 0.000000 0.000000 0.043708
#
#
# Mechanical properties :
#
#
# Convention : Reuss Voigt Hill
#
# Bulk Modulus (GPa) = 39.85919 43.15001 41.50460
# Shear Modulus (GPa) = 21.95281 26.20948 24.08115
#
# Velocity S-wave (km/s) = 3.13030 3.42034 3.27853
# Velocity P-wave (km/s) = 5.55485 5.90411 5.73214
#
# Compressibility (1/GPa) = 0.02508832
#
# Stress axis : x y z
#
# Youngs Moduli (GPa) = 72.64764 54.42241 115.36186
#
# Poissons Ratio (x) = 0.23526 0.24967
# Poissons Ratio (y) = 0.31404 0.15838
# Poissons Ratio (z) = 0.15723 0.07472
#
# Static dielectric constant tensor:
#      x y z
#    x 1.871840 0.000000 0.000000 
#    y 0.000000 1.862260 0.000000 
#    z 0.000000 0.000000 1.843270 
# 
# From -- ./inp_files/15417.got.cif
#   From: 2010.05.17/outbox.cif.g08.bks.cpg/sg57_8_cif.got.tgz:15417.got - 2010.06.03 13:58:18.
