data_PCOD9437934
_publ_section_title
;
Structure prediction by ZEFSAII (Michael W. Deem and Ramdas Pophale) SiO2 
 PCOD9437934
Probable space group: P B C M
;
_chemical_formula_sum "Si O2"
_cell_formula_units_Z 40
_cell_length_a 23.945836
_cell_length_b 9.396458
_cell_length_c 9.282094
_cell_angle_alpha 90.000000
_cell_angle_beta 90.000000
_cell_angle_gamma 90.000000
_cell_volume 2088.527235
_symmetry_space_group_name_H-M "P B C M"
_symmetry_group_IT_number 57
_symmetry_cell_setting 'orthorhombic'
loop_
_space_group_symop_operation_xyz
x,y,z
-x,-y,1/2+z
x,1/2-y,-z
-x,1/2+y,1/2-z
-x,-y,-z
x,y,1/2-z
-x,1/2+y,z
x,1/2-y,1/2+z
loop_
_atom_site_type_symbol
_atom_site_label
_atom_site_fract_x
_atom_site_fract_y
_atom_site_fract_z
Si Si1 0.450800 0.593889 0.427740
Si Si2 0.642076 0.596051 0.426059
Si Si3 0.868266 0.412533 0.473383
Si Si4 0.928141 0.492720 0.750000
Si Si5 0.961185 0.335342 0.250000
Si Si6 0.769586 0.884040 0.590440
O O1 0.454683 0.750000 0.500000
O O2 0.500000 0.500000 0.500000
O O3 0.453219 0.596932 0.250000
O O4 0.395116 0.518405 0.489571
O O5 0.630323 0.750000 0.500000
O O6 0.632180 0.596936 0.250000
O O7 0.707798 0.565882 0.454140
O O8 0.850451 0.250000 0.500000
O O9 0.888082 0.494670 0.613968
O O10 0.924894 0.395591 0.381793
O O11 0.816334 0.495775 0.409830
O O12 0.956939 0.335503 0.750000
O O13 0.976245 0.609206 0.750000
O O14 0.788711 0.750000 0.500000
O O15 0.761365 0.827396 0.750000
#
# Coordination Sequence:
#
# PCOD9437934 Si02
#       6
#     8   8   8   4   4   8
#     4  12  25  43  66  96 130 170 213 258 308 363
#     4  10  21  40  63  91 125 164 206 256 310 364
#     4  10  21  38  57  82 114 153 192 242 299 357
#     4  10  22  34  56  84 108 150 187 242 295 364
#     4  10  20  38  56  78 114 144 193 238 301 354
#     4  10  22  39  61  88 120 156 199 248 297 355
#
# _framework density 19.152253000000002
#
# number of rings (size 3 to 8) (size 9 to 14) (size 15 to 20)
#    0.000    1.600    1.000    3.600    1.400    3.200 
#    0.000    0.000    0.000    0.000    0.000    0.000 
#    0.000    0.000    0.000    0.000    0.000    0.000 
#
# Total GULP energy -223031.477588 kJ/mol
# GULP energy per Si atom -5575.786940 kJ/mol
# Density = 1.910866 g / cm^3
# Si number density = 19.152253 Si / 1000 Ang^3
#
#
#
# Elastic Constant Matrix: (Units=GPa)
#
#
# Indices 1 2 3 4 5 6 
#
# 1 76.0769 59.7232 30.2401 0.0000 0.0000 0.0000
# 2 59.7232 90.6347 38.0717 0.0000 0.0000 0.0000
# 3 30.2401 38.0717 119.7983 0.0000 0.0000 0.0000
# 4 0.0000 0.0000 0.0000 34.9163 0.0000 0.0000
# 5 0.0000 0.0000 0.0000 0.0000 38.3261 0.0000
# 6 0.0000 0.0000 0.0000 0.0000 0.0000 18.7420
#
#
#
# Elastic Compliance Matrix: (Units=1/GPa)
#
#
# Indices 1 2 3 4 5 6 
#
# 1 0.027422 -0.017498 -0.001361 0.000000 0.000000 0.000000
# 2 -0.017498 0.023898 -0.003178 0.000000 0.000000 0.000000
# 3 -0.001361 -0.003178 0.009701 0.000000 0.000000 0.000000
# 4 0.000000 0.000000 0.000000 0.028640 0.000000 0.000000
# 5 0.000000 0.000000 0.000000 0.000000 0.026092 0.000000
# 6 0.000000 0.000000 0.000000 0.000000 0.000000 0.053356
#
#
# Mechanical properties :
#
#
# Convention : Reuss Voigt Hill
#
# Bulk Modulus (GPa) = 59.00650 60.28665 59.64657
# Shear Modulus (GPa) = 22.84852 28.96186 25.90519
#
# Velocity S-wave (km/s) = 3.45772 3.89291 3.68175
# Velocity P-wave (km/s) = 6.84231 7.19390 7.02031
#
# Compressibility (1/GPa) = 0.01694729
#
# Stress axis : x y z
#
# Youngs Moduli (GPa) = 36.46691 41.84393 103.08293
#
# Poissons Ratio (x) = 0.73218 0.14032
# Poissons Ratio (y) = 0.63809 0.32759
# Poissons Ratio (z) = 0.04964 0.13298
#
# Static dielectric constant tensor:
#      x y z
#    x 1.650670 0.000000 0.000000 
#    y 0.000000 1.566500 0.000000 
#    z 0.000000 0.000000 1.681190 
# 
# From -- ./inp_files/8953.got.cif
#   From: 2010.05.17/outbox.cif.g08.bks.cpg/sg57_5_cif.got.tgz:8953.got - 2010.06.03 13:58:18.
