data_PCOD9437995
_publ_section_title
;
Structure prediction by ZEFSAII (Michael W. Deem and Ramdas Pophale) SiO2 
 PCOD9437995
Probable space group: P B C M
;
_chemical_formula_sum "Si O2"
_cell_formula_units_Z 48
_cell_length_a 17.212658
_cell_length_b 16.270280
_cell_length_c 8.489379
_cell_angle_alpha 90.000000
_cell_angle_beta 90.000000
_cell_angle_gamma 90.000000
_cell_volume 2377.491043
_symmetry_space_group_name_H-M "P B C M"
_symmetry_group_IT_number 57
_symmetry_cell_setting 'orthorhombic'
loop_
_space_group_symop_operation_xyz
x,y,z
-x,-y,1/2+z
x,1/2-y,-z
-x,1/2+y,1/2-z
-x,-y,-z
x,y,1/2-z
-x,1/2+y,z
x,1/2-y,1/2+z
loop_
_atom_site_type_symbol
_atom_site_label
_atom_site_fract_x
_atom_site_fract_y
_atom_site_fract_z
Si Si1 0.817472 0.839812 0.560611
Si Si2 0.830401 0.163549 0.939258
Si Si3 0.087856 0.001961 0.561686
Si Si4 0.341619 0.417990 0.939532
Si Si5 0.503922 0.659485 0.561625
Si Si6 0.666020 0.105541 0.941291
O O1 0.841664 0.750000 0.500000
O O2 0.819685 0.840269 0.750000
O O3 0.868854 0.916145 0.500575
O O4 0.728245 0.858511 0.509025
O O5 0.832756 0.162627 0.750000
O O6 0.740427 0.156626 0.994269
O O7 0.863539 0.250000 0.000000
O O8 0.871762 0.081557 0.000778
O O9 0.089286 0.003065 0.750000
O O10 0.000000 0.000000 0.500000
O O11 0.346037 0.414033 0.750000
O O12 0.320518 0.510865 0.984778
O O13 0.425920 0.397242 0.005553
O O14 0.521362 0.750000 0.500000
O O15 0.501976 0.658938 0.750000
O O16 0.418451 0.633848 0.501696
O O17 0.664267 0.109453 0.750000
#
# Coordination Sequence:
#
# PCOD9437995 Si02
#       6
#     8   8   8   8   8   8
#     4  11  23  42  68  97 132 172 214 265 321 382
#     4  11  22  42  68  98 133 172 215 264 320 381
#     4  12  26  46  71 100 131 167 210 260 321 387
#     4  10  20  38  61  86 121 165 210 262 319 372
#     4  11  22  35  53  82 120 163 213 264 313 370
#     4   9  19  37  60  86 122 165 210 262 317 370
#
# _framework density 20.189350999999998
#
# number of rings (size 3 to 8) (size 9 to 14) (size 15 to 20)
#    0.000    1.333    1.667    4.500    0.000    3.333 
#    0.000    6.667    0.000    0.000    0.000    0.000 
#    0.000    0.000    0.000    0.000    0.000    0.000 
#
# Total GULP energy -268279.731062 kJ/mol
# GULP energy per Si atom -5589.161064 kJ/mol
# Density = 2.014340 g / cm^3
# Si number density = 20.189351 Si / 1000 Ang^3
#
#
#
# Elastic Constant Matrix: (Units=GPa)
#
#
# Indices 1 2 3 4 5 6 
#
# 1 117.4186 46.1604 28.1239 0.0000 0.0000 0.0000
# 2 46.1604 141.2108 33.2327 0.0000 0.0000 0.0000
# 3 28.1239 33.2327 71.1238 0.0000 0.0000 0.0000
# 4 0.0000 0.0000 0.0000 27.9031 0.0000 0.0000
# 5 0.0000 0.0000 0.0000 0.0000 28.2842 0.0000
# 6 0.0000 0.0000 0.0000 0.0000 0.0000 12.1046
#
#
#
# Elastic Compliance Matrix: (Units=1/GPa)
#
#
# Indices 1 2 3 4 5 6 
#
# 1 0.010244 -0.002691 -0.002793 0.000000 0.000000 0.000000
# 2 -0.002691 0.008664 -0.002984 0.000000 0.000000 0.000000
# 3 -0.002793 -0.002984 0.016559 0.000000 0.000000 0.000000
# 4 0.000000 0.000000 0.000000 0.035838 0.000000 0.000000
# 5 0.000000 0.000000 0.000000 0.000000 0.035355 0.000000
# 6 0.000000 0.000000 0.000000 0.000000 0.000000 0.082614
#
#
# Mechanical properties :
#
#
# Convention : Reuss Voigt Hill
#
# Bulk Modulus (GPa) = 53.96817 60.53194 57.25005
# Shear Modulus (GPa) = 23.54207 28.47411 26.00809
#
# Velocity S-wave (km/s) = 3.41847 3.75954 3.59306
# Velocity P-wave (km/s) = 6.50925 6.99233 6.75511
#
# Compressibility (1/GPa) = 0.01852944
#
# Stress axis : x y z
#
# Youngs Moduli (GPa) = 97.62287 115.42586 60.39134
#
# Poissons Ratio (x) = 0.31063 0.16868
# Poissons Ratio (y) = 0.26272 0.18020
# Poissons Ratio (z) = 0.27267 0.34442
#
# Static dielectric constant tensor:
#      x y z
#    x 1.727470 0.000000 0.000000 
#    y 0.000000 1.715080 0.000000 
#    z 0.000000 0.000000 1.695340 
# 
# From -- ./inp_files/6569.got.cif
#   From: 2010.05.17/outbox.cif.g08.bks.cpg/sg57_4_cif.got.tgz:6569.got - 2010.06.03 13:58:18.
