data_PCOD9437678
_publ_section_title
;
Structure prediction by ZEFSAII (Michael W. Deem and Ramdas Pophale) SiO2 
 PCOD9437678
Probable space group: P B C M
;
_chemical_formula_sum "Si O2"
_cell_formula_units_Z 64
_cell_length_a 24.243947
_cell_length_b 15.393222
_cell_length_c 8.956321
_cell_angle_alpha 90.000000
_cell_angle_beta 90.000000
_cell_angle_gamma 90.000000
_cell_volume 3342.431452
_symmetry_space_group_name_H-M "P B C M"
_symmetry_group_IT_number 57
_symmetry_cell_setting 'orthorhombic'
loop_
_space_group_symop_operation_xyz
x,y,z
-x,-y,1/2+z
x,1/2-y,-z
-x,1/2+y,1/2-z
-x,-y,-z
x,y,1/2-z
-x,1/2+y,z
x,1/2-y,1/2+z
loop_
_atom_site_type_symbol
_atom_site_label
_atom_site_fract_x
_atom_site_fract_y
_atom_site_fract_z
Si Si1 0.600163 0.579881 0.921691
Si Si2 0.502312 0.661074 0.071903
Si Si3 0.714264 0.840772 0.070853
Si Si4 0.921698 0.516491 0.070983
Si Si5 0.207632 0.015818 0.429278
Si Si6 0.264332 0.663961 0.926796
Si Si7 0.378226 0.622561 0.422243
Si Si8 0.993646 0.348164 0.070017
O O1 0.587062 0.603466 0.750000
O O2 0.651422 0.636982 0.976960
O O3 0.621398 0.481599 0.922109
O O4 0.545000 0.589167 0.016737
O O5 0.502190 0.664333 0.250000
O O6 0.439040 0.648514 0.022590
O O7 0.523296 0.750000 0.000000
O O8 0.714592 0.838155 0.250000
O O9 0.730788 0.750000 0.000000
O O10 0.755577 0.913788 0.012740
O O11 0.929693 0.526837 0.250000
O O12 0.857018 0.522120 0.036987
O O13 0.945048 0.419331 0.033973
O O14 0.954237 0.594911 0.989671
O O15 0.214582 0.026311 0.250000
O O16 0.230956 0.921488 0.471098
O O17 0.263170 0.671792 0.750000
O O18 0.240346 0.750000 0.000000
O O19 0.327294 0.653990 0.981289
O O20 0.371657 0.652358 0.250000
O O21 0.996066 0.338728 0.250000
O O22 0.989594 0.250000 0.000000
#
# Coordination Sequence:
#
# PCOD9437678 Si02
#       8
#     8   8   8   8   8   8   8   8
#     4  10  21  38  59  82 110 143 185 237 295 355
#     4  11  23  36  54  79 109 143 184 234 289 352
#     4  11  23  39  61  86 116 154 195 244 297 355
#     4   9  20  39  61  87 122 160 201 248 291 340
#     4  10  22  41  62  87 119 156 201 248 293 342
#     4  11  23  38  60  87 116 154 196 241 293 352
#     4  10  21  39  59  82 111 144 186 238 293 352
#     4  10  20  36  61  92 125 162 201 241 291 344
#
# _framework density 19.147736999999999
#
# number of rings (size 3 to 8) (size 9 to 14) (size 15 to 20)
#    0.000    1.750    1.250    2.625    0.000    7.000 
#    0.000    0.000    0.000    0.000    0.000    0.000 
#    0.000    0.000    0.000    0.000    0.000    0.000 
#
# Total GULP energy -357305.383182 kJ/mol
# GULP energy per Si atom -5582.896612 kJ/mol
# Density = 1.910416 g / cm^3
# Si number density = 19.147737 Si / 1000 Ang^3
#
#
#
# Elastic Constant Matrix: (Units=GPa)
#
#
# Indices 1 2 3 4 5 6 
#
# 1 88.3547 30.3668 32.4317 0.0000 0.0000 0.0000
# 2 30.3668 117.9466 36.2920 0.0000 0.0000 0.0000
# 3 32.4317 36.2920 38.1329 0.0000 0.0000 0.0000
# 4 0.0000 0.0000 0.0000 32.7216 0.0000 0.0000
# 5 0.0000 0.0000 0.0000 0.0000 27.6581 0.0000
# 6 0.0000 0.0000 0.0000 0.0000 0.0000 123.8378
#
#
#
# Elastic Compliance Matrix: (Units=1/GPa)
#
#
# Indices 1 2 3 4 5 6 
#
# 1 0.016456 0.000098 -0.014089 0.000000 0.000000 0.000000
# 2 0.000098 0.011990 -0.011495 0.000000 0.000000 0.000000
# 3 -0.014089 -0.011495 0.049147 0.000000 0.000000 0.000000
# 4 0.000000 0.000000 0.000000 0.030561 0.000000 0.000000
# 5 0.000000 0.000000 0.000000 0.000000 0.036156 0.000000
# 6 0.000000 0.000000 0.000000 0.000000 0.000000 0.008075
#
#
# Mechanical properties :
#
#
# Convention : Reuss Voigt Hill
#
# Bulk Modulus (GPa) = 37.56395 49.17945 43.37170
# Shear Modulus (GPa) = 23.55939 46.53308 35.04624
#
# Velocity S-wave (km/s) = 3.51151 4.93507 4.28285
# Velocity P-wave (km/s) = 6.00845 7.62975 6.86712
#
# Compressibility (1/GPa) = 0.02662127
#
# Stress axis : x y z
#
# Youngs Moduli (GPa) = 60.76888 83.40250 20.34719
#
# Poissons Ratio (x) = -0.00821 0.28668
# Poissons Ratio (y) = -0.00599 0.23389
# Poissons Ratio (z) = 0.85619 0.95871
#
# Static dielectric constant tensor:
#      x y z
#    x 1.648950 0.000000 0.000000 
#    y 0.000000 1.696560 0.000000 
#    z 0.000000 0.000000 1.653030 
# 
# From -- ./inp_files/9284.got.cif
#   From: 2010.05.17/outbox.cif.g08.bks.cpg/sg57_5_cif.got.tgz:9284.got - 2010.06.03 13:58:18.
