data_PCOD9437054
_publ_section_title
;
Structure prediction by ZEFSAII (Michael W. Deem and Ramdas Pophale) SiO2 
 PCOD9437054
Probable space group: P B C M
;
_chemical_formula_sum "Si O2"
_cell_formula_units_Z 64
_cell_length_a 16.197003
_cell_length_b 25.567545
_cell_length_c 8.914960
_cell_angle_alpha 90.000000
_cell_angle_beta 90.000000
_cell_angle_gamma 90.000000
_cell_volume 3691.841867
_symmetry_space_group_name_H-M "P B C M"
_symmetry_group_IT_number 57
_symmetry_cell_setting 'orthorhombic'
loop_
_space_group_symop_operation_xyz
x,y,z
-x,-y,1/2+z
x,1/2-y,-z
-x,1/2+y,1/2-z
-x,-y,-z
x,y,1/2-z
-x,1/2+y,z
x,1/2-y,1/2+z
loop_
_atom_site_type_symbol
_atom_site_label
_atom_site_fract_x
_atom_site_fract_y
_atom_site_fract_z
Si Si1 0.357288 0.593495 0.069858
Si Si2 0.753342 0.194967 0.068983
Si Si3 0.073616 0.838659 0.431577
Si Si4 0.995371 0.444570 0.424072
Si Si5 0.841822 0.588243 0.076743
Si Si6 0.302962 0.474741 0.428292
Si Si7 0.900919 0.698484 0.075474
Si Si8 0.515997 0.943625 0.073043
O O1 0.364340 0.592974 0.250000
O O2 0.301664 0.643694 0.028078
O O3 0.319618 0.535879 0.029152
O O4 0.449344 0.594744 0.000743
O O5 0.756119 0.198472 0.250000
O O6 0.722349 0.250000 0.000000
O O7 0.845361 0.186071 0.003803
O O8 0.075382 0.834567 0.250000
O O9 0.068871 0.900336 0.476430
O O10 0.988034 0.814692 0.493437
O O11 0.981271 0.451771 0.250000
O O12 0.084727 0.421911 0.461001
O O13 0.000000 0.500000 0.500000
O O14 0.865804 0.576332 0.250000
O O15 0.835995 0.650898 0.067597
O O16 0.766849 0.552338 0.026695
O O17 0.282336 0.474600 0.250000
O O18 0.385682 0.439666 0.447468
O O19 0.920642 0.706792 0.250000
O O20 0.866438 0.750000 0.000000
O O21 0.499974 0.945780 0.250000
O O22 0.500000 0.000000 0.000000
#
# Coordination Sequence:
#
# PCOD9437054 Si02
#       8
#     8   8   8   8   8   8   8   8
#     4   9  20  36  54  78 106 139 175 214 267 316
#     4  11  23  38  55  77 107 142 181 227 270 316
#     4  10  21  36  53  75 100 134 179 221 265 313
#     4  10  21  35  51  72 103 140 176 215 261 315
#     4  10  21  34  50  77 105 135 172 211 259 308
#     4   9  18  33  53  80 110 138 169 210 262 316
#     4  10  20  35  54  74  99 132 173 218 262 308
#     4   9  17  31  53  80 107 135 167 204 250 305
#
# _framework density 17.335521
#
# number of rings (size 3 to 8) (size 9 to 14) (size 15 to 20)
#    0.000    2.250    0.000    3.375    1.750    6.500 
#    0.000    0.000    0.000    0.750    0.000    0.000 
#    0.000    0.000    0.000    0.000    0.000    0.000 
#
# Total GULP energy -356456.652465 kJ/mol
# GULP energy per Si atom -5569.635195 kJ/mol
# Density = 1.729606 g / cm^3
# Si number density = 17.335521 Si / 1000 Ang^3
#
#
#
# Elastic Constant Matrix: (Units=GPa)
#
#
# Indices 1 2 3 4 5 6 
#
# 1 46.2894 34.8056 11.3928 0.0000 0.0000 0.0000
# 2 34.8056 114.3770 35.7612 0.0000 0.0000 0.0000
# 3 11.3928 35.7612 30.4810 0.0000 0.0000 0.0000
# 4 0.0000 0.0000 0.0000 30.7554 0.0000 0.0000
# 5 0.0000 0.0000 0.0000 0.0000 27.1632 0.0000
# 6 0.0000 0.0000 0.0000 0.0000 0.0000 20.2693
#
#
#
# Elastic Compliance Matrix: (Units=1/GPa)
#
#
# Indices 1 2 3 4 5 6 
#
# 1 0.028023 -0.008296 -0.000741 0.000000 0.000000 0.000000
# 2 -0.008296 0.016264 -0.015981 0.000000 0.000000 0.000000
# 3 -0.000741 -0.015981 0.051834 0.000000 0.000000 0.000000
# 4 0.000000 0.000000 0.000000 0.032515 0.000000 0.000000
# 5 0.000000 0.000000 0.000000 0.000000 0.036815 0.000000
# 6 0.000000 0.000000 0.000000 0.000000 0.000000 0.049336
#
#
# Mechanical properties :
#
#
# Convention : Reuss Voigt Hill
#
# Bulk Modulus (GPa) = 21.69893 39.45184 30.57539
# Shear Modulus (GPa) = 17.84544 22.91675 20.38109
#
# Velocity S-wave (km/s) = 3.21193 3.63981 3.43254
# Velocity P-wave (km/s) = 5.12831 6.36172 5.77802
#
# Compressibility (1/GPa) = 0.04608522
#
# Stress axis : x y z
#
# Youngs Moduli (GPa) = 35.68434 61.48520 19.29254
#
# Poissons Ratio (x) = 0.51008 0.01430
# Poissons Ratio (y) = 0.29604 0.30831
# Poissons Ratio (z) = 0.02645 0.98258
#
# Static dielectric constant tensor:
#      x y z
#    x 1.625090 0.000000 0.000000 
#    y 0.000000 1.593960 0.000000 
#    z 0.000000 0.000000 1.587350 
# 
# From -- ./inp_files/5535.got.cif
#   From: 2010.05.17/outbox.cif.g08.bks.cpg/sg57_3_cif.got.tgz:5535.got - 2010.06.03 13:58:18.
