data_PCOD9437172
_publ_section_title
;
Structure prediction by ZEFSAII (Michael W. Deem and Ramdas Pophale) SiO2 
 PCOD9437172
Probable space group: P B C M
;
_chemical_formula_sum "Si O2"
_cell_formula_units_Z 64
_cell_length_a 10.266723
_cell_length_b 15.093798
_cell_length_c 20.742025
_cell_angle_alpha 90.000000
_cell_angle_beta 90.000000
_cell_angle_gamma 90.000000
_cell_volume 3214.263907
_symmetry_space_group_name_H-M "P B C M"
_symmetry_group_IT_number 57
_symmetry_cell_setting 'orthorhombic'
loop_
_space_group_symop_operation_xyz
x,y,z
-x,-y,1/2+z
x,1/2-y,-z
-x,1/2+y,1/2-z
-x,-y,-z
x,y,1/2-z
-x,1/2+y,z
x,1/2-y,1/2+z
loop_
_atom_site_type_symbol
_atom_site_label
_atom_site_fract_x
_atom_site_fract_y
_atom_site_fract_z
Si Si1 0.525296 0.644640 0.430379
Si Si2 0.654499 0.604324 0.677633
Si Si3 0.682668 0.105251 0.320741
Si Si4 0.544325 0.153671 0.571285
Si Si5 0.809281 0.911421 0.941103
Si Si6 0.835677 0.124572 0.949211
Si Si7 0.089001 0.894506 0.906421
Si Si8 0.118296 0.110157 0.585527
O O1 0.423969 0.621052 0.375193
O O2 0.519468 0.750195 0.432812
O O3 0.483572 0.609436 0.501422
O O4 0.669437 0.612980 0.414669
O O5 0.635991 0.641025 0.750000
O O6 0.687082 0.500812 0.684530
O O7 0.527698 0.609774 0.631725
O O8 0.778979 0.642371 0.638550
O O9 0.652699 0.142392 0.250000
O O10 0.820941 0.137065 0.348562
O O11 0.700212 0.162808 0.576321
O O12 0.935633 0.876658 0.903440
O O13 0.820328 0.017892 0.944149
O O14 0.822879 0.875288 0.014216
O O15 0.971430 0.147959 0.914110
O O16 0.857062 0.142454 0.025416
O O17 0.103587 0.002401 0.909903
#
# Coordination Sequence:
#
# PCOD9437172 Si02
#       8
#     8   8   8   8   8   8   8   8
#     4  11  22  34  51  77 112 146 182 220 261 314
#     4  10  20  35  56  80 107 141 177 218 273 325
#     4  10  20  35  56  80 107 141 177 218 273 325
#     4  11  22  34  51  77 112 146 182 220 261 314
#     4   9  16  30  55  80 101 130 174 227 269 303
#     4   9  16  30  55  80 101 130 174 227 269 303
#     4   8  15  29  52  80 102 127 170 224 273 310
#     4   8  15  29  52  80 102 127 170 224 273 310
#
# _framework density 19.911248000000001
#
# number of rings (size 3 to 8) (size 9 to 14) (size 15 to 20)
#    0.000    2.500    2.500    2.250    0.000    1.500 
#    0.000    2.500    0.000    6.000    0.000    0.000 
#    0.000    0.000    0.000    0.000    0.000    0.000 
#
# Total GULP energy -356973.062334 kJ/mol
# GULP energy per Si atom -5577.704099 kJ/mol
# Density = 1.986593 g / cm^3
# Si number density = 19.911248 Si / 1000 Ang^3
#
#
#
# Elastic Constant Matrix: (Units=GPa)
#
#
# Indices 1 2 3 4 5 6 
#
# 1 101.9011 -12.6189 51.0711 0.0000 0.0000 0.0000
# 2 -12.6189 16.7530 -0.8106 0.0000 0.0000 0.0000
# 3 51.0711 -0.8106 120.7968 0.0000 0.0000 0.0000
# 4 0.0000 0.0000 0.0000 10.3512 0.0000 0.0000
# 5 0.0000 0.0000 0.0000 0.0000 2.7217 0.0000
# 6 0.0000 0.0000 0.0000 0.0000 0.0000 -22.9212
#
#
#
# Elastic Compliance Matrix: (Units=1/GPa)
#
#
# Indices 1 2 3 4 5 6 
#
# 1 0.014023 0.010279 -0.005860 0.000000 0.000000 0.000000
# 2 0.010279 0.067245 -0.003895 0.000000 0.000000 0.000000
# 3 -0.005860 -0.003895 0.010730 0.000000 0.000000 0.000000
# 4 0.000000 0.000000 0.000000 0.096608 0.000000 0.000000
# 5 0.000000 0.000000 0.000000 0.000000 0.367415 0.000000
# 6 0.000000 0.000000 0.000000 0.000000 0.000000 -0.043628
#
#
# Mechanical properties :
#
#
# Convention : Reuss Voigt Hill
#
# Bulk Modulus (GPa) = 10.74724 34.97047 22.85885
# Shear Modulus (GPa) = 9.21899 11.48430 10.35165
#
# Velocity S-wave (km/s) = 2.15409 2.40422 2.28258
# Velocity P-wave (km/s) = 3.40530 5.03074 4.29560
#
# Compressibility (1/GPa) = 0.09304713
#
# Stress axis : x y z
#
# Youngs Moduli (GPa) = 71.31048 14.87103 93.19953
#
# Poissons Ratio (x) = -0.15286 0.54613
# Poissons Ratio (y) = -0.73301 0.36298
# Poissons Ratio (z) = 0.41787 0.05792
#
# Static dielectric constant tensor:
#      x y z
#    x 1.712650 0.000000 0.000000 
#    y 0.000000 1.288120 0.000000 
#    z 0.000000 0.000000 1.715060 
# 
# From -- ./inp_files/24638.got.cif
#   From: 2010.05.17/outbox.cif.g08.bks.cpg/sg57_13_cif.got.tgz:24638.got - 2010.06.03 13:58:18.
