data_PCOD9437256
_publ_section_title
;
Structure prediction by ZEFSAII (Michael W. Deem and Ramdas Pophale) SiO2 
 PCOD9437256
Probable space group: P B C M
;
_chemical_formula_sum "Si O2"
_cell_formula_units_Z 64
_cell_length_a 9.425129
_cell_length_b 24.764025
_cell_length_c 15.231256
_cell_angle_alpha 90.000000
_cell_angle_beta 90.000000
_cell_angle_gamma 90.000000
_cell_volume 3555.038058
_symmetry_space_group_name_H-M "P B C M"
_symmetry_group_IT_number 57
_symmetry_cell_setting 'orthorhombic'
loop_
_space_group_symop_operation_xyz
x,y,z
-x,-y,1/2+z
x,1/2-y,-z
-x,1/2+y,1/2-z
-x,-y,-z
x,y,1/2-z
-x,1/2+y,z
x,1/2-y,1/2+z
loop_
_atom_site_type_symbol
_atom_site_label
_atom_site_fract_x
_atom_site_fract_y
_atom_site_fract_z
Si Si1 0.885203 0.369535 0.009125
Si Si2 0.832408 0.010030 0.494387
Si Si3 0.401212 0.990612 0.646493
Si Si4 0.705406 0.187880 0.646225
Si Si5 0.434289 0.115882 0.148819
Si Si6 0.282378 0.685201 0.350716
Si Si7 0.218422 0.109971 0.490298
Si Si8 0.435956 0.386948 0.145547
O O1 0.818579 0.428966 0.027882
O O2 0.817902 0.344001 0.921129
O O3 0.054379 0.374444 0.998787
O O4 0.836257 0.333274 0.089836
O O5 0.750676 0.010876 0.401302
O O6 0.774571 0.954197 0.533617
O O7 0.000000 0.000000 0.500000
O O8 0.379429 0.983477 0.750000
O O9 0.471863 0.049322 0.632427
O O10 0.497609 0.940863 0.616231
O O11 0.726568 0.179435 0.750000
O O12 0.694140 0.251691 0.630007
O O13 0.564431 0.153350 0.622112
O O14 0.388968 0.108891 0.250000
O O15 0.565351 0.156674 0.145695
O O16 0.307591 0.136092 0.087942
O O17 0.228985 0.679790 0.250000
O O18 0.302390 0.121065 0.580987
O O19 0.404097 0.380154 0.250000
#
# Coordination Sequence:
#
# PCOD9437256 Si02
#       8
#     8   8   8   8   8   8   8   8
#     4  11  21  36  56  80 113 149 186 224 275 332
#     4   9  19  33  50  80 115 147 179 214 277 336
#     4   9  17  31  55  82 109 145 187 227 272 329
#     4  10  22  39  59  82 106 142 192 237 274 325
#     4  10  20  35  57  85 112 144 188 234 278 330
#     4  10  21  39  61  81 106 144 190 236 278 322
#     4  10  22  35  53  83 117 149 176 224 282 338
#     4   9  19  35  57  83 112 145 184 227 277 331
#
# _framework density 18.00262
#
# number of rings (size 3 to 8) (size 9 to 14) (size 15 to 20)
#    0.000    2.250    1.250    1.125    1.750    2.000 
#    0.000    6.250    0.000    3.000    0.000    0.000 
#    0.000    0.000    0.000    0.000    0.000    0.000 
#
# Total GULP energy -356473.323395 kJ/mol
# GULP energy per Si atom -5569.895678 kJ/mol
# Density = 1.796165 g / cm^3
# Si number density = 18.002620 Si / 1000 Ang^3
#
#
#
# Elastic Constant Matrix: (Units=GPa)
#
#
# Indices 1 2 3 4 5 6 
#
# 1 111.5460 45.5200 55.3036 0.0000 0.0000 0.0000
# 2 45.5200 92.2491 34.2341 0.0000 0.0000 0.0000
# 3 55.3036 34.2341 46.1629 0.0000 0.0000 0.0000
# 4 0.0000 0.0000 0.0000 17.3097 0.0000 0.0000
# 5 0.0000 0.0000 0.0000 0.0000 8.9086 0.0000
# 6 0.0000 0.0000 0.0000 0.0000 0.0000 15.9863
#
#
#
# Elastic Compliance Matrix: (Units=1/GPa)
#
#
# Indices 1 2 3 4 5 6 
#
# 1 0.022228 -0.001498 -0.025518 0.000000 0.000000 0.000000
# 2 -0.001498 0.015057 -0.009371 0.000000 0.000000 0.000000
# 3 -0.025518 -0.009371 0.059183 0.000000 0.000000 0.000000
# 4 0.000000 0.000000 0.000000 0.057771 0.000000 0.000000
# 5 0.000000 0.000000 0.000000 0.000000 0.112251 0.000000
# 6 0.000000 0.000000 0.000000 0.000000 0.000000 0.062553
#
#
# Mechanical properties :
#
#
# Convention : Reuss Voigt Hill
#
# Bulk Modulus (GPa) = 42.20711 57.78593 49.99652
# Shear Modulus (GPa) = 12.20352 16.10095 14.15224
#
# Velocity S-wave (km/s) = 2.60643 2.99384 2.80683
# Velocity P-wave (km/s) = 5.70560 6.64222 6.19164
#
# Compressibility (1/GPa) = 0.02369269
#
# Stress axis : x y z
#
# Youngs Moduli (GPa) = 44.98797 66.41273 16.89667
#
# Poissons Ratio (x) = 0.09951 0.43117
# Poissons Ratio (y) = 0.06741 0.15834
# Poissons Ratio (z) = 1.14802 0.62237
#
# Static dielectric constant tensor:
#      x y z
#    x 1.581380 0.000000 0.000000 
#    y 0.000000 1.647500 0.000000 
#    z 0.000000 0.000000 1.622400 
# 
# From -- ./inp_files/16949.got.cif
#   From: 2010.05.17/outbox.cif.g08.bks.cpg/sg57_9_cif.got.tgz:16949.got - 2010.06.03 13:58:18.
