data_PCOD9437695
_publ_section_title
;
Structure prediction by ZEFSAII (Michael W. Deem and Ramdas Pophale) SiO2 
 PCOD9437695
Probable space group: P B C M
;
_chemical_formula_sum "Si O2"
_cell_formula_units_Z 48
_cell_length_a 14.089025
_cell_length_b 10.656714
_cell_length_c 15.013337
_cell_angle_alpha 90.000000
_cell_angle_beta 90.000000
_cell_angle_gamma 90.000000
_cell_volume 2254.143103
_symmetry_space_group_name_H-M "P B C M"
_symmetry_group_IT_number 57
_symmetry_cell_setting 'orthorhombic'
loop_
_space_group_symop_operation_xyz
x,y,z
-x,-y,1/2+z
x,1/2-y,-z
-x,1/2+y,1/2-z
-x,-y,-z
x,y,1/2-z
-x,1/2+y,z
x,1/2-y,1/2+z
loop_
_atom_site_type_symbol
_atom_site_label
_atom_site_fract_x
_atom_site_fract_y
_atom_site_fract_z
Si Si1 0.287596 0.672170 0.351165
Si Si2 0.036612 0.033440 0.096289
Si Si3 0.610801 0.489767 0.984861
Si Si4 0.256093 0.100865 0.645953
Si Si5 0.246242 0.957023 0.144733
Si Si6 0.065539 0.206624 0.849777
O O1 0.328577 0.673645 0.250000
O O2 0.362834 0.636134 0.427734
O O3 0.223171 0.546605 0.354668
O O4 0.238525 0.805160 0.364203
O O5 0.149087 0.019781 0.112111
O O6 0.989577 0.923718 0.153659
O O7 0.010202 0.178261 0.108991
O O8 0.000000 0.000000 0.000000
O O9 0.653528 0.596560 0.918421
O O10 0.500000 0.500000 0.000000
O O11 0.669232 0.492743 0.077130
O O12 0.276898 0.130759 0.750000
O O13 0.168951 0.180393 0.609517
O O14 0.262583 0.984638 0.250000
O O15 0.085363 0.249788 0.750000
#
# Coordination Sequence:
#
# PCOD9437695 Si02
#       6
#     8   8   8   8   8   8
#     4   8  18  37  63  90 123 164 211 271 336 396
#     4  12  27  43  64  95 135 175 222 275 333 403
#     4  10  20  36  62  94 126 168 217 272 330 406
#     4   8  18  37  64  92 127 167 213 270 335 398
#     4  11  23  40  62  92 130 170 219 277 338 401
#     4  11  23  42  65  95 129 171 221 274 334 401
#
# _framework density 21.294122000000002
#
# number of rings (size 3 to 8) (size 9 to 14) (size 15 to 20)
#    1.000    1.000    0.000    3.500    2.333    2.667 
#    0.000    3.333    0.000    2.000    0.000    0.000 
#    0.000    0.000    0.000    0.000    0.000    0.000 
#
# Total GULP energy -267425.039167 kJ/mol
# GULP energy per Si atom -5571.354983 kJ/mol
# Density = 2.124566 g / cm^3
# Si number density = 21.294122 Si / 1000 Ang^3
#
#
#
# Elastic Constant Matrix: (Units=GPa)
#
#
# Indices 1 2 3 4 5 6 
#
# 1 106.0635 28.8796 48.6323 0.0000 0.0000 0.0000
# 2 28.8796 79.3779 31.2367 0.0000 0.0000 0.0000
# 3 48.6323 31.2367 130.2359 0.0000 0.0000 0.0000
# 4 0.0000 0.0000 0.0000 27.6596 0.0000 0.0000
# 5 0.0000 0.0000 0.0000 0.0000 18.6082 0.0000
# 6 0.0000 0.0000 0.0000 0.0000 0.0000 17.8020
#
#
#
# Elastic Compliance Matrix: (Units=1/GPa)
#
#
# Indices 1 2 3 4 5 6 
#
# 1 0.011936 -0.002858 -0.003772 0.000000 0.000000 0.000000
# 2 -0.002858 0.014595 -0.002433 0.000000 0.000000 0.000000
# 3 -0.003772 -0.002433 0.009670 0.000000 0.000000 0.000000
# 4 0.000000 0.000000 0.000000 0.036154 0.000000 0.000000
# 5 0.000000 0.000000 0.000000 0.000000 0.053740 0.000000
# 6 0.000000 0.000000 0.000000 0.000000 0.000000 0.056173
#
#
# Mechanical properties :
#
#
# Convention : Reuss Voigt Hill
#
# Bulk Modulus (GPa) = 55.32408 59.24159 57.28284
# Shear Modulus (GPa) = 24.22242 26.60920 25.41581
#
# Velocity S-wave (km/s) = 3.37637 3.53881 3.45854
# Velocity P-wave (km/s) = 6.42161 6.67672 6.55041
#
# Compressibility (1/GPa) = 0.01807531
#
# Stress axis : x y z
#
# Youngs Moduli (GPa) = 83.78059 68.51440 103.40897
#
# Poissons Ratio (x) = 0.19584 0.39001
# Poissons Ratio (y) = 0.23948 0.25162
# Poissons Ratio (z) = 0.31598 0.16672
#
# Static dielectric constant tensor:
#      x y z
#    x 1.750830 0.000000 0.000000 
#    y 0.000000 1.908150 0.000000 
#    z 0.000000 0.000000 1.756280 
# 
# From -- ./inp_files/18429.got.cif
#   From: 2010.05.17/outbox.cif.g08.bks.cpg/sg57_10_cif.got.tgz:18429.got - 2010.06.03 13:58:18.
