data_PCOD9437075
_publ_section_title
;
Structure prediction by ZEFSAII (Michael W. Deem and Ramdas Pophale) SiO2 
 PCOD9437075
Probable space group: P B C M
;
_chemical_formula_sum "Si O2"
_cell_formula_units_Z 64
_cell_length_a 15.636157
_cell_length_b 22.003884
_cell_length_c 7.956892
_cell_angle_alpha 90.000000
_cell_angle_beta 90.000000
_cell_angle_gamma 90.000000
_cell_volume 2737.617905
_symmetry_space_group_name_H-M "P B C M"
_symmetry_group_IT_number 57
_symmetry_cell_setting 'orthorhombic'
loop_
_space_group_symop_operation_xyz
x,y,z
-x,-y,1/2+z
x,1/2-y,-z
-x,1/2+y,1/2-z
-x,-y,-z
x,y,1/2-z
-x,1/2+y,z
x,1/2-y,1/2+z
loop_
_atom_site_type_symbol
_atom_site_label
_atom_site_fract_x
_atom_site_fract_y
_atom_site_fract_z
Si Si1 0.903046 0.909399 0.947656
Si Si2 0.824644 0.474109 0.446305
Si Si3 0.576177 0.872768 0.543532
Si Si4 0.972012 0.314863 0.060633
Si Si5 0.393240 0.859029 0.553679
Si Si6 0.208382 0.840598 0.944200
Si Si7 0.629458 0.495662 0.446057
Si Si8 0.243611 0.181039 0.452618
O O1 0.885822 0.917570 0.750000
O O2 0.829461 0.864633 0.016478
O O3 0.892601 0.977503 0.015678
O O4 0.990482 0.872719 0.964853
O O5 0.842134 0.457000 0.250000
O O6 0.811023 0.412645 0.547074
O O7 0.731773 0.506858 0.449677
O O8 0.574970 0.873413 0.750000
O O9 0.486837 0.843844 0.484035
O O10 0.583847 0.943537 0.490897
O O11 0.661813 0.838596 0.489078
O O12 0.998139 0.323828 0.250000
O O13 0.006327 0.250000 0.000000
O O14 0.870003 0.312794 0.044109
O O15 0.391875 0.842858 0.750000
O O16 0.304177 0.833041 0.482637
O O17 0.387505 0.932541 0.539144
O O18 0.204975 0.820776 0.750000
O O19 0.606858 0.486129 0.250000
O O20 0.225422 0.250000 0.500000
O O21 0.243466 0.176862 0.250000
#
# Coordination Sequence:
#
# PCOD9437075 Si02
#       8
#     8   8   8   8   8   8   8   8
#     4  10  20  37  61  87 116 148 185 228 278 339
#     4   9  17  32  56  86 118 154 189 224 276 338
#     4   9  16  30  51  75 107 148 187 221 269 326
#     4  12  26  44  65  86 108 141 186 236 287 341
#     4   9  18  31  51  79 111 145 182 227 275 321
#     4  10  21  38  58  84 118 152 189 236 285 333
#     4   9  15  27  49  77 110 148 184 220 264 323
#     4  10  20  35  54  77 109 150 189 228 276 332
#
# _framework density 23.377987000000001
#
# number of rings (size 3 to 8) (size 9 to 14) (size 15 to 20)
#    0.000    2.250    1.250    2.250    0.000    3.000 
#    0.000    1.875    0.000    1.500    0.000    0.000 
#    0.000    0.000    0.000    0.000    0.000    0.000 
#
# Total GULP energy -357443.113468 kJ/mol
# GULP energy per Si atom -5585.048648 kJ/mol
# Density = 2.332478 g / cm^3
# Si number density = 23.377987 Si / 1000 Ang^3
#
#
#
# Elastic Constant Matrix: (Units=GPa)
#
#
# Indices 1 2 3 4 5 6 
#
# 1 110.6228 7.1686 -1.0152 0.0000 0.0000 0.0000
# 2 7.1686 37.6953 -2.1436 0.0000 0.0000 0.0000
# 3 -1.0152 -2.1436 29.7781 0.0000 0.0000 0.0000
# 4 0.0000 0.0000 0.0000 17.9925 0.0000 0.0000
# 5 0.0000 0.0000 0.0000 0.0000 -26.3681 0.0000
# 6 0.0000 0.0000 0.0000 0.0000 0.0000 8.8282
#
#
#
# Elastic Compliance Matrix: (Units=1/GPa)
#
#
# Indices 1 2 3 4 5 6 
#
# 1 0.009154 -0.001730 0.000188 0.000000 0.000000 0.000000
# 2 -0.001730 0.026965 0.001882 0.000000 0.000000 0.000000
# 3 0.000188 0.001882 0.033724 0.000000 0.000000 0.000000
# 4 0.000000 0.000000 0.000000 0.055579 0.000000 0.000000
# 5 0.000000 0.000000 0.000000 0.000000 -0.037925 0.000000
# 6 0.000000 0.000000 0.000000 0.000000 0.000000 0.113273
#
#
# Mechanical properties :
#
#
# Convention : Reuss Voigt Hill
#
# Bulk Modulus (GPa) = 14.18020 20.67953 17.42987
# Shear Modulus (GPa) = 22.36165 11.69627 17.02896
#
# Velocity S-wave (km/s) = 3.09613 2.23919 2.70185
# Velocity P-wave (km/s) = 4.34283 3.94338 4.14791
#
# Compressibility (1/GPa) = 0.07052084
#
# Stress axis : x y z
#
# Youngs Moduli (GPa) = 109.24709 37.08568 29.65279
#
# Poissons Ratio (x) = 0.06416 -0.00556
# Poissons Ratio (y) = 0.18901 -0.05581
# Poissons Ratio (z) = -0.02049 -0.06980
#
# Static dielectric constant tensor:
#      x y z
#    x 1.940720 0.000000 0.000000 
#    y 0.000000 1.829010 0.000000 
#    z 0.000000 0.000000 1.820820 
# 
# From -- ./inp_files/5750.got.cif
#   From: 2010.05.17/outbox.cif.g08.bks.cpg/sg57_3_cif.got.tgz:5750.got - 2010.06.03 13:58:18.
