data_PCOD9437082
_publ_section_title
;
Structure prediction by ZEFSAII (Michael W. Deem and Ramdas Pophale) SiO2 
 PCOD9437082
Probable space group: P B C M
;
_chemical_formula_sum "Si O2"
_cell_formula_units_Z 48
_cell_length_a 30.816002
_cell_length_b 8.836084
_cell_length_c 9.899548
_cell_angle_alpha 90.000000
_cell_angle_beta 90.000000
_cell_angle_gamma 90.000000
_cell_volume 2695.575468
_symmetry_space_group_name_H-M "P B C M"
_symmetry_group_IT_number 57
_symmetry_cell_setting 'orthorhombic'
loop_
_space_group_symop_operation_xyz
x,y,z
-x,-y,1/2+z
x,1/2-y,-z
-x,1/2+y,1/2-z
-x,-y,-z
x,y,1/2-z
-x,1/2+y,z
x,1/2-y,1/2+z
loop_
_atom_site_type_symbol
_atom_site_label
_atom_site_fract_x
_atom_site_fract_y
_atom_site_fract_z
Si Si1 0.131485 0.103352 0.407613
Si Si2 0.965556 0.904979 0.586415
Si Si3 0.691356 0.399576 0.408322
Si Si4 0.539621 0.931794 0.750000
Si Si5 0.402778 0.566002 0.512837
Si Si6 0.786232 0.398647 0.090805
Si Si7 0.555758 0.929067 0.250000
O O1 0.132909 0.250000 0.500000
O O2 0.135307 0.146790 0.250000
O O3 0.083615 0.030029 0.421985
O O4 0.172214 0.999164 0.441960
O O5 0.963894 0.750000 0.500000
O O6 0.975264 0.888510 0.750000
O O7 0.000000 0.000000 0.500000
O O8 0.692493 0.250000 0.500000
O O9 0.688106 0.358937 0.250000
O O10 0.646390 0.478622 0.446845
O O11 0.738625 0.474868 0.428681
O O12 0.545878 0.750335 0.750000
O O13 0.563488 0.007560 0.876725
O O14 0.489511 0.979332 0.750000
O O15 0.404793 0.750000 0.500000
O O16 0.416804 0.483405 0.377497
O O17 0.788916 0.359256 0.250000
O O18 0.787434 0.250000 0.000000
#
# Coordination Sequence:
#
# PCOD9437082 Si02
#       7
#     8   8   8   4   8   8   4
#     4   9  19  35  54  76 109 146 185 226 278 334
#     4  10  20  35  54  78 107 146 188 235 285 342
#     4   9  18  33  58  84 112 143 182 228 273 325
#     4  12  24  44  60  86 120 148 188 230 281 332
#     4  11  22  39  63  88 113 150 190 230 279 335
#     4   9  18  34  55  82 110 141 181 227 270 321
#     4  12  26  40  62  86 116 152 186 234 279 334
#
# _framework density 17.806958000000002
#
# number of rings (size 3 to 8) (size 9 to 14) (size 15 to 20)
#    0.000    2.000    0.833    3.000    3.500    2.000 
#    0.000    3.333    0.000    0.000    0.000    0.000 
#    0.000    0.000    0.000    0.000    0.000    0.000 
#
# Total GULP energy -267354.485420 kJ/mol
# GULP energy per Si atom -5569.885113 kJ/mol
# Density = 1.776643 g / cm^3
# Si number density = 17.806958 Si / 1000 Ang^3
#
#
#
# Elastic Constant Matrix: (Units=GPa)
#
#
# Indices 1 2 3 4 5 6 
#
# 1 170.7159 47.7167 68.8184 0.0000 0.0000 0.0000
# 2 47.7167 68.4053 30.6474 0.0000 0.0000 0.0000
# 3 68.8184 30.6474 109.7241 0.0000 0.0000 0.0000
# 4 0.0000 0.0000 0.0000 29.6736 0.0000 0.0000
# 5 0.0000 0.0000 0.0000 0.0000 37.9524 0.0000
# 6 0.0000 0.0000 0.0000 0.0000 0.0000 194.1827
#
#
#
# Elastic Compliance Matrix: (Units=1/GPa)
#
#
# Indices 1 2 3 4 5 6 
#
# 1 0.008773 -0.004177 -0.004336 0.000000 0.000000 0.000000
# 2 -0.004177 0.018699 -0.002603 0.000000 0.000000 0.000000
# 3 -0.004336 -0.002603 0.012560 0.000000 0.000000 0.000000
# 4 0.000000 0.000000 0.000000 0.033700 0.000000 0.000000
# 5 0.000000 0.000000 0.000000 0.000000 0.026349 0.000000
# 6 0.000000 0.000000 0.000000 0.000000 0.000000 0.005150
#
#
# Mechanical properties :
#
#
# Convention : Reuss Voigt Hill
#
# Bulk Modulus (GPa) = 56.17857 71.46782 63.82319
# Shear Modulus (GPa) = 37.48256 65.80593 51.64424
#
# Velocity S-wave (km/s) = 4.59294 6.08567 5.39122
# Velocity P-wave (km/s) = 7.72942 9.46586 8.64136
#
# Compressibility (1/GPa) = 0.01780038
#
# Stress axis : x y z
#
# Youngs Moduli (GPa) = 113.98577 53.47948 79.61735
#
# Poissons Ratio (x) = 0.22340 0.34519
# Poissons Ratio (y) = 0.47614 0.20723
# Poissons Ratio (z) = 0.49420 0.13920
#
# Static dielectric constant tensor:
#      x y z
#    x 1.652360 0.000000 0.000000 
#    y 0.000000 1.584540 0.000000 
#    z 0.000000 0.000000 1.581220 
# 
# From -- ./inp_files/10116.got.cif
#   From: 2010.05.17/outbox.cif.g08.bks.cpg/sg57_6_cif.got.tgz:10116.got - 2010.06.03 13:58:18.
