data_PCOD9437010
_publ_section_title
;
Structure prediction by ZEFSAII (Michael W. Deem and Ramdas Pophale) SiO2 
 PCOD9437010
Probable space group: P B C M
;
_chemical_formula_sum "Si O2"
_cell_formula_units_Z 64
_cell_length_a 19.941117
_cell_length_b 8.103024
_cell_length_c 18.201238
_cell_angle_alpha 90.000000
_cell_angle_beta 90.000000
_cell_angle_gamma 90.000000
_cell_volume 2941.017004
_symmetry_space_group_name_H-M "P B C M"
_symmetry_group_IT_number 57
_symmetry_cell_setting 'orthorhombic'
loop_
_space_group_symop_operation_xyz
x,y,z
-x,-y,1/2+z
x,1/2-y,-z
-x,1/2+y,1/2-z
-x,-y,-z
x,y,1/2-z
-x,1/2+y,z
x,1/2-y,1/2+z
loop_
_atom_site_type_symbol
_atom_site_label
_atom_site_fract_x
_atom_site_fract_y
_atom_site_fract_z
Si Si1 0.642284 0.916394 0.548562
Si Si2 0.479699 0.251800 0.088072
Si Si3 0.971324 0.293412 0.919393
Si Si4 0.918749 0.978941 0.833253
Si Si5 0.159748 0.565123 0.036203
Si Si6 0.607473 0.423628 0.599771
Si Si7 0.249483 0.639467 0.164869
Si Si8 0.780978 0.985314 0.612900
O O1 0.649852 0.750000 0.500000
O O2 0.573905 0.897351 0.594524
O O3 0.633534 0.056791 0.485554
O O4 0.705731 0.923503 0.601453
O O5 0.437672 0.411797 0.111044
O O6 0.553291 0.217459 0.117486
O O7 0.491223 0.250000 0.000000
O O8 0.916595 0.436536 0.936266
O O9 0.029687 0.348110 0.865969
O O10 0.930177 0.141932 0.883474
O O11 0.997957 0.250000 0.000000
O O12 0.935788 0.020557 0.750000
O O13 0.841656 0.920837 0.837446
O O14 0.205826 0.537196 0.106602
O O15 0.167914 0.750000 0.000000
O O16 0.185963 0.461422 0.968085
O O17 0.673173 0.400787 0.648147
O O18 0.233235 0.613118 0.250000
O O19 0.231697 0.827767 0.142069
#
# Coordination Sequence:
#
# PCOD9437010 Si02
#       8
#     8   8   8   8   8   8   8   8
#     4   9  19  35  57  92 120 153 199 260 311 356
#     4   9  19  33  55  92 117 149 195 255 302 356
#     4  11  22  42  66  92 123 168 213 257 309 376
#     4  12  25  41  63  95 132 163 207 263 322 375
#     4   9  18  36  61  88 110 149 206 254 298 360
#     4  10  20  34  58  85 122 153 203 244 310 356
#     4  11  22  35  58  87 119 158 202 250 306 367
#     4  11  21  37  63  90 119 157 208 256 310 374
#
# _framework density 21.76118
#
# number of rings (size 3 to 8) (size 9 to 14) (size 15 to 20)
#    0.000    2.000    5.000    2.625    3.500    1.000 
#    0.000    0.625    0.000    7.500    0.000    0.000 
#    0.000    0.000    0.000    0.000    0.000    0.000 
#
# Total GULP energy -356814.132774 kJ/mol
# GULP energy per Si atom -5575.220825 kJ/mol
# Density = 2.171165 g / cm^3
# Si number density = 21.761180 Si / 1000 Ang^3
#
#
#
# Elastic Constant Matrix: (Units=GPa)
#
#
# Indices 1 2 3 4 5 6 
#
# 1 109.9698 10.9696 35.0421 0.0000 0.0000 0.0000
# 2 10.9696 32.1623 11.5350 0.0000 0.0000 0.0000
# 3 35.0421 11.5350 115.2690 0.0000 0.0000 0.0000
# 4 0.0000 0.0000 0.0000 11.1228 0.0000 0.0000
# 5 0.0000 0.0000 0.0000 0.0000 15.8852 0.0000
# 6 0.0000 0.0000 0.0000 0.0000 0.0000 20.5408
#
#
#
# Elastic Compliance Matrix: (Units=1/GPa)
#
#
# Indices 1 2 3 4 5 6 
#
# 1 0.010254 -0.002468 -0.002870 0.000000 0.000000 0.000000
# 2 -0.002468 0.032844 -0.002536 0.000000 0.000000 0.000000
# 3 -0.002870 -0.002536 0.009802 0.000000 0.000000 0.000000
# 4 0.000000 0.000000 0.000000 0.089906 0.000000 0.000000
# 5 0.000000 0.000000 0.000000 0.000000 0.062952 0.000000
# 6 0.000000 0.000000 0.000000 0.000000 0.000000 0.048684
#
#
# Mechanical properties :
#
#
# Convention : Reuss Voigt Hill
#
# Bulk Modulus (GPa) = 26.91766 41.38826 34.15296
# Shear Modulus (GPa) = 17.69448 22.83336 20.26392
#
# Velocity S-wave (km/s) = 2.85462 3.24276 3.05486
# Velocity P-wave (km/s) = 4.82303 5.75163 5.30768
#
# Compressibility (1/GPa) = 0.03715034
#
# Stress axis : x y z
#
# Youngs Moduli (GPa) = 97.52069 30.44716 102.02234
#
# Poissons Ratio (x) = 0.07514 0.29284
# Poissons Ratio (y) = 0.24068 0.25877
# Poissons Ratio (z) = 0.27992 0.07723
#
# Static dielectric constant tensor:
#      x y z
#    x 1.834860 0.000000 0.000000 
#    y 0.000000 1.877210 0.000000 
#    z 0.000000 0.000000 1.678490 
# 
# From -- ./inp_files/23004.got.cif
#   From: 2010.05.17/outbox.cif.g08.bks.cpg/sg57_12_cif.got.tgz:23004.got - 2010.06.03 13:58:18.
