data_PCOD9437884
_publ_section_title
;
Structure prediction by ZEFSAII (Michael W. Deem and Ramdas Pophale) SiO2 
 PCOD9437884
Probable space group: P B C M
;
_chemical_formula_sum "Si O2"
_cell_formula_units_Z 44
_cell_length_a 9.390982
_cell_length_b 17.068887
_cell_length_c 13.619188
_cell_angle_alpha 90.000000
_cell_angle_beta 90.000000
_cell_angle_gamma 90.000000
_cell_volume 2183.068818
_symmetry_space_group_name_H-M "P B C M"
_symmetry_group_IT_number 57
_symmetry_cell_setting 'orthorhombic'
loop_
_space_group_symop_operation_xyz
x,y,z
-x,-y,1/2+z
x,1/2-y,-z
-x,1/2+y,1/2-z
-x,-y,-z
x,y,1/2-z
-x,1/2+y,z
x,1/2-y,1/2+z
loop_
_atom_site_type_symbol
_atom_site_label
_atom_site_fract_x
_atom_site_fract_y
_atom_site_fract_z
Si Si1 0.637194 0.520020 0.937071
Si Si2 0.891495 0.885602 0.969923
Si Si3 0.288150 0.750000 0.000000
Si Si4 0.832617 0.385266 0.633482
Si Si5 0.486299 0.325421 0.360043
Si Si6 0.823676 0.730445 0.862872
O O1 0.702526 0.445328 0.882573
O O2 0.579493 0.587913 0.865970
O O3 0.500000 0.500000 0.000000
O O4 0.760380 0.557668 0.006190
O O5 0.861086 0.818816 0.889067
O O6 0.034131 0.922729 0.926083
O O7 0.904187 0.832329 0.068583
O O8 0.200802 0.695948 0.076104
O O9 0.390557 0.807094 0.063009
O O10 0.857424 0.374715 0.750000
O O11 0.536376 0.307885 0.250000
O O12 0.345585 0.274879 0.382793
O O13 0.849404 0.711903 0.750000
#
# Coordination Sequence:
#
# PCOD9437884 Si02
#       6
#     8   8   4   8   8   8
#     4  11  22  43  66  87 127 169 211 263 319 373
#     4  10  21  39  63  92 127 167 208 258 317 374
#     4  12  22  40  64  92 128 168 208 272 320 376
#     4  12  26  42  64  93 130 170 211 265 327 386
#     4  10  20  37  62  92 123 161 212 263 317 375
#     4   9  18  35  64  94 125 166 211 257 315 376
#
# _framework density 20.155114000000001
#
# number of rings (size 3 to 8) (size 9 to 14) (size 15 to 20)
#    0.000    1.455    1.818    5.455    0.000    0.727 
#    0.000    3.636    0.000    0.000    0.000    0.000 
#    0.000    0.000    0.000    0.000    0.000    0.000 
#
# Total GULP energy -245529.373014 kJ/mol
# GULP energy per Si atom -5580.213023 kJ/mol
# Density = 2.010924 g / cm^3
# Si number density = 20.155114 Si / 1000 Ang^3
#
#
#
# Elastic Constant Matrix: (Units=GPa)
#
#
# Indices 1 2 3 4 5 6 
#
# 1 75.8190 32.0354 62.2623 0.0000 0.0000 0.0000
# 2 32.0354 61.0680 19.7170 0.0000 0.0000 0.0000
# 3 62.2623 19.7170 143.3602 0.0000 0.0000 0.0000
# 4 0.0000 0.0000 0.0000 16.6312 0.0000 0.0000
# 5 0.0000 0.0000 0.0000 0.0000 20.6652 0.0000
# 6 0.0000 0.0000 0.0000 0.0000 0.0000 32.3916
#
#
#
# Elastic Compliance Matrix: (Units=1/GPa)
#
#
# Indices 1 2 3 4 5 6 
#
# 1 0.025421 -0.010225 -0.009634 0.000000 0.000000 0.000000
# 2 -0.010225 0.021249 0.001518 0.000000 0.000000 0.000000
# 3 -0.009634 0.001518 0.010951 0.000000 0.000000 0.000000
# 4 0.000000 0.000000 0.000000 0.060128 0.000000 0.000000
# 5 0.000000 0.000000 0.000000 0.000000 0.048390 0.000000
# 6 0.000000 0.000000 0.000000 0.000000 0.000000 0.030872
#
#
# Mechanical properties :
#
#
# Convention : Reuss Voigt Hill
#
# Bulk Modulus (GPa) = 47.75782 56.47519 52.11650
# Shear Modulus (GPa) = 20.77505 25.01979 22.89742
#
# Velocity S-wave (km/s) = 3.21403 3.52712 3.37421
# Velocity P-wave (km/s) = 6.12535 6.68345 6.41048
#
# Compressibility (1/GPa) = 0.02093898
#
# Stress axis : x y z
#
# Youngs Moduli (GPa) = 39.33703 47.06131 91.31696
#
# Poissons Ratio (x) = 0.48120 0.87978
# Poissons Ratio (y) = 0.40222 -0.13865
# Poissons Ratio (z) = 0.37899 -0.07146
#
# Static dielectric constant tensor:
#      x y z
#    x 1.755140 0.000000 0.000000 
#    y 0.000000 1.786330 0.000000 
#    z 0.000000 0.000000 1.708090 
# 
# From -- ./inp_files/16225.got.cif
#   From: 2010.05.17/outbox.cif.g08.bks.cpg/sg57_9_cif.got.tgz:16225.got - 2010.06.03 13:58:18.
