data_PCOD9437471
_publ_section_title
;
Structure prediction by ZEFSAII (Michael W. Deem and Ramdas Pophale) SiO2 
 PCOD9437471
Probable space group: P B C M
;
_chemical_formula_sum "Si O2"
_cell_formula_units_Z 56
_cell_length_a 12.629948
_cell_length_b 16.574276
_cell_length_c 14.633971
_cell_angle_alpha 90.000000
_cell_angle_beta 90.000000
_cell_angle_gamma 90.000000
_cell_volume 3063.361988
_symmetry_space_group_name_H-M "P B C M"
_symmetry_group_IT_number 57
_symmetry_cell_setting 'orthorhombic'
loop_
_space_group_symop_operation_xyz
x,y,z
-x,-y,1/2+z
x,1/2-y,-z
-x,1/2+y,1/2-z
-x,-y,-z
x,y,1/2-z
-x,1/2+y,z
x,1/2-y,1/2+z
loop_
_atom_site_type_symbol
_atom_site_label
_atom_site_fract_x
_atom_site_fract_y
_atom_site_fract_z
Si Si1 0.574739 0.621458 0.146968
Si Si2 0.061705 0.344557 0.645186
Si Si3 0.661724 0.081849 0.144054
Si Si4 0.109035 0.997995 0.054832
Si Si5 0.687911 0.927644 0.033834
Si Si6 0.735738 0.732648 0.855118
Si Si7 0.848705 0.340215 0.974241
O O1 0.593197 0.586601 0.250000
O O2 0.448986 0.629259 0.135829
O O3 0.638392 0.705078 0.144750
O O4 0.621638 0.574320 0.060139
O O5 0.033557 0.327346 0.750000
O O6 0.098506 0.438422 0.636992
O O7 0.159171 0.284900 0.619748
O O8 0.960368 0.335504 0.580086
O O9 0.690883 0.076189 0.250000
O O10 0.756916 0.122852 0.089104
O O11 0.640900 0.992530 0.103966
O O12 0.137845 0.903238 0.059015
O O13 0.197238 0.038907 0.991944
O O14 0.000000 0.000000 0.000000
O O15 0.706477 0.840694 0.079005
O O16 0.751210 0.704179 0.750000
O O17 0.819598 0.250000 0.000000
#
# Coordination Sequence:
#
# PCOD9437471 Si02
#       7
#     8   8   8   8   8   8   8
#     4  10  21  36  57  84 118 154 194 245 299 350
#     4  10  20  36  57  81 117 151 187 244 303 347
#     4  10  22  41  59  82 119 159 199 244 294 355
#     4   9  20  34  54  82 111 148 188 234 288 354
#     4  11  20  35  61  87 116 153 199 243 300 352
#     4  10  21  34  57  92 117 149 197 248 297 350
#     4  10  22  37  59  81 114 156 201 239 289 357
#
# _framework density 18.280570000000001
#
# number of rings (size 3 to 8) (size 9 to 14) (size 15 to 20)
#    0.000    2.000    1.429    1.714    4.000    1.143 
#    0.000    2.143    0.000    3.429    0.000    0.000 
#    0.000    0.000    0.000    0.000    0.000    0.000 
#
# Total GULP energy -312007.499710 kJ/mol
# GULP energy per Si atom -5571.562495 kJ/mol
# Density = 1.823896 g / cm^3
# Si number density = 18.280570 Si / 1000 Ang^3
#
#
#
# Elastic Constant Matrix: (Units=GPa)
#
#
# Indices 1 2 3 4 5 6 
#
# 1 88.2102 25.4934 31.3628 0.0000 0.0000 0.0000
# 2 25.4934 98.2530 41.6274 0.0000 0.0000 0.0000
# 3 31.3628 41.6274 81.6277 0.0000 0.0000 0.0000
# 4 0.0000 0.0000 0.0000 21.4311 0.0000 0.0000
# 5 0.0000 0.0000 0.0000 0.0000 9.3864 0.0000
# 6 0.0000 0.0000 0.0000 0.0000 0.0000 10.7789
#
#
#
# Elastic Compliance Matrix: (Units=1/GPa)
#
#
# Indices 1 2 3 4 5 6 
#
# 1 0.013335 -0.001645 -0.004285 0.000000 0.000000 0.000000
# 2 -0.001645 0.013186 -0.006092 0.000000 0.000000 0.000000
# 3 -0.004285 -0.006092 0.017004 0.000000 0.000000 0.000000
# 4 0.000000 0.000000 0.000000 0.046661 0.000000 0.000000
# 5 0.000000 0.000000 0.000000 0.000000 0.106537 0.000000
# 6 0.000000 0.000000 0.000000 0.000000 0.000000 0.092774
#
#
# Mechanical properties :
#
#
# Convention : Reuss Voigt Hill
#
# Bulk Modulus (GPa) = 51.33174 51.67312 51.50243
# Shear Modulus (GPa) = 15.62330 19.62643 17.62487
#
# Velocity S-wave (km/s) = 2.92659 3.28017 3.10841
# Velocity P-wave (km/s) = 6.28974 6.53254 6.41229
#
# Compressibility (1/GPa) = 0.01948113
#
# Stress axis : x y z
#
# Youngs Moduli (GPa) = 74.98851 75.83949 58.80961
#
# Poissons Ratio (x) = 0.12473 0.25200
# Poissons Ratio (y) = 0.12333 0.35829
# Poissons Ratio (z) = 0.32132 0.46204
#
# Static dielectric constant tensor:
#      x y z
#    x 1.623160 0.000000 0.000000 
#    y 0.000000 1.649550 0.000000 
#    z 0.000000 0.000000 1.652900 
# 
# From -- ./inp_files/17769.got.cif
#   From: 2010.05.17/outbox.cif.g08.bks.cpg/sg57_9_cif.got.tgz:17769.got - 2010.06.03 13:58:18.
