data_PCOD9437899
_publ_section_title
;
Structure prediction by ZEFSAII (Michael W. Deem and Ramdas Pophale) SiO2 
 PCOD9437899
Probable space group: P B C M
;
_chemical_formula_sum "Si O2"
_cell_formula_units_Z 40
_cell_length_a 7.069369
_cell_length_b 17.500095
_cell_length_c 14.934178
_cell_angle_alpha 90.000000
_cell_angle_beta 90.000000
_cell_angle_gamma 90.000000
_cell_volume 1847.576292
_symmetry_space_group_name_H-M "P B C M"
_symmetry_group_IT_number 57
_symmetry_cell_setting 'orthorhombic'
loop_
_space_group_symop_operation_xyz
x,y,z
-x,-y,1/2+z
x,1/2-y,-z
-x,1/2+y,1/2-z
-x,-y,-z
x,y,1/2-z
-x,1/2+y,z
x,1/2-y,1/2+z
loop_
_atom_site_type_symbol
_atom_site_label
_atom_site_fract_x
_atom_site_fract_y
_atom_site_fract_z
Si Si1 0.746554 0.004078 0.250000
Si Si2 0.163746 0.314964 0.563554
Si Si3 0.762200 0.958066 0.056205
Si Si4 0.969207 0.629392 0.250000
Si Si5 0.324142 0.906463 0.063668
Si Si6 0.539650 0.250000 0.000000
Si Si7 0.293773 0.521177 0.750000
O O1 0.825165 0.090237 0.250000
O O2 0.518311 0.000352 0.250000
O O3 0.820847 0.964479 0.159357
O O4 0.078415 0.250000 0.500000
O O5 0.154326 0.393280 0.507730
O O6 0.386988 0.289161 0.568694
O O7 0.072353 0.324239 0.659885
O O8 0.542000 0.934438 0.060785
O O9 0.776688 0.040359 0.009562
O O10 0.824897 0.556881 0.250000
O O11 0.337528 0.817447 0.041950
O O12 0.254426 0.929758 0.161451
#
# Coordination Sequence:
#
# PCOD9437899 Si02
#       7
#     4   8   8   4   8   4   4
#     4  10  24  33  61  90 114 156 206 252 305 359
#     4   9  20  35  59  88 121 164 202 253 311 364
#     4   9  17  35  55  86 120 157 205 252 302 363
#     4  12  22  40  62  94 115 159 216 248 302 377
#     4   9  16  32  59  86 122 156 206 251 304 367
#     4   8  18  32  54  94 120 166 202 246 318 364
#     4  10  20  37  63  92 119 159 204 264 297 364
#
# _framework density 21.649986999999999
#
# number of rings (size 3 to 8) (size 9 to 14) (size 15 to 20)
#    0.600    2.000    2.000    0.000    2.800    2.400 
#    0.000    1.000    2.200    3.600    0.000    0.000 
#    0.000    0.000    0.000    0.000    0.000    0.000 
#
# Total GULP energy -223292.963272 kJ/mol
# GULP energy per Si atom -5582.324082 kJ/mol
# Density = 2.160071 g / cm^3
# Si number density = 21.649987 Si / 1000 Ang^3
#
#
#
# Elastic Constant Matrix: (Units=GPa)
#
#
# Indices 1 2 3 4 5 6 
#
# 1 79.5069 38.3444 22.2000 0.0000 0.0000 0.0000
# 2 38.3444 143.7622 82.1899 0.0000 0.0000 0.0000
# 3 22.2000 82.1899 201.1842 0.0000 0.0000 0.0000
# 4 0.0000 0.0000 0.0000 33.7399 0.0000 0.0000
# 5 0.0000 0.0000 0.0000 0.0000 -35.8720 0.0000
# 6 0.0000 0.0000 0.0000 0.0000 0.0000 -24.2124
#
#
#
# Elastic Compliance Matrix: (Units=1/GPa)
#
#
# Indices 1 2 3 4 5 6 
#
# 1 0.014434 -0.003835 -0.000026 0.000000 0.000000 0.000000
# 2 -0.003835 0.010095 -0.003701 0.000000 0.000000 0.000000
# 3 -0.000026 -0.003701 0.006485 0.000000 0.000000 0.000000
# 4 0.000000 0.000000 0.000000 0.029639 0.000000 0.000000
# 5 0.000000 0.000000 0.000000 0.000000 -0.027877 0.000000
# 6 0.000000 0.000000 0.000000 0.000000 0.000000 -0.041301
#
#
# Mechanical properties :
#
#
# Convention : Reuss Voigt Hill
#
# Bulk Modulus (GPa) = 62.93055 78.88020 70.90538
# Shear Modulus (GPa) = 420.33792 13.51238 216.92515
#
# Velocity S-wave (km/s) = 13.94894 2.50097 10.02068
# Velocity P-wave (km/s) = 16.98709 6.69725 12.91151
#
# Compressibility (1/GPa) = 0.01589053
#
# Stress axis : x y z
#
# Youngs Moduli (GPa) = 69.27912 99.06314 154.19456
#
# Poissons Ratio (x) = 0.37991 0.00402
# Poissons Ratio (y) = 0.26569 0.57064
# Poissons Ratio (z) = 0.00180 0.36661
#
# Static dielectric constant tensor:
#      x y z
#    x 1.848920 0.000000 0.000000 
#    y 0.000000 1.770580 0.000000 
#    z 0.000000 0.000000 1.761460 
# 
# From -- ./inp_files/16013.got.cif
#   From: 2010.05.17/outbox.cif.g08.bks.cpg/sg57_9_cif.got.tgz:16013.got - 2010.06.03 13:58:18.
