data_PCOD9437002
_publ_section_title
;
Structure prediction by ZEFSAII (Michael W. Deem and Ramdas Pophale) SiO2 
 PCOD9437002
Probable space group: P B C M
;
_chemical_formula_sum "Si O2"
_cell_formula_units_Z 56
_cell_length_a 13.909239
_cell_length_b 14.141926
_cell_length_c 14.734308
_cell_angle_alpha 90.000000
_cell_angle_beta 90.000000
_cell_angle_gamma 90.000000
_cell_volume 2898.288902
_symmetry_space_group_name_H-M "P B C M"
_symmetry_group_IT_number 57
_symmetry_cell_setting 'orthorhombic'
loop_
_space_group_symop_operation_xyz
x,y,z
-x,-y,1/2+z
x,1/2-y,-z
-x,1/2+y,1/2-z
-x,-y,-z
x,y,1/2-z
-x,1/2+y,z
x,1/2-y,1/2+z
loop_
_atom_site_type_symbol
_atom_site_label
_atom_site_fract_x
_atom_site_fract_y
_atom_site_fract_z
Si Si1 0.785276 0.033021 0.991739
Si Si2 0.813855 0.201835 0.647847
Si Si3 0.568810 0.090050 0.006233
Si Si4 0.403302 0.749365 0.642626
Si Si5 0.978079 0.769054 0.393495
Si Si6 0.935988 0.987948 0.146128
Si Si7 0.137672 0.403973 0.850422
O O1 0.816766 0.120386 0.927543
O O2 0.676620 0.051620 0.018854
O O3 0.793316 0.939910 0.928944
O O4 0.857377 0.022000 0.074921
O O5 0.808918 0.161422 0.750000
O O6 0.713858 0.256898 0.633655
O O7 0.914672 0.256442 0.641210
O O8 0.569281 0.155349 0.914913
O O9 0.550560 0.162071 0.089846
O O10 0.500000 0.000000 0.000000
O O11 0.425203 0.744132 0.750000
O O12 0.978549 0.750000 0.500000
O O13 0.958222 0.877527 0.370164
O O14 0.894079 0.704290 0.354232
O O15 0.905286 0.002466 0.250000
O O16 0.036708 0.041741 0.132948
O O17 0.173521 0.427858 0.750000
#
# Coordination Sequence:
#
# PCOD9437002 Si02
#       7
#     8   8   8   8   8   8   8
#     4  11  21  38  58  82 116 158 200 245 298 356
#     4  10  20  34  57  88 120 153 192 251 305 347
#     4  10  23  42  66  94 124 157 201 259 315 366
#     4   9  21  40  65  96 124 152 197 254 315 372
#     4  12  22  34  54  80 123 164 202 244 291 345
#     4  11  23  38  53  82 122 157 199 244 289 352
#     4  11  22  35  55  83 117 159 200 236 291 359
#
# _framework density 19.321745
#
# number of rings (size 3 to 8) (size 9 to 14) (size 15 to 20)
#    0.000    1.429    2.857    3.000    6.000    1.714 
#    0.000    2.857    0.000    0.000    0.000    0.000 
#    0.000    0.000    0.000    0.000    0.000    0.000 
#
# Total GULP energy -312942.080573 kJ/mol
# GULP energy per Si atom -5588.251439 kJ/mol
# Density = 1.927777 g / cm^3
# Si number density = 19.321745 Si / 1000 Ang^3
#
#
#
# Elastic Constant Matrix: (Units=GPa)
#
#
# Indices 1 2 3 4 5 6 
#
# 1 33.4320 25.9634 38.2250 0.0000 0.0000 0.0000
# 2 25.9634 91.4531 35.0803 0.0000 0.0000 0.0000
# 3 38.2250 35.0803 141.0915 0.0000 0.0000 0.0000
# 4 0.0000 0.0000 0.0000 13.0917 0.0000 0.0000
# 5 0.0000 0.0000 0.0000 0.0000 13.4358 0.0000
# 6 0.0000 0.0000 0.0000 0.0000 0.0000 32.8179
#
#
#
# Elastic Compliance Matrix: (Units=1/GPa)
#
#
# Indices 1 2 3 4 5 6 
#
# 1 0.050502 -0.010047 -0.011184 0.000000 0.000000 0.000000
# 2 -0.010047 0.014086 -0.000780 0.000000 0.000000 0.000000
# 3 -0.011184 -0.000780 0.010312 0.000000 0.000000 0.000000
# 4 0.000000 0.000000 0.000000 0.076384 0.000000 0.000000
# 5 0.000000 0.000000 0.000000 0.000000 0.074428 0.000000
# 6 0.000000 0.000000 0.000000 0.000000 0.000000 0.030471
#
#
# Mechanical properties :
#
#
# Convention : Reuss Voigt Hill
#
# Bulk Modulus (GPa) = 32.38722 51.61266 41.99994
# Shear Modulus (GPa) = 16.10316 22.98295 19.54306
#
# Velocity S-wave (km/s) = 2.89004 3.45263 3.18379
# Velocity P-wave (km/s) = 5.28534 6.53180 5.94135
#
# Compressibility (1/GPa) = 0.03087638
#
# Stress axis : x y z
#
# Youngs Moduli (GPa) = 19.80137 70.99103 96.97801
#
# Poissons Ratio (x) = 0.71327 1.08460
# Poissons Ratio (y) = 0.19895 0.07567
# Poissons Ratio (z) = 0.22146 0.05539
#
# Static dielectric constant tensor:
#      x y z
#    x 1.644730 0.000000 0.000000 
#    y 0.000000 1.708700 0.000000 
#    z 0.000000 0.000000 1.710820 
# 
# From -- ./inp_files/17752.got.cif
#   From: 2010.05.17/outbox.cif.g08.bks.cpg/sg57_9_cif.got.tgz:17752.got - 2010.06.03 13:58:18.
