data_PCOD9437598
_publ_section_title
;
Structure prediction by ZEFSAII (Michael W. Deem and Ramdas Pophale) SiO2 
 PCOD9437598
Probable space group: P B C M
;
_chemical_formula_sum "Si O2"
_cell_formula_units_Z 40
_cell_length_a 23.594248
_cell_length_b 9.503844
_cell_length_c 9.725115
_cell_angle_alpha 90.000000
_cell_angle_beta 90.000000
_cell_angle_gamma 90.000000
_cell_volume 2180.721396
_symmetry_space_group_name_H-M "P B C M"
_symmetry_group_IT_number 57
_symmetry_cell_setting 'orthorhombic'
loop_
_space_group_symop_operation_xyz
x,y,z
-x,-y,1/2+z
x,1/2-y,-z
-x,1/2+y,1/2-z
-x,-y,-z
x,y,1/2-z
-x,1/2+y,z
x,1/2-y,1/2+z
loop_
_atom_site_type_symbol
_atom_site_label
_atom_site_fract_x
_atom_site_fract_y
_atom_site_fract_z
Si Si1 0.631644 0.411023 0.523739
Si Si2 0.171542 0.609414 0.088692
Si Si3 0.570791 0.022427 0.750000
Si Si4 0.734206 0.612311 0.908302
Si Si5 0.038806 0.606102 0.085662
Si Si6 0.460281 0.656412 0.250000
O O1 0.652404 0.250000 0.500000
O O2 0.610299 0.478203 0.382654
O O3 0.680028 0.509251 0.584299
O O4 0.576681 0.394828 0.620440
O O5 0.183471 0.639505 0.250000
O O6 0.212598 0.483064 0.045203
O O7 0.105513 0.567522 0.078155
O O8 0.180838 0.750000 0.000000
O O9 0.540044 0.174821 0.750000
O O10 0.522813 0.905072 0.750000
O O11 0.743381 0.653996 0.750000
O O12 0.726652 0.750000 0.000000
O O13 0.024595 0.617179 0.250000
O O14 0.033355 0.750000 0.000000
O O15 0.000000 0.500000 0.000000
#
# Coordination Sequence:
#
# PCOD9437598 Si02
#       6
#     8   8   4   8   8   4
#     4  10  21  39  60  82 112 150 190 230 279 337
#     4   9  20  39  61  86 115 153 196 240 285 344
#     4  10  22  34  60  84 114 144 187 222 283 338
#     4  11  24  40  58  84 116 147 189 239 289 338
#     4  10  20  36  59  87 121 158 200 243 293 346
#     4  10  20  38  56  86 112 148 181 232 275 336
#
# _framework density 18.342555000000001
#
# number of rings (size 3 to 8) (size 9 to 14) (size 15 to 20)
#    0.000    2.000    1.000    1.800    1.400    4.000 
#    0.000    2.000    0.000    0.000    0.000    0.000 
#    0.000    0.000    0.000    0.000    0.000    0.000 
#
# Total GULP energy -223238.446646 kJ/mol
# GULP energy per Si atom -5580.961166 kJ/mol
# Density = 1.830081 g / cm^3
# Si number density = 18.342555 Si / 1000 Ang^3
#
#
#
# Elastic Constant Matrix: (Units=GPa)
#
#
# Indices 1 2 3 4 5 6 
#
# 1 58.6253 46.2437 19.3390 0.0000 0.0000 0.0000
# 2 46.2437 67.6598 21.0026 0.0000 0.0000 0.0000
# 3 19.3390 21.0026 85.7480 0.0000 0.0000 0.0000
# 4 0.0000 0.0000 0.0000 32.1210 0.0000 0.0000
# 5 0.0000 0.0000 0.0000 0.0000 23.0236 0.0000
# 6 0.0000 0.0000 0.0000 0.0000 0.0000 29.5601
#
#
#
# Elastic Compliance Matrix: (Units=1/GPa)
#
#
# Indices 1 2 3 4 5 6 
#
# 1 0.037446 -0.024862 -0.002356 0.000000 0.000000 0.000000
# 2 -0.024862 0.032503 -0.002354 0.000000 0.000000 0.000000
# 3 -0.002356 -0.002354 0.012770 0.000000 0.000000 0.000000
# 4 0.000000 0.000000 0.000000 0.031132 0.000000 0.000000
# 5 0.000000 0.000000 0.000000 0.000000 0.043434 0.000000
# 6 0.000000 0.000000 0.000000 0.000000 0.000000 0.033829
#
#
# Mechanical properties :
#
#
# Convention : Reuss Voigt Hill
#
# Bulk Modulus (GPa) = 42.41685 42.80043 42.60864
# Shear Modulus (GPa) = 19.37117 25.30411 22.33764
#
# Velocity S-wave (km/s) = 3.25326 3.71823 3.49349
# Velocity P-wave (km/s) = 6.10628 6.46671 6.28907
#
# Compressibility (1/GPa) = 0.02357554
#
# Stress axis : x y z
#
# Youngs Moduli (GPa) = 26.70535 30.76642 78.30902
#
# Poissons Ratio (x) = 0.76491 0.18447
# Poissons Ratio (y) = 0.66395 0.18433
# Poissons Ratio (z) = 0.06291 0.07242
#
# Static dielectric constant tensor:
#      x y z
#    x 1.607400 0.000000 0.000000 
#    y 0.000000 1.611680 0.000000 
#    z 0.000000 0.000000 1.623790 
# 
# From -- ./inp_files/8940.got.cif
#   From: 2010.05.17/outbox.cif.g08.bks.cpg/sg57_5_cif.got.tgz:8940.got - 2010.06.03 13:58:18.
