data_PCOD9437020
_publ_section_title
;
Structure prediction by ZEFSAII (Michael W. Deem and Ramdas Pophale) SiO2 
 PCOD9437020
Probable space group: P B C M
;
_chemical_formula_sum "Si O2"
_cell_formula_units_Z 56
_cell_length_a 8.929155
_cell_length_b 22.625521
_cell_length_c 14.167103
_cell_angle_alpha 90.000000
_cell_angle_beta 90.000000
_cell_angle_gamma 90.000000
_cell_volume 2862.134257
_symmetry_space_group_name_H-M "P B C M"
_symmetry_group_IT_number 57
_symmetry_cell_setting 'orthorhombic'
loop_
_space_group_symop_operation_xyz
x,y,z
-x,-y,1/2+z
x,1/2-y,-z
-x,1/2+y,1/2-z
-x,-y,-z
x,y,1/2-z
-x,1/2+y,z
x,1/2-y,1/2+z
loop_
_atom_site_type_symbol
_atom_site_label
_atom_site_fract_x
_atom_site_fract_y
_atom_site_fract_z
Si Si1 0.127369 0.601849 0.138595
Si Si2 0.326631 0.710835 0.362751
Si Si3 0.619104 0.684512 0.014319
Si Si4 0.651250 0.029926 0.637011
Si Si5 0.382321 0.841097 0.362686
Si Si6 0.825251 0.574642 0.033554
Si Si7 0.698861 0.517187 0.859499
O O1 0.082060 0.603657 0.250000
O O2 0.197768 0.664795 0.111931
O O3 0.253167 0.551083 0.130968
O O4 0.989894 0.583628 0.073438
O O5 0.347697 0.706339 0.250000
O O6 0.479809 0.692544 0.414185
O O7 0.298224 0.779820 0.385390
O O8 0.732736 0.634944 0.047894
O O9 0.685762 0.750000 0.000000
O O10 0.539529 0.663896 0.917310
O O11 0.665394 0.023379 0.750000
O O12 0.694275 0.097150 0.610117
O O13 0.474968 0.023822 0.612859
O O14 0.746065 0.979606 0.587493
O O15 0.406430 0.843276 0.250000
O O16 0.806828 0.556043 0.924643
O O17 0.712475 0.533958 0.750000
#
# Coordination Sequence:
#
# PCOD9437020 Si02
#       7
#     8   8   8   8   8   8   8
#     4  10  22  38  56  82 115 153 194 231 279 342
#     4   9  19  37  60  81 111 153 193 235 284 341
#     4  10  21  36  59  88 112 143 192 241 288 338
#     4  10  20  34  59  91 118 146 191 244 290 341
#     4   9  18  35  58  86 115 146 188 237 286 337
#     4  12  22  35  59  84 120 150 189 238 297 334
#     4  10  21  37  57  82 115 155 193 231 284 349
#
# _framework density 19.565819000000001
#
# number of rings (size 3 to 8) (size 9 to 14) (size 15 to 20)
#    0.000    2.000    1.429    2.143    2.000    2.286 
#    0.000    2.143    0.000    0.000    0.000    0.000 
#    0.000    0.000    0.000    0.000    0.000    0.000 
#
# Total GULP energy -312778.909555 kJ/mol
# GULP energy per Si atom -5585.337671 kJ/mol
# Density = 1.952129 g / cm^3
# Si number density = 19.565819 Si / 1000 Ang^3
#
#
#
# Elastic Constant Matrix: (Units=GPa)
#
#
# Indices 1 2 3 4 5 6 
#
# 1 64.2698 58.1319 29.1226 0.0000 0.0000 0.0000
# 2 58.1319 160.0465 40.0836 0.0000 0.0000 0.0000
# 3 29.1226 40.0836 61.7728 0.0000 0.0000 0.0000
# 4 0.0000 0.0000 0.0000 29.4777 0.0000 0.0000
# 5 0.0000 0.0000 0.0000 0.0000 20.2944 0.0000
# 6 0.0000 0.0000 0.0000 0.0000 0.0000 20.7409
#
#
#
# Elastic Compliance Matrix: (Units=1/GPa)
#
#
# Indices 1 2 3 4 5 6 
#
# 1 0.025605 -0.007495 -0.007208 0.000000 0.000000 0.000000
# 2 -0.007495 0.009654 -0.002731 0.000000 0.000000 0.000000
# 3 -0.007208 -0.002731 0.021359 0.000000 0.000000 0.000000
# 4 0.000000 0.000000 0.000000 0.033924 0.000000 0.000000
# 5 0.000000 0.000000 0.000000 0.000000 0.049275 0.000000
# 6 0.000000 0.000000 0.000000 0.000000 0.000000 0.048214
#
#
# Mechanical properties :
#
#
# Convention : Reuss Voigt Hill
#
# Bulk Modulus (GPa) = 45.97730 60.08502 53.03116
# Shear Modulus (GPa) = 21.72514 24.68603 23.20558
#
# Velocity S-wave (km/s) = 3.33582 3.55588 3.44761
# Velocity P-wave (km/s) = 6.19571 6.90181 6.55827
#
# Compressibility (1/GPa) = 0.02174986
#
# Stress axis : x y z
#
# Youngs Moduli (GPa) = 39.05553 103.57873 46.81920
#
# Poissons Ratio (x) = 0.77631 0.33747
# Poissons Ratio (y) = 0.29272 0.12788
# Poissons Ratio (z) = 0.28151 0.28290
#
# Static dielectric constant tensor:
#      x y z
#    x 1.634890 0.000000 0.000000 
#    y 0.000000 1.710640 0.000000 
#    z 0.000000 0.000000 1.726430 
# 
# From -- ./inp_files/16724.got.cif
#   From: 2010.05.17/outbox.cif.g08.bks.cpg/sg57_9_cif.got.tgz:16724.got - 2010.06.03 13:58:18.
