data_PCOD9437909
_publ_section_title
;
Structure prediction by ZEFSAII (Michael W. Deem and Ramdas Pophale) SiO2 
 PCOD9437909
Probable space group: P B C M
;
_chemical_formula_sum "Si O2"
_cell_formula_units_Z 64
_cell_length_a 24.068333
_cell_length_b 15.364554
_cell_length_c 8.872755
_cell_angle_alpha 90.000000
_cell_angle_beta 90.000000
_cell_angle_gamma 90.000000
_cell_volume 3281.137719
_symmetry_space_group_name_H-M "P B C M"
_symmetry_group_IT_number 57
_symmetry_cell_setting 'orthorhombic'
loop_
_space_group_symop_operation_xyz
x,y,z
-x,-y,1/2+z
x,1/2-y,-z
-x,1/2+y,1/2-z
-x,-y,-z
x,y,1/2-z
-x,1/2+y,z
x,1/2-y,1/2+z
loop_
_atom_site_type_symbol
_atom_site_label
_atom_site_fract_x
_atom_site_fract_y
_atom_site_fract_z
Si Si1 0.489907 0.848780 0.931533
Si Si2 0.889763 0.585902 0.078097
Si Si3 0.420509 0.003919 0.069877
Si Si4 0.876834 0.118551 0.576785
Si Si5 0.215152 0.158397 0.927744
Si Si6 0.709458 0.991109 0.929625
Si Si7 0.237930 0.838244 0.928577
Si Si8 0.004928 0.659631 0.070214
O O1 0.487224 0.840617 0.750000
O O2 0.543858 0.909460 0.971438
O O3 0.489577 0.750000 0.000000
O O4 0.441773 0.915282 0.989596
O O5 0.883310 0.619609 0.250000
O O6 0.872206 0.485694 0.077143
O O7 0.954822 0.592916 0.039494
O O8 0.848663 0.637066 0.970045
O O9 0.428083 0.991339 0.250000
O O10 0.355821 0.019804 0.039501
O O11 0.872773 0.149745 0.750000
O O12 0.826422 0.153873 0.478495
O O13 0.936715 0.140244 0.508506
O O14 0.222065 0.159475 0.750000
O O15 0.230113 0.250000 0.000000
O O16 0.253674 0.085008 0.000579
O O17 0.718082 0.993487 0.750000
O O18 0.730512 0.080356 0.001389
O O19 0.242174 0.837488 0.750000
O O20 0.260684 0.750000 0.000000
O O21 0.012997 0.665355 0.250000
O O22 0.984454 0.750000 0.000000
#
# Coordination Sequence:
#
# PCOD9437909 Si02
#       8
#     8   8   8   8   8   8   8   8
#     4  10  20  37  63  95 131 170 211 255 304 360
#     4  10  22  40  62  86 116 153 197 250 312 373
#     4   9  21  40  63  92 127 169 211 257 308 359
#     4  11  22  39  62  86 116 154 195 250 312 373
#     4  12  25  41  64  91 123 164 209 257 312 373
#     4  11  23  43  66  92 128 164 209 263 312 367
#     4  12  25  42  64  91 121 162 209 256 314 374
#     4  11  23  38  56  83 115 150 195 248 305 373
#
# _framework density 19.50543
#
# number of rings (size 3 to 8) (size 9 to 14) (size 15 to 20)
#    0.000    1.250    1.250    4.875    0.000    5.000 
#    0.000    1.250    0.000    0.000    0.000    0.000 
#    0.000    0.000    0.000    0.000    0.000    0.000 
#
# Total GULP energy -357685.997271 kJ/mol
# GULP energy per Si atom -5588.843707 kJ/mol
# Density = 1.946103 g / cm^3
# Si number density = 19.505430 Si / 1000 Ang^3
#
#
#
# Elastic Constant Matrix: (Units=GPa)
#
#
# Indices 1 2 3 4 5 6 
#
# 1 78.3478 22.0645 48.5030 0.0000 0.0000 0.0000
# 2 22.0645 112.8465 43.0253 0.0000 0.0000 0.0000
# 3 48.5030 43.0253 115.0459 0.0000 0.0000 0.0000
# 4 0.0000 0.0000 0.0000 27.7850 0.0000 0.0000
# 5 0.0000 0.0000 0.0000 0.0000 28.0032 0.0000
# 6 0.0000 0.0000 0.0000 0.0000 0.0000 -139.0450
#
#
#
# Elastic Compliance Matrix: (Units=1/GPa)
#
#
# Indices 1 2 3 4 5 6 
#
# 1 0.017319 -0.000703 -0.007039 0.000000 0.000000 0.000000
# 2 -0.000703 0.010364 -0.003580 0.000000 0.000000 0.000000
# 3 -0.007039 -0.003580 0.012999 0.000000 0.000000 0.000000
# 4 0.000000 0.000000 0.000000 0.035991 0.000000 0.000000
# 5 0.000000 0.000000 0.000000 0.000000 0.035710 0.000000
# 6 0.000000 0.000000 0.000000 0.000000 0.000000 -0.007192
#
#
# Mechanical properties :
#
#
# Convention : Reuss Voigt Hill
#
# Bulk Modulus (GPa) = 55.43542 59.26954 57.35248
# Shear Modulus (GPa) = 37.35645 -3.80819 16.77413
#
# Velocity S-wave (km/s) = 4.38103 -1.39879 2.93571
# Velocity P-wave (km/s) = 7.35346 5.27668 6.39987
#
# Compressibility (1/GPa) = 0.01803901
#
# Stress axis : x y z
#
# Youngs Moduli (GPa) = 57.73979 96.48969 76.93190
#
# Poissons Ratio (x) = 0.06779 0.54152
# Poissons Ratio (y) = 0.04057 0.27539
# Poissons Ratio (z) = 0.40643 0.34540
#
# Static dielectric constant tensor:
#      x y z
#    x 1.682610 0.000000 0.000000 
#    y 0.000000 1.678280 0.000000 
#    z 0.000000 0.000000 1.656040 
# 
# From -- ./inp_files/9394.got.cif
#   From: 2010.05.17/outbox.cif.g08.bks.cpg/sg57_5_cif.got.tgz:9394.got - 2010.06.03 13:58:18.
