data_PCOD9437957
_publ_section_title
;
Structure prediction by ZEFSAII (Michael W. Deem and Ramdas Pophale) SiO2 
 PCOD9437957
Probable space group: P B C M
;
_chemical_formula_sum "Si O2"
_cell_formula_units_Z 48
_cell_length_a 15.398946
_cell_length_b 19.730173
_cell_length_c 8.621503
_cell_angle_alpha 90.000000
_cell_angle_beta 90.000000
_cell_angle_gamma 90.000000
_cell_volume 2619.418395
_symmetry_space_group_name_H-M "P B C M"
_symmetry_group_IT_number 57
_symmetry_cell_setting 'orthorhombic'
loop_
_space_group_symop_operation_xyz
x,y,z
-x,-y,1/2+z
x,1/2-y,-z
-x,1/2+y,1/2-z
-x,-y,-z
x,y,1/2-z
-x,1/2+y,z
x,1/2-y,1/2+z
loop_
_atom_site_type_symbol
_atom_site_label
_atom_site_fract_x
_atom_site_fract_y
_atom_site_fract_z
Si Si1 0.461706 0.429688 0.937383
Si Si2 0.778087 0.412041 0.563860
Si Si3 0.608370 0.325769 0.937031
Si Si4 0.737348 0.939541 0.937505
Si Si5 0.065881 0.824694 0.064881
Si Si6 0.874427 0.675679 0.436436
O O1 0.464477 0.431939 0.750000
O O2 0.523954 0.368375 0.988356
O O3 0.361475 0.422877 0.985055
O O4 0.500000 0.500000 0.000000
O O5 0.783723 0.410529 0.750000
O O6 0.694204 0.367544 0.515791
O O7 0.764422 0.488516 0.507540
O O8 0.863490 0.378132 0.492778
O O9 0.607851 0.323133 0.750000
O O10 0.609582 0.250000 0.000000
O O11 0.738996 0.944917 0.750000
O O12 0.804169 0.880527 0.982414
O O13 0.063999 0.821865 0.250000
O O14 0.088814 0.750000 0.000000
O O15 0.969872 0.841077 0.001679
O O16 0.851128 0.750000 0.500000
O O17 0.879174 0.678626 0.250000
#
# Coordination Sequence:
#
# PCOD9437957 Si02
#       6
#     8   8   8   8   8   8
#     4  10  20  38  59  83 114 151 192 235 285 341
#     4  11  22  37  58  86 118 153 194 239 288 348
#     4  10  22  37  56  85 117 150 191 235 283 339
#     4  10  22  38  60  86 116 152 192 239 292 346
#     4  11  22  38  60  85 115 154 194 238 291 344
#     4  10  21  39  60  85 115 151 193 240 290 344
#
# _framework density 18.324677999999999
#
# number of rings (size 3 to 8) (size 9 to 14) (size 15 to 20)
#    0.000    1.667    1.667    4.000    0.000    6.000 
#    0.000    0.000    0.000    0.000    0.000    0.000 
#    0.000    0.000    0.000    0.000    0.000    0.000 
#
# Total GULP energy -268214.695984 kJ/mol
# GULP energy per Si atom -5587.806166 kJ/mol
# Density = 1.828297 g / cm^3
# Si number density = 18.324678 Si / 1000 Ang^3
#
#
#
# Elastic Constant Matrix: (Units=GPa)
#
#
# Indices 1 2 3 4 5 6 
#
# 1 166.6418 134.8779 53.5713 0.0000 0.0000 0.0000
# 2 134.8779 181.9385 50.5141 0.0000 0.0000 0.0000
# 3 53.5713 50.5141 50.0489 0.0000 0.0000 0.0000
# 4 0.0000 0.0000 0.0000 36.0452 0.0000 0.0000
# 5 0.0000 0.0000 0.0000 0.0000 1.0963 0.0000
# 6 0.0000 0.0000 0.0000 0.0000 0.0000 41.5793
#
#
#
# Elastic Compliance Matrix: (Units=1/GPa)
#
#
# Indices 1 2 3 4 5 6 
#
# 1 0.016825 -0.010382 -0.007530 0.000000 0.000000 0.000000
# 2 -0.010382 0.014043 -0.003060 0.000000 0.000000 0.000000
# 3 -0.007530 -0.003060 0.031130 0.000000 0.000000 0.000000
# 4 0.000000 0.000000 0.000000 0.027743 0.000000 0.000000
# 5 0.000000 0.000000 0.000000 0.000000 0.912163 0.000000
# 6 0.000000 0.000000 0.000000 0.000000 0.000000 0.024050
#
#
# Mechanical properties :
#
#
# Convention : Reuss Voigt Hill
#
# Bulk Modulus (GPa) = 49.87180 97.39510 73.63345
# Shear Modulus (GPa) = 4.65296 26.38855 15.52076
#
# Velocity S-wave (km/s) = 1.59521 3.79892 2.91346
# Velocity P-wave (km/s) = 5.53784 8.51513 7.18245
#
# Compressibility (1/GPa) = 0.02005141
#
# Stress axis : x y z
#
# Youngs Moduli (GPa) = 59.43534 71.21076 32.12371
#
# Poissons Ratio (x) = 0.73933 0.24190
# Poissons Ratio (y) = 0.61707 0.09831
# Poissons Ratio (z) = 0.44757 0.21793
#
# Static dielectric constant tensor:
#      x y z
#    x 1.623300 0.000000 0.000000 
#    y 0.000000 1.589140 0.000000 
#    z 0.000000 0.000000 1.621640 
# 
# From -- ./inp_files/4604.got.cif
#   From: 2010.05.17/outbox.cif.g08.bks.cpg/sg57_3_cif.got.tgz:4604.got - 2010.06.03 13:58:18.
