data_PCOD9437667
_publ_section_title
;
Structure prediction by ZEFSAII (Michael W. Deem and Ramdas Pophale) SiO2 
 PCOD9437667
Probable space group: P B C M
;
_chemical_formula_sum "Si O2"
_cell_formula_units_Z 48
_cell_length_a 19.197289
_cell_length_b 15.138475
_cell_length_c 8.827770
_cell_angle_alpha 90.000000
_cell_angle_beta 90.000000
_cell_angle_gamma 90.000000
_cell_volume 2565.506033
_symmetry_space_group_name_H-M "P B C M"
_symmetry_group_IT_number 57
_symmetry_cell_setting 'orthorhombic'
loop_
_space_group_symop_operation_xyz
x,y,z
-x,-y,1/2+z
x,1/2-y,-z
-x,1/2+y,1/2-z
-x,-y,-z
x,y,1/2-z
-x,1/2+y,z
x,1/2-y,1/2+z
loop_
_atom_site_type_symbol
_atom_site_label
_atom_site_fract_x
_atom_site_fract_y
_atom_site_fract_z
Si Si1 0.501008 0.901936 0.068987
Si Si2 0.641691 0.162864 0.072351
Si Si3 0.264856 0.489775 0.071802
Si Si4 0.355053 0.161004 0.071273
Si Si5 0.001307 0.849267 0.068169
Si Si6 0.897373 0.492956 0.568094
O O1 0.503395 0.905558 0.250000
O O2 0.430702 0.855811 0.012858
O O3 0.570207 0.856133 0.006101
O O4 0.500000 0.000000 0.000000
O O5 0.627135 0.175150 0.250000
O O6 0.693113 0.080701 0.055491
O O7 0.673885 0.250000 0.000000
O O8 0.269453 0.463634 0.250000
O O9 0.184105 0.500608 0.032101
O O10 0.304330 0.418585 0.971132
O O11 0.364422 0.168776 0.250000
O O12 0.325278 0.250000 0.000000
O O13 0.003634 0.841471 0.250000
O O14 0.998183 0.750000 0.000000
O O15 0.066262 0.908646 0.010022
O O16 0.936674 0.915086 0.027231
O O17 0.904805 0.482232 0.750000
#
# Coordination Sequence:
#
# PCOD9437667 Si02
#       6
#     8   8   8   8   8   8
#     4  12  23  39  62  87 116 151 198 250 304 357
#     4  11  23  39  60  85 117 155 198 247 300 355
#     4  10  22  41  62  86 121 158 196 245 297 354
#     4  12  25  41  62  87 118 157 201 248 300 356
#     4  10  20  36  61  90 121 156 197 241 290 346
#     4   9  20  39  61  88 121 157 196 242 293 346
#
# _framework density 18.709758999999998
#
# number of rings (size 3 to 8) (size 9 to 14) (size 15 to 20)
#    0.000    1.333    1.667    4.500    0.000    3.333 
#    0.000    3.333    0.000    0.000    0.000    0.000 
#    0.000    0.000    0.000    0.000    0.000    0.000 
#
# Total GULP energy -268256.521335 kJ/mol
# GULP energy per Si atom -5588.677528 kJ/mol
# Density = 1.866717 g / cm^3
# Si number density = 18.709759 Si / 1000 Ang^3
#
#
#
# Elastic Constant Matrix: (Units=GPa)
#
#
# Indices 1 2 3 4 5 6 
#
# 1 111.2589 34.4608 58.7832 0.0000 0.0000 0.0000
# 2 34.4608 132.6122 73.9071 0.0000 0.0000 0.0000
# 3 58.7832 73.9071 137.3622 0.0000 0.0000 0.0000
# 4 0.0000 0.0000 0.0000 24.6361 0.0000 0.0000
# 5 0.0000 0.0000 0.0000 0.0000 32.8556 0.0000
# 6 0.0000 0.0000 0.0000 0.0000 0.0000 3.1158
#
#
#
# Elastic Compliance Matrix: (Units=1/GPa)
#
#
# Indices 1 2 3 4 5 6 
#
# 1 0.011626 -0.000355 -0.004784 0.000000 0.000000 0.000000
# 2 -0.000355 0.010781 -0.005649 0.000000 0.000000 0.000000
# 3 -0.004784 -0.005649 0.012367 0.000000 0.000000 0.000000
# 4 0.000000 0.000000 0.000000 0.040591 0.000000 0.000000
# 5 0.000000 0.000000 0.000000 0.000000 0.030436 0.000000
# 6 0.000000 0.000000 0.000000 0.000000 0.000000 0.320945
#
#
# Mechanical properties :
#
#
# Convention : Reuss Voigt Hill
#
# Bulk Modulus (GPa) = 75.77031 79.50395 77.63713
# Shear Modulus (GPa) = 11.04433 26.39365 18.71899
#
# Velocity S-wave (km/s) = 2.43224 3.75999 3.16649
# Velocity P-wave (km/s) = 6.96228 7.83808 7.41313
#
# Compressibility (1/GPa) = 0.01319778
#
# Stress axis : x y z
#
# Youngs Moduli (GPa) = 86.01662 92.75362 80.86134
#
# Poissons Ratio (x) = 0.03290 0.38686
# Poissons Ratio (y) = 0.03051 0.45679
# Poissons Ratio (z) = 0.41153 0.52397
#
# Static dielectric constant tensor:
#      x y z
#    x 1.632850 0.000000 0.000000 
#    y 0.000000 1.682650 0.000000 
#    z 0.000000 0.000000 1.629850 
# 
# From -- ./inp_files/6549.got.cif
#   From: 2010.05.17/outbox.cif.g08.bks.cpg/sg57_4_cif.got.tgz:6549.got - 2010.06.03 13:58:18.
