data_PCOD9437043
_publ_section_title
;
Structure prediction by ZEFSAII (Michael W. Deem and Ramdas Pophale) SiO2 
 PCOD9437043
Probable space group: P B C M
;
_chemical_formula_sum "Si O2"
_cell_formula_units_Z 48
_cell_length_a 32.013176
_cell_length_b 9.460076
_cell_length_c 8.508736
_cell_angle_alpha 90.000000
_cell_angle_beta 90.000000
_cell_angle_gamma 90.000000
_cell_volume 2576.845835
_symmetry_space_group_name_H-M "P B C M"
_symmetry_group_IT_number 57
_symmetry_cell_setting 'orthorhombic'
loop_
_space_group_symop_operation_xyz
x,y,z
-x,-y,1/2+z
x,1/2-y,-z
-x,1/2+y,1/2-z
-x,-y,-z
x,y,1/2-z
-x,1/2+y,z
x,1/2-y,1/2+z
loop_
_atom_site_type_symbol
_atom_site_label
_atom_site_fract_x
_atom_site_fract_y
_atom_site_fract_z
Si Si1 0.802538 0.090565 0.939628
Si Si2 0.291060 0.591509 0.939951
Si Si3 0.630695 0.909302 0.939842
Si Si4 0.039429 0.910886 0.561976
Si Si5 0.882165 0.910045 0.560689
Si Si6 0.538382 0.590397 0.438106
O O1 0.803176 0.095999 0.750000
O O2 0.755702 0.045952 0.989594
O O3 0.838560 0.982880 0.989952
O O4 0.810211 0.250000 0.000000
O O5 0.291699 0.591110 0.750000
O O6 0.329620 0.497627 0.996979
O O7 0.296589 0.750000 0.000000
O O8 0.631653 0.908436 0.750000
O O9 0.584594 0.964024 0.987469
O O10 0.633988 0.750000 0.000000
O O11 0.038396 0.750000 0.500000
O O12 0.038700 0.908103 0.750000
O O13 0.080594 0.992329 0.503128
O O14 0.000000 0.000000 0.500000
O O15 0.885780 0.750000 0.500000
O O16 0.883997 0.908726 0.750000
O O17 0.534882 0.750000 0.500000
O O18 0.500000 0.500000 0.500000
O O19 0.537141 0.591927 0.250000
#
# Coordination Sequence:
#
# PCOD9437043 Si02
#       6
#     8   8   8   8   8   8
#     4   9  19  35  56  79 108 143 181 223 270 320
#     4   9  18  34  53  77 106 138 176 220 265 317
#     4   9  19  34  52  74 103 135 172 214 262 316
#     4  12  25  43  65  90 119 153 190 232 279 329
#     4  11  23  39  58  85 117 151 189 231 276 327
#     4  10  20  35  53  75 102 136 174 218 267 321
#
# _framework density 18.627424000000001
#
# number of rings (size 3 to 8) (size 9 to 14) (size 15 to 20)
#    0.000    2.000    0.000    3.500    0.000    5.333 
#    0.000    1.667    0.000    0.000    0.000    0.000 
#    0.000    0.000    0.000    0.000    0.000    0.000 
#
# Total GULP energy -267965.680359 kJ/mol
# GULP energy per Si atom -5582.618341 kJ/mol
# Density = 1.858503 g / cm^3
# Si number density = 18.627424 Si / 1000 Ang^3
#
#
#
# Elastic Constant Matrix: (Units=GPa)
#
#
# Indices 1 2 3 4 5 6 
#
# 1 213.6135 119.4941 49.3780 0.0000 0.0000 0.0000
# 2 119.4941 128.3022 35.7065 0.0000 0.0000 0.0000
# 3 49.3780 35.7065 55.6047 0.0000 0.0000 0.0000
# 4 0.0000 0.0000 0.0000 35.0544 0.0000 0.0000
# 5 0.0000 0.0000 0.0000 0.0000 23.3032 0.0000
# 6 0.0000 0.0000 0.0000 0.0000 0.0000 43.2089
#
#
#
# Elastic Compliance Matrix: (Units=1/GPa)
#
#
# Indices 1 2 3 4 5 6 
#
# 1 0.010349 -0.008621 -0.003654 0.000000 0.000000 0.000000
# 2 -0.008621 0.016673 -0.003050 0.000000 0.000000 0.000000
# 3 -0.003654 -0.003050 0.023187 0.000000 0.000000 0.000000
# 4 0.000000 0.000000 0.000000 0.028527 0.000000 0.000000
# 5 0.000000 0.000000 0.000000 0.000000 0.042913 0.000000
# 6 0.000000 0.000000 0.000000 0.000000 0.000000 0.023143
#
#
# Mechanical properties :
#
#
# Convention : Reuss Voigt Hill
#
# Bulk Modulus (GPa) = 51.13011 89.63085 70.38048
# Shear Modulus (GPa) = 27.47836 33.17609 30.32722
#
# Velocity S-wave (km/s) = 3.84494 4.22481 4.03934
# Velocity P-wave (km/s) = 6.87167 8.48651 7.72142
#
# Compressibility (1/GPa) = 0.01955795
#
# Stress axis : x y z
#
# Youngs Moduli (GPa) = 96.63069 59.97878 43.12713
#
# Poissons Ratio (x) = 0.51710 0.15757
# Poissons Ratio (y) = 0.83310 0.13155
# Poissons Ratio (z) = 0.35305 0.18295
#
# Static dielectric constant tensor:
#      x y z
#    x 1.672620 0.000000 0.000000 
#    y 0.000000 1.590670 0.000000 
#    z 0.000000 0.000000 1.637150 
# 
# From -- ./inp_files/9915.got.cif
#   From: 2010.05.17/outbox.cif.g08.bks.cpg/sg57_5_cif.got.tgz:9915.got - 2010.06.03 13:58:18.
