data_PCOD9437485
_publ_section_title
;
Structure prediction by ZEFSAII (Michael W. Deem and Ramdas Pophale) SiO2 
 PCOD9437485
Probable space group: P B C M
;
_chemical_formula_sum "Si O2"
_cell_formula_units_Z 40
_cell_length_a 6.775766
_cell_length_b 18.705411
_cell_length_c 14.560152
_cell_angle_alpha 90.000000
_cell_angle_beta 90.000000
_cell_angle_gamma 90.000000
_cell_volume 1845.404448
_symmetry_space_group_name_H-M "P B C M"
_symmetry_group_IT_number 57
_symmetry_cell_setting 'orthorhombic'
loop_
_space_group_symop_operation_xyz
x,y,z
-x,-y,1/2+z
x,1/2-y,-z
-x,1/2+y,1/2-z
-x,-y,-z
x,y,1/2-z
-x,1/2+y,z
x,1/2-y,1/2+z
loop_
_atom_site_type_symbol
_atom_site_label
_atom_site_fract_x
_atom_site_fract_y
_atom_site_fract_z
Si Si1 0.394486 0.906530 0.455682
Si Si2 0.860977 0.286293 0.141965
Si Si3 0.073312 0.002299 0.395743
Si Si4 0.782244 0.877588 0.147621
Si Si5 0.789588 0.380984 0.646454
O O1 0.618733 0.896748 0.426651
O O2 0.345972 0.910666 0.563890
O O3 0.278059 0.836799 0.418229
O O4 0.295595 0.973585 0.401843
O O5 0.829354 0.302822 0.250000
O O6 0.086885 0.308730 0.122067
O O7 0.820685 0.202981 0.129675
O O8 0.940476 0.941631 0.348291
O O9 0.000564 0.078078 0.358969
O O10 0.000000 0.000000 0.500000
O O11 0.694850 0.868200 0.250000
O O12 0.711222 0.391698 0.750000
#
# Coordination Sequence:
#
# PCOD9437485 Si02
#       5
#     8   8   8   8   8
#     4  10  20  37  61  85 113 153 195 235 283 344
#     4   9  19  37  59  84 115 150 191 238 287 340
#     4   9  20  37  57  81 114 152 191 235 285 338
#     4  10  20  36  61  88 113 148 195 239 282 341
#     4  10  20  36  57  83 118 154 187 234 291 339
#
# _framework density 21.675464999999999
#
# number of rings (size 3 to 8) (size 9 to 14) (size 15 to 20)
#    0.000    2.400    0.000    1.800    0.000    5.600 
#    0.000   14.000    0.000   26.400    0.000    0.000 
#    0.000    0.000    0.000    0.000    0.000    0.000 
#
# Total GULP energy -223302.064526 kJ/mol
# GULP energy per Si atom -5582.551613 kJ/mol
# Density = 2.162613 g / cm^3
# Si number density = 21.675465 Si / 1000 Ang^3
#
#
#
# Elastic Constant Matrix: (Units=GPa)
#
#
# Indices 1 2 3 4 5 6 
#
# 1 82.4357 21.2797 48.5560 0.0000 0.0000 0.0000
# 2 21.2797 74.2364 25.9990 0.0000 0.0000 0.0000
# 3 48.5560 25.9990 115.2597 0.0000 0.0000 0.0000
# 4 0.0000 0.0000 0.0000 23.1519 0.0000 0.0000
# 5 0.0000 0.0000 0.0000 0.0000 24.3989 0.0000
# 6 0.0000 0.0000 0.0000 0.0000 0.0000 10.7570
#
#
#
# Elastic Compliance Matrix: (Units=1/GPa)
#
#
# Indices 1 2 3 4 5 6 
#
# 1 0.016551 -0.002500 -0.006408 0.000000 0.000000 0.000000
# 2 -0.002500 0.015003 -0.002331 0.000000 0.000000 0.000000
# 3 -0.006408 -0.002331 0.011902 0.000000 0.000000 0.000000
# 4 0.000000 0.000000 0.000000 0.043193 0.000000 0.000000
# 5 0.000000 0.000000 0.000000 0.000000 0.040985 0.000000
# 6 0.000000 0.000000 0.000000 0.000000 0.000000 0.092963
#
#
# Mechanical properties :
#
#
# Convention : Reuss Voigt Hill
#
# Bulk Modulus (GPa) = 47.67186 51.51123 49.59155
# Shear Modulus (GPa) = 19.99456 23.40138 21.69797
#
# Velocity S-wave (km/s) = 3.04048 3.28933 3.16735
# Velocity P-wave (km/s) = 5.86236 6.18406 6.02536
#
# Compressibility (1/GPa) = 0.02097674
#
# Stress axis : x y z
#
# Youngs Moduli (GPa) = 60.42047 66.65124 84.02208
#
# Poissons Ratio (x) = 0.16662 0.53845
# Poissons Ratio (y) = 0.15104 0.19587
# Poissons Ratio (z) = 0.38720 0.15538
#
# Static dielectric constant tensor:
#      x y z
#    x 1.781220 0.000000 0.000000 
#    y 0.000000 1.809570 0.000000 
#    z 0.000000 0.000000 1.869120 
# 
# From -- ./inp_files/20122.got.cif
#   From: 2010.05.17/outbox.cif.g08.bks.cpg/sg57_11_cif.got.tgz:20122.got - 2010.06.03 13:58:18.
