data_PCOD9437721
_publ_section_title
;
Structure prediction by ZEFSAII (Michael W. Deem and Ramdas Pophale) SiO2 
 PCOD9437721
Probable space group: P B C M
;
_chemical_formula_sum "Si O2"
_cell_formula_units_Z 64
_cell_length_a 15.114457
_cell_length_b 24.378726
_cell_length_c 8.592435
_cell_angle_alpha 90.000000
_cell_angle_beta 90.000000
_cell_angle_gamma 90.000000
_cell_volume 3166.064886
_symmetry_space_group_name_H-M "P B C M"
_symmetry_group_IT_number 57
_symmetry_cell_setting 'orthorhombic'
loop_
_space_group_symop_operation_xyz
x,y,z
-x,-y,1/2+z
x,1/2-y,-z
-x,1/2+y,1/2-z
-x,-y,-z
x,y,1/2-z
-x,1/2+y,z
x,1/2-y,1/2+z
loop_
_atom_site_type_symbol
_atom_site_label
_atom_site_fract_x
_atom_site_fract_y
_atom_site_fract_z
Si Si1 0.132000 0.895914 0.063201
Si Si2 0.553156 0.354973 0.061429
Si Si3 0.730864 0.305653 0.435460
Si Si4 0.012372 0.188657 0.065059
Si Si5 0.636380 0.811077 0.062767
Si Si6 0.789214 0.994004 0.438005
Si Si7 0.409327 0.525808 0.435572
Si Si8 0.182518 0.130262 0.938183
O O1 0.127067 0.898680 0.250000
O O2 0.216692 0.859421 0.014147
O O3 0.050824 0.859181 0.002886
O O4 0.149507 0.956707 0.999407
O O5 0.552519 0.361109 0.250000
O O6 0.628830 0.311678 0.018671
O O7 0.456342 0.336779 0.008943
O O8 0.583720 0.411442 0.986701
O O9 0.770866 0.250000 0.500000
O O10 0.735916 0.303457 0.250000
O O11 0.002422 0.190482 0.250000
O O12 0.994979 0.250000 0.000000
O O13 0.110311 0.168993 0.016880
O O14 0.632771 0.808724 0.250000
O O15 0.719834 0.848297 0.020680
O O16 0.647098 0.750000 0.000000
O O17 0.788876 0.996336 0.250000
O O18 0.686218 0.002161 0.489777
O O19 0.823625 0.933714 0.483434
O O20 0.500000 0.500000 0.500000
O O21 0.410695 0.519558 0.250000
O O22 0.172202 0.133849 0.750000
#
# Coordination Sequence:
#
# PCOD9437721 Si02
#       8
#     8   8   8   8   8   8   8   8
#     4  11  23  41  65  94 127 166 207 255 309 367
#     4  10  20  37  56  83 121 161 203 253 308 366
#     4  10  21  35  56  85 120 159 199 245 297 357
#     4  12  26  45  69  97 126 162 206 257 315 377
#     4  10  21  37  60  87 123 164 207 260 315 370
#     4  10  22  41  64  92 127 167 210 259 315 374
#     4  11  22  36  58  87 121 165 212 259 307 363
#     4  10  22  42  65  91 123 163 208 259 317 375
#
# _framework density 20.214368
#
# number of rings (size 3 to 8) (size 9 to 14) (size 15 to 20)
#    0.000    1.500    1.250    3.750    0.000    8.000 
#    0.000    1.250    0.000    0.000    0.000    0.000 
#    0.000    0.000    0.000    0.000    0.000    0.000 
#
# Total GULP energy -357532.030985 kJ/mol
# GULP energy per Si atom -5586.437984 kJ/mol
# Density = 2.016836 g / cm^3
# Si number density = 20.214368 Si / 1000 Ang^3
#
#
#
# Elastic Constant Matrix: (Units=GPa)
#
#
# Indices 1 2 3 4 5 6 
#
# 1 80.5505 21.2889 18.7277 0.0000 0.0000 0.0000
# 2 21.2889 67.2262 22.7303 0.0000 0.0000 0.0000
# 3 18.7277 22.7303 25.1001 0.0000 0.0000 0.0000
# 4 0.0000 0.0000 0.0000 35.7359 0.0000 0.0000
# 5 0.0000 0.0000 0.0000 0.0000 16.3131 0.0000
# 6 0.0000 0.0000 0.0000 0.0000 0.0000 29.8853
#
#
#
# Elastic Compliance Matrix: (Units=1/GPa)
#
#
# Indices 1 2 3 4 5 6 
#
# 1 0.015111 -0.001403 -0.010005 0.000000 0.000000 0.000000
# 2 -0.001403 0.021570 -0.018487 0.000000 0.000000 0.000000
# 3 -0.010005 -0.018487 0.064047 0.000000 0.000000 0.000000
# 4 0.000000 0.000000 0.000000 0.027983 0.000000 0.000000
# 5 0.000000 0.000000 0.000000 0.000000 0.061300 0.000000
# 6 0.000000 0.000000 0.000000 0.000000 0.000000 0.033461
#
#
# Mechanical properties :
#
#
# Convention : Reuss Voigt Hill
#
# Bulk Modulus (GPa) = 24.42632 33.15232 28.78932
# Shear Modulus (GPa) = 16.84024 23.72886 20.28455
#
# Velocity S-wave (km/s) = 2.88945 3.42988 3.17120
# Velocity P-wave (km/s) = 4.82097 5.66758 5.26133
#
# Compressibility (1/GPa) = 0.04093945
#
# Stress axis : x y z
#
# Youngs Moduli (GPa) = 66.17551 46.36045 15.61361
#
# Poissons Ratio (x) = 0.06503 0.15621
# Poissons Ratio (y) = 0.09282 0.28865
# Poissons Ratio (z) = 0.66206 0.85707
#
# Static dielectric constant tensor:
#      x y z
#    x 1.749620 0.000000 0.000000 
#    y 0.000000 1.811110 0.000000 
#    z 0.000000 0.000000 1.683570 
# 
# From -- ./inp_files/5724.got.cif
#   From: 2010.05.17/outbox.cif.g08.bks.cpg/sg57_3_cif.got.tgz:5724.got - 2010.06.03 13:58:18.
