data_PCOD9437761
_publ_section_title
;
Structure prediction by ZEFSAII (Michael W. Deem and Ramdas Pophale) SiO2 
 PCOD9437761
Probable space group: P B C M
;
_chemical_formula_sum "Si O2"
_cell_formula_units_Z 48
_cell_length_a 28.566943
_cell_length_b 8.702789
_cell_length_c 10.148975
_cell_angle_alpha 90.000000
_cell_angle_beta 90.000000
_cell_angle_gamma 90.000000
_cell_volume 2523.157757
_symmetry_space_group_name_H-M "P B C M"
_symmetry_group_IT_number 57
_symmetry_cell_setting 'orthorhombic'
loop_
_space_group_symop_operation_xyz
x,y,z
-x,-y,1/2+z
x,1/2-y,-z
-x,1/2+y,1/2-z
-x,-y,-z
x,y,1/2-z
-x,1/2+y,z
x,1/2-y,1/2+z
loop_
_atom_site_type_symbol
_atom_site_label
_atom_site_fract_x
_atom_site_fract_y
_atom_site_fract_z
Si Si1 0.964081 0.401644 0.090664
Si Si2 0.288687 0.907951 0.250000
Si Si3 0.777659 0.434736 0.490828
Si Si4 0.278701 0.540775 0.250000
Si Si5 0.609437 0.951537 0.750000
Si Si6 0.615721 0.918474 0.250000
Si Si7 0.128790 0.108065 0.402680
Si Si8 0.552163 0.564670 0.996702
O O1 0.977146 0.377195 0.250000
O O2 0.915551 0.494798 0.094321
O O3 0.958009 0.250000 0.000000
O O4 0.000000 0.500000 0.000000
O O5 0.260064 0.960939 0.376738
O O6 0.288121 0.723549 0.250000
O O7 0.340578 0.970495 0.250000
O O8 0.785859 0.250000 0.500000
O O9 0.753222 0.493208 0.623553
O O10 0.825355 0.519079 0.453660
O O11 0.330049 0.466425 0.250000
O O12 0.615459 0.767009 0.750000
O O13 0.579518 0.993703 0.623525
O O14 0.585455 0.974437 0.125842
O O15 0.119967 0.250000 0.500000
O O16 0.135619 0.156821 0.250000
O O17 0.548810 0.750000 0.000000
O O18 0.500000 0.500000 0.000000
#
# Coordination Sequence:
#
# PCOD9437761 Si02
#       8
#     8   4   8   4   4   4   8   8
#     4  11  24  44  69 100 135 177 221 273 330 387
#     4  10  20  37  59  82 116 149 196 242 295 358
#     4  10  21  40  60  86 119 158 201 251 309 361
#     4  10  22  35  59  88 112 151 198 246 293 366
#     4  10  21  35  55  78 108 149 179 230 293 346
#     4  10  21  37  53  80 112 141 187 232 291 356
#     4  11  25  42  63  93 129 167 214 263 315 376
#     4  10  21  36  54  78 107 142 183 230 285 348
#
# _framework density 19.023779999999999
#
# number of rings (size 3 to 8) (size 9 to 14) (size 15 to 20)
#    0.000    1.667    0.833    3.000    1.167    5.333 
#    0.000    0.000    0.000    0.000    0.000    0.000 
#    0.000    0.000    0.000    0.000    0.000    0.000 
#
# Total GULP energy -267914.162478 kJ/mol
# GULP energy per Si atom -5581.545052 kJ/mol
# Density = 1.898048 g / cm^3
# Si number density = 19.023780 Si / 1000 Ang^3
#
#
#
# Elastic Constant Matrix: (Units=GPa)
#
#
# Indices 1 2 3 4 5 6 
#
# 1 148.5109 41.1373 86.1289 0.0000 0.0000 0.0000
# 2 41.1373 47.4310 53.8611 0.0000 0.0000 0.0000
# 3 86.1289 53.8611 214.1416 0.0000 0.0000 0.0000
# 4 0.0000 0.0000 0.0000 -37.3547 0.0000 0.0000
# 5 0.0000 0.0000 0.0000 0.0000 30.8396 0.0000
# 6 0.0000 0.0000 0.0000 0.0000 0.0000 40.8897
#
#
#
# Elastic Compliance Matrix: (Units=1/GPa)
#
#
# Indices 1 2 3 4 5 6 
#
# 1 0.009739 -0.005597 -0.002509 0.000000 0.000000 0.000000
# 2 -0.005597 0.032730 -0.005981 0.000000 0.000000 0.000000
# 3 -0.002509 -0.005981 0.007183 0.000000 0.000000 0.000000
# 4 0.000000 0.000000 0.000000 -0.026770 0.000000 0.000000
# 5 0.000000 0.000000 0.000000 0.000000 0.032426 0.000000
# 6 0.000000 0.000000 0.000000 0.000000 0.000000 0.024456
#
#
# Mechanical properties :
#
#
# Convention : Reuss Voigt Hill
#
# Bulk Modulus (GPa) = 46.56135 85.81535 66.18835
# Shear Modulus (GPa) = 43.44118 22.13866 32.78992
#
# Velocity S-wave (km/s) = 4.78380 3.41506 4.15616
# Velocity P-wave (km/s) = 7.41900 7.79472 7.60918
#
# Compressibility (1/GPa) = 0.02147704
#
# Stress axis : x y z
#
# Youngs Moduli (GPa) = 102.67699 30.55330 139.21036
#
# Poissons Ratio (x) = 0.17102 0.34932
# Poissons Ratio (y) = 0.57473 0.83260
# Poissons Ratio (z) = 0.25765 0.18273
#
# Static dielectric constant tensor:
#      x y z
#    x 1.527200 0.000000 0.000000 
#    y 0.000000 1.658250 0.000000 
#    z 0.000000 0.000000 1.554470 
# 
# From -- ./inp_files/10202.got.cif
#   From: 2010.05.17/outbox.cif.g08.bks.cpg/sg57_6_cif.got.tgz:10202.got - 2010.06.03 13:58:18.
