data_PCOD9437939
_publ_section_title
;
Structure prediction by ZEFSAII (Michael W. Deem and Ramdas Pophale) SiO2 
 PCOD9437939
Probable space group: P B C M
;
_chemical_formula_sum "Si O2"
_cell_formula_units_Z 64
_cell_length_a 13.619210
_cell_length_b 27.803533
_cell_length_c 8.233370
_cell_angle_alpha 90.000000
_cell_angle_beta 90.000000
_cell_angle_gamma 90.000000
_cell_volume 3117.665624
_symmetry_space_group_name_H-M "P B C M"
_symmetry_group_IT_number 57
_symmetry_cell_setting 'orthorhombic'
loop_
_space_group_symop_operation_xyz
x,y,z
-x,-y,1/2+z
x,1/2-y,-z
-x,1/2+y,1/2-z
-x,-y,-z
x,y,1/2-z
-x,1/2+y,z
x,1/2-y,1/2+z
loop_
_atom_site_type_symbol
_atom_site_label
_atom_site_fract_x
_atom_site_fract_y
_atom_site_fract_z
Si Si1 0.893348 0.985002 0.440264
Si Si2 0.011879 0.305741 0.554799
Si Si3 0.605437 0.862156 0.065331
Si Si4 0.392674 0.863971 0.055978
Si Si5 0.207106 0.695183 0.444453
Si Si6 0.821334 0.620484 0.945945
Si Si7 0.577506 0.962660 0.566689
Si Si8 0.272534 0.545689 0.934196
O O1 0.898424 0.977169 0.250000
O O2 0.852662 0.933179 0.506666
O O3 0.824661 0.031449 0.472183
O O4 0.000000 0.000000 0.500000
O O5 0.024368 0.250000 0.500000
O O6 0.016289 0.306394 0.750000
O O7 0.094187 0.341254 0.486344
O O8 0.901664 0.322843 0.505744
O O9 0.611258 0.843401 0.250000
O O10 0.499401 0.846310 0.991574
O O11 0.715077 0.859656 0.990357
O O12 0.588584 0.919537 0.057724
O O13 0.407671 0.868750 0.250000
O O14 0.349660 0.915475 0.996186
O O15 0.301509 0.829737 0.020884
O O16 0.208646 0.750000 0.500000
O O17 0.214230 0.691315 0.250000
O O18 0.809511 0.617397 0.750000
O O19 0.554990 0.945454 0.750000
O O20 0.500000 0.000000 0.500000
O O21 0.674103 0.994577 0.574732
O O22 0.248355 0.561440 0.750000
#
# Coordination Sequence:
#
# PCOD9437939 Si02
#       8
#     8   8   8   8   8   8   8   8
#     4  11  24  39  56  81 118 161 202 247 295 348
#     4  10  22  41  66  92 117 146 188 242 295 351
#     4  10  20  38  57  82 118 157 199 238 288 343
#     4  10  21  37  59  86 119 155 192 240 290 344
#     4  10  22  41  64  91 117 146 186 236 294 354
#     4  10  22  39  61  86 118 159 199 242 293 349
#     4  11  20  32  52  77 109 150 195 240 281 328
#     4  10  21  36  54  80 114 155 199 241 287 339
#
# _framework density 20.528179999999999
#
# number of rings (size 3 to 8) (size 9 to 14) (size 15 to 20)
#    0.000    1.750    2.500    1.500    1.750    4.500 
#    0.000    0.625    0.000    0.000    0.000    0.000 
#    0.000    0.000    0.000    0.000    0.000    0.000 
#
# Total GULP energy -356496.240021 kJ/mol
# GULP energy per Si atom -5570.253750 kJ/mol
# Density = 2.048146 g / cm^3
# Si number density = 20.528180 Si / 1000 Ang^3
#
#
#
# Elastic Constant Matrix: (Units=GPa)
#
#
# Indices 1 2 3 4 5 6 
#
# 1 199.2035 48.7901 17.5597 0.0000 0.0000 0.0000
# 2 48.7901 44.3102 -2.7017 0.0000 0.0000 0.0000
# 3 17.5597 -2.7017 25.0716 0.0000 0.0000 0.0000
# 4 0.0000 0.0000 0.0000 26.8420 0.0000 0.0000
# 5 0.0000 0.0000 0.0000 0.0000 24.3086 0.0000
# 6 0.0000 0.0000 0.0000 0.0000 0.0000 37.4754
#
#
#
# Elastic Compliance Matrix: (Units=1/GPa)
#
#
# Indices 1 2 3 4 5 6 
#
# 1 0.007779 -0.008957 -0.006413 0.000000 0.000000 0.000000
# 2 -0.008957 0.033030 0.009832 0.000000 0.000000 0.000000
# 3 -0.006413 0.009832 0.045437 0.000000 0.000000 0.000000
# 4 0.000000 0.000000 0.000000 0.037255 0.000000 0.000000
# 5 0.000000 0.000000 0.000000 0.000000 0.041138 0.000000
# 6 0.000000 0.000000 0.000000 0.000000 0.000000 0.026684
#
#
# Mechanical properties :
#
#
# Convention : Reuss Voigt Hill
#
# Bulk Modulus (GPa) = 13.30307 43.98682 28.64495
# Shear Modulus (GPa) = 21.98235 31.38768 26.68501
#
# Velocity S-wave (km/s) = 3.27592 3.91449 3.60935
# Velocity P-wave (km/s) = 4.56106 6.47341 5.59948
#
# Compressibility (1/GPa) = 0.07517059
#
# Stress axis : x y z
#
# Youngs Moduli (GPa) = 128.55076 30.27573 22.00840
#
# Poissons Ratio (x) = 0.27117 0.14115
# Poissons Ratio (y) = 1.15137 -0.21639
# Poissons Ratio (z) = 0.82446 -0.29768
#
# Static dielectric constant tensor:
#      x y z
#    x 1.806880 0.000000 0.000000 
#    y 0.000000 1.698740 0.000000 
#    z 0.000000 0.000000 1.760390 
# 
# From -- ./inp_files/3815.got.cif
#   From: 2010.05.17/outbox.cif.g08.bks.cpg/sg57_2_cif.got.tgz:3815.got - 2010.06.03 13:58:18.
