data_PCOD9437108
_publ_section_title
;
Structure prediction by ZEFSAII (Michael W. Deem and Ramdas Pophale) SiO2 
 PCOD9437108
Probable space group: P B C M
;
_chemical_formula_sum "Si O2"
_cell_formula_units_Z 48
_cell_length_a 8.681938
_cell_length_b 7.780706
_cell_length_c 31.746528
_cell_angle_alpha 90.000000
_cell_angle_beta 90.000000
_cell_angle_gamma 90.000000
_cell_volume 2144.528986
_symmetry_space_group_name_H-M "P B C M"
_symmetry_group_IT_number 57
_symmetry_cell_setting 'orthorhombic'
loop_
_space_group_symop_operation_xyz
x,y,z
-x,-y,1/2+z
x,1/2-y,-z
-x,1/2+y,1/2-z
-x,-y,-z
x,y,1/2-z
-x,1/2+y,z
x,1/2-y,1/2+z
loop_
_atom_site_type_symbol
_atom_site_label
_atom_site_fract_x
_atom_site_fract_y
_atom_site_fract_z
Si Si1 0.747163 0.789855 0.297372
Si Si2 0.575359 0.158191 0.044794
Si Si3 0.245322 0.768905 0.124610
Si Si4 0.931223 0.595991 0.875328
Si Si5 0.746735 0.790601 0.454266
Si Si6 0.429708 0.654852 0.202408
O O1 0.810183 0.767606 0.250000
O O2 0.873713 0.806812 0.333275
O O3 0.612908 0.651480 0.305193
O O4 0.650395 0.968814 0.298554
O O5 0.651093 0.260844 0.083223
O O6 0.391764 0.155484 0.052705
O O7 0.654604 0.972113 0.043651
O O8 0.599889 0.250000 0.000000
O O9 0.148158 0.590190 0.124933
O O10 0.350138 0.763783 0.165873
O O11 0.114730 0.912125 0.123999
O O12 0.867385 0.691778 0.916860
O O13 0.817528 0.750000 0.500000
O O14 0.408295 0.724138 0.250000
#
# Coordination Sequence:
#
# PCOD9437108 Si02
#       6
#     8   8   8   8   8   8
#     4   9  18  34  55  78 103 132 169 211 253 299
#     4  10  20  35  55  78 102 131 170 212 254 300
#     4  10  22  36  51  75 106 138 170 207 252 302
#     4  10  22  36  51  75 106 138 170 207 252 302
#     4  10  20  35  55  78 102 131 170 212 254 300
#     4   9  18  34  55  78 103 132 169 211 253 299
#
# _framework density 22.382536999999999
#
# number of rings (size 3 to 8) (size 9 to 14) (size 15 to 20)
#    0.000    2.333    0.000    3.000    0.000    5.333 
#    0.000    3.333    0.000    0.000    0.000    0.000 
#    0.000    0.000    0.000    0.000    0.000    0.000 
#
# Total GULP energy -268382.855551 kJ/mol
# GULP energy per Si atom -5591.309491 kJ/mol
# Density = 2.233159 g / cm^3
# Si number density = 22.382537 Si / 1000 Ang^3
#
#
#
# Elastic Constant Matrix: (Units=GPa)
#
#
# Indices 1 2 3 4 5 6 
#
# 1 34.9662 -4.4854 37.9153 0.0000 0.0000 0.0000
# 2 -4.4854 57.5839 27.7151 0.0000 0.0000 0.0000
# 3 37.9153 27.7151 107.8625 0.0000 0.0000 0.0000
# 4 0.0000 0.0000 0.0000 22.7844 0.0000 0.0000
# 5 0.0000 0.0000 0.0000 0.0000 -1.8467 0.0000
# 6 0.0000 0.0000 0.0000 0.0000 0.0000 31.8549
#
#
#
# Elastic Compliance Matrix: (Units=1/GPa)
#
#
# Indices 1 2 3 4 5 6 
#
# 1 0.056731 0.015995 -0.024052 0.000000 0.000000 0.000000
# 2 0.015995 0.024326 -0.011873 0.000000 0.000000 0.000000
# 3 -0.024052 -0.011873 0.020776 0.000000 0.000000 0.000000
# 4 0.000000 0.000000 0.000000 0.043890 0.000000 0.000000
# 5 0.000000 0.000000 0.000000 0.000000 -0.541505 0.000000
# 6 0.000000 0.000000 0.000000 0.000000 0.000000 0.031392
#
#
# Mechanical properties :
#
#
# Convention : Reuss Voigt Hill
#
# Bulk Modulus (GPa) = 16.13572 35.85585 25.99579
# Shear Modulus (GPa) = -16.45433 19.84302 1.69434
#
# Velocity S-wave (km/s) = -2.71429 2.98071 0.87100
# Velocity P-wave (km/s) = 1.61197 5.28210 3.55683
#
# Compressibility (1/GPa) = 0.06197429
#
# Stress axis : x y z
#
# Youngs Moduli (GPa) = 17.62699 41.10759 48.13149
#
# Poissons Ratio (x) = -0.65752 1.15765
# Poissons Ratio (y) = -0.28194 0.57147
# Poissons Ratio (z) = 0.42396 0.48808
#
# Static dielectric constant tensor:
#      x y z
#    x 1.773880 0.000000 0.000000 
#    y 0.000000 1.896900 0.000000 
#    z 0.000000 0.000000 1.795330 
# 
# From -- ./inp_files/29468.got.cif
#   From: 2010.05.17/outbox.cif.g08.bks.cpg/sg57_15_cif.got.tgz:29468.got - 2010.06.03 13:58:18.
