data_PCOD9437474
_publ_section_title
;
Structure prediction by ZEFSAII (Michael W. Deem and Ramdas Pophale) SiO2 
 PCOD9437474
Probable space group: P B C M
;
_chemical_formula_sum "Si O2"
_cell_formula_units_Z 40
_cell_length_a 26.020580
_cell_length_b 9.750086
_cell_length_c 8.783024
_cell_angle_alpha 90.000000
_cell_angle_beta 90.000000
_cell_angle_gamma 90.000000
_cell_volume 2228.278596
_symmetry_space_group_name_H-M "P B C M"
_symmetry_group_IT_number 57
_symmetry_cell_setting 'orthorhombic'
loop_
_space_group_symop_operation_xyz
x,y,z
-x,-y,1/2+z
x,1/2-y,-z
-x,1/2+y,1/2-z
-x,-y,-z
x,y,1/2-z
-x,1/2+y,z
x,1/2-y,1/2+z
loop_
_atom_site_type_symbol
_atom_site_label
_atom_site_fract_x
_atom_site_fract_y
_atom_site_fract_z
Si Si1 0.744560 0.899599 0.067354
Si Si2 0.659459 0.401769 0.067858
Si Si3 0.862447 0.600511 0.932781
Si Si4 0.044806 0.596439 0.066293
Si Si5 0.456882 0.597907 0.932134
O O1 0.741776 0.896762 0.250000
O O2 0.803660 0.932885 0.023022
O O3 0.733609 0.750000 0.000000
O O4 0.703323 0.004056 0.001893
O O5 0.664296 0.397048 0.250000
O O6 0.601319 0.450418 0.031001
O O7 0.664353 0.250000 0.000000
O O8 0.864072 0.613311 0.750000
O O9 0.902221 0.481739 0.976037
O O10 0.876137 0.750000 0.000000
O O11 0.040944 0.602480 0.250000
O O12 0.042244 0.750000 0.000000
O O13 0.000000 0.500000 0.000000
O O14 0.461532 0.604050 0.750000
O O15 0.462539 0.750000 0.000000
O O16 0.500000 0.500000 0.000000
#
# Coordination Sequence:
#
# PCOD9437474 Si02
#       5
#     8   8   8   8   8
#     4  10  20  36  57  82 111 145 183 224 269 320
#     4  10  21  37  56  80 109 143 180 223 272 323
#     4   9  20  37  57  81 110 143 181 224 271 320
#     4  11  23  39  58  83 113 146 184 226 272 324
#     4  10  21  37  57  80 108 141 180 223 271 323
#
# _framework density 17.951077999999999
#
# number of rings (size 3 to 8) (size 9 to 14) (size 15 to 20)
#    0.000    2.000    0.000    3.000    0.000    8.000 
#    0.000    2.000    0.000    0.000    0.000    0.000 
#    0.000    0.000    0.000    0.000    0.000    0.000 
#
# Total GULP energy -223353.977678 kJ/mol
# GULP energy per Si atom -5583.849442 kJ/mol
# Density = 1.791022 g / cm^3
# Si number density = 17.951078 Si / 1000 Ang^3
#
#
#
# Elastic Constant Matrix: (Units=GPa)
#
#
# Indices 1 2 3 4 5 6 
#
# 1 151.3418 120.3246 63.9776 0.0000 0.0000 0.0000
# 2 120.3246 139.7558 55.8743 0.0000 0.0000 0.0000
# 3 63.9776 55.8743 65.6131 0.0000 0.0000 0.0000
# 4 0.0000 0.0000 0.0000 39.2532 0.0000 0.0000
# 5 0.0000 0.0000 0.0000 0.0000 27.8734 0.0000
# 6 0.0000 0.0000 0.0000 0.0000 0.0000 43.4822
#
#
#
# Elastic Compliance Matrix: (Units=1/GPa)
#
#
# Indices 1 2 3 4 5 6 
#
# 1 0.023852 -0.017038 -0.008748 0.000000 0.000000 0.000000
# 2 -0.017038 0.023020 -0.002990 0.000000 0.000000 0.000000
# 3 -0.008748 -0.002990 0.026317 0.000000 0.000000 0.000000
# 4 0.000000 0.000000 0.000000 0.025476 0.000000 0.000000
# 5 0.000000 0.000000 0.000000 0.000000 0.035876 0.000000
# 6 0.000000 0.000000 0.000000 0.000000 0.000000 0.022998
#
#
# Mechanical properties :
#
#
# Convention : Reuss Voigt Hill
#
# Bulk Modulus (GPa) = 63.95196 93.00708 78.47952
# Shear Modulus (GPa) = 22.69607 29.89072 26.29340
#
# Velocity S-wave (km/s) = 3.55960 4.08502 3.83132
# Velocity P-wave (km/s) = 7.25240 8.61242 7.96150
#
# Compressibility (1/GPa) = 0.01563674
#
# Stress axis : x y z
#
# Youngs Moduli (GPa) = 41.92536 43.44093 37.99854
#
# Poissons Ratio (x) = 0.74015 0.33242
# Poissons Ratio (y) = 0.71433 0.11360
# Poissons Ratio (z) = 0.36677 0.12987
#
# Static dielectric constant tensor:
#      x y z
#    x 1.624450 0.000000 0.000000 
#    y 0.000000 1.434340 0.000000 
#    z 0.000000 0.000000 1.599590 
# 
# From -- ./inp_files/8855.got.cif
#   From: 2010.05.17/outbox.cif.g08.bks.cpg/sg57_5_cif.got.tgz:8855.got - 2010.06.03 13:58:18.
