data_PCOD9437345
_publ_section_title
;
Structure prediction by ZEFSAII (Michael W. Deem and Ramdas Pophale) SiO2 
 PCOD9437345
Probable space group: P B C M
;
_chemical_formula_sum "Si O2"
_cell_formula_units_Z 56
_cell_length_a 15.036648
_cell_length_b 23.188093
_cell_length_c 8.821329
_cell_angle_alpha 90.000000
_cell_angle_beta 90.000000
_cell_angle_gamma 90.000000
_cell_volume 3075.743300
_symmetry_space_group_name_H-M "P B C M"
_symmetry_group_IT_number 57
_symmetry_cell_setting 'orthorhombic'
loop_
_space_group_symop_operation_xyz
x,y,z
-x,-y,1/2+z
x,1/2-y,-z
-x,1/2+y,1/2-z
-x,-y,-z
x,y,1/2-z
-x,1/2+y,z
x,1/2-y,1/2+z
loop_
_atom_site_type_symbol
_atom_site_label
_atom_site_fract_x
_atom_site_fract_y
_atom_site_fract_z
Si Si1 0.593315 0.979399 0.429930
Si Si2 0.288263 0.592297 0.070414
Si Si3 0.807087 0.810860 0.067838
Si Si4 0.429904 0.687923 0.067129
Si Si5 0.883904 0.451995 0.430507
Si Si6 0.085707 0.425614 0.067464
Si Si7 0.373808 0.143910 0.431956
O O1 0.583106 0.968735 0.250000
O O2 0.626283 0.921983 0.512145
O O3 0.500000 0.000000 0.500000
O O4 0.662249 0.031348 0.450065
O O5 0.273253 0.600186 0.250000
O O6 0.356815 0.641261 0.017425
O O7 0.194754 0.588688 0.987102
O O8 0.807047 0.807711 0.250000
O O9 0.866095 0.866475 0.021098
O O10 0.838641 0.750000 0.000000
O O11 0.707511 0.822787 0.008312
O O12 0.428333 0.689482 0.250000
O O13 0.529730 0.668997 0.023270
O O14 0.410097 0.750000 0.000000
O O15 0.882050 0.456733 0.250000
O O16 0.872720 0.516021 0.499865
O O17 0.981460 0.428525 0.475625
O O18 0.092113 0.429289 0.250000
O O19 0.365723 0.146685 0.250000
#
# Coordination Sequence:
#
# PCOD9437345 Si02
#       7
#     8   8   8   8   8   8   8
#     4  11  21  35  55  81 114 149 186 230 283 334
#     4  10  21  38  55  78 114 149 179 224 281 331
#     4  11  23  39  58  83 114 153 192 234 285 339
#     4  10  22  39  55  74 105 146 187 227 271 321
#     4  10  20  35  60  90 112 140 185 232 278 337
#     4   9  20  39  59  82 116 148 178 225 287 342
#     4  11  22  38  57  82 115 149 189 234 280 338
#
# _framework density 18.206980000000001
#
# number of rings (size 3 to 8) (size 9 to 14) (size 15 to 20)
#    0.000    1.714    1.429    3.000    0.000    9.143 
#    0.000    0.714    0.000    3.429    0.000    0.000 
#    0.000    0.000    0.000    0.000    0.000    0.000 
#
# Total GULP energy -312858.139492 kJ/mol
# GULP energy per Si atom -5586.752491 kJ/mol
# Density = 1.816554 g / cm^3
# Si number density = 18.206980 Si / 1000 Ang^3
#
#
#
# Elastic Constant Matrix: (Units=GPa)
#
#
# Indices 1 2 3 4 5 6 
#
# 1 112.0149 63.1911 34.7574 0.0000 0.0000 0.0000
# 2 63.1911 126.4633 27.8670 0.0000 0.0000 0.0000
# 3 34.7574 27.8670 24.5081 0.0000 0.0000 0.0000
# 4 0.0000 0.0000 0.0000 33.3461 0.0000 0.0000
# 5 0.0000 0.0000 0.0000 0.0000 29.2735 0.0000
# 6 0.0000 0.0000 0.0000 0.0000 0.0000 20.4637
#
#
#
# Elastic Compliance Matrix: (Units=1/GPa)
#
#
# Indices 1 2 3 4 5 6 
#
# 1 0.017602 -0.004396 -0.019965 0.000000 0.000000 0.000000
# 2 -0.004396 0.011649 -0.007011 0.000000 0.000000 0.000000
# 3 -0.019965 -0.007011 0.077089 0.000000 0.000000 0.000000
# 4 0.000000 0.000000 0.000000 0.029989 0.000000 0.000000
# 5 0.000000 0.000000 0.000000 0.000000 0.034161 0.000000
# 6 0.000000 0.000000 0.000000 0.000000 0.000000 0.048867
#
#
# Mechanical properties :
#
#
# Convention : Reuss Voigt Hill
#
# Bulk Modulus (GPa) = 22.93779 57.17970 40.05874
# Shear Modulus (GPa) = 16.85584 25.76138 21.30861
#
# Velocity S-wave (km/s) = 3.04598 3.76562 3.42476
# Velocity P-wave (km/s) = 4.99964 7.09789 6.13907
#
# Compressibility (1/GPa) = 0.04359619
#
# Stress axis : x y z
#
# Youngs Moduli (GPa) = 56.81044 85.84442 12.97199
#
# Poissons Ratio (x) = 0.37738 0.25899
# Poissons Ratio (y) = 0.24974 0.09095
# Poissons Ratio (z) = 1.13423 0.60185
#
# Static dielectric constant tensor:
#      x y z
#    x 1.629320 0.000000 0.000000 
#    y 0.000000 1.601070 0.000000 
#    z 0.000000 0.000000 1.613170 
# 
# From -- ./inp_files/5185.got.cif
#   From: 2010.05.17/outbox.cif.g08.bks.cpg/sg57_3_cif.got.tgz:5185.got - 2010.06.03 13:58:18.
