data_PCOD9437486
_publ_section_title
;
Structure prediction by ZEFSAII (Michael W. Deem and Ramdas Pophale) SiO2 
 PCOD9437486
Probable space group: P B C M
;
_chemical_formula_sum "Si O2"
_cell_formula_units_Z 56
_cell_length_a 16.707210
_cell_length_b 19.696306
_cell_length_c 8.809225
_cell_angle_alpha 90.000000
_cell_angle_beta 90.000000
_cell_angle_gamma 90.000000
_cell_volume 2898.854495
_symmetry_space_group_name_H-M "P B C M"
_symmetry_group_IT_number 57
_symmetry_cell_setting 'orthorhombic'
loop_
_space_group_symop_operation_xyz
x,y,z
-x,-y,1/2+z
x,1/2-y,-z
-x,1/2+y,1/2-z
-x,-y,-z
x,y,1/2-z
-x,1/2+y,z
x,1/2-y,1/2+z
loop_
_atom_site_type_symbol
_atom_site_label
_atom_site_fract_x
_atom_site_fract_y
_atom_site_fract_z
Si Si1 0.807496 0.824758 0.067502
Si Si2 0.498131 0.575692 0.068795
Si Si3 0.073557 0.542629 0.567877
Si Si4 0.245912 0.551370 0.068484
Si Si5 0.353326 0.825815 0.933427
Si Si6 0.010814 0.322767 0.068816
Si Si7 0.676960 0.575468 0.069492
O O1 0.801723 0.823847 0.250000
O O2 0.898794 0.844217 0.024422
O O3 0.794335 0.750000 0.000000
O O4 0.743770 0.875649 0.998580
O O5 0.486931 0.568028 0.250000
O O6 0.430332 0.628794 0.016445
O O7 0.587832 0.602924 0.040507
O O8 0.500000 0.500000 0.000000
O O9 0.074323 0.534775 0.750000
O O10 0.160966 0.529490 0.500977
O O11 0.000000 0.500000 0.500000
O O12 0.051906 0.620108 0.526391
O O13 0.241555 0.547124 0.250000
O O14 0.276650 0.626833 0.026670
O O15 0.310528 0.497546 0.007899
O O16 0.356115 0.820605 0.750000
O O17 0.351925 0.750000 0.000000
O O18 0.011198 0.316725 0.250000
O O19 0.993525 0.250000 0.000000
O O20 0.687368 0.568368 0.250000
#
# Coordination Sequence:
#
# PCOD9437486 Si02
#       7
#     8   8   8   8   8   8   8
#     4  10  20  36  57  83 118 156 196 243 300 358
#     4  10  21  39  62  89 119 155 200 248 302 364
#     4  11  23  39  60  89 122 155 200 251 302 361
#     4  11  23  40  61  86 119 160 203 249 305 362
#     4  10  23  42  63  89 123 161 205 253 306 364
#     4   9  20  37  57  80 109 149 192 237 290 352
#     4  11  22  36  60  90 119 153 200 248 300 364
#
# _framework density 19.317976000000002
#
# number of rings (size 3 to 8) (size 9 to 14) (size 15 to 20)
#    0.000    1.714    1.429    2.571    0.000    6.286 
#    0.000    4.286    0.000    0.000    0.000    0.000 
#    0.000    0.000    0.000    0.000    0.000    0.000 
#
# Total GULP energy -312691.133576 kJ/mol
# GULP energy per Si atom -5583.770242 kJ/mol
# Density = 1.927401 g / cm^3
# Si number density = 19.317976 Si / 1000 Ang^3
#
#
#
# Elastic Constant Matrix: (Units=GPa)
#
#
# Indices 1 2 3 4 5 6 
#
# 1 92.9445 40.0502 34.8220 0.0000 0.0000 0.0000
# 2 40.0502 70.0990 19.7374 0.0000 0.0000 0.0000
# 3 34.8220 19.7374 39.7210 0.0000 0.0000 0.0000
# 4 0.0000 0.0000 0.0000 37.6222 0.0000 0.0000
# 5 0.0000 0.0000 0.0000 0.0000 21.3903 0.0000
# 6 0.0000 0.0000 0.0000 0.0000 0.0000 32.4616
#
#
#
# Elastic Compliance Matrix: (Units=1/GPa)
#
#
# Indices 1 2 3 4 5 6 
#
# 1 0.018575 -0.007008 -0.012802 0.000000 0.000000 0.000000
# 2 -0.007008 0.019230 -0.003412 0.000000 0.000000 0.000000
# 3 -0.012802 -0.003412 0.038094 0.000000 0.000000 0.000000
# 4 0.000000 0.000000 0.000000 0.026580 0.000000 0.000000
# 5 0.000000 0.000000 0.000000 0.000000 0.046750 0.000000
# 6 0.000000 0.000000 0.000000 0.000000 0.000000 0.030806
#
#
# Mechanical properties :
#
#
# Convention : Reuss Voigt Hill
#
# Bulk Modulus (GPa) = 33.94917 43.55373 38.75145
# Shear Modulus (GPa) = 21.15981 25.50515 23.33248
#
# Velocity S-wave (km/s) = 3.31319 3.63751 3.47913
# Velocity P-wave (km/s) = 5.67876 6.34323 6.02017
#
# Compressibility (1/GPa) = 0.02945580
#
# Stress axis : x y z
#
# Youngs Moduli (GPa) = 53.83515 52.00162 26.25098
#
# Poissons Ratio (x) = 0.36444 0.33606
# Poissons Ratio (y) = 0.37729 0.08956
# Poissons Ratio (z) = 0.68919 0.17741
#
# Static dielectric constant tensor:
#      x y z
#    x 1.689370 0.000000 0.000000 
#    y 0.000000 1.636260 0.000000 
#    z 0.000000 0.000000 1.646340 
# 
# From -- ./inp_files/5195.got.cif
#   From: 2010.05.17/outbox.cif.g08.bks.cpg/sg57_3_cif.got.tgz:5195.got - 2010.06.03 13:58:18.
