data_PCOD9437428
_publ_section_title
;
Structure prediction by ZEFSAII (Michael W. Deem and Ramdas Pophale) SiO2 
 PCOD9437428
Probable space group: P B C M
;
_chemical_formula_sum "Si O2"
_cell_formula_units_Z 64
_cell_length_a 20.094758
_cell_length_b 19.446279
_cell_length_c 7.685402
_cell_angle_alpha 90.000000
_cell_angle_beta 90.000000
_cell_angle_gamma 90.000000
_cell_volume 3003.211248
_symmetry_space_group_name_H-M "P B C M"
_symmetry_group_IT_number 57
_symmetry_cell_setting 'orthorhombic'
loop_
_space_group_symop_operation_xyz
x,y,z
-x,-y,1/2+z
x,1/2-y,-z
-x,1/2+y,1/2-z
-x,-y,-z
x,y,1/2-z
-x,1/2+y,z
x,1/2-y,1/2+z
loop_
_atom_site_type_symbol
_atom_site_label
_atom_site_fract_x
_atom_site_fract_y
_atom_site_fract_z
Si Si1 0.533741 0.670449 0.040633
Si Si2 0.600219 0.401504 0.959689
Si Si3 0.219234 0.456843 0.953697
Si Si4 0.735750 0.170083 0.458030
Si Si5 0.017573 0.828699 0.040388
Si Si6 0.866301 0.828401 0.457569
Si Si7 0.631521 0.553009 0.458203
Si Si8 0.138317 0.583781 0.952198
O O1 0.532550 0.664318 0.250000
O O2 0.461959 0.643433 0.976605
O O3 0.590390 0.618271 0.974441
O O4 0.544983 0.750000 0.000000
O O5 0.601207 0.397256 0.750000
O O6 0.670949 0.371609 0.021774
O O7 0.594390 0.481241 0.008581
O O8 0.227153 0.475397 0.750000
O O9 0.293469 0.454359 0.029752
O O10 0.170545 0.514955 0.031326
O O11 0.184043 0.383612 0.966849
O O12 0.727597 0.250000 0.500000
O O13 0.740783 0.161664 0.250000
O O14 0.802854 0.139719 0.538390
O O15 0.016160 0.833914 0.250000
O O16 0.071773 0.882459 0.971154
O O17 0.942074 0.839643 0.977002
O O18 0.036962 0.750000 0.000000
O O19 0.848098 0.750000 0.500000
O O20 0.866335 0.836608 0.250000
O O21 0.637015 0.562004 0.250000
O O22 0.122678 0.568852 0.750000
#
# Coordination Sequence:
#
# PCOD9437428 Si02
#       8
#     8   8   8   8   8   8   8   8
#     4  10  22  39  58  84 114 146 188 234 279 332
#     4  10  21  37  57  83 113 146 186 231 276 330
#     4  10  21  37  57  83 114 148 185 228 280 336
#     4  11  22  34  52  80 113 148 188 228 272 327
#     4   9  19  35  55  80 109 145 187 230 278 332
#     4  10  21  38  59  82 109 143 186 234 282 333
#     4  10  21  38  60  84 113 149 188 228 279 337
#     4  10  20  36  56  79 113 150 185 227 277 333
#
# _framework density 21.310521999999999
#
# number of rings (size 3 to 8) (size 9 to 14) (size 15 to 20)
#    0.000    2.000    1.250    1.875    0.000    5.500 
#    0.000    1.250    0.000    0.000    0.000    0.000 
#    0.000    0.000    0.000    0.000    0.000    0.000 
#
# Total GULP energy -357543.869579 kJ/mol
# GULP energy per Si atom -5586.622962 kJ/mol
# Density = 2.126202 g / cm^3
# Si number density = 21.310522 Si / 1000 Ang^3
#
#
#
# Elastic Constant Matrix: (Units=GPa)
#
#
# Indices 1 2 3 4 5 6 
#
# 1 18.1861 29.6628 -5.6936 0.0000 0.0000 0.0000
# 2 29.6628 124.1829 -20.2431 0.0000 0.0000 0.0000
# 3 -5.6936 -20.2431 36.8887 0.0000 0.0000 0.0000
# 4 0.0000 0.0000 0.0000 24.6653 0.0000 0.0000
# 5 0.0000 0.0000 0.0000 0.0000 5.7308 0.0000
# 6 0.0000 0.0000 0.0000 0.0000 0.0000 36.8629
#
#
#
# Elastic Compliance Matrix: (Units=1/GPa)
#
#
# Indices 1 2 3 4 5 6 
#
# 1 0.090263 -0.021185 0.002306 0.000000 0.000000 0.000000
# 2 -0.021185 0.013816 0.004312 0.000000 0.000000 0.000000
# 3 0.002306 0.004312 0.029831 0.000000 0.000000 0.000000
# 4 0.000000 0.000000 0.000000 0.040543 0.000000 0.000000
# 5 0.000000 0.000000 0.000000 0.000000 0.174497 0.000000
# 6 0.000000 0.000000 0.000000 0.000000 0.000000 0.027128
#
#
# Mechanical properties :
#
#
# Convention : Reuss Voigt Hill
#
# Bulk Modulus (GPa) = 9.54414 20.74554 15.14484
# Shear Modulus (GPa) = 11.36016 25.15389 18.25703
#
# Velocity S-wave (km/s) = 2.31135 3.43935 2.93014
# Velocity P-wave (km/s) = 3.40756 5.05254 4.30927
#
# Compressibility (1/GPa) = 0.10477635
#
# Stress axis : x y z
#
# Youngs Moduli (GPa) = 11.07878 72.38129 33.52247
#
# Poissons Ratio (x) = 1.53336 -0.07731
# Poissons Ratio (y) = 0.23470 -0.14454
# Poissons Ratio (z) = -0.02555 -0.31210
#
# Static dielectric constant tensor:
#      x y z
#    x 1.776280 0.000000 0.000000 
#    y 0.000000 1.732360 0.000000 
#    z 0.000000 0.000000 1.801040 
# 
# From -- ./inp_files/8611.got.cif
#   From: 2010.05.17/outbox.cif.g08.bks.cpg/sg57_5_cif.got.tgz:8611.got - 2010.06.03 13:58:18.
