data_PCOD9437131
_publ_section_title
;
Structure prediction by ZEFSAII (Michael W. Deem and Ramdas Pophale) SiO2 
 PCOD9437131
Probable space group: P B C M
;
_chemical_formula_sum "Si O2"
_cell_formula_units_Z 64
_cell_length_a 27.046917
_cell_length_b 15.082883
_cell_length_c 8.596860
_cell_angle_alpha 90.000000
_cell_angle_beta 90.000000
_cell_angle_gamma 90.000000
_cell_volume 3507.050219
_symmetry_space_group_name_H-M "P B C M"
_symmetry_group_IT_number 57
_symmetry_cell_setting 'orthorhombic'
loop_
_space_group_symop_operation_xyz
x,y,z
-x,-y,1/2+z
x,1/2-y,-z
-x,1/2+y,1/2-z
-x,-y,-z
x,y,1/2-z
-x,1/2+y,z
x,1/2-y,1/2+z
loop_
_atom_site_type_symbol
_atom_site_label
_atom_site_fract_x
_atom_site_fract_y
_atom_site_fract_z
Si Si1 0.499280 0.649371 0.563417
Si Si2 0.055283 0.002711 0.063498
Si Si3 0.238275 0.150847 0.563784
Si Si4 0.311155 0.004548 0.437997
Si Si5 0.873066 0.849318 0.063472
Si Si6 0.871809 0.348065 0.062385
Si Si7 0.240215 0.652020 0.562324
Si Si8 0.424993 0.493199 0.561816
O O1 0.496966 0.750000 0.500000
O O2 0.500326 0.654289 0.750000
O O3 0.453592 0.584207 0.517072
O O4 0.546348 0.592250 0.504941
O O5 0.053855 0.002219 0.250000
O O6 0.087524 0.918181 0.009418
O O7 0.085365 0.087939 0.006227
O O8 0.000000 0.000000 0.000000
O O9 0.243957 0.250000 0.500000
O O10 0.240883 0.151978 0.750000
O O11 0.280226 0.088179 0.496161
O O12 0.182639 0.120093 0.518740
O O13 0.311090 0.004799 0.250000
O O14 0.368052 0.004830 0.488796
O O15 0.280786 0.918162 0.491356
O O16 0.876222 0.848843 0.250000
O O17 0.878613 0.750000 0.000000
O O18 0.872408 0.345937 0.250000
O O19 0.815796 0.373211 0.013641
O O20 0.881776 0.250000 0.000000
O O21 0.250116 0.750000 0.500000
O O22 0.240911 0.654096 0.750000
O O23 0.426940 0.487743 0.750000
#
# Coordination Sequence:
#
# PCOD9437131 Si02
#       8
#     8   8   8   8   8   8   8   8
#     4  10  20  36  58  80 105 140 182 227 273 320
#     4  11  23  38  56  80 109 141 179 225 276 328
#     4  10  21  36  56  82 110 142 181 221 266 323
#     4  10  20  35  55  79 112 146 176 218 268 317
#     4  10  21  38  59  82 108 141 181 224 270 323
#     4   9  19  35  55  77 103 137 175 213 257 310
#     4   9  18  33  53  78 106 138 174 211 255 310
#     4   9  20  37  55  79 108 141 182 223 266 318
#
# _framework density 18.248954999999999
#
# number of rings (size 3 to 8) (size 9 to 14) (size 15 to 20)
#    0.000    2.250    0.000    2.250    0.000    6.500 
#    0.000    3.750    0.000    0.000    0.000    0.000 
#    0.000    0.000    0.000    0.000    0.000    0.000 
#
# Total GULP energy -357222.464194 kJ/mol
# GULP energy per Si atom -5581.601003 kJ/mol
# Density = 1.820742 g / cm^3
# Si number density = 18.248955 Si / 1000 Ang^3
#
#
#
# Elastic Constant Matrix: (Units=GPa)
#
#
# Indices 1 2 3 4 5 6 
#
# 1 196.4879 113.0005 41.8707 0.0000 0.0000 0.0000
# 2 113.0005 138.4535 28.7547 0.0000 0.0000 0.0000
# 3 41.8707 28.7547 25.3074 0.0000 0.0000 0.0000
# 4 0.0000 0.0000 0.0000 32.2396 0.0000 0.0000
# 5 0.0000 0.0000 0.0000 0.0000 31.1737 0.0000
# 6 0.0000 0.0000 0.0000 0.0000 0.0000 179.8662
#
#
#
# Elastic Compliance Matrix: (Units=1/GPa)
#
#
# Indices 1 2 3 4 5 6 
#
# 1 0.011528 -0.007130 -0.010971 0.000000 0.000000 0.000000
# 2 -0.007130 0.013863 -0.003955 0.000000 0.000000 0.000000
# 3 -0.010971 -0.003955 0.062160 0.000000 0.000000 0.000000
# 4 0.000000 0.000000 0.000000 0.031018 0.000000 0.000000
# 5 0.000000 0.000000 0.000000 0.000000 0.032078 0.000000
# 6 0.000000 0.000000 0.000000 0.000000 0.000000 0.005560
#
#
# Mechanical properties :
#
#
# Convention : Reuss Voigt Hill
#
# Bulk Modulus (GPa) = 23.02128 80.83339 51.92733
# Shear Modulus (GPa) = 23.27750 60.43076 41.85413
#
# Velocity S-wave (km/s) = 3.57536 5.76078 4.79425
# Velocity P-wave (km/s) = 5.44856 9.41486 7.69176
#
# Compressibility (1/GPa) = 0.04343807
#
# Stress axis : x y z
#
# Youngs Moduli (GPa) = 86.74724 72.13296 16.08744
#
# Poissons Ratio (x) = 0.51430 0.17650
# Poissons Ratio (y) = 0.61850 0.06363
# Poissons Ratio (z) = 0.95173 0.28531
#
# Static dielectric constant tensor:
#      x y z
#    x 1.622300 0.000000 0.000000 
#    y 0.000000 1.597750 0.000000 
#    z 0.000000 0.000000 1.618510 
# 
# From -- ./inp_files/9489.got.cif
#   From: 2010.05.17/outbox.cif.g08.bks.cpg/sg57_5_cif.got.tgz:9489.got - 2010.06.03 13:58:18.
