data_PCOD9437310
_publ_section_title
;
Structure prediction by ZEFSAII (Michael W. Deem and Ramdas Pophale) SiO2 
 PCOD9437310
Probable space group: P B C M
;
_chemical_formula_sum "Si O2"
_cell_formula_units_Z 56
_cell_length_a 22.719830
_cell_length_b 14.425211
_cell_length_c 8.885274
_cell_angle_alpha 90.000000
_cell_angle_beta 90.000000
_cell_angle_gamma 90.000000
_cell_volume 2912.044966
_symmetry_space_group_name_H-M "P B C M"
_symmetry_group_IT_number 57
_symmetry_cell_setting 'orthorhombic'
loop_
_space_group_symop_operation_xyz
x,y,z
-x,-y,1/2+z
x,1/2-y,-z
-x,1/2+y,1/2-z
-x,-y,-z
x,y,1/2-z
-x,1/2+y,z
x,1/2-y,1/2+z
loop_
_atom_site_type_symbol
_atom_site_label
_atom_site_fract_x
_atom_site_fract_y
_atom_site_fract_z
Si Si1 0.898218 0.157169 0.576739
Si Si2 0.302540 0.647288 0.430464
Si Si3 0.188399 0.524875 0.427925
Si Si4 0.851845 0.846736 0.571428
Si Si5 0.026226 0.091721 0.924143
Si Si6 0.527871 0.648232 0.430981
Si Si7 0.585638 0.046091 0.569348
O O1 0.875646 0.250000 0.500000
O O2 0.879242 0.148822 0.750000
O O3 0.871596 0.073271 0.482459
O O4 0.968869 0.157125 0.575258
O O5 0.303361 0.750000 0.500000
O O6 0.309231 0.653740 0.250000
O O7 0.241359 0.594702 0.463335
O O8 0.354702 0.585594 0.499629
O O9 0.187451 0.508616 0.250000
O O10 0.190394 0.428533 0.515288
O O11 0.833486 0.750000 0.500000
O O12 0.853481 0.841988 0.750000
O O13 0.917634 0.869416 0.510899
O O14 0.042562 0.075249 0.750000
O O15 0.000000 0.000000 0.000000
O O16 0.540871 0.750000 0.500000
O O17 0.522874 0.656786 0.250000
O O18 0.573256 0.563164 0.463491
O O19 0.467108 0.607847 0.499512
O O20 0.585350 0.056891 0.750000
#
# Coordination Sequence:
#
# PCOD9437310 Si02
#       7
#     8   8   8   8   8   8   8
#     4  11  23  37  57  85 115 150 187 232 289 349
#     4  11  24  41  63  90 120 157 198 244 296 351
#     4  11  24  42  63  86 115 151 195 245 295 350
#     4  12  25  42  64  88 116 153 196 243 297 357
#     4  11  22  37  59  87 118 151 190 235 292 354
#     4  10  20  35  58  89 125 164 204 248 299 351
#     4  10  21  37  59  88 123 164 206 249 297 350
#
# _framework density 19.230473
#
# number of rings (size 3 to 8) (size 9 to 14) (size 15 to 20)
#    0.000    1.143    1.429    5.143    0.000    8.000 
#    0.000    0.714    0.000    1.714    0.000    0.000 
#    0.000    0.000    0.000    0.000    0.000    0.000 
#
# Total GULP energy -312961.582948 kJ/mol
# GULP energy per Si atom -5588.599696 kJ/mol
# Density = 1.918670 g / cm^3
# Si number density = 19.230473 Si / 1000 Ang^3
#
#
#
# Elastic Constant Matrix: (Units=GPa)
#
#
# Indices 1 2 3 4 5 6 
#
# 1 87.1448 41.7507 45.6753 0.0000 0.0000 0.0000
# 2 41.7507 160.3881 74.0908 0.0000 0.0000 0.0000
# 3 45.6753 74.0908 136.1128 0.0000 0.0000 0.0000
# 4 0.0000 0.0000 0.0000 34.8981 0.0000 0.0000
# 5 0.0000 0.0000 0.0000 0.0000 22.6745 0.0000
# 6 0.0000 0.0000 0.0000 0.0000 0.0000 23.0819
#
#
#
# Elastic Compliance Matrix: (Units=1/GPa)
#
#
# Indices 1 2 3 4 5 6 
#
# 1 0.014401 -0.002026 -0.003730 0.000000 0.000000 0.000000
# 2 -0.002026 0.008614 -0.004009 0.000000 0.000000 0.000000
# 3 -0.003730 -0.004009 0.010781 0.000000 0.000000 0.000000
# 4 0.000000 0.000000 0.000000 0.028655 0.000000 0.000000
# 5 0.000000 0.000000 0.000000 0.000000 0.044102 0.000000
# 6 0.000000 0.000000 0.000000 0.000000 0.000000 0.043324
#
#
# Mechanical properties :
#
#
# Convention : Reuss Voigt Hill
#
# Bulk Modulus (GPa) = 70.09564 78.51994 74.30779
# Shear Modulus (GPa) = 28.70897 30.93948 29.82423
#
# Velocity S-wave (km/s) = 3.86798 4.01543 3.94240
# Velocity P-wave (km/s) = 7.51517 7.90050 7.71024
#
# Compressibility (1/GPa) = 0.01426622
#
# Stress axis : x y z
#
# Youngs Moduli (GPa) = 69.44199 116.08660 92.75728
#
# Poissons Ratio (x) = 0.23515 0.34596
# Poissons Ratio (y) = 0.14067 0.37189
# Poissons Ratio (z) = 0.25900 0.46542
#
# Static dielectric constant tensor:
#      x y z
#    x 1.665580 0.000000 0.000000 
#    y 0.000000 1.670440 0.000000 
#    z 0.000000 0.000000 1.640980 
# 
# From -- ./inp_files/8035.got.cif
#   From: 2010.05.17/outbox.cif.g08.bks.cpg/sg57_5_cif.got.tgz:8035.got - 2010.06.03 13:58:18.
