data_PCOD9437744
_publ_section_title
;
Structure prediction by ZEFSAII (Michael W. Deem and Ramdas Pophale) SiO2 
 PCOD9437744
Probable space group: P B C M
;
_chemical_formula_sum "Si O2"
_cell_formula_units_Z 48
_cell_length_a 31.707977
_cell_length_b 9.183723
_cell_length_c 8.578452
_cell_angle_alpha 90.000000
_cell_angle_beta 90.000000
_cell_angle_gamma 90.000000
_cell_volume 2498.021869
_symmetry_space_group_name_H-M "P B C M"
_symmetry_group_IT_number 57
_symmetry_cell_setting 'orthorhombic'
loop_
_space_group_symop_operation_xyz
x,y,z
-x,-y,1/2+z
x,1/2-y,-z
-x,1/2+y,1/2-z
-x,-y,-z
x,y,1/2-z
-x,1/2+y,z
x,1/2-y,1/2+z
loop_
_atom_site_type_symbol
_atom_site_label
_atom_site_fract_x
_atom_site_fract_y
_atom_site_fract_z
Si Si1 0.287138 0.412986 0.562218
Si Si2 0.370592 0.914643 0.062366
Si Si3 0.459960 0.585893 0.436185
Si Si4 0.797000 0.085799 0.937910
Si Si5 0.959313 0.085469 0.563105
Si Si6 0.878023 0.585591 0.936764
O O1 0.283538 0.250000 0.500000
O O2 0.287299 0.408160 0.750000
O O3 0.330739 0.489063 0.512499
O O4 0.246946 0.509657 0.514790
O O5 0.372524 0.909976 0.250000
O O6 0.365298 0.750000 0.000000
O O7 0.415053 0.972898 0.997584
O O8 0.462585 0.750000 0.500000
O O9 0.500000 0.500000 0.500000
O O10 0.459927 0.586404 0.250000
O O11 0.799662 0.086576 0.750000
O O12 0.798729 0.250000 0.000000
O O13 0.835654 0.993559 0.005902
O O14 0.959647 0.250000 0.500000
O O15 0.959808 0.086885 0.750000
O O16 0.917776 0.003096 0.502928
O O17 0.000000 0.000000 0.500000
O O18 0.879626 0.586836 0.750000
O O19 0.879082 0.750000 0.000000
#
# Coordination Sequence:
#
# PCOD9437744 Si02
#       6
#     8   8   8   8   8   8
#     4  10  23  39  59  86 119 154 195 242 295 352
#     4  10  20  37  58  84 114 150 193 240 290 350
#     4  11  22  38  59  85 115 152 193 240 292 350
#     4  11  23  41  63  91 122 160 203 248 299 357
#     4  12  25  44  67  95 128 166 208 255 306 363
#     4  12  25  43  65  93 126 164 205 253 305 360
#
# _framework density 19.215204
#
# number of rings (size 3 to 8) (size 9 to 14) (size 15 to 20)
#    0.000    1.000    0.000    8.500    0.000    4.667 
#    0.000    1.667    0.000    0.000    0.000    0.000 
#    0.000    0.000    0.000    0.000    0.000    0.000 
#
# Total GULP energy -268602.771467 kJ/mol
# GULP energy per Si atom -5595.891072 kJ/mol
# Density = 1.917147 g / cm^3
# Si number density = 19.215204 Si / 1000 Ang^3
#
#
#
# Elastic Constant Matrix: (Units=GPa)
#
#
# Indices 1 2 3 4 5 6 
#
# 1 217.4218 114.6107 80.1125 0.0000 0.0000 0.0000
# 2 114.6107 168.4143 64.1535 0.0000 0.0000 0.0000
# 3 80.1125 64.1535 153.2578 0.0000 0.0000 0.0000
# 4 0.0000 0.0000 0.0000 40.1307 0.0000 0.0000
# 5 0.0000 0.0000 0.0000 0.0000 32.4512 0.0000
# 6 0.0000 0.0000 0.0000 0.0000 0.0000 45.1361
#
#
#
# Elastic Compliance Matrix: (Units=1/GPa)
#
#
# Indices 1 2 3 4 5 6 
#
# 1 0.007745 -0.004436 -0.002192 0.000000 0.000000 0.000000
# 2 -0.004436 0.009605 -0.001702 0.000000 0.000000 0.000000
# 3 -0.002192 -0.001702 0.008383 0.000000 0.000000 0.000000
# 4 0.000000 0.000000 0.000000 0.024919 0.000000 0.000000
# 5 0.000000 0.000000 0.000000 0.000000 0.030815 0.000000
# 6 0.000000 0.000000 0.000000 0.000000 0.000000 0.022155
#
#
# Mechanical properties :
#
#
# Convention : Reuss Voigt Hill
#
# Bulk Modulus (GPa) = 110.20410 117.42747 113.81578
# Shear Modulus (GPa) = 40.54947 42.22476 41.38711
#
# Velocity S-wave (km/s) = 4.59876 4.69280 4.64602
# Velocity P-wave (km/s) = 9.25609 9.51880 9.38836
#
# Compressibility (1/GPa) = 0.00907407
#
# Stress axis : x y z
#
# Youngs Moduli (GPa) = 129.10990 104.11465 119.28875
#
# Poissons Ratio (x) = 0.46185 0.26146
# Poissons Ratio (y) = 0.57273 0.20300
# Poissons Ratio (z) = 0.28299 0.17717
#
# Static dielectric constant tensor:
#      x y z
#    x 1.659220 0.000000 0.000000 
#    y 0.000000 1.625290 0.000000 
#    z 0.000000 0.000000 1.646870 
# 
# From -- ./inp_files/10012.got.cif
#   From: 2010.05.17/outbox.cif.g08.bks.cpg/sg57_6_cif.got.tgz:10012.got - 2010.06.03 13:58:18.
