data_PCOD9437357
_publ_section_title
;
Structure prediction by ZEFSAII (Michael W. Deem and Ramdas Pophale) SiO2 
 PCOD9437357
Probable space group: P B C M
;
_chemical_formula_sum "Si O2"
_cell_formula_units_Z 48
_cell_length_a 11.367263
_cell_length_b 12.145533
_cell_length_c 17.619782
_cell_angle_alpha 90.000000
_cell_angle_beta 90.000000
_cell_angle_gamma 90.000000
_cell_volume 2432.612967
_symmetry_space_group_name_H-M "P B C M"
_symmetry_group_IT_number 57
_symmetry_cell_setting 'orthorhombic'
loop_
_space_group_symop_operation_xyz
x,y,z
-x,-y,1/2+z
x,1/2-y,-z
-x,1/2+y,1/2-z
-x,-y,-z
x,y,1/2-z
-x,1/2+y,z
x,1/2-y,1/2+z
loop_
_atom_site_type_symbol
_atom_site_label
_atom_site_fract_x
_atom_site_fract_y
_atom_site_fract_z
Si Si1 0.076238 0.947124 0.069582
Si Si2 0.163734 0.371112 0.089887
Si Si3 0.306911 0.802414 0.076528
Si Si4 0.537167 0.996249 0.588815
Si Si5 0.772427 0.864636 0.590469
Si Si6 0.294242 0.923279 0.839362
O O1 0.191474 0.873542 0.052336
O O2 0.976035 0.869779 0.103659
O O3 0.129935 0.047421 0.118510
O O4 0.000000 0.000000 0.000000
O O5 0.215215 0.257654 0.121642
O O6 0.211364 0.484863 0.122781
O O7 0.199976 0.367094 0.000584
O O8 0.403390 0.886474 0.108898
O O9 0.274696 0.699914 0.129280
O O10 0.358175 0.750000 0.000000
O O11 0.500000 0.000000 0.500000
O O12 0.642157 0.909818 0.600049
O O13 0.424887 0.961589 0.636630
O O14 0.279436 0.925010 0.750000
#
# Coordination Sequence:
#
# PCOD9437357 Si02
#       6
#     8   8   8   8   8   8
#     4   9  19  34  60  98 127 154 206 269 324 367
#     4  10  20  35  61  90 128 160 204 260 318 383
#     4  11  22  38  68  96 127 166 216 272 325 383
#     4  11  21  40  62  90 124 163 213 265 321 379
#     4   9  19  34  60  95 119 155 209 266 315 370
#     4  12  27  42  61  94 133 173 216 266 331 397
#
# _framework density 19.731869
#
# number of rings (size 3 to 8) (size 9 to 14) (size 15 to 20)
#    0.000    1.667    3.333    2.000    9.333    0.667 
#    0.000    0.833    0.000    2.000    0.000    0.000 
#    0.000    0.000    0.000    0.000    0.000    0.000 
#
# Total GULP energy -267591.738131 kJ/mol
# GULP energy per Si atom -5574.827878 kJ/mol
# Density = 1.968696 g / cm^3
# Si number density = 19.731869 Si / 1000 Ang^3
#
#
#
# Elastic Constant Matrix: (Units=GPa)
#
#
# Indices 1 2 3 4 5 6 
#
# 1 68.1977 11.1099 -13.6507 0.0000 0.0000 0.0000
# 2 11.1099 126.3304 14.6528 0.0000 0.0000 0.0000
# 3 -13.6507 14.6528 46.4008 0.0000 0.0000 0.0000
# 4 0.0000 0.0000 0.0000 11.7609 0.0000 0.0000
# 5 0.0000 0.0000 0.0000 0.0000 6.5991 0.0000
# 6 0.0000 0.0000 0.0000 0.0000 0.0000 23.4697
#
#
#
# Elastic Compliance Matrix: (Units=1/GPa)
#
#
# Indices 1 2 3 4 5 6 
#
# 1 0.016070 -0.002036 0.005371 0.000000 0.000000 0.000000
# 2 -0.002036 0.008475 -0.003275 0.000000 0.000000 0.000000
# 3 0.005371 -0.003275 0.024166 0.000000 0.000000 0.000000
# 4 0.000000 0.000000 0.000000 0.085027 0.000000 0.000000
# 5 0.000000 0.000000 0.000000 0.000000 0.151537 0.000000
# 6 0.000000 0.000000 0.000000 0.000000 0.000000 0.042608
#
#
# Mechanical properties :
#
#
# Convention : Reuss Voigt Hill
#
# Bulk Modulus (GPa) = 20.47976 29.46145 24.97060
# Shear Modulus (GPa) = 14.53319 23.62040 19.07679
#
# Velocity S-wave (km/s) = 2.71686 3.46362 3.11272
# Velocity P-wave (km/s) = 4.49926 5.56407 5.05975
#
# Compressibility (1/GPa) = 0.04882869
#
# Stress axis : x y z
#
# Youngs Moduli (GPa) = 62.22791 117.99821 41.38114
#
# Poissons Ratio (x) = 0.24026 -0.22224
# Poissons Ratio (y) = 0.12671 0.13553
# Poissons Ratio (z) = -0.33420 0.38647
#
# Static dielectric constant tensor:
#      x y z
#    x 1.706190 0.000000 0.000000 
#    y 0.000000 1.733240 0.000000 
#    z 0.000000 0.000000 1.592380 
# 
# From -- ./inp_files/24954.got.cif
#   From: 2010.05.17/outbox.cif.g08.bks.cpg/sg57_13_cif.got.tgz:24954.got - 2010.06.03 13:58:18.
