data_PCOD9437929
_publ_section_title
;
Structure prediction by ZEFSAII (Michael W. Deem and Ramdas Pophale) SiO2 
 PCOD9437929
Probable space group: P B C M
;
_chemical_formula_sum "Si O2"
_cell_formula_units_Z 32
_cell_length_a 6.794187
_cell_length_b 8.184146
_cell_length_c 23.570306
_cell_angle_alpha 90.000000
_cell_angle_beta 90.000000
_cell_angle_gamma 90.000000
_cell_volume 1310.617870
_symmetry_space_group_name_H-M "P B C M"
_symmetry_group_IT_number 57
_symmetry_cell_setting 'orthorhombic'
loop_
_space_group_symop_operation_xyz
x,y,z
-x,-y,1/2+z
x,1/2-y,-z
-x,1/2+y,1/2-z
-x,-y,-z
x,y,1/2-z
-x,1/2+y,z
x,1/2-y,1/2+z
loop_
_atom_site_type_symbol
_atom_site_label
_atom_site_fract_x
_atom_site_fract_y
_atom_site_fract_z
Si Si1 0.870173 0.611536 0.458579
Si Si2 0.805183 0.115702 0.134139
Si Si3 0.592071 0.043063 0.632178
Si Si4 0.616943 0.856214 0.750000
Si Si5 0.196833 0.507454 0.250000
O O1 0.790264 0.750000 0.500000
O O2 0.698699 0.528477 0.422928
O O3 0.000000 0.500000 0.500000
O O4 0.031502 0.661544 0.411475
O O5 0.643376 0.973540 0.122878
O O6 0.666785 0.273527 0.138872
O O7 0.908290 0.053109 0.191826
O O8 0.651995 0.950684 0.690606
O O9 0.714630 0.676296 0.750000
O O10 0.378694 0.864532 0.750000
#
# Coordination Sequence:
#
# PCOD9437929 Si02
#       5
#     8   8   8   4   4
#     4  12  28  47  64  94 133 174 224 268 314 384
#     4  11  24  43  70  98 130 172 213 269 328 383
#     4  11  24  43  70  97 132 170 214 268 328 385
#     4  10  20  37  66  99 131 165 209 268 324 391
#     4  10  20  37  66  99 131 163 213 264 326 391
#
# _framework density 24.415966999999998
#
# number of rings (size 3 to 8) (size 9 to 14) (size 15 to 20)
#    0.000    1.000    2.500    6.750    7.000    3.000 
#    0.000    0.000    0.000    0.000    0.000    0.000 
#    0.000    0.000    0.000    0.000    0.000    0.000 
#
# Total GULP energy -178957.313020 kJ/mol
# GULP energy per Si atom -5592.416032 kJ/mol
# Density = 2.436039 g / cm^3
# Si number density = 24.415967 Si / 1000 Ang^3
#
#
#
# Elastic Constant Matrix: (Units=GPa)
#
#
# Indices 1 2 3 4 5 6 
#
# 1 81.7793 -33.0156 4.5194 0.0000 0.0000 0.0000
# 2 -33.0156 35.9267 -3.9315 0.0000 0.0000 0.0000
# 3 4.5194 -3.9315 116.3264 0.0000 0.0000 0.0000
# 4 0.0000 0.0000 0.0000 35.4639 0.0000 0.0000
# 5 0.0000 0.0000 0.0000 0.0000 64.3910 0.0000
# 6 0.0000 0.0000 0.0000 0.0000 0.0000 16.6871
#
#
#
# Elastic Compliance Matrix: (Units=1/GPa)
#
#
# Indices 1 2 3 4 5 6 
#
# 1 0.019443 0.017851 -0.000152 0.000000 0.000000 0.000000
# 2 0.017851 0.044327 0.000805 0.000000 0.000000 0.000000
# 3 -0.000152 0.000805 0.008630 0.000000 0.000000 0.000000
# 4 0.000000 0.000000 0.000000 0.028198 0.000000 0.000000
# 5 0.000000 0.000000 0.000000 0.000000 0.015530 0.000000
# 6 0.000000 0.000000 0.000000 0.000000 0.000000 0.059926
#
#
# Mechanical properties :
#
#
# Convention : Reuss Voigt Hill
#
# Bulk Modulus (GPa) = 9.14014 18.79743 13.96878
# Shear Modulus (GPa) = 28.48742 41.07241 34.77992
#
# Velocity S-wave (km/s) = 3.41948 4.10591 3.77832
# Velocity P-wave (km/s) = 4.39797 5.49486 4.97673
#
# Compressibility (1/GPa) = 0.10940753
#
# Stress axis : x y z
#
# Youngs Moduli (GPa) = 51.43172 22.55948 115.88021
#
# Poissons Ratio (x) = -0.40271 0.01762
# Poissons Ratio (y) = -0.91812 -0.09324
# Poissons Ratio (z) = 0.00782 -0.01815
#
# Static dielectric constant tensor:
#      x y z
#    x 1.946300 0.000000 0.000000 
#    y 0.000000 1.996310 0.000000 
#    z 0.000000 0.000000 2.002660 
# 
# From -- ./inp_files/23971.got.cif
#   From: 2010.05.17/outbox.cif.g08.bks.cpg/sg57_12_cif.got.tgz:23971.got - 2010.06.03 13:58:18.
