data_PCOD9437408
_publ_section_title
;
Structure prediction by ZEFSAII (Michael W. Deem and Ramdas Pophale) SiO2 
 PCOD9437408
Probable space group: P B C M
;
_chemical_formula_sum "Si O2"
_cell_formula_units_Z 32
_cell_length_a 5.049083
_cell_length_b 26.629556
_cell_length_c 10.844246
_cell_angle_alpha 90.000000
_cell_angle_beta 90.000000
_cell_angle_gamma 90.000000
_cell_volume 1458.061345
_symmetry_space_group_name_H-M "P B C M"
_symmetry_group_IT_number 57
_symmetry_cell_setting 'orthorhombic'
loop_
_space_group_symop_operation_xyz
x,y,z
-x,-y,1/2+z
x,1/2-y,-z
-x,1/2+y,1/2-z
-x,-y,-z
x,y,1/2-z
-x,1/2+y,z
x,1/2-y,1/2+z
loop_
_atom_site_type_symbol
_atom_site_label
_atom_site_fract_x
_atom_site_fract_y
_atom_site_fract_z
Si Si1 0.201358 0.138543 0.392778
Si Si2 0.322847 0.540398 0.750000
Si Si3 0.171193 0.969824 0.750000
Si Si4 0.289703 0.708038 0.394575
Si Si5 0.424821 0.941107 0.507317
O O1 0.195625 0.121645 0.250000
O O2 0.927293 0.165266 0.423308
O O3 0.319409 0.093071 0.471905
O O4 0.424015 0.182112 0.400566
O O5 0.617406 0.516185 0.750000
O O6 0.291388 0.570396 0.623363
O O7 0.114990 0.494738 0.750000
O O8 0.239551 0.938683 0.627524
O O9 0.268575 0.750000 0.500000
O O10 0.246126 0.724083 0.250000
O O11 0.500000 0.000000 0.500000
#
# Coordination Sequence:
#
# PCOD9437408 Si02
#       5
#     8   4   4   8   8
#     4  10  21  39  64  90 118 161 202 238 296 369
#     4  10  22  34  52  82 111 154 199 238 284 326
#     4  10  20  36  56  74 111 160 197 234 284 336
#     4  10  22  42  66  91 117 151 197 251 308 363
#     4  10  21  39  58  87 123 161 201 246 289 348
#
# _framework density 21.946952
#
# number of rings (size 3 to 8) (size 9 to 14) (size 15 to 20)
#    0.000    2.000    1.250    1.500    0.000    8.000 
#    4.500    0.000    0.000    0.000    0.000    0.000 
#    0.000    0.000    0.000    0.000    0.000    0.000 
#
# Total GULP energy -178962.005548 kJ/mol
# GULP energy per Si atom -5592.562673 kJ/mol
# Density = 2.189700 g / cm^3
# Si number density = 21.946952 Si / 1000 Ang^3
#
#
#
# Elastic Constant Matrix: (Units=GPa)
#
#
# Indices 1 2 3 4 5 6 
#
# 1 53.7906 14.9316 9.6410 0.0000 0.0000 0.0000
# 2 14.9316 98.5254 47.4786 0.0000 0.0000 0.0000
# 3 9.6410 47.4786 174.3542 0.0000 0.0000 0.0000
# 4 0.0000 0.0000 0.0000 42.7836 0.0000 0.0000
# 5 0.0000 0.0000 0.0000 0.0000 21.9326 0.0000
# 6 0.0000 0.0000 0.0000 0.0000 0.0000 30.6680
#
#
#
# Elastic Compliance Matrix: (Units=1/GPa)
#
#
# Indices 1 2 3 4 5 6 
#
# 1 0.019422 -0.002792 -0.000314 0.000000 0.000000 0.000000
# 2 -0.002792 0.012084 -0.003136 0.000000 0.000000 0.000000
# 3 -0.000314 -0.003136 0.006607 0.000000 0.000000 0.000000
# 4 0.000000 0.000000 0.000000 0.023373 0.000000 0.000000
# 5 0.000000 0.000000 0.000000 0.000000 0.045594 0.000000
# 6 0.000000 0.000000 0.000000 0.000000 0.000000 0.032607
#
#
# Mechanical properties :
#
#
# Convention : Reuss Voigt Hill
#
# Bulk Modulus (GPa) = 39.01880 52.30805 45.66342
# Shear Modulus (GPa) = 31.11099 36.05146 33.58123
#
# Velocity S-wave (km/s) = 3.76913 4.05738 3.91590
# Velocity P-wave (km/s) = 6.06292 6.77018 6.42629
#
# Compressibility (1/GPa) = 0.02562867
#
# Stress axis : x y z
#
# Youngs Moduli (GPa) = 51.48829 82.75290 151.35866
#
# Poissons Ratio (x) = 0.23107 0.04746
# Poissons Ratio (y) = 0.14377 0.47470
# Poissons Ratio (z) = 0.01615 0.25953
#
# Static dielectric constant tensor:
#      x y z
#    x 1.818830 0.000000 0.000000 
#    y 0.000000 1.815340 0.000000 
#    z 0.000000 0.000000 1.881060 
# 
# From -- ./inp_files/10683.got.cif
#   From: 2010.05.17/outbox.cif.g08.bks.cpg/sg57_6_cif.got.tgz:10683.got - 2010.06.03 13:58:18.
