data_PCOD9437390
_publ_section_title
;
Structure prediction by ZEFSAII (Michael W. Deem and Ramdas Pophale) SiO2 
 PCOD9437390
Probable space group: P B C M
;
_chemical_formula_sum "Si O2"
_cell_formula_units_Z 60
_cell_length_a 22.707814
_cell_length_b 7.689586
_cell_length_c 16.306497
_cell_angle_alpha 90.000000
_cell_angle_beta 90.000000
_cell_angle_gamma 90.000000
_cell_volume 2847.337590
_symmetry_space_group_name_H-M "P B C M"
_symmetry_group_IT_number 57
_symmetry_cell_setting 'orthorhombic'
loop_
_space_group_symop_operation_xyz
x,y,z
-x,-y,1/2+z
x,1/2-y,-z
-x,1/2+y,1/2-z
-x,-y,-z
x,y,1/2-z
-x,1/2+y,z
x,1/2-y,1/2+z
loop_
_atom_site_type_symbol
_atom_site_label
_atom_site_fract_x
_atom_site_fract_y
_atom_site_fract_z
Si Si1 0.753852 0.750000 0.000000
Si Si2 0.694593 0.391755 0.441568
Si Si3 0.037728 0.086607 0.154378
Si Si4 0.836160 0.796770 0.654761
Si Si5 0.483629 0.145084 0.434116
Si Si6 0.802360 0.290494 0.158725
Si Si7 0.419799 0.625818 0.843195
Si Si8 0.079931 0.716556 0.094828
O O1 0.715733 0.575481 0.019905
O O2 0.795508 0.776149 0.081197
O O3 0.664802 0.250000 0.500000
O O4 0.751017 0.288400 0.406762
O O5 0.646897 0.409991 0.370201
O O6 0.024108 0.115161 0.250000
O O7 0.093790 0.209556 0.133807
O O8 0.977879 0.101426 0.103713
O O9 0.059925 0.892315 0.140057
O O10 0.827373 0.735817 0.750000
O O11 0.821569 0.004948 0.657373
O O12 0.443520 0.250000 0.500000
O O13 0.541152 0.241771 0.398508
O O14 0.500000 0.000000 0.500000
O O15 0.451095 0.059216 0.358792
O O16 0.781862 0.249057 0.250000
O O17 0.858128 0.170794 0.136247
O O18 0.422673 0.683453 0.750000
O O19 0.092558 0.750000 0.000000
#
# Coordination Sequence:
#
# PCOD9437390 Si02
#       8
#     4   8   8   8   8   8   8   8
#     4  10  22  40  68  84 120 170 216 262 328 390
#     4  11  23  41  64  91 127 165 217 261 317 381
#     4  10  20  36  55  78 112 150 191 250 319 380
#     4   8  17  35  59  84 113 154 203 258 322 384
#     4   9  19  37  63  92 129 169 207 255 314 375
#     4   9  18  37  60  80 114 158 200 251 314 376
#     4  11  22  39  65  97 133 171 215 264 323 380
#     4  11  21  34  54  83 113 148 194 249 311 383
#
# _framework density 21.072317999999999
#
# number of rings (size 3 to 8) (size 9 to 14) (size 15 to 20)
#    0.000    2.133    0.000    4.800    1.867    0.533 
#    4.800    1.333    0.000    0.000    0.000    0.000 
#    0.000    0.000    0.000    0.000    0.000    0.000 
#
# Total GULP energy -334036.259351 kJ/mol
# GULP energy per Si atom -5567.270989 kJ/mol
# Density = 2.102436 g / cm^3
# Si number density = 21.072318 Si / 1000 Ang^3
#
#
#
# Elastic Constant Matrix: (Units=GPa)
#
#
# Indices 1 2 3 4 5 6 
#
# 1 83.6542 17.2006 22.5993 0.0000 0.0000 0.0000
# 2 17.2006 33.1345 13.7274 0.0000 0.0000 0.0000
# 3 22.5993 13.7274 103.4416 0.0000 0.0000 0.0000
# 4 0.0000 0.0000 0.0000 15.1195 0.0000 0.0000
# 5 0.0000 0.0000 0.0000 0.0000-2036.1838 0.0000
# 6 0.0000 0.0000 0.0000 0.0000 0.0000 25.0559
#
#
#
# Elastic Compliance Matrix: (Units=1/GPa)
#
#
# Indices 1 2 3 4 5 6 
#
# 1 0.013836 -0.006275 -0.002190 0.000000 0.000000 0.000000
# 2 -0.006275 0.034782 -0.003245 0.000000 0.000000 0.000000
# 3 -0.002190 -0.003245 0.010576 0.000000 0.000000 0.000000
# 4 0.000000 0.000000 0.000000 0.066140 0.000000 0.000000
# 5 0.000000 0.000000 0.000000 0.000000 -0.000491 0.000000
# 6 0.000000 0.000000 0.000000 0.000000 0.000000 0.039911
#
#
# Mechanical properties :
#
#
# Convention : Reuss Voigt Hill
#
# Bulk Modulus (GPa) = 27.95315 36.36501 32.15908
# Shear Modulus (GPa) = 24.98775 -388.08815 -181.55020
#
# Velocity S-wave (km/s) = 3.44729 -13.58563 -9.29208
# Velocity P-wave (km/s) = 5.39808 15.12607 9.99146
#
# Compressibility (1/GPa) = 0.03577414
#
# Stress axis : x y z
#
# Youngs Moduli (GPa) = 72.27591 28.75063 94.55041
#
# Poissons Ratio (x) = 0.18041 0.20707
# Poissons Ratio (y) = 0.45354 0.30680
# Poissons Ratio (z) = 0.15829 0.09329
#
# Static dielectric constant tensor:
#      x y z
#    x 1.771990 0.000000 0.000000 
#    y 0.000000 1.718350 0.000000 
#    z 0.000000 0.000000 1.790700 
# 
# From -- ./inp_files/19468.got.cif
#   From: 2010.05.17/outbox.cif.g08.bks.cpg/sg57_10_cif.got.tgz:19468.got - 2010.06.03 13:58:18.
