data_PCOD9437337
_publ_section_title
;
Structure prediction by ZEFSAII (Michael W. Deem and Ramdas Pophale) SiO2 
 PCOD9437337
Probable space group: P B C M
;
_chemical_formula_sum "Si O2"
_cell_formula_units_Z 56
_cell_length_a 22.623201
_cell_length_b 14.427871
_cell_length_c 8.766601
_cell_angle_alpha 90.000000
_cell_angle_beta 90.000000
_cell_angle_gamma 90.000000
_cell_volume 2861.459117
_symmetry_space_group_name_H-M "P B C M"
_symmetry_group_IT_number 57
_symmetry_cell_setting 'orthorhombic'
loop_
_space_group_symop_operation_xyz
x,y,z
-x,-y,1/2+z
x,1/2-y,-z
-x,1/2+y,1/2-z
-x,-y,-z
x,y,1/2-z
-x,1/2+y,z
x,1/2-y,1/2+z
loop_
_atom_site_type_symbol
_atom_site_label
_atom_site_fract_x
_atom_site_fract_y
_atom_site_fract_z
Si Si1 0.849498 0.651298 0.568520
Si Si2 0.587334 0.045288 0.566869
Si Si3 0.808050 0.031287 0.930300
Si Si4 0.299210 0.646586 0.067622
Si Si5 0.527641 0.647627 0.066612
Si Si6 0.027055 0.407768 0.926472
Si Si7 0.101613 0.843760 0.925663
O O1 0.832938 0.750000 0.500000
O O2 0.846440 0.650913 0.750000
O O3 0.808655 0.571116 0.499135
O O4 0.917109 0.630347 0.517462
O O5 0.590202 0.054989 0.750000
O O6 0.646392 0.084396 0.491430
O O7 0.533325 0.107729 0.503643
O O8 0.573639 0.936598 0.532886
O O9 0.799999 0.030144 0.750000
O O10 0.759968 0.097204 0.007737
O O11 0.871662 0.073541 0.975705
O O12 0.299195 0.651592 0.250000
O O13 0.304024 0.750000 0.000000
O O14 0.522194 0.654596 0.250000
O O15 0.540802 0.750000 0.000000
O O16 0.044697 0.422253 0.750000
O O17 0.969271 0.342825 0.926865
O O18 0.000000 0.500000 0.000000
O O19 0.120414 0.854592 0.750000
O O20 0.124701 0.750000 0.000000
#
# Coordination Sequence:
#
# PCOD9437337 Si02
#       7
#     8   8   8   8   8   8   8
#     4  12  25  43  65  90 120 156 201 248 302 366
#     4  10  21  38  60  90 127 167 213 258 306 363
#     4  12  25  43  65  88 118 154 199 250 302 358
#     4  12  25  43  66  92 124 161 204 252 306 363
#     4  10  20  35  59  91 129 170 210 256 307 361
#     4  11  22  37  60  88 120 155 194 242 298 361
#     4  11  23  38  58  86 118 153 192 238 295 357
#
# _framework density 19.570436000000001
#
# number of rings (size 3 to 8) (size 9 to 14) (size 15 to 20)
#    0.000    0.857    1.429    6.857    0.000    4.571 
#    0.000    0.714    0.000    1.714    0.000    0.000 
#    0.000    0.000    0.000    0.000    0.000    0.000 
#
# Total GULP energy -313130.042934 kJ/mol
# GULP energy per Si atom -5591.607910 kJ/mol
# Density = 1.952589 g / cm^3
# Si number density = 19.570436 Si / 1000 Ang^3
#
#
#
# Elastic Constant Matrix: (Units=GPa)
#
#
# Indices 1 2 3 4 5 6 
#
# 1 81.9317 34.3211 43.2121 0.0000 0.0000 0.0000
# 2 34.3211 157.5690 74.7417 0.0000 0.0000 0.0000
# 3 43.2121 74.7417 174.9913 0.0000 0.0000 0.0000
# 4 0.0000 0.0000 0.0000 34.3377 0.0000 0.0000
# 5 0.0000 0.0000 0.0000 0.0000 34.0263 0.0000
# 6 0.0000 0.0000 0.0000 0.0000 0.0000 29.8751
#
#
#
# Elastic Compliance Matrix: (Units=1/GPa)
#
#
# Indices 1 2 3 4 5 6 
#
# 1 0.014439 -0.001823 -0.002787 0.000000 0.000000 0.000000
# 2 -0.001823 0.008189 -0.003048 0.000000 0.000000 0.000000
# 3 -0.002787 -0.003048 0.007704 0.000000 0.000000 0.000000
# 4 0.000000 0.000000 0.000000 0.029122 0.000000 0.000000
# 5 0.000000 0.000000 0.000000 0.000000 0.029389 0.000000
# 6 0.000000 0.000000 0.000000 0.000000 0.000000 0.033473
#
#
# Mechanical properties :
#
#
# Convention : Reuss Voigt Hill
#
# Bulk Modulus (GPa) = 66.58934 79.89354 73.24144
# Shear Modulus (GPa) = 35.05397 37.12895 36.09146
#
# Velocity S-wave (km/s) = 4.23681 4.36041 4.29905
# Velocity P-wave (km/s) = 7.61797 8.14021 7.88342
#
# Compressibility (1/GPa) = 0.01501742
#
# Stress axis : x y z
#
# Youngs Moduli (GPa) = 69.25789 122.11375 129.79630
#
# Poissons Ratio (x) = 0.22263 0.36172
# Poissons Ratio (y) = 0.12626 0.39555
# Poissons Ratio (z) = 0.19301 0.37214
#
# Static dielectric constant tensor:
#      x y z
#    x 1.692960 0.000000 0.000000 
#    y 0.000000 1.583910 0.000000 
#    z 0.000000 0.000000 1.654270 
# 
# From -- ./inp_files/8111.got.cif
#   From: 2010.05.17/outbox.cif.g08.bks.cpg/sg57_5_cif.got.tgz:8111.got - 2010.06.03 13:58:18.
