data_PCOD9437288
_publ_section_title
;
Structure prediction by ZEFSAII (Michael W. Deem and Ramdas Pophale) SiO2 
 PCOD9437288
Probable space group: P B C M
;
_chemical_formula_sum "Si O2"
_cell_formula_units_Z 48
_cell_length_a 9.346007
_cell_length_b 17.773351
_cell_length_c 14.426267
_cell_angle_alpha 90.000000
_cell_angle_beta 90.000000
_cell_angle_gamma 90.000000
_cell_volume 2396.345233
_symmetry_space_group_name_H-M "P B C M"
_symmetry_group_IT_number 57
_symmetry_cell_setting 'orthorhombic'
loop_
_space_group_symop_operation_xyz
x,y,z
-x,-y,1/2+z
x,1/2-y,-z
-x,1/2+y,1/2-z
-x,-y,-z
x,y,1/2-z
-x,1/2+y,z
x,1/2-y,1/2+z
loop_
_atom_site_type_symbol
_atom_site_label
_atom_site_fract_x
_atom_site_fract_y
_atom_site_fract_z
Si Si1 0.012027 0.870015 0.466989
Si Si2 0.373546 0.781123 0.853579
Si Si3 0.792024 0.959665 0.142135
Si Si4 0.502602 0.885375 0.354624
Si Si5 0.974295 0.219322 0.143803
Si Si6 0.669746 0.089412 0.017719
O O1 0.924331 0.937703 0.422595
O O2 0.976324 0.845352 0.572461
O O3 0.981463 0.798502 0.401027
O O4 0.181332 0.884800 0.470556
O O5 0.412509 0.807074 0.750000
O O6 0.443597 0.699408 0.866313
O O7 0.409345 0.841342 0.931707
O O8 0.199852 0.777775 0.857359
O O9 0.830545 0.971762 0.250000
O O10 0.672854 0.893844 0.137703
O O11 0.715402 0.031618 0.097217
O O12 0.464133 0.909352 0.250000
O O13 0.429152 0.935802 0.433193
O O14 0.020121 0.210010 0.250000
#
# Coordination Sequence:
#
# PCOD9437288 Si02
#       6
#     8   8   8   8   8   8
#     4  10  20  35  58  85 114 153 192 234 294 352
#     4   9  17  33  60  87 107 142 197 244 282 332
#     4  11  24  39  55  83 124 158 187 238 307 361
#     4  10  21  37  58  82 112 153 196 241 293 348
#     4   9  17  33  58  85 112 144 192 244 280 332
#     4  11  20  37  60  86 112 152 200 244 283 348
#
# _framework density 20.030501999999998
#
# number of rings (size 3 to 8) (size 9 to 14) (size 15 to 20)
#    0.000    2.000    1.667    2.500    0.000    1.333 
#    6.000    0.833    0.000    1.000    0.000    0.000 
#    0.000    0.000    0.000    0.000    0.000    0.000 
#
# Total GULP energy -267744.049758 kJ/mol
# GULP energy per Si atom -5578.001037 kJ/mol
# Density = 1.998491 g / cm^3
# Si number density = 20.030502 Si / 1000 Ang^3
#
#
#
# Elastic Constant Matrix: (Units=GPa)
#
#
# Indices 1 2 3 4 5 6 
#
# 1 33.1277 9.7436 40.9638 0.0000 0.0000 0.0000
# 2 9.7436 30.7525 30.0684 0.0000 0.0000 0.0000
# 3 40.9638 30.0684 164.6846 0.0000 0.0000 0.0000
# 4 0.0000 0.0000 0.0000 29.0269 0.0000 0.0000
# 5 0.0000 0.0000 0.0000 0.0000 23.7164 0.0000
# 6 0.0000 0.0000 0.0000 0.0000 0.0000 14.8811
#
#
#
# Elastic Compliance Matrix: (Units=1/GPa)
#
#
# Indices 1 2 3 4 5 6 
#
# 1 0.043984 -0.003943 -0.010221 0.000000 0.000000 0.000000
# 2 -0.003943 0.039938 -0.006311 0.000000 0.000000 0.000000
# 3 -0.010221 -0.006311 0.009767 0.000000 0.000000 0.000000
# 4 0.000000 0.000000 0.000000 0.034451 0.000000 0.000000
# 5 0.000000 0.000000 0.000000 0.000000 0.042165 0.000000
# 6 0.000000 0.000000 0.000000 0.000000 0.000000 0.067200
#
#
# Mechanical properties :
#
#
# Convention : Reuss Voigt Hill
#
# Bulk Modulus (GPa) = 18.96105 43.34626 31.15366
# Shear Modulus (GPa) = 16.88999 23.37747 20.13373
#
# Velocity S-wave (km/s) = 2.90696 3.41998 3.17386
# Velocity P-wave (km/s) = 4.55564 6.10591 5.38684
#
# Compressibility (1/GPa) = 0.05273970
#
# Stress axis : x y z
#
# Youngs Moduli (GPa) = 22.73534 25.03903 102.38690
#
# Poissons Ratio (x) = 0.09872 1.04648
# Poissons Ratio (y) = 0.08963 0.64619
# Poissons Ratio (z) = 0.23238 0.15803
#
# Static dielectric constant tensor:
#      x y z
#    x 1.697550 0.000000 0.000000 
#    y 0.000000 1.754200 0.000000 
#    z 0.000000 0.000000 1.724250 
# 
# From -- ./inp_files/16380.got.cif
#   From: 2010.05.17/outbox.cif.g08.bks.cpg/sg57_9_cif.got.tgz:16380.got - 2010.06.03 13:58:18.
