data_PCOD9437685
_publ_section_title
;
Structure prediction by ZEFSAII (Michael W. Deem and Ramdas Pophale) SiO2 
 PCOD9437685
Probable space group: P B C M
;
_chemical_formula_sum "Si O2"
_cell_formula_units_Z 28
_cell_length_a 9.585759
_cell_length_b 9.056909
_cell_length_c 15.058728
_cell_angle_alpha 90.000000
_cell_angle_beta 90.000000
_cell_angle_gamma 90.000000
_cell_volume 1307.358814
_symmetry_space_group_name_H-M "P B C M"
_symmetry_group_IT_number 57
_symmetry_cell_setting 'orthorhombic'
loop_
_space_group_symop_operation_xyz
x,y,z
-x,-y,1/2+z
x,1/2-y,-z
-x,1/2+y,1/2-z
-x,-y,-z
x,y,1/2-z
-x,1/2+y,z
x,1/2-y,1/2+z
loop_
_atom_site_type_symbol
_atom_site_label
_atom_site_fract_x
_atom_site_fract_y
_atom_site_fract_z
Si Si1 0.545002 0.810252 0.098562
Si Si2 0.032125 0.750000 0.000000
Si Si3 0.303180 0.019421 0.154340
Si Si4 0.812817 0.980867 0.459002
O O1 0.609721 0.671829 0.149175
O O2 0.413757 0.887477 0.142293
O O3 0.508001 0.750000 0.000000
O O4 0.668444 0.930739 0.084356
O O5 0.127965 0.642724 0.059280
O O6 0.929756 0.856309 0.055931
O O7 0.231973 0.008935 0.250000
O O8 0.210964 0.020463 0.065853
#
# Coordination Sequence:
#
# PCOD9437685 Si02
#       4
#     8   4   8   8
#     4  10  20  37  58  85 110 150 189 232 276 338
#     4  10  20  36  62  82 104 148 202 224 262 318
#     4  11  22  36  56  87 119 144 178 238 295 332
#     4  10  20  37  60  84 107 147 193 229 265 335
#
# _framework density 21.417224999999998
#
# number of rings (size 3 to 8) (size 9 to 14) (size 15 to 20)
#    0.000    1.714    4.286    4.286    6.000    0.000 
#    0.000    1.429    0.000    0.000    0.000    0.000 
#    0.000    0.000    0.000    0.000    0.000    0.000 
#
# Total GULP energy -156390.753325 kJ/mol
# GULP energy per Si atom -5585.384047 kJ/mol
# Density = 2.136848 g / cm^3
# Si number density = 21.417225 Si / 1000 Ang^3
#
#
#
# Elastic Constant Matrix: (Units=GPa)
#
#
# Indices 1 2 3 4 5 6 
#
# 1 43.5874 30.0847 8.7318 0.0000 0.0000 0.0000
# 2 30.0847 100.0287 -6.8163 0.0000 0.0000 0.0000
# 3 8.7318 -6.8163 73.6338 0.0000 0.0000 0.0000
# 4 0.0000 0.0000 0.0000 3.1899 0.0000 0.0000
# 5 0.0000 0.0000 0.0000 0.0000 -3.5660 0.0000
# 6 0.0000 0.0000 0.0000 0.0000 0.0000 43.7412
#
#
#
# Elastic Compliance Matrix: (Units=1/GPa)
#
#
# Indices 1 2 3 4 5 6 
#
# 1 0.030349 -0.009432 -0.004472 0.000000 0.000000 0.000000
# 2 -0.009432 0.012992 0.002321 0.000000 0.000000 0.000000
# 3 -0.004472 0.002321 0.014326 0.000000 0.000000 0.000000
# 4 0.000000 0.000000 0.000000 0.313491 0.000000 0.000000
# 5 0.000000 0.000000 0.000000 0.000000 -0.280429 0.000000
# 6 0.000000 0.000000 0.000000 0.000000 0.000000 0.022862
#
#
# Mechanical properties :
#
#
# Convention : Reuss Voigt Hill
#
# Bulk Modulus (GPa) = 28.98523 31.25003 30.11763
# Shear Modulus (GPa) = 33.72524 21.02302 27.37413
#
# Velocity S-wave (km/s) = 3.97253 3.13644 3.57898
# Velocity P-wave (km/s) = 5.88254 5.26679 5.58316
#
# Compressibility (1/GPa) = 0.03450034
#
# Stress axis : x y z
#
# Youngs Moduli (GPa) = 32.95037 76.96917 69.80364
#
# Poissons Ratio (x) = 0.72601 0.31216
# Poissons Ratio (y) = 0.31080 -0.16203
# Poissons Ratio (z) = 0.14735 -0.17866
#
# Static dielectric constant tensor:
#      x y z
#    x 1.788160 0.000000 0.000000 
#    y 0.000000 1.819480 0.000000 
#    z 0.000000 0.000000 3.794260 
# 
# From -- ./inp_files/17137.got.cif
#   From: 2010.05.17/outbox.cif.g08.bks.cpg/sg57_9_cif.got.tgz:17137.got - 2010.06.03 13:58:18.
