data_PCOD9437912
_publ_section_title
;
Structure prediction by ZEFSAII (Michael W. Deem and Ramdas Pophale) SiO2 
 PCOD9437912
Probable space group: P B C M
;
_chemical_formula_sum "Si O2"
_cell_formula_units_Z 48
_cell_length_a 9.060677
_cell_length_b 18.196751
_cell_length_c 15.612119
_cell_angle_alpha 90.000000
_cell_angle_beta 90.000000
_cell_angle_gamma 90.000000
_cell_volume 2574.046298
_symmetry_space_group_name_H-M "P B C M"
_symmetry_group_IT_number 57
_symmetry_cell_setting 'orthorhombic'
loop_
_space_group_symop_operation_xyz
x,y,z
-x,-y,1/2+z
x,1/2-y,-z
-x,1/2+y,1/2-z
-x,-y,-z
x,y,1/2-z
-x,1/2+y,z
x,1/2-y,1/2+z
loop_
_atom_site_type_symbol
_atom_site_label
_atom_site_fract_x
_atom_site_fract_y
_atom_site_fract_z
Si Si1 0.234208 0.663523 0.518698
Si Si2 0.726895 0.590164 0.845106
Si Si3 0.895293 0.661687 0.004276
Si Si4 0.540565 0.203631 0.845399
Si Si5 0.428937 0.545746 0.078791
Si Si6 0.654151 0.655530 0.149237
O O1 0.237533 0.750000 0.500000
O O2 0.317564 0.667723 0.609649
O O3 0.335113 0.612341 0.460329
O O4 0.066548 0.638952 0.502520
O O5 0.795374 0.594208 0.750000
O O6 0.580208 0.639702 0.843252
O O7 0.675409 0.508516 0.868384
O O8 0.820768 0.624181 0.922040
O O9 0.797845 0.645974 0.089118
O O10 0.891913 0.750000 0.000000
O O11 0.583845 0.227056 0.750000
O O12 0.447871 0.274444 0.881073
O O13 0.555834 0.583101 0.135396
O O14 0.500000 0.500000 0.000000
O O15 0.689330 0.667268 0.250000
#
# Coordination Sequence:
#
# PCOD9437912 Si02
#       6
#     8   8   8   8   8   8
#     4  11  23  40  62  91 125 159 207 259 312 366
#     4  11  23  40  63  92 125 161 207 255 307 368
#     4  11  23  39  64  93 125 167 201 250 316 376
#     4  10  20  37  64  90 117 156 208 258 301 360
#     4  12  22  38  67  90 119 165 211 258 307 372
#     4  11  22  40  64  92 123 162 210 256 306 371
#
# _framework density 18.647684000000002
#
# number of rings (size 3 to 8) (size 9 to 14) (size 15 to 20)
#    0.000    1.000    6.667    0.500    0.000    1.333 
#    0.000    4.167    0.000    0.000    0.000    0.000 
#    0.000    0.000    0.000    0.000    0.000    0.000 
#
# Total GULP energy -267431.948970 kJ/mol
# GULP energy per Si atom -5571.498937 kJ/mol
# Density = 1.860524 g / cm^3
# Si number density = 18.647684 Si / 1000 Ang^3
#
#
#
# Elastic Constant Matrix: (Units=GPa)
#
#
# Indices 1 2 3 4 5 6 
#
# 1 122.0617 24.5575 65.2521 0.0000 0.0000 0.0000
# 2 24.5575 67.2267 22.4650 0.0000 0.0000 0.0000
# 3 65.2521 22.4650 111.0714 0.0000 0.0000 0.0000
# 4 0.0000 0.0000 0.0000 27.3009 0.0000 0.0000
# 5 0.0000 0.0000 0.0000 0.0000 11.6535 0.0000
# 6 0.0000 0.0000 0.0000 0.0000 0.0000 39.0967
#
#
#
# Elastic Compliance Matrix: (Units=1/GPa)
#
#
# Indices 1 2 3 4 5 6 
#
# 1 0.012245 -0.002219 -0.006745 0.000000 0.000000 0.000000
# 2 -0.002219 0.016355 -0.002004 0.000000 0.000000 0.000000
# 3 -0.006745 -0.002004 0.013371 0.000000 0.000000 0.000000
# 4 0.000000 0.000000 0.000000 0.036629 0.000000 0.000000
# 5 0.000000 0.000000 0.000000 0.000000 0.085811 0.000000
# 6 0.000000 0.000000 0.000000 0.000000 0.000000 0.025578
#
#
# Mechanical properties :
#
#
# Convention : Reuss Voigt Hill
#
# Bulk Modulus (GPa) = 49.91286 58.32322 54.11804
# Shear Modulus (GPa) = 22.87251 28.14923 25.51087
#
# Velocity S-wave (km/s) = 3.50603 3.88948 3.70272
# Velocity P-wave (km/s) = 6.57374 7.17740 6.88219
#
# Compressibility (1/GPa) = 0.02003492
#
# Stress axis : x y z
#
# Youngs Moduli (GPa) = 81.66882 61.14173 74.78911
#
# Poissons Ratio (x) = 0.13568 0.50442
# Poissons Ratio (y) = 0.18123 0.14991
# Poissons Ratio (z) = 0.55082 0.12255
#
# Static dielectric constant tensor:
#      x y z
#    x 1.648600 0.000000 0.000000 
#    y 0.000000 1.643320 0.000000 
#    z 0.000000 0.000000 1.596940 
# 
# From -- ./inp_files/16322.got.cif
#   From: 2010.05.17/outbox.cif.g08.bks.cpg/sg57_9_cif.got.tgz:16322.got - 2010.06.03 13:58:18.
