data_PCOD9437832
_publ_section_title
;
Structure prediction by ZEFSAII (Michael W. Deem and Ramdas Pophale) SiO2 
 PCOD9437832
Probable space group: P B C M
;
_chemical_formula_sum "Si O2"
_cell_formula_units_Z 40
_cell_length_a 10.320588
_cell_length_b 20.768140
_cell_length_c 10.346219
_cell_angle_alpha 90.000000
_cell_angle_beta 90.000000
_cell_angle_gamma 90.000000
_cell_volume 2217.602543
_symmetry_space_group_name_H-M "P B C M"
_symmetry_group_IT_number 57
_symmetry_cell_setting 'orthorhombic'
loop_
_space_group_symop_operation_xyz
x,y,z
-x,-y,1/2+z
x,1/2-y,-z
-x,1/2+y,1/2-z
-x,-y,-z
x,y,1/2-z
-x,1/2+y,z
x,1/2-y,1/2+z
loop_
_atom_site_type_symbol
_atom_site_label
_atom_site_fract_x
_atom_site_fract_y
_atom_site_fract_z
Si Si1 0.071234 0.678005 0.250000
Si Si2 0.125845 0.433694 0.750000
Si Si3 0.552782 0.410724 0.094578
Si Si4 0.894973 0.961250 0.250000
Si Si5 0.231490 0.673685 0.503049
Si Si6 0.941116 0.165586 0.750000
Si Si7 0.711323 0.964595 0.002793
O O1 0.156784 0.657105 0.372697
O O2 0.040117 0.755626 0.250000
O O3 0.943955 0.635122 0.250000
O O4 0.211078 0.439880 0.621144
O O5 0.018919 0.491200 0.750000
O O6 0.560037 0.406876 0.250000
O O7 0.625468 0.352264 0.025887
O O8 0.404878 0.418898 0.051373
O O9 0.637183 0.471213 0.044065
O O10 0.808959 0.974473 0.122443
O O11 0.942235 0.886106 0.250000
O O12 0.236375 0.750000 0.500000
O O13 0.144529 0.651382 0.623648
#
# Coordination Sequence:
#
# PCOD9437832 Si02
#       7
#     4   4   8   4   8   4   8
#     4  10  22  37  57  93 123 150 194 247 289 349
#     4  12  22  38  57  88 123 150 198 251 290 341
#     4  11  21  41  62  83 122 154 191 251 299 342
#     4  12  22  38  61  90 121 158 198 239 292 365
#     4  10  20  37  63  89 113 154 201 237 286 347
#     4  10  20  37  61  85 123 162 190 235 301 351
#     4  11  24  37  61  90 114 157 199 238 301 354
#
# _framework density 18.037496000000001
#
# number of rings (size 3 to 8) (size 9 to 14) (size 15 to 20)
#    0.000    1.200    3.000    4.200    0.000    0.800 
#    0.000    2.000    0.000    0.000    0.000    0.000 
#    0.000    0.000    0.000    0.000    0.000    0.000 
#
# Total GULP energy -223265.079486 kJ/mol
# GULP energy per Si atom -5581.626987 kJ/mol
# Density = 1.799644 g / cm^3
# Si number density = 18.037496 Si / 1000 Ang^3
#
#
#
# Elastic Constant Matrix: (Units=GPa)
#
#
# Indices 1 2 3 4 5 6 
#
# 1 109.6393 36.5739 50.4039 0.0000 0.0000 0.0000
# 2 36.5739 27.1215 32.8424 0.0000 0.0000 0.0000
# 3 50.4039 32.8424 116.1587 0.0000 0.0000 0.0000
# 4 0.0000 0.0000 0.0000 -92.4115 0.0000 0.0000
# 5 0.0000 0.0000 0.0000 0.0000 40.7845 0.0000
# 6 0.0000 0.0000 0.0000 0.0000 0.0000 29.6794
#
#
#
# Elastic Compliance Matrix: (Units=1/GPa)
#
#
# Indices 1 2 3 4 5 6 
#
# 1 0.016714 -0.020919 -0.001338 0.000000 0.000000 0.000000
# 2 -0.020919 0.082249 -0.014178 0.000000 0.000000 0.000000
# 3 -0.001338 -0.014178 0.013198 0.000000 0.000000 0.000000
# 4 0.000000 0.000000 0.000000 -0.010821 0.000000 0.000000
# 5 0.000000 0.000000 0.000000 0.000000 0.024519 0.000000
# 6 0.000000 0.000000 0.000000 0.000000 0.000000 0.033693
#
#
# Mechanical properties :
#
#
# Convention : Reuss Voigt Hill
#
# Bulk Modulus (GPa) = 25.45057 54.72886 40.08971
# Shear Modulus (GPa) = 20.36494 4.48376 12.42435
#
# Velocity S-wave (km/s) = 3.36376 1.57835 2.62736
# Velocity P-wave (km/s) = 5.40619 5.80768 5.61053
#
# Compressibility (1/GPa) = 0.03929185
#
# Stress axis : x y z
#
# Youngs Moduli (GPa) = 59.82915 12.15817 75.76868
#
# Poissons Ratio (x) = 0.25434 0.10138
# Poissons Ratio (y) = 1.25158 1.07422
# Poissons Ratio (z) = 0.08006 0.17237
#
# Static dielectric constant tensor:
#      x y z
#    x 1.613170 0.000000 0.000000 
#    y 0.000000 1.799210 0.000000 
#    z 0.000000 0.000000 1.648900 
# 
# From -- ./inp_files/1589.got.cif
#   From: 2010.05.17/outbox.cif.g08.bks.cpg/sg57_1_cif.got.tgz:1589.got - 2010.06.03 13:58:18.
