data_PCOD9437879
_publ_section_title
;
Structure prediction by ZEFSAII (Michael W. Deem and Ramdas Pophale) SiO2 
 PCOD9437879
Probable space group: P B C M
;
_chemical_formula_sum "Si O2"
_cell_formula_units_Z 48
_cell_length_a 9.794224
_cell_length_b 17.236797
_cell_length_c 14.480585
_cell_angle_alpha 90.000000
_cell_angle_beta 90.000000
_cell_angle_gamma 90.000000
_cell_volume 2444.627577
_symmetry_space_group_name_H-M "P B C M"
_symmetry_group_IT_number 57
_symmetry_cell_setting 'orthorhombic'
loop_
_space_group_symop_operation_xyz
x,y,z
-x,-y,1/2+z
x,1/2-y,-z
-x,1/2+y,1/2-z
-x,-y,-z
x,y,1/2-z
-x,1/2+y,z
x,1/2-y,1/2+z
loop_
_atom_site_type_symbol
_atom_site_label
_atom_site_fract_x
_atom_site_fract_y
_atom_site_fract_z
Si Si1 0.562592 0.561276 0.427523
Si Si2 0.332453 0.832202 0.533422
Si Si3 0.267602 0.930229 0.350510
Si Si4 0.177480 0.158592 0.012675
Si Si5 0.944187 0.550918 0.643761
Si Si6 0.924733 0.126124 0.139736
O O1 0.500000 0.500000 0.500000
O O2 0.438084 0.618527 0.404882
O O3 0.638311 0.506688 0.354457
O O4 0.680973 0.614638 0.470144
O O5 0.388402 0.750000 0.500000
O O6 0.303450 0.878402 0.438508
O O7 0.191457 0.824014 0.589308
O O8 0.285277 0.891827 0.250000
O O9 0.108610 0.952505 0.359927
O O10 0.071176 0.145538 0.096395
O O11 0.196438 0.250000 0.000000
O O12 0.109425 0.116391 0.924489
O O13 0.904864 0.566361 0.750000
O O14 0.893338 0.464714 0.617615
O O15 0.924681 0.135152 0.250000
#
# Coordination Sequence:
#
# PCOD9437879 Si02
#       6
#     8   8   8   8   8   8
#     4  10  22  40  64  86 120 166 215 252 301 373
#     4  11  23  41  60  93 128 168 204 258 323 380
#     4  10  20  37  63  90 120 164 212 256 305 370
#     4  12  23  39  62  95 130 161 200 265 326 376
#     4  10  20  37  62  90 121 162 209 256 307 368
#     4  11  23  39  63  92 123 166 218 262 312 376
#
# _framework density 19.634892000000001
#
# number of rings (size 3 to 8) (size 9 to 14) (size 15 to 20)
#    0.000    1.333    3.333    3.500    0.000    2.000 
#    0.000    5.000    0.000    6.000    0.000    0.000 
#    0.000    0.000    0.000    0.000    0.000    0.000 
#
# Total GULP energy -267999.225682 kJ/mol
# GULP energy per Si atom -5583.317202 kJ/mol
# Density = 1.959020 g / cm^3
# Si number density = 19.634892 Si / 1000 Ang^3
#
#
#
# Elastic Constant Matrix: (Units=GPa)
#
#
# Indices 1 2 3 4 5 6 
#
# 1 87.8175 14.7322 16.0505 0.0000 0.0000 0.0000
# 2 14.7322 79.0559 25.8199 0.0000 0.0000 0.0000
# 3 16.0505 25.8199 84.6557 0.0000 0.0000 0.0000
# 4 0.0000 0.0000 0.0000 12.0038 0.0000 0.0000
# 5 0.0000 0.0000 0.0000 0.0000 -3.1134 0.0000
# 6 0.0000 0.0000 0.0000 0.0000 0.0000 13.6473
#
#
#
# Elastic Compliance Matrix: (Units=1/GPa)
#
#
# Indices 1 2 3 4 5 6 
#
# 1 0.011988 -0.001657 -0.001768 0.000000 0.000000 0.000000
# 2 -0.001657 0.014278 -0.004041 0.000000 0.000000 0.000000
# 3 -0.001768 -0.004041 0.013380 0.000000 0.000000 0.000000
# 4 0.000000 0.000000 0.000000 0.083307 0.000000 0.000000
# 5 0.000000 0.000000 0.000000 0.000000 -0.321194 0.000000
# 6 0.000000 0.000000 0.000000 0.000000 0.000000 0.073275
#
#
# Mechanical properties :
#
#
# Convention : Reuss Voigt Hill
#
# Bulk Modulus (GPa) = 40.45939 40.52603 40.49271
# Shear Modulus (GPa) = -49.11709 17.50264 -15.80722
#
# Velocity S-wave (km/s) = -5.00695 2.98888 -2.84043
# Velocity P-wave (km/s) = 3.57427 5.70927 3.14805
#
# Compressibility (1/GPa) = 0.02471614
#
# Stress axis : x y z
#
# Youngs Moduli (GPa) = 83.41499 70.03940 74.73802
#
# Poissons Ratio (x) = 0.11604 0.13211
# Poissons Ratio (y) = 0.13819 0.30198
# Poissons Ratio (z) = 0.14745 0.28300
#
# Static dielectric constant tensor:
#      x y z
#    x 1.699300 0.000000 0.000000 
#    y 0.000000 1.694140 0.000000 
#    z 0.000000 0.000000 1.663830 
# 
# From -- ./inp_files/16326.got.cif
#   From: 2010.05.17/outbox.cif.g08.bks.cpg/sg57_9_cif.got.tgz:16326.got - 2010.06.03 13:58:18.
