data_PCOD9437189
_publ_section_title
;
Structure prediction by ZEFSAII (Michael W. Deem and Ramdas Pophale) SiO2 
 PCOD9437189
Probable space group: P B C M
;
_chemical_formula_sum "Si O2"
_cell_formula_units_Z 64
_cell_length_a 20.027680
_cell_length_b 20.573090
_cell_length_c 8.862213
_cell_angle_alpha 90.000000
_cell_angle_beta 90.000000
_cell_angle_gamma 90.000000
_cell_volume 3651.508817
_symmetry_space_group_name_H-M "P B C M"
_symmetry_group_IT_number 57
_symmetry_cell_setting 'orthorhombic'
loop_
_space_group_symop_operation_xyz
x,y,z
-x,-y,1/2+z
x,1/2-y,-z
-x,1/2+y,1/2-z
-x,-y,-z
x,y,1/2-z
-x,1/2+y,z
x,1/2-y,1/2+z
loop_
_atom_site_type_symbol
_atom_site_label
_atom_site_fract_x
_atom_site_fract_y
_atom_site_fract_z
Si Si1 0.658707 0.577935 0.930511
Si Si2 0.317651 0.562425 0.570030
Si Si3 0.167258 0.531500 0.928448
Si Si4 0.021589 0.568927 0.929898
Si Si5 0.599894 0.319883 0.930080
Si Si6 0.811119 0.606764 0.571394
Si Si7 0.929579 0.819805 0.929550
Si Si8 0.442855 0.179943 0.430303
O O1 0.651974 0.573281 0.750000
O O2 0.732271 0.607533 0.963476
O O3 0.657740 0.505959 0.001125
O O4 0.602455 0.623984 0.999046
O O5 0.327134 0.561660 0.750000
O O6 0.237962 0.565244 0.539292
O O7 0.356381 0.622518 0.498545
O O8 0.167110 0.513481 0.750000
O O9 0.101299 0.573540 0.955662
O O10 0.164664 0.465222 0.023515
O O11 0.009328 0.568667 0.750000
O O12 0.000000 0.500000 0.000000
O O13 0.980072 0.626156 0.006124
O O14 0.607652 0.317621 0.750000
O O15 0.521303 0.331396 0.963666
O O16 0.617820 0.250000 0.000000
O O17 0.820392 0.616018 0.750000
O O18 0.855881 0.657718 0.481914
O O19 0.933260 0.817731 0.750000
O O20 0.944835 0.750000 0.000000
O O21 0.424883 0.250000 0.500000
O O22 0.434497 0.181774 0.250000
#
# Coordination Sequence:
#
# PCOD9437189 Si02
#       8
#     8   8   8   8   8   8   8   8
#     4  10  21  36  56  84 116 149 187 232 280 332
#     4  10  20  36  58  85 115 148 186 232 282 332
#     4   9  19  35  57  84 113 144 183 227 273 330
#     4  11  21  36  60  88 114 147 189 231 279 337
#     4  10  21  38  59  83 110 145 189 234 284 341
#     4  10  20  35  56  81 110 145 185 227 275 333
#     4  12  25  40  57  81 114 151 191 238 286 336
#     4  10  21  37  57  80 109 147 189 233 281 338
#
# _framework density 17.527000999999998
#
# number of rings (size 3 to 8) (size 9 to 14) (size 15 to 20)
#    0.000    1.750    1.250    3.375    0.000    5.000 
#    0.000    0.625    0.000    0.000    0.000    0.000 
#    0.000    0.000    0.000    0.000    0.000    0.000 
#
# Total GULP energy -357491.284716 kJ/mol
# GULP energy per Si atom -5585.801324 kJ/mol
# Density = 1.748711 g / cm^3
# Si number density = 17.527001 Si / 1000 Ang^3
#
#
#
# Elastic Constant Matrix: (Units=GPa)
#
#
# Indices 1 2 3 4 5 6 
#
# 1 101.9543 95.1111 67.7609 0.0000 0.0000 0.0000
# 2 95.1111 154.6829 79.3931 0.0000 0.0000 0.0000
# 3 67.7609 79.3931 101.9410 0.0000 0.0000 0.0000
# 4 0.0000 0.0000 0.0000 36.7886 0.0000 0.0000
# 5 0.0000 0.0000 0.0000 0.0000 28.0852 0.0000
# 6 0.0000 0.0000 0.0000 0.0000 0.0000 27.5654
#
#
#
# Elastic Compliance Matrix: (Units=1/GPa)
#
#
# Indices 1 2 3 4 5 6 
#
# 1 0.026590 -0.012125 -0.008232 0.000000 0.000000 0.000000
# 2 -0.012125 0.016299 -0.004634 0.000000 0.000000 0.000000
# 3 -0.008232 -0.004634 0.018891 0.000000 0.000000 0.000000
# 4 0.000000 0.000000 0.000000 0.027182 0.000000 0.000000
# 5 0.000000 0.000000 0.000000 0.000000 0.035606 0.000000
# 6 0.000000 0.000000 0.000000 0.000000 0.000000 0.036277
#
#
# Mechanical properties :
#
#
# Convention : Reuss Voigt Hill
#
# Bulk Modulus (GPa) = 84.76082 93.67871 89.21977
# Shear Modulus (GPa) = 23.28190 26.24205 24.76198
#
# Velocity S-wave (km/s) = 3.64860 3.87361 3.76279
# Velocity P-wave (km/s) = 8.13725 8.57734 8.36019
#
# Compressibility (1/GPa) = 0.01179790
#
# Stress axis : x y z
#
# Youngs Moduli (GPa) = 37.60788 61.35509 52.93632
#
# Poissons Ratio (x) = 0.74390 0.43577
# Poissons Ratio (y) = 0.45598 0.24532
# Poissons Ratio (z) = 0.30958 0.28434
#
# Static dielectric constant tensor:
#      x y z
#    x 1.606920 0.000000 0.000000 
#    y 0.000000 1.551560 0.000000 
#    z 0.000000 0.000000 1.583260 
# 
# From -- ./inp_files/8624.got.cif
#   From: 2010.05.17/outbox.cif.g08.bks.cpg/sg57_5_cif.got.tgz:8624.got - 2010.06.03 13:58:18.
