data_PCOD9437774
_publ_section_title
;
Structure prediction by ZEFSAII (Michael W. Deem and Ramdas Pophale) SiO2 
 PCOD9437774
Probable space group: P B C M
;
_chemical_formula_sum "Si O2"
_cell_formula_units_Z 48
_cell_length_a 31.477499
_cell_length_b 9.340361
_cell_length_c 8.643284
_cell_angle_alpha 90.000000
_cell_angle_beta 90.000000
_cell_angle_gamma 90.000000
_cell_volume 2541.222336
_symmetry_space_group_name_H-M "P B C M"
_symmetry_group_IT_number 57
_symmetry_cell_setting 'orthorhombic'
loop_
_space_group_symop_operation_xyz
x,y,z
-x,-y,1/2+z
x,1/2-y,-z
-x,1/2+y,1/2-z
-x,-y,-z
x,y,1/2-z
-x,1/2+y,z
x,1/2-y,1/2+z
loop_
_atom_site_type_symbol
_atom_site_label
_atom_site_fract_x
_atom_site_fract_y
_atom_site_fract_z
Si Si1 0.376509 0.589576 0.563550
Si Si2 0.293895 0.409548 0.564135
Si Si3 0.119993 0.592163 0.436172
Si Si4 0.783187 0.409418 0.936025
Si Si5 0.539872 0.588750 0.436225
Si Si6 0.960720 0.590710 0.563932
O O1 0.378851 0.750000 0.500000
O O2 0.376375 0.597163 0.750000
O O3 0.333487 0.508990 0.514388
O O4 0.417213 0.495040 0.517089
O O5 0.299079 0.250000 0.500000
O O6 0.293202 0.405035 0.750000
O O7 0.250781 0.480799 0.502897
O O8 0.110665 0.750000 0.500000
O O9 0.119328 0.599011 0.250000
O O10 0.168234 0.553677 0.482256
O O11 0.083547 0.483090 0.486007
O O12 0.780575 0.407165 0.750000
O O13 0.774350 0.250000 0.000000
O O14 0.539743 0.750000 0.500000
O O15 0.500000 0.500000 0.500000
O O16 0.537958 0.593333 0.250000
O O17 0.963256 0.750000 0.500000
O O18 0.962296 0.591921 0.750000
O O19 0.000000 0.500000 0.500000
#
# Coordination Sequence:
#
# PCOD9437774 Si02
#       6
#     8   8   8   8   8   8
#     4  10  23  40  60  85 115 150 191 235 285 339
#     4  11  23  39  58  84 115 151 191 236 286 338
#     4   9  20  37  58  83 113 147 186 229 279 333
#     4  10  20  37  59  85 115 150 189 232 279 334
#     4  11  23  40  61  88 119 154 193 237 285 338
#     4  11  23  39  58  83 113 148 187 231 280 334
#
# _framework density 18.888548
#
# number of rings (size 3 to 8) (size 9 to 14) (size 15 to 20)
#    0.000    1.667    0.000    4.000    0.000    9.333 
#    0.000    1.667    0.000    0.000    0.000    0.000 
#    0.000    0.000    0.000    0.000    0.000    0.000 
#
# Total GULP energy -268318.842829 kJ/mol
# GULP energy per Si atom -5589.975892 kJ/mol
# Density = 1.884556 g / cm^3
# Si number density = 18.888548 Si / 1000 Ang^3
#
#
#
# Elastic Constant Matrix: (Units=GPa)
#
#
# Indices 1 2 3 4 5 6 
#
# 1 154.1829 124.7259 45.1151 0.0000 0.0000 0.0000
# 2 124.7259 195.9509 46.4267 0.0000 0.0000 0.0000
# 3 45.1151 46.4267 48.4596 0.0000 0.0000 0.0000
# 4 0.0000 0.0000 0.0000 40.8928 0.0000 0.0000
# 5 0.0000 0.0000 0.0000 0.0000 28.8057 0.0000
# 6 0.0000 0.0000 0.0000 0.0000 0.0000 43.0756
#
#
#
# Elastic Compliance Matrix: (Units=1/GPa)
#
#
# Indices 1 2 3 4 5 6 
#
# 1 0.014636 -0.007875 -0.006081 0.000000 0.000000 0.000000
# 2 -0.007875 0.010839 -0.003053 0.000000 0.000000 0.000000
# 3 -0.006081 -0.003053 0.029222 0.000000 0.000000 0.000000
# 4 0.000000 0.000000 0.000000 0.024454 0.000000 0.000000
# 5 0.000000 0.000000 0.000000 0.000000 0.034715 0.000000
# 6 0.000000 0.000000 0.000000 0.000000 0.000000 0.023215
#
#
# Mechanical properties :
#
#
# Convention : Reuss Voigt Hill
#
# Bulk Modulus (GPa) = 48.35841 92.34766 70.35303
# Shear Modulus (GPa) = 28.09117 34.70989 31.40053
#
# Velocity S-wave (km/s) = 3.86062 4.29139 4.08169
# Velocity P-wave (km/s) = 6.74759 8.57623 7.71627
#
# Compressibility (1/GPa) = 0.02067893
#
# Stress axis : x y z
#
# Youngs Moduli (GPa) = 68.32648 92.25693 34.22106
#
# Poissons Ratio (x) = 0.72653 0.20809
# Poissons Ratio (y) = 0.53808 0.10448
# Poissons Ratio (z) = 0.41548 0.28166
#
# Static dielectric constant tensor:
#      x y z
#    x 1.654240 0.000000 0.000000 
#    y 0.000000 1.601990 0.000000 
#    z 0.000000 0.000000 1.640920 
# 
# From -- ./inp_files/10019.got.cif
#   From: 2010.05.17/outbox.cif.g08.bks.cpg/sg57_6_cif.got.tgz:10019.got - 2010.06.03 13:58:18.
