data_PCOD9437858
_publ_section_title
;
Structure prediction by ZEFSAII (Michael W. Deem and Ramdas Pophale) SiO2 
 PCOD9437858
Probable space group: P B C M
;
_chemical_formula_sum "Si O2"
_cell_formula_units_Z 64
_cell_length_a 15.732210
_cell_length_b 24.138202
_cell_length_c 8.794991
_cell_angle_alpha 90.000000
_cell_angle_beta 90.000000
_cell_angle_gamma 90.000000
_cell_volume 3339.873759
_symmetry_space_group_name_H-M "P B C M"
_symmetry_group_IT_number 57
_symmetry_cell_setting 'orthorhombic'
loop_
_space_group_symop_operation_xyz
x,y,z
-x,-y,1/2+z
x,1/2-y,-z
-x,1/2+y,1/2-z
-x,-y,-z
x,y,1/2-z
-x,1/2+y,z
x,1/2-y,1/2+z
loop_
_atom_site_type_symbol
_atom_site_label
_atom_site_fract_x
_atom_site_fract_y
_atom_site_fract_z
Si Si1 0.592974 0.874893 0.430829
Si Si2 0.849959 0.999352 0.568731
Si Si3 0.098120 0.384685 0.431917
Si Si4 0.248687 0.310958 0.931236
Si Si5 0.412432 0.885133 0.567355
Si Si6 0.906950 0.123146 0.567366
Si Si7 0.337532 0.003008 0.567926
Si Si8 0.249843 0.689144 0.068123
O O1 0.599087 0.866734 0.250000
O O2 0.662718 0.837026 0.512013
O O3 0.497911 0.864801 0.488197
O O4 0.616531 0.939047 0.464308
O O5 0.857417 0.991767 0.750000
O O6 0.893785 0.948305 0.483919
O O7 0.888462 0.059019 0.527557
O O8 0.751430 0.999168 0.519607
O O9 0.108068 0.381796 0.250000
O O10 0.172899 0.350115 0.509471
O O11 0.004144 0.363319 0.473158
O O12 0.247283 0.308709 0.750000
O O13 0.238265 0.250000 0.000000
O O14 0.422742 0.881774 0.750000
O O15 0.392837 0.949175 0.527916
O O16 0.329964 0.849273 0.523856
O O17 0.898322 0.128000 0.750000
O O18 0.836622 0.161095 0.489988
O O19 0.320326 0.000581 0.750000
O O20 0.248003 0.692048 0.250000
O O21 0.259246 0.750000 0.000000
#
# Coordination Sequence:
#
# PCOD9437858 Si02
#       8
#     8   8   8   8   8   8   8   8
#     4  11  23  39  64  95 127 165 202 251 310 366
#     4  11  21  35  61  95 127 164 204 249 306 366
#     4  11  23  41  64  92 128 165 203 252 307 367
#     4  12  26  45  67  91 121 161 209 260 309 366
#     4  10  22  40  62  91 125 166 210 254 304 365
#     4  10  23  41  63  93 127 163 206 254 305 366
#     4  10  20  37  61  90 127 165 203 248 306 368
#     4  11  24  42  65  89 120 163 208 260 311 362
#
# _framework density 19.162400999999999
#
# number of rings (size 3 to 8) (size 9 to 14) (size 15 to 20)
#    0.000    1.250    2.500    3.375    0.000    4.500 
#    0.000    1.250    0.000    0.000    0.000    0.000 
#    0.000    0.000    0.000    0.000    0.000    0.000 
#
# Total GULP energy -357944.079058 kJ/mol
# GULP energy per Si atom -5592.876235 kJ/mol
# Density = 1.911879 g / cm^3
# Si number density = 19.162401 Si / 1000 Ang^3
#
#
#
# Elastic Constant Matrix: (Units=GPa)
#
#
# Indices 1 2 3 4 5 6 
#
# 1 83.4915 -9.0860 28.3538 0.0000 0.0000 0.0000
# 2 -9.0860 59.4154 18.6117 0.0000 0.0000 0.0000
# 3 28.3538 18.6117 49.2532 0.0000 0.0000 0.0000
# 4 0.0000 0.0000 0.0000 29.1072 0.0000 0.0000
# 5 0.0000 0.0000 0.0000 0.0000 26.4020 0.0000
# 6 0.0000 0.0000 0.0000 0.0000 0.0000 -6.3142
#
#
#
# Elastic Compliance Matrix: (Units=1/GPa)
#
#
# Indices 1 2 3 4 5 6 
#
# 1 0.016755 0.006333 -0.012038 0.000000 0.000000 0.000000
# 2 0.006333 0.021484 -0.011764 0.000000 0.000000 0.000000
# 3 -0.012038 -0.011764 0.031679 0.000000 0.000000 0.000000
# 4 0.000000 0.000000 0.000000 0.034356 0.000000 0.000000
# 5 0.000000 0.000000 0.000000 0.000000 0.037876 0.000000
# 6 0.000000 0.000000 0.000000 0.000000 0.000000 -0.158374
#
#
# Mechanical properties :
#
#
# Convention : Reuss Voigt Hill
#
# Bulk Modulus (GPa) = 28.58867 29.76878 29.17872
# Shear Modulus (GPa) = 164.61004 20.12438 92.36721
#
# Velocity S-wave (km/s) = 9.27842 3.24420 6.95032
# Velocity P-wave (km/s) = 11.39022 5.44075 8.92577
#
# Compressibility (1/GPa) = 0.03497889
#
# Stress axis : x y z
#
# Youngs Moduli (GPa) = 59.68459 46.54562 31.56671
#
# Poissons Ratio (x) = -0.29478 0.38001
# Poissons Ratio (y) = -0.37800 0.37136
# Poissons Ratio (z) = 0.71851 0.54758
#
# Static dielectric constant tensor:
#      x y z
#    x 1.644510 0.000000 0.000000 
#    y 0.000000 1.648840 0.000000 
#    z 0.000000 0.000000 1.641080 
# 
# From -- ./inp_files/5716.got.cif
#   From: 2010.05.17/outbox.cif.g08.bks.cpg/sg57_3_cif.got.tgz:5716.got - 2010.06.03 13:58:18.
