data_PCOD9437027
_publ_section_title
;
Structure prediction by ZEFSAII (Michael W. Deem and Ramdas Pophale) SiO2 
 PCOD9437027
Probable space group: P B C M
;
_chemical_formula_sum "Si O2"
_cell_formula_units_Z 64
_cell_length_a 11.096364
_cell_length_b 8.979735
_cell_length_c 34.359358
_cell_angle_alpha 90.000000
_cell_angle_beta 90.000000
_cell_angle_gamma 90.000000
_cell_volume 3423.649175
_symmetry_space_group_name_H-M "P B C M"
_symmetry_group_IT_number 57
_symmetry_cell_setting 'orthorhombic'
loop_
_space_group_symop_operation_xyz
x,y,z
-x,-y,1/2+z
x,1/2-y,-z
-x,1/2+y,1/2-z
-x,-y,-z
x,y,1/2-z
-x,1/2+y,z
x,1/2-y,1/2+z
loop_
_atom_site_type_symbol
_atom_site_label
_atom_site_fract_x
_atom_site_fract_y
_atom_site_fract_z
Si Si1 0.053460 0.945575 0.080043
Si Si2 0.688505 0.890387 0.107225
Si Si3 0.778055 0.279918 0.616297
Si Si4 0.440934 0.887757 0.155121
Si Si5 0.829537 0.710608 0.683124
Si Si6 0.972409 0.061345 0.165077
Si Si7 0.839447 0.751521 0.046002
Si Si8 0.581477 0.826287 0.706730
O O1 0.108927 0.092423 0.060467
O O2 0.017688 0.989534 0.124311
O O3 0.149443 0.812278 0.084158
O O4 0.937735 0.877005 0.058464
O O5 0.555932 0.889137 0.126107
O O6 0.778530 0.819842 0.139531
O O7 0.717328 0.796341 0.068820
O O8 0.725838 0.062552 0.102000
O O9 0.672209 0.179366 0.633084
O O10 0.870915 0.322080 0.650897
O O11 0.479050 0.783731 0.191208
O O12 0.412448 0.046487 0.173975
O O13 0.909001 0.564254 0.691115
O O14 0.708498 0.739402 0.706770
O O15 0.916818 0.851975 0.683867
O O16 0.823870 0.750000 0.000000
O O17 0.556093 0.883388 0.750000
#
# Coordination Sequence:
#
# PCOD9437027 Si02
#       8
#     8   8   8   8   8   8   8   8
#     4  12  19  34  57  88 123 157 196 250 296 363
#     4  10  20  39  56  88 118 154 212 251 289 353
#     4  11  20  34  63  90 114 151 209 252 290 346
#     4  11  23  39  66  91 114 162 205 252 295 353
#     4  10  20  34  61  86 116 155 197 246 291 350
#     4  11  17  34  59  89 115 148 201 247 288 347
#     4  12  23  36  57  89 130 165 197 250 314 361
#     4  11  24  42  61  91 125 155 195 249 309 361
#
# _framework density 18.693504000000001
#
# number of rings (size 3 to 8) (size 9 to 14) (size 15 to 20)
#    0.000    1.000    7.500    1.500    1.750    0.000 
#    0.000    0.625    0.000    3.750    0.000    0.000 
#    0.000    0.000    0.000    0.000    0.000    0.000 
#
# Total GULP energy -357325.343447 kJ/mol
# GULP energy per Si atom -5583.208491 kJ/mol
# Density = 1.865096 g / cm^3
# Si number density = 18.693504 Si / 1000 Ang^3
#
#
#
# Elastic Constant Matrix: (Units=GPa)
#
#
# Indices 1 2 3 4 5 6 
#
# 1 54.8439 7.0589 21.7959 0.0000 0.0000 0.0000
# 2 7.0589 73.1430 24.0290 0.0000 0.0000 0.0000
# 3 21.7959 24.0290 62.7981 0.0000 0.0000 0.0000
# 4 0.0000 0.0000 0.0000 15.1197 0.0000 0.0000
# 5 0.0000 0.0000 0.0000 0.0000 -1.1919 0.0000
# 6 0.0000 0.0000 0.0000 0.0000 0.0000 33.1685
#
#
#
# Elastic Compliance Matrix: (Units=1/GPa)
#
#
# Indices 1 2 3 4 5 6 
#
# 1 0.021163 0.000424 -0.007507 0.000000 0.000000 0.000000
# 2 0.000424 0.015646 -0.006134 0.000000 0.000000 0.000000
# 3 -0.007507 -0.006134 0.020877 0.000000 0.000000 0.000000
# 4 0.000000 0.000000 0.000000 0.066139 0.000000 0.000000
# 5 0.000000 0.000000 0.000000 0.000000 -0.838996 0.000000
# 6 0.000000 0.000000 0.000000 0.000000 0.000000 0.030149
#
#
# Mechanical properties :
#
#
# Convention : Reuss Voigt Hill
#
# Bulk Modulus (GPa) = 31.99920 32.95030 32.47475
# Shear Modulus (GPa) = -7.71402 18.61267 5.44933
#
# Velocity S-wave (km/s) = -2.03360 3.15886 1.70922
# Velocity P-wave (km/s) = 3.41188 5.56501 4.61575
#
# Compressibility (1/GPa) = 0.03125078
#
# Stress axis : x y z
#
# Youngs Moduli (GPa) = 47.25332 63.91387 47.90012
#
# Poissons Ratio (x) = -0.02710 0.35960
# Poissons Ratio (y) = -0.02003 0.29382
# Poissons Ratio (z) = 0.35474 0.39204
#
# Static dielectric constant tensor:
#      x y z
#    x 1.653370 0.000000 0.000000 
#    y 0.000000 1.681410 0.000000 
#    z 0.000000 0.000000 1.648510 
# 
# From -- ./inp_files/29754.got.cif
#   From: 2010.05.17/outbox.cif.g08.bks.cpg/sg57_15_cif.got.tgz:29754.got - 2010.06.03 13:58:18.
