data_PCOD9437258
_publ_section_title
;
Structure prediction by ZEFSAII (Michael W. Deem and Ramdas Pophale) SiO2 
 PCOD9437258
Probable space group: P B C M
;
_chemical_formula_sum "Si O2"
_cell_formula_units_Z 64
_cell_length_a 20.553672
_cell_length_b 20.178557
_cell_length_c 8.823853
_cell_angle_alpha 90.000000
_cell_angle_beta 90.000000
_cell_angle_gamma 90.000000
_cell_volume 3659.635165
_symmetry_space_group_name_H-M "P B C M"
_symmetry_group_IT_number 57
_symmetry_cell_setting 'orthorhombic'
loop_
_space_group_symop_operation_xyz
x,y,z
-x,-y,1/2+z
x,1/2-y,-z
-x,1/2+y,1/2-z
-x,-y,-z
x,y,1/2-z
-x,1/2+y,z
x,1/2-y,1/2+z
loop_
_atom_site_type_symbol
_atom_site_label
_atom_site_fract_x
_atom_site_fract_y
_atom_site_fract_z
Si Si1 0.522030 0.570192 0.567063
Si Si2 0.302744 0.593898 0.430112
Si Si3 0.913731 0.822021 0.431606
Si Si4 0.839785 0.053619 0.068121
Si Si5 0.330963 0.439536 0.068687
Si Si6 0.023907 0.930281 0.068593
Si Si7 0.196210 0.089334 0.069303
Si Si8 0.584725 0.322309 0.069161
O O1 0.500000 0.500000 0.500000
O O2 0.519855 0.565181 0.750000
O O3 0.597040 0.583753 0.525271
O O4 0.472464 0.627524 0.518468
O O5 0.309880 0.604994 0.250000
O O6 0.226123 0.593805 0.467561
O O7 0.326531 0.518654 0.461702
O O8 0.347376 0.645132 0.517867
O O9 0.926373 0.750000 0.500000
O O10 0.907872 0.818460 0.250000
O O11 0.848293 0.852933 0.501709
O O12 0.972004 0.873184 0.468142
O O13 0.844609 0.047634 0.250000
O O14 0.905153 0.083558 0.999855
O O15 0.829938 0.980078 0.999982
O O16 0.321671 0.431244 0.250000
O O17 0.271141 0.406015 0.982741
O O18 0.027865 0.936501 0.250000
O O19 0.000000 0.000000 0.000000
O O20 0.191235 0.087427 0.250000
O O21 0.582637 0.318070 0.250000
O O22 0.576731 0.250000 0.000000
#
# Coordination Sequence:
#
# PCOD9437258 Si02
#       8
#     8   8   8   8   8   8   8   8
#     4  10  20  35  57  85 113 148 191 239 292 343
#     4   9  18  34  56  81 111 148 185 231 287 338
#     4  11  24  41  60  84 117 155 195 239 292 351
#     4  10  20  35  57  85 117 148 186 236 289 337
#     4   9  18  34  56  82 115 147 181 234 292 338
#     4  11  22  36  59  88 118 153 195 240 288 343
#     4  11  21  34  56  85 115 149 191 235 283 341
#     4  11  23  37  56  82 114 152 193 235 286 348
#
# _framework density 17.488081999999999
#
# number of rings (size 3 to 8) (size 9 to 14) (size 15 to 20)
#    0.000    1.750    2.500    3.375    0.000    5.000 
#    0.000    1.250    0.000    3.000    0.000    0.000 
#    0.000    0.000    0.000    0.000    0.000    0.000 
#
# Total GULP energy -357416.621712 kJ/mol
# GULP energy per Si atom -5584.634714 kJ/mol
# Density = 1.744828 g / cm^3
# Si number density = 17.488082 Si / 1000 Ang^3
#
#
#
# Elastic Constant Matrix: (Units=GPa)
#
#
# Indices 1 2 3 4 5 6 
#
# 1 157.2407 82.1868 62.3149 0.0000 0.0000 0.0000
# 2 82.1868 121.9069 58.2868 0.0000 0.0000 0.0000
# 3 62.3149 58.2868 64.8810 0.0000 0.0000 0.0000
# 4 0.0000 0.0000 0.0000 26.2303 0.0000 0.0000
# 5 0.0000 0.0000 0.0000 0.0000 30.4765 0.0000
# 6 0.0000 0.0000 0.0000 0.0000 0.0000 22.3390
#
#
#
# Elastic Compliance Matrix: (Units=1/GPa)
#
#
# Indices 1 2 3 4 5 6 
#
# 1 0.011426 -0.004306 -0.007107 0.000000 0.000000 0.000000
# 2 -0.004306 0.016002 -0.010240 0.000000 0.000000 0.000000
# 3 -0.007107 -0.010240 0.031438 0.000000 0.000000 0.000000
# 4 0.000000 0.000000 0.000000 0.038124 0.000000 0.000000
# 5 0.000000 0.000000 0.000000 0.000000 0.032812 0.000000
# 6 0.000000 0.000000 0.000000 0.000000 0.000000 0.044765
#
#
# Mechanical properties :
#
#
# Convention : Reuss Voigt Hill
#
# Bulk Modulus (GPa) = 64.26163 83.28950 73.77557
# Shear Modulus (GPa) = 22.41567 25.22517 23.82042
#
# Velocity S-wave (km/s) = 3.58406 3.80204 3.69466
# Velocity P-wave (km/s) = 7.34528 8.18559 7.77679
#
# Compressibility (1/GPa) = 0.01556139
#
# Stress axis : x y z
#
# Youngs Moduli (GPa) = 87.51589 62.49300 31.80907
#
# Poissons Ratio (x) = 0.26907 0.22605
# Poissons Ratio (y) = 0.37681 0.32573
# Poissons Ratio (z) = 0.62193 0.63993
#
# Static dielectric constant tensor:
#      x y z
#    x 1.608020 0.000000 0.000000 
#    y 0.000000 1.562660 0.000000 
#    z 0.000000 0.000000 1.583330 
# 
# From -- ./inp_files/8457.got.cif
#   From: 2010.05.17/outbox.cif.g08.bks.cpg/sg57_5_cif.got.tgz:8457.got - 2010.06.03 13:58:18.
