data_PCOD9437620
_publ_section_title
;
Structure prediction by ZEFSAII (Michael W. Deem and Ramdas Pophale) SiO2 
 PCOD9437620
Probable space group: P B C M
;
_chemical_formula_sum "Si O2"
_cell_formula_units_Z 40
_cell_length_a 9.859360
_cell_length_b 13.585205
_cell_length_c 15.744789
_cell_angle_alpha 90.000000
_cell_angle_beta 90.000000
_cell_angle_gamma 90.000000
_cell_volume 2108.879503
_symmetry_space_group_name_H-M "P B C M"
_symmetry_group_IT_number 57
_symmetry_cell_setting 'orthorhombic'
loop_
_space_group_symop_operation_xyz
x,y,z
-x,-y,1/2+z
x,1/2-y,-z
-x,1/2+y,1/2-z
-x,-y,-z
x,y,1/2-z
-x,1/2+y,z
x,1/2-y,1/2+z
loop_
_atom_site_type_symbol
_atom_site_label
_atom_site_fract_x
_atom_site_fract_y
_atom_site_fract_z
Si Si1 0.341877 0.831820 0.346723
Si Si2 0.071181 0.645096 0.952994
Si Si3 0.560553 0.633030 0.510417
Si Si4 0.399846 0.598884 0.158334
Si Si5 0.818267 0.976569 0.423333
O O1 0.353980 0.867588 0.250000
O O2 0.196109 0.850623 0.388072
O O3 0.458139 0.873301 0.409223
O O4 0.356898 0.713329 0.344898
O O5 0.937639 0.601552 0.907581
O O6 0.050586 0.750000 0.000000
O O7 0.116649 0.566326 0.024153
O O8 0.581925 0.750000 0.500000
O O9 0.489794 0.590075 0.426220
O O10 0.703107 0.580824 0.524168
O O11 0.467272 0.582042 0.250000
O O12 0.269374 0.528473 0.150033
#
# Coordination Sequence:
#
# PCOD9437620 Si02
#       5
#     8   8   8   8   8
#     4  10  20  37  61  83 115 158 196 237 293 349
#     4  11  21  39  59  84 116 155 195 242 293 350
#     4  10  20  39  58  88 120 154 193 243 291 348
#     4  10  20  36  60  87 117 153 195 242 289 347
#     4  11  22  35  61  88 114 152 199 240 294 346
#
# _framework density 18.967417999999999
#
# number of rings (size 3 to 8) (size 9 to 14) (size 15 to 20)
#    0.000    1.600    4.000    1.800    0.000    1.600 
#    0.000    0.000    0.000    4.800    0.000    0.000 
#    0.000    0.000    0.000    0.000    0.000    0.000 
#
# Total GULP energy -223155.371527 kJ/mol
# GULP energy per Si atom -5578.884288 kJ/mol
# Density = 1.892425 g / cm^3
# Si number density = 18.967418 Si / 1000 Ang^3
#
#
#
# Elastic Constant Matrix: (Units=GPa)
#
#
# Indices 1 2 3 4 5 6 
#
# 1 84.8285 37.7210 7.4836 0.0000 0.0000 0.0000
# 2 37.7210 114.2011 21.1485 0.0000 0.0000 0.0000
# 3 7.4836 21.1485 81.9819 0.0000 0.0000 0.0000
# 4 0.0000 0.0000 0.0000 -0.3700 0.0000 0.0000
# 5 0.0000 0.0000 0.0000 0.0000 -0.0819 0.0000
# 6 0.0000 0.0000 0.0000 0.0000 0.0000 29.5958
#
#
#
# Elastic Compliance Matrix: (Units=1/GPa)
#
#
# Indices 1 2 3 4 5 6 
#
# 1 0.013819 -0.004548 -0.000088 0.000000 0.000000 0.000000
# 2 -0.004548 0.010693 -0.002343 0.000000 0.000000 0.000000
# 3 -0.000088 -0.002343 0.012810 0.000000 0.000000 0.000000
# 4 0.000000 0.000000 0.000000 -2.702564 0.000000 0.000000
# 5 0.000000 0.000000 0.000000 0.000000-12.215911 0.000000
# 6 0.000000 0.000000 0.000000 0.000000 0.000000 0.033789
#
#
# Mechanical properties :
#
#
# Convention : Reuss Voigt Hill
#
# Bulk Modulus (GPa) = 42.80299 45.96864 44.38582
# Shear Modulus (GPa) = -0.33725 20.13935 9.90105
#
# Velocity S-wave (km/s) = -0.42213 3.26204 2.28722
# Velocity P-wave (km/s) = 4.73054 6.20291 5.51607
#
# Compressibility (1/GPa) = 0.02336286
#
# Stress axis : x y z
#
# Youngs Moduli (GPa) = 72.36600 93.52242 78.06208
#
# Poissons Ratio (x) = 0.42534 0.00688
# Poissons Ratio (y) = 0.32912 0.18291
# Poissons Ratio (z) = 0.00638 0.21914
#
# Static dielectric constant tensor:
#      x y z
#    x 1.630670 0.000000 0.000000 
#    y 0.000000 1.690070 0.000000 
#    z 0.000000 0.000000 1.665140 
# 
# From -- ./inp_files/15893.got.cif
#   From: 2010.05.17/outbox.cif.g08.bks.cpg/sg57_8_cif.got.tgz:15893.got - 2010.06.03 13:58:18.
