data_PCOD9437484
_publ_section_title
;
Structure prediction by ZEFSAII (Michael W. Deem and Ramdas Pophale) SiO2 
 PCOD9437484
Probable space group: P B C M
;
_chemical_formula_sum "Si O2"
_cell_formula_units_Z 56
_cell_length_a 15.760827
_cell_length_b 20.300463
_cell_length_c 8.749386
_cell_angle_alpha 90.000000
_cell_angle_beta 90.000000
_cell_angle_gamma 90.000000
_cell_volume 2799.384296
_symmetry_space_group_name_H-M "P B C M"
_symmetry_group_IT_number 57
_symmetry_cell_setting 'orthorhombic'
loop_
_space_group_symop_operation_xyz
x,y,z
-x,-y,1/2+z
x,1/2-y,-z
-x,1/2+y,1/2-z
-x,-y,-z
x,y,1/2-z
-x,1/2+y,z
x,1/2-y,1/2+z
loop_
_atom_site_type_symbol
_atom_site_label
_atom_site_fract_x
_atom_site_fract_y
_atom_site_fract_z
Si Si1 0.845454 0.416296 0.434779
Si Si2 0.503484 0.821408 0.066653
Si Si3 0.018970 0.680759 0.067402
Si Si4 0.762794 0.950827 0.933222
Si Si5 0.307354 0.821104 0.433439
Si Si6 0.428714 0.047287 0.068252
Si Si7 0.170395 0.181769 0.568118
O O1 0.854105 0.412821 0.250000
O O2 0.923857 0.379703 0.511940
O O3 0.829151 0.492158 0.476702
O O4 0.760988 0.375429 0.478970
O O5 0.509114 0.820356 0.250000
O O6 0.404819 0.835229 0.022198
O O7 0.525790 0.750000 0.000000
O O8 0.558773 0.880041 0.999430
O O9 0.016545 0.684563 0.250000
O O10 0.053620 0.750000 0.000000
O O11 0.924100 0.674317 0.001657
O O12 0.769599 0.940224 0.750000
O O13 0.667242 0.975463 0.964143
O O14 0.778935 0.882588 0.017603
O O15 0.284222 0.750000 0.500000
O O16 0.306112 0.817166 0.250000
O O17 0.439045 0.049127 0.250000
O O18 0.500000 0.000000 0.000000
O O19 0.206102 0.250000 0.500000
O O20 0.165256 0.187092 0.750000
#
# Coordination Sequence:
#
# PCOD9437484 Si02
#       7
#     8   8   8   8   8   8   8
#     4  10  20  36  57  83 117 154 193 237 285 341
#     4  10  20  36  57  83 114 150 194 244 297 351
#     4  11  22  38  61  89 121 156 194 235 283 340
#     4  10  23  42  62  86 118 155 194 240 294 347
#     4   9  18  32  52  79 113 153 193 236 287 339
#     4  11  23  40  62  87 117 155 197 243 296 352
#     4  11  23  42  67  91 117 151 194 242 292 347
#
# _framework density 20.004397999999998
#
# number of rings (size 3 to 8) (size 9 to 14) (size 15 to 20)
#    0.000    1.714    0.000    5.571    0.000    7.429 
#    0.000    1.429    0.000    0.000    0.000    0.000 
#    0.000    0.000    0.000    0.000    0.000    0.000 
#
# Total GULP energy -313055.284635 kJ/mol
# GULP energy per Si atom -5590.272940 kJ/mol
# Density = 1.995887 g / cm^3
# Si number density = 20.004398 Si / 1000 Ang^3
#
#
#
# Elastic Constant Matrix: (Units=GPa)
#
#
# Indices 1 2 3 4 5 6 
#
# 1 44.3586 32.3324 36.1139 0.0000 0.0000 0.0000
# 2 32.3324 102.7741 46.9742 0.0000 0.0000 0.0000
# 3 36.1139 46.9742 86.7611 0.0000 0.0000 0.0000
# 4 0.0000 0.0000 0.0000 34.8381 0.0000 0.0000
# 5 0.0000 0.0000 0.0000 0.0000 22.3208 0.0000
# 6 0.0000 0.0000 0.0000 0.0000 0.0000 36.9924
#
#
#
# Elastic Compliance Matrix: (Units=1/GPa)
#
#
# Indices 1 2 3 4 5 6 
#
# 1 0.036745 -0.006072 -0.012008 0.000000 0.000000 0.000000
# 2 -0.006072 0.013933 -0.005016 0.000000 0.000000 0.000000
# 3 -0.012008 -0.005016 0.019240 0.000000 0.000000 0.000000
# 4 0.000000 0.000000 0.000000 0.028704 0.000000 0.000000
# 5 0.000000 0.000000 0.000000 0.000000 0.044801 0.000000
# 6 0.000000 0.000000 0.000000 0.000000 0.000000 0.027033
#
#
# Mechanical properties :
#
#
# Convention : Reuss Voigt Hill
#
# Bulk Modulus (GPa) = 42.14652 51.63720 46.89186
# Shear Modulus (GPa) = 22.26620 26.72848 24.49734
#
# Velocity S-wave (km/s) = 3.33988 3.65928 3.50322
# Velocity P-wave (km/s) = 5.99895 6.61231 6.31309
#
# Compressibility (1/GPa) = 0.02372675
#
# Stress axis : x y z
#
# Youngs Moduli (GPa) = 27.21473 71.77229 51.97525
#
# Poissons Ratio (x) = 0.43577 0.62410
# Poissons Ratio (y) = 0.16524 0.26072
# Poissons Ratio (z) = 0.32678 0.36003
#
# Static dielectric constant tensor:
#      x y z
#    x 1.714010 0.000000 0.000000 
#    y 0.000000 1.695440 0.000000 
#    z 0.000000 0.000000 1.669590 
# 
# From -- ./inp_files/5224.got.cif
#   From: 2010.05.17/outbox.cif.g08.bks.cpg/sg57_3_cif.got.tgz:5224.got - 2010.06.03 13:58:18.
