data_PCOD9437622
_publ_section_title
;
Structure prediction by ZEFSAII (Michael W. Deem and Ramdas Pophale) SiO2 
 PCOD9437622
Probable space group: P B C M
;
_chemical_formula_sum "Si O2"
_cell_formula_units_Z 48
_cell_length_a 12.910937
_cell_length_b 23.934528
_cell_length_c 8.776026
_cell_angle_alpha 90.000000
_cell_angle_beta 90.000000
_cell_angle_gamma 90.000000
_cell_volume 2711.942834
_symmetry_space_group_name_H-M "P B C M"
_symmetry_group_IT_number 57
_symmetry_cell_setting 'orthorhombic'
loop_
_space_group_symop_operation_xyz
x,y,z
-x,-y,1/2+z
x,1/2-y,-z
-x,1/2+y,1/2-z
-x,-y,-z
x,y,1/2-z
-x,1/2+y,z
x,1/2-y,1/2+z
loop_
_atom_site_type_symbol
_atom_site_label
_atom_site_fract_x
_atom_site_fract_y
_atom_site_fract_z
Si Si1 0.996123 0.311063 0.067856
Si Si2 0.619057 0.689149 0.567027
Si Si3 0.807331 0.380325 0.932530
Si Si4 0.191738 0.390903 0.067625
Si Si5 0.884360 0.004236 0.568730
Si Si6 0.394159 0.810739 0.932732
O O1 0.984252 0.307495 0.250000
O O2 0.092913 0.351588 0.035043
O O3 0.014605 0.250000 0.000000
O O4 0.894228 0.338206 0.995227
O O5 0.647262 0.750000 0.500000
O O6 0.614024 0.693532 0.750000
O O7 0.705314 0.643461 0.526883
O O8 0.506060 0.674706 0.501647
O O9 0.816277 0.383956 0.750000
O O10 0.694882 0.355116 0.970218
O O11 0.829987 0.440436 0.004421
O O12 0.192907 0.401364 0.250000
O O13 0.176782 0.448910 0.981562
O O14 0.892511 0.007923 0.750000
O O15 0.000000 0.000000 0.500000
O O16 0.402389 0.806156 0.750000
O O17 0.365478 0.750000 0.000000
#
# Coordination Sequence:
#
# PCOD9437622 Si02
#       6
#     8   8   8   8   8   8
#     4  11  22  35  55  83 117 151 186 234 290 346
#     4  10  20  36  60  87 118 154 192 237 287 343
#     4  11  23  39  59  84 115 151 195 241 289 343
#     4  10  22  39  58  84 116 152 194 238 286 340
#     4  12  24  39  61  85 114 154 195 237 288 346
#     4  10  21  37  59  86 117 153 192 238 288 343
#
# _framework density 17.699487999999999
#
# number of rings (size 3 to 8) (size 9 to 14) (size 15 to 20)
#    0.000    1.333    1.667    5.500    0.000    6.000 
#    0.000    0.833    0.000    0.000    0.000    0.000 
#    0.000    0.000    0.000    0.000    0.000    0.000 
#
# Total GULP energy -268341.998706 kJ/mol
# GULP energy per Si atom -5590.458306 kJ/mol
# Density = 1.765920 g / cm^3
# Si number density = 17.699488 Si / 1000 Ang^3
#
#
#
# Elastic Constant Matrix: (Units=GPa)
#
#
# Indices 1 2 3 4 5 6 
#
# 1 96.4393 40.2632 41.1449 0.0000 0.0000 0.0000
# 2 40.2632 64.5355 30.1056 0.0000 0.0000 0.0000
# 3 41.1449 30.1056 64.6124 0.0000 0.0000 0.0000
# 4 0.0000 0.0000 0.0000 29.4860 0.0000 0.0000
# 5 0.0000 0.0000 0.0000 0.0000 26.0462 0.0000
# 6 0.0000 0.0000 0.0000 0.0000 0.0000 18.7248
#
#
#
# Elastic Compliance Matrix: (Units=1/GPa)
#
#
# Indices 1 2 3 4 5 6 
#
# 1 0.016279 -0.006798 -0.007199 0.000000 0.000000 0.000000
# 2 -0.006798 0.022638 -0.006219 0.000000 0.000000 0.000000
# 3 -0.007199 -0.006219 0.022959 0.000000 0.000000 0.000000
# 4 0.000000 0.000000 0.000000 0.033914 0.000000 0.000000
# 5 0.000000 0.000000 0.000000 0.000000 0.038393 0.000000
# 6 0.000000 0.000000 0.000000 0.000000 0.000000 0.053405
#
#
# Mechanical properties :
#
#
# Convention : Reuss Voigt Hill
#
# Bulk Modulus (GPa) = 46.63355 49.84606 48.23981
# Shear Modulus (GPa) = 21.26152 22.45630 21.85891
#
# Velocity S-wave (km/s) = 3.46967 3.56582 3.51807
# Velocity P-wave (km/s) = 6.51583 6.72139 6.61941
#
# Compressibility (1/GPa) = 0.02144379
#
# Stress axis : x y z
#
# Youngs Moduli (GPa) = 61.43038 44.17430 43.55656
#
# Poissons Ratio (x) = 0.30029 0.31355
# Poissons Ratio (y) = 0.41760 0.27087
# Poissons Ratio (z) = 0.44222 0.27472
#
# Static dielectric constant tensor:
#      x y z
#    x 1.586640 0.000000 0.000000 
#    y 0.000000 1.575710 0.000000 
#    z 0.000000 0.000000 1.592510 
# 
# From -- ./inp_files/3180.got.cif
#   From: 2010.05.17/outbox.cif.g08.bks.cpg/sg57_2_cif.got.tgz:3180.got - 2010.06.03 13:58:18.
