data_PCOD9437445
_publ_section_title
;
Structure prediction by ZEFSAII (Michael W. Deem and Ramdas Pophale) SiO2 
 PCOD9437445
Probable space group: P B C M
;
_chemical_formula_sum "Si O2"
_cell_formula_units_Z 48
_cell_length_a 31.685335
_cell_length_b 9.218338
_cell_length_c 8.668825
_cell_angle_alpha 90.000000
_cell_angle_beta 90.000000
_cell_angle_gamma 90.000000
_cell_volume 2532.043526
_symmetry_space_group_name_H-M "P B C M"
_symmetry_group_IT_number 57
_symmetry_cell_setting 'orthorhombic'
loop_
_space_group_symop_operation_xyz
x,y,z
-x,-y,1/2+z
x,1/2-y,-z
-x,1/2+y,1/2-z
-x,-y,-z
x,y,1/2-z
-x,1/2+y,z
x,1/2-y,1/2+z
loop_
_atom_site_type_symbol
_atom_site_label
_atom_site_fract_x
_atom_site_fract_y
_atom_site_fract_z
Si Si1 0.715661 0.412104 0.064013
Si Si2 0.795182 0.587422 0.934755
Si Si3 0.874970 0.087367 0.935448
Si Si4 0.539119 0.911807 0.565172
Si Si5 0.633026 0.587564 0.435727
Si Si6 0.039783 0.412471 0.565341
O O1 0.718043 0.409978 0.250000
O O2 0.670986 0.483187 0.016342
O O3 0.719546 0.250000 0.000000
O O4 0.753178 0.510567 0.998295
O O5 0.794385 0.591071 0.750000
O O6 0.798062 0.750000 0.000000
O O7 0.835064 0.494948 0.992911
O O8 0.870713 0.091725 0.750000
O O9 0.917385 0.998552 0.974419
O O10 0.877586 0.250000 0.000000
O O11 0.536380 0.750000 0.500000
O O12 0.536930 0.910231 0.750000
O O13 0.586095 0.966048 0.519405
O O14 0.500000 0.000000 0.500000
O O15 0.638969 0.750000 0.500000
O O16 0.633910 0.597192 0.250000
O O17 0.040835 0.250000 0.500000
O O18 0.036583 0.405769 0.750000
O O19 0.000000 0.500000 0.500000
#
# Coordination Sequence:
#
# PCOD9437445 Si02
#       6
#     8   8   8   8   8   8
#     4  11  23  40  60  86 118 153 192 238 289 344
#     4  12  25  42  64  90 120 156 196 242 292 349
#     4  11  24  42  64  92 124 161 201 246 296 350
#     4  10  20  36  56  82 113 149 190 235 286 342
#     4   9  20  37  58  82 111 147 190 235 285 343
#     4  11  24  41  64  92 125 162 204 250 300 354
#
# _framework density 18.95702
#
# number of rings (size 3 to 8) (size 9 to 14) (size 15 to 20)
#    0.000    1.333    0.000    5.500    0.000    9.333 
#    0.000    1.667    0.000    0.000    0.000    0.000 
#    0.000    0.000    0.000    0.000    0.000    0.000 
#
# Total GULP energy -268423.400462 kJ/mol
# GULP energy per Si atom -5592.154176 kJ/mol
# Density = 1.891387 g / cm^3
# Si number density = 18.957020 Si / 1000 Ang^3
#
#
#
# Elastic Constant Matrix: (Units=GPa)
#
#
# Indices 1 2 3 4 5 6 
#
# 1 201.9840 113.7780 76.3752 0.0000 0.0000 0.0000
# 2 113.7780 171.3426 59.5198 0.0000 0.0000 0.0000
# 3 76.3752 59.5198 85.0998 0.0000 0.0000 0.0000
# 4 0.0000 0.0000 0.0000 39.1293 0.0000 0.0000
# 5 0.0000 0.0000 0.0000 0.0000 29.3857 0.0000
# 6 0.0000 0.0000 0.0000 0.0000 0.0000 42.5550
#
#
#
# Elastic Compliance Matrix: (Units=1/GPa)
#
#
# Indices 1 2 3 4 5 6 
#
# 1 0.009492 -0.004417 -0.005430 0.000000 0.000000 0.000000
# 2 -0.004417 0.009765 -0.002865 0.000000 0.000000 0.000000
# 3 -0.005430 -0.002865 0.018628 0.000000 0.000000 0.000000
# 4 0.000000 0.000000 0.000000 0.025556 0.000000 0.000000
# 5 0.000000 0.000000 0.000000 0.000000 0.034030 0.000000
# 6 0.000000 0.000000 0.000000 0.000000 0.000000 0.023499
#
#
# Mechanical properties :
#
#
# Convention : Reuss Voigt Hill
#
# Bulk Modulus (GPa) = 80.25226 106.41914 93.33570
# Shear Modulus (GPa) = 33.21209 36.13090 34.67150
#
# Velocity S-wave (km/s) = 4.19019 4.37044 4.28127
# Velocity P-wave (km/s) = 8.11394 9.04028 8.58960
#
# Compressibility (1/GPa) = 0.01246071
#
# Stress axis : x y z
#
# Youngs Moduli (GPa) = 105.35129 102.41014 53.68283
#
# Poissons Ratio (x) = 0.45234 0.29148
# Poissons Ratio (y) = 0.46533 0.15382
# Poissons Ratio (z) = 0.57202 0.29344
#
# Static dielectric constant tensor:
#      x y z
#    x 1.655580 0.000000 0.000000 
#    y 0.000000 1.621050 0.000000 
#    z 0.000000 0.000000 1.638670 
# 
# From -- ./inp_files/9997.got.cif
#   From: 2010.05.17/outbox.cif.g08.bks.cpg/sg57_5_cif.got.tgz:9997.got - 2010.06.03 13:58:18.
