data_PCOD9437608
_publ_section_title
;
Structure prediction by ZEFSAII (Michael W. Deem and Ramdas Pophale) SiO2 
 PCOD9437608
Probable space group: P B C M
;
_chemical_formula_sum "Si O2"
_cell_formula_units_Z 48
_cell_length_a 5.261579
_cell_length_b 26.992078
_cell_length_c 13.525775
_cell_angle_alpha 90.000000
_cell_angle_beta 90.000000
_cell_angle_gamma 90.000000
_cell_volume 1920.943425
_symmetry_space_group_name_H-M "P B C M"
_symmetry_group_IT_number 57
_symmetry_cell_setting 'orthorhombic'
loop_
_space_group_symop_operation_xyz
x,y,z
-x,-y,1/2+z
x,1/2-y,-z
-x,1/2+y,1/2-z
-x,-y,-z
x,y,1/2-z
-x,1/2+y,z
x,1/2-y,1/2+z
loop_
_atom_site_type_symbol
_atom_site_label
_atom_site_fract_x
_atom_site_fract_y
_atom_site_fract_z
Si Si1 0.114995 0.907298 0.357521
Si Si2 0.254338 0.487878 0.134805
Si Si3 0.219348 0.316234 0.146031
Si Si4 0.833963 0.234111 0.387674
Si Si5 0.547538 0.420727 0.526702
Si Si6 0.662472 0.820804 0.579965
O O1 0.239635 0.901160 0.250000
O O2 0.028783 0.964484 0.369148
O O3 0.865211 0.873339 0.355052
O O4 0.266032 0.891057 0.453251
O O5 0.333533 0.482179 0.250000
O O6 0.297071 0.543858 0.100077
O O7 0.400476 0.455400 0.052185
O O8 0.362191 0.306901 0.250000
O O9 0.960615 0.284188 0.153223
O O10 0.335043 0.306344 0.038185
O O11 0.810349 0.250000 0.500000
O O12 0.064905 0.194965 0.378349
O O13 0.565429 0.208403 0.365544
O O14 0.382660 0.379656 0.581849
#
# Coordination Sequence:
#
# PCOD9437608 Si02
#       6
#     8   8   8   8   8   8
#     4  10  20  36  59  90 124 157 207 268 321 382
#     4  10  22  39  57  88 123 156 211 268 319 386
#     4  10  21  39  65  97 128 162 212 273 328 375
#     4  10  21  39  59  88 124 165 204 252 310 381
#     4  11  21  36  63  86 118 169 208 257 331 384
#     4  11  22  39  63  89 125 167 213 255 313 390
#
# _framework density 24.987722000000002
#
# number of rings (size 3 to 8) (size 9 to 14) (size 15 to 20)
#    0.000    1.667    1.667    4.500    0.000    0.667 
#    0.000   10.833    0.000    0.000    0.000    0.000 
#    0.000    0.000    0.000    0.000    0.000    0.000 
#
# Total GULP energy -268028.258399 kJ/mol
# GULP energy per Si atom -5583.922050 kJ/mol
# Density = 2.493085 g / cm^3
# Si number density = 24.987722 Si / 1000 Ang^3
#
#
#
# Elastic Constant Matrix: (Units=GPa)
#
#
# Indices 1 2 3 4 5 6 
#
# 1 92.7356 14.4902 5.7290 0.0000 0.0000 0.0000
# 2 14.4902 87.2473 7.7757 0.0000 0.0000 0.0000
# 3 5.7290 7.7757 72.0205 0.0000 0.0000 0.0000
# 4 0.0000 0.0000 0.0000 -75.4584 0.0000 0.0000
# 5 0.0000 0.0000 0.0000 0.0000 -63.9892 0.0000
# 6 0.0000 0.0000 0.0000 0.0000 0.0000 32.8629
#
#
#
# Elastic Compliance Matrix: (Units=1/GPa)
#
#
# Indices 1 2 3 4 5 6 
#
# 1 0.011105 -0.001783 -0.000691 0.000000 0.000000 0.000000
# 2 -0.001783 0.011859 -0.001139 0.000000 0.000000 0.000000
# 3 -0.000691 -0.001139 0.014063 0.000000 0.000000 0.000000
# 4 0.000000 0.000000 0.000000 -0.013252 0.000000 0.000000
# 5 0.000000 0.000000 0.000000 0.000000 -0.015628 0.000000
# 6 0.000000 0.000000 0.000000 0.000000 0.000000 0.030429
#
#
# Mechanical properties :
#
#
# Convention : Reuss Voigt Hill
#
# Bulk Modulus (GPa) = 33.55439 34.22145 33.88792
# Shear Modulus (GPa) = 89.71097 -6.38306 41.66395
#
# Velocity S-wave (km/s) = 5.99833 -1.60001 4.08778
# Velocity P-wave (km/s) = 7.83778 3.21118 5.98926
#
# Compressibility (1/GPa) = 0.02980236
#
# Stress axis : x y z
#
# Youngs Moduli (GPa) = 90.05290 84.32253 71.10946
#
# Poissons Ratio (x) = 0.15032 0.04913
# Poissons Ratio (y) = 0.16054 0.08096
# Poissons Ratio (z) = 0.06221 0.09601
#
# Static dielectric constant tensor:
#      x y z
#    x 2.050680 0.000000 0.000000 
#    y 0.000000 1.992310 0.000000 
#    z 0.000000 0.000000 1.894790 
# 
# From -- ./inp_files/15112.got.cif
#   From: 2010.05.17/outbox.cif.g08.bks.cpg/sg57_8_cif.got.tgz:15112.got - 2010.06.03 13:58:18.
