data_PCOD9437771
_publ_section_title
;
Structure prediction by ZEFSAII (Michael W. Deem and Ramdas Pophale) SiO2 
 PCOD9437771
Probable space group: P B C M
;
_chemical_formula_sum "Si O2"
_cell_formula_units_Z 56
_cell_length_a 14.508095
_cell_length_b 13.497549
_cell_length_c 14.378437
_cell_angle_alpha 90.000000
_cell_angle_beta 90.000000
_cell_angle_gamma 90.000000
_cell_volume 2815.639067
_symmetry_space_group_name_H-M "P B C M"
_symmetry_group_IT_number 57
_symmetry_cell_setting 'orthorhombic'
loop_
_space_group_symop_operation_xyz
x,y,z
-x,-y,1/2+z
x,1/2-y,-z
-x,1/2+y,1/2-z
-x,-y,-z
x,y,1/2-z
-x,1/2+y,z
x,1/2-y,1/2+z
loop_
_atom_site_type_symbol
_atom_site_label
_atom_site_fract_x
_atom_site_fract_y
_atom_site_fract_z
Si Si1 0.633970 0.249735 0.137872
Si Si2 0.760269 0.748560 0.361033
Si Si3 0.848128 0.210486 0.137908
Si Si4 0.419030 0.918664 0.501208
Si Si5 0.728932 0.914591 0.504203
Si Si6 0.088579 0.002257 0.563542
Si Si7 0.037238 0.199833 0.644439
O O1 0.625887 0.251506 0.250000
O O2 0.743964 0.243000 0.111522
O O3 0.589050 0.345279 0.087560
O O4 0.585495 0.154131 0.090509
O O5 0.754050 0.756047 0.250000
O O6 0.717263 0.842342 0.414995
O O7 0.713915 0.651543 0.404527
O O8 0.869195 0.747505 0.390836
O O9 0.845349 0.211451 0.250000
O O10 0.935357 0.278002 0.104925
O O11 0.875383 0.100654 0.104251
O O12 0.500000 0.000000 0.500000
O O13 0.330623 0.988373 0.502040
O O14 0.832632 0.951441 0.499843
O O15 0.063160 0.084448 0.640297
O O16 0.000000 0.000000 0.500000
O O17 0.030987 0.234338 0.750000
#
# Coordination Sequence:
#
# PCOD9437771 Si02
#       7
#     8   8   8   8   8   8   8
#     4  10  24  45  69  96 126 167 216 264 325 395
#     4   9  19  36  58  86 126 166 206 256 308 371
#     4  10  20  37  59  84 122 169 215 264 307 366
#     4  11  25  45  68  94 128 161 203 273 330 384
#     4  10  21  38  57  89 121 159 210 254 314 382
#     4  11  21  31  55  86 119 165 209 254 306 372
#     4   9  19  34  51  80 120 162 209 254 299 355
#
# _framework density 19.888914
#
# number of rings (size 3 to 8) (size 9 to 14) (size 15 to 20)
#    0.000    2.000    1.429    1.286    2.000    6.286 
#    0.000    2.143    0.000    0.000    0.000    0.000 
#    0.000    0.000    0.000    0.000    0.000    0.000 
#
# Total GULP energy -312096.303498 kJ/mol
# GULP energy per Si atom -5573.148277 kJ/mol
# Density = 1.984365 g / cm^3
# Si number density = 19.888914 Si / 1000 Ang^3
#
#
#
# Elastic Constant Matrix: (Units=GPa)
#
#
# Indices 1 2 3 4 5 6 
#
# 1 39.9590 59.7699 38.6658 0.0000 0.0000 0.0000
# 2 59.7699 133.6428 42.8192 0.0000 0.0000 0.0000
# 3 38.6658 42.8192 127.6254 0.0000 0.0000 0.0000
# 4 0.0000 0.0000 0.0000 18.3311 0.0000 0.0000
# 5 0.0000 0.0000 0.0000 0.0000 14.3869 0.0000
# 6 0.0000 0.0000 0.0000 0.0000 0.0000 40.8988
#
#
#
# Elastic Compliance Matrix: (Units=1/GPa)
#
#
# Indices 1 2 3 4 5 6 
#
# 1 0.101173 -0.039694 -0.017334 0.000000 0.000000 0.000000
# 2 -0.039694 0.023958 0.003988 0.000000 0.000000 0.000000
# 3 -0.017334 0.003988 0.011749 0.000000 0.000000 0.000000
# 4 0.000000 0.000000 0.000000 0.054552 0.000000 0.000000
# 5 0.000000 0.000000 0.000000 0.000000 0.069508 0.000000
# 6 0.000000 0.000000 0.000000 0.000000 0.000000 0.024451
#
#
# Mechanical properties :
#
#
# Convention : Reuss Voigt Hill
#
# Bulk Modulus (GPa) = 32.46880 64.85966 48.66423
# Shear Modulus (GPa) = 12.44598 25.38817 18.91707
#
# Velocity S-wave (km/s) = 2.50426 3.57669 3.08740
# Velocity P-wave (km/s) = 4.97215 7.05257 6.10168
#
# Compressibility (1/GPa) = 0.03079880
#
# Stress axis : x y z
#
# Youngs Moduli (GPa) = 9.88411 41.74040 85.11393
#
# Poissons Ratio (x) = 1.65685 1.47535
# Poissons Ratio (y) = 0.39234 -0.33943
# Poissons Ratio (z) = 0.17133 -0.16646
#
# Static dielectric constant tensor:
#      x y z
#    x 1.890200 0.000000 0.000000 
#    y 0.000000 1.705110 0.000000 
#    z 0.000000 0.000000 1.726210 
# 
# From -- ./inp_files/18514.got.cif
#   From: 2010.05.17/outbox.cif.g08.bks.cpg/sg57_10_cif.got.tgz:18514.got - 2010.06.03 13:58:18.
