data_PCOD9437044
_publ_section_title
;
Structure prediction by ZEFSAII (Michael W. Deem and Ramdas Pophale) SiO2 
 PCOD9437044
Probable space group: P B C M
;
_chemical_formula_sum "Si O2"
_cell_formula_units_Z 48
_cell_length_a 17.954483
_cell_length_b 8.184058
_cell_length_c 15.294045
_cell_angle_alpha 90.000000
_cell_angle_beta 90.000000
_cell_angle_gamma 90.000000
_cell_volume 2247.315082
_symmetry_space_group_name_H-M "P B C M"
_symmetry_group_IT_number 57
_symmetry_cell_setting 'orthorhombic'
loop_
_space_group_symop_operation_xyz
x,y,z
-x,-y,1/2+z
x,1/2-y,-z
-x,1/2+y,1/2-z
-x,-y,-z
x,y,1/2-z
-x,1/2+y,z
x,1/2-y,1/2+z
loop_
_atom_site_type_symbol
_atom_site_label
_atom_site_fract_x
_atom_site_fract_y
_atom_site_fract_z
Si Si1 0.891072 0.036866 0.154944
Si Si2 0.680559 0.057209 0.519621
Si Si3 0.166384 0.060251 0.479652
Si Si4 0.605625 0.974733 0.349571
Si Si5 0.964468 0.347362 0.408591
Si Si6 0.443364 0.855073 0.349300
O O1 0.860499 0.996128 0.250000
O O2 0.834951 0.028465 0.074353
O O3 0.959571 0.917832 0.129474
O O4 0.926222 0.216516 0.153575
O O5 0.692819 0.250000 0.500000
O O6 0.662730 0.962219 0.429479
O O7 0.608810 0.051642 0.582344
O O8 0.755098 0.985844 0.562548
O O9 0.160407 0.250000 0.500000
O O10 0.095033 0.989975 0.428782
O O11 0.631462 0.939210 0.250000
O O12 0.579951 0.165209 0.351456
O O13 0.530682 0.873334 0.368205
O O14 0.976757 0.250000 0.500000
O O15 0.432117 0.916516 0.250000
#
# Coordination Sequence:
#
# PCOD9437044 Si02
#       6
#     8   8   8   8   8   8
#     4  11  21  36  60  87 111 140 181 229 272 321
#     4  10  20  35  53  75 106 144 182 220 271 329
#     4  11  23  39  56  78 112 150 185 224 274 330
#     4   9  18  32  53  77 104 135 174 222 271 323
#     4  10  20  37  59  82 111 146 181 219 270 328
#     4   9  18  33  52  77 104 135 175 222 270 321
#
# _framework density 21.358820999999999
#
# number of rings (size 3 to 8) (size 9 to 14) (size 15 to 20)
#    0.000    2.000    0.000    6.000    0.000    2.000 
#    0.000    6.667    0.000    0.000    0.000    0.000 
#    0.000    0.000    0.000    0.000    0.000    0.000 
#
# Total GULP energy -268177.564090 kJ/mol
# GULP energy per Si atom -5587.032585 kJ/mol
# Density = 2.131021 g / cm^3
# Si number density = 21.358821 Si / 1000 Ang^3
#
#
#
# Elastic Constant Matrix: (Units=GPa)
#
#
# Indices 1 2 3 4 5 6 
#
# 1 50.0671 -0.6819 -4.5387 0.0000 0.0000 0.0000
# 2 -0.6819 48.0109 -9.1274 0.0000 0.0000 0.0000
# 3 -4.5387 -9.1274 45.4270 0.0000 0.0000 0.0000
# 4 0.0000 0.0000 0.0000 12.2993 0.0000 0.0000
# 5 0.0000 0.0000 0.0000 0.0000 5.4750 0.0000
# 6 0.0000 0.0000 0.0000 0.0000 0.0000 26.7165
#
#
#
# Elastic Compliance Matrix: (Units=1/GPa)
#
#
# Indices 1 2 3 4 5 6 
#
# 1 0.020178 0.000696 0.002156 0.000000 0.000000 0.000000
# 2 0.000696 0.021680 0.004426 0.000000 0.000000 0.000000
# 3 0.002156 0.004426 0.023118 0.000000 0.000000 0.000000
# 4 0.000000 0.000000 0.000000 0.081305 0.000000 0.000000
# 5 0.000000 0.000000 0.000000 0.000000 0.182647 0.000000
# 6 0.000000 0.000000 0.000000 0.000000 0.000000 0.037430
#
#
# Mechanical properties :
#
#
# Convention : Reuss Voigt Hill
#
# Bulk Modulus (GPa) = 12.57355 12.75655 12.66505
# Shear Modulus (GPa) = 13.21657 19.42169 16.31913
#
# Velocity S-wave (km/s) = 2.49024 3.01874 2.76714
# Velocity P-wave (km/s) = 3.76404 4.25862 4.01895
#
# Compressibility (1/GPa) = 0.07953206
#
# Stress axis : x y z
#
# Youngs Moduli (GPa) = 49.55857 46.12582 43.25637
#
# Poissons Ratio (x) = -0.03213 -0.09326
# Poissons Ratio (y) = -0.03452 -0.19144
# Poissons Ratio (z) = -0.10685 -0.20413
#
# Static dielectric constant tensor:
#      x y z
#    x 1.748590 0.000000 0.000000 
#    y 0.000000 1.781410 0.000000 
#    z 0.000000 0.000000 1.815800 
# 
# From -- ./inp_files/18955.got.cif
#   From: 2010.05.17/outbox.cif.g08.bks.cpg/sg57_10_cif.got.tgz:18955.got - 2010.06.03 13:58:18.
