data_PCOD9437572
_publ_section_title
;
Structure prediction by ZEFSAII (Michael W. Deem and Ramdas Pophale) SiO2 
 PCOD9437572
Probable space group: P B C M
;
_chemical_formula_sum "Si O2"
_cell_formula_units_Z 64
_cell_length_a 9.878418
_cell_length_b 27.232712
_cell_length_c 12.241512
_cell_angle_alpha 90.000000
_cell_angle_beta 90.000000
_cell_angle_gamma 90.000000
_cell_volume 3293.163968
_symmetry_space_group_name_H-M "P B C M"
_symmetry_group_IT_number 57
_symmetry_cell_setting 'orthorhombic'
loop_
_space_group_symop_operation_xyz
x,y,z
-x,-y,1/2+z
x,1/2-y,-z
-x,1/2+y,1/2-z
-x,-y,-z
x,y,1/2-z
-x,1/2+y,z
x,1/2-y,1/2+z
loop_
_atom_site_type_symbol
_atom_site_label
_atom_site_fract_x
_atom_site_fract_y
_atom_site_fract_z
Si Si1 0.840409 0.304963 0.992304
Si Si2 0.434971 0.681756 0.373740
Si Si3 0.934170 0.633959 0.126406
Si Si4 0.060417 0.049688 0.950386
Si Si5 0.731218 0.775352 0.879708
Si Si6 0.641310 0.529332 0.627955
Si Si7 0.805778 0.106232 0.630049
Si Si8 0.429444 0.575124 0.463753
O O1 0.686800 0.302190 0.951134
O O2 0.929821 0.337639 0.910214
O O3 0.895681 0.250000 0.000000
O O4 0.840007 0.337139 0.102299
O O5 0.386888 0.687204 0.250000
O O6 0.572295 0.712156 0.386205
O O7 0.462486 0.624400 0.398206
O O8 0.946851 0.616395 0.250000
O O9 0.910542 0.588723 0.046344
O O10 0.816258 0.674301 0.119209
O O11 0.199910 0.038406 0.889844
O O12 0.943019 0.075121 0.879639
O O13 0.000000 0.000000 0.000000
O O14 0.753675 0.755407 0.750000
O O15 0.763695 0.750000 0.000000
O O16 0.601999 0.543736 0.750000
O O17 0.554198 0.559367 0.540079
O O18 0.608309 0.471941 0.608582
O O19 0.746584 0.101425 0.750000
O O20 0.699891 0.087304 0.540089
#
# Coordination Sequence:
#
# PCOD9437572 Si02
#       8
#     8   8   8   8   8   8   8   8
#     4  10  21  37  58  86 118 149 195 242 291 355
#     4  10  20  36  59  84 116 152 194 243 292 353
#     4  10  22  39  61  85 115 154 199 247 297 355
#     4  11  22  40  57  88 116 152 197 245 295 354
#     4  10  21  40  63  90 120 156 200 249 303 361
#     4  11  22  37  59  83 114 153 195 242 295 351
#     4  10  21  38  57  82 119 155 190 240 299 353
#     4  10  21  38  56  84 116 150 198 241 291 350
#
# _framework density 19.434197000000001
#
# number of rings (size 3 to 8) (size 9 to 14) (size 15 to 20)
#    0.000    1.750    1.250    3.000    0.000    2.000 
#    0.000   10.625    0.000    0.000    0.000    0.000 
#    0.000    0.000    0.000    0.000    0.000    0.000 
#
# Total GULP energy -356999.726561 kJ/mol
# GULP energy per Si atom -5578.120728 kJ/mol
# Density = 1.938996 g / cm^3
# Si number density = 19.434197 Si / 1000 Ang^3
#
#
#
# Elastic Constant Matrix: (Units=GPa)
#
#
# Indices 1 2 3 4 5 6 
#
# 1 70.1776 0.6037 4.9010 0.0000 0.0000 0.0000
# 2 0.6037 75.5029 20.0785 0.0000 0.0000 0.0000
# 3 4.9010 20.0785 79.8295 0.0000 0.0000 0.0000
# 4 0.0000 0.0000 0.0000 9.2450 0.0000 0.0000
# 5 0.0000 0.0000 0.0000 0.0000 -6.5264 0.0000
# 6 0.0000 0.0000 0.0000 0.0000 0.0000 23.9951
#
#
#
# Elastic Compliance Matrix: (Units=1/GPa)
#
#
# Indices 1 2 3 4 5 6 
#
# 1 0.014312 0.000128 -0.000911 0.000000 0.000000 0.000000
# 2 0.000128 0.014195 -0.003578 0.000000 0.000000 0.000000
# 3 -0.000911 -0.003578 0.013483 0.000000 0.000000 0.000000
# 4 0.000000 0.000000 0.000000 0.108167 0.000000 0.000000
# 5 0.000000 0.000000 0.000000 0.000000 -0.153225 0.000000
# 6 0.000000 0.000000 0.000000 0.000000 0.000000 0.041675
#
#
# Mechanical properties :
#
#
# Convention : Reuss Voigt Hill
#
# Bulk Modulus (GPa) = 30.05952 30.74183 30.40067
# Shear Modulus (GPa) = 85.58910 18.67119 52.13014
#
# Velocity S-wave (km/s) = 6.64350 3.10294 5.18480
# Velocity P-wave (km/s) = 8.62259 5.35634 7.17772
#
# Compressibility (1/GPa) = 0.03326733
#
# Stress axis : x y z
#
# Youngs Moduli (GPa) = 69.87112 70.44712 74.16984
#
# Poissons Ratio (x) = -0.00900 0.06755
# Poissons Ratio (y) = -0.00893 0.26539
# Poissons Ratio (z) = 0.06364 0.25207
#
# Static dielectric constant tensor:
#      x y z
#    x 1.673940 0.000000 0.000000 
#    y 0.000000 1.667800 0.000000 
#    z 0.000000 0.000000 1.701560 
# 
# From -- ./inp_files/12293.got.cif
#   From: 2010.05.17/outbox.cif.g08.bks.cpg/sg57_7_cif.got.tgz:12293.got - 2010.06.03 13:58:18.
