data_PCOD9437303
_publ_section_title
;
Structure prediction by ZEFSAII (Michael W. Deem and Ramdas Pophale) SiO2 
 PCOD9437303
Probable space group: P B C M
;
_chemical_formula_sum "Si O2"
_cell_formula_units_Z 56
_cell_length_a 5.163951
_cell_length_b 23.850103
_cell_length_c 22.015996
_cell_angle_alpha 90.000000
_cell_angle_beta 90.000000
_cell_angle_gamma 90.000000
_cell_volume 2711.506871
_symmetry_space_group_name_H-M "P B C M"
_symmetry_group_IT_number 57
_symmetry_cell_setting 'orthorhombic'
loop_
_space_group_symop_operation_xyz
x,y,z
-x,-y,1/2+z
x,1/2-y,-z
-x,1/2+y,1/2-z
-x,-y,-z
x,y,1/2-z
-x,1/2+y,z
x,1/2-y,1/2+z
loop_
_atom_site_type_symbol
_atom_site_label
_atom_site_fract_x
_atom_site_fract_y
_atom_site_fract_z
Si Si1 0.311917 0.733681 0.316961
Si Si2 0.205457 0.389089 0.440638
Si Si3 0.089624 0.887966 0.679838
Si Si4 0.732100 0.651163 0.429700
Si Si5 0.807967 0.767405 0.115561
Si Si6 0.625772 0.056188 0.419283
Si Si7 0.270092 0.960585 0.446072
O O1 0.236192 0.753066 0.250000
O O2 0.280103 0.666251 0.317302
O O3 0.600132 0.753339 0.332000
O O4 0.102497 0.757309 0.363963
O O5 0.134865 0.373119 0.510230
O O6 0.222389 0.330348 0.406476
O O7 0.480245 0.420235 0.438310
O O8 0.979772 0.430666 0.418951
O O9 0.012909 0.899466 0.750000
O O10 0.222595 0.939453 0.643767
O O11 0.865668 0.867392 0.633491
O O12 0.735622 0.718064 0.431809
O O13 0.455365 0.620603 0.431873
O O14 0.760048 0.032836 0.480453
O O15 0.364028 0.019063 0.417253
#
# Coordination Sequence:
#
# PCOD9437303 Si02
#       7
#     8   8   8   8   8   8   8
#     4  10  21  37  58  86 116 150 198 245 296 354
#     4  11  22  38  57  88 122 156 198 237 289 360
#     4  10  20  35  58  87 120 153 191 249 307 357
#     4  10  21  35  56  89 122 150 191 244 308 351
#     4  11  21  36  59  87 119 157 191 242 299 354
#     4  10  20  37  59  84 119 153 199 246 296 354
#     4  10  23  36  61  85 118 161 197 240 291 351
#
# _framework density 20.652723999999999
#
# number of rings (size 3 to 8) (size 9 to 14) (size 15 to 20)
#    0.000    1.714    2.857    1.714    2.000    2.857 
#    0.000    2.857    0.000    5.143    0.000    0.000 
#    0.000    0.000    0.000    0.000    0.000    0.000 
#
# Total GULP energy -312444.148275 kJ/mol
# GULP energy per Si atom -5579.359791 kJ/mol
# Density = 2.060572 g / cm^3
# Si number density = 20.652724 Si / 1000 Ang^3
#
#
#
# Elastic Constant Matrix: (Units=GPa)
#
#
# Indices 1 2 3 4 5 6 
#
# 1 64.8322 17.4571 10.3215 0.0000 0.0000 0.0000
# 2 17.4571 93.2146 15.0905 0.0000 0.0000 0.0000
# 3 10.3215 15.0905 70.7551 0.0000 0.0000 0.0000
# 4 0.0000 0.0000 0.0000 18.3126 0.0000 0.0000
# 5 0.0000 0.0000 0.0000 0.0000 18.8806 0.0000
# 6 0.0000 0.0000 0.0000 0.0000 0.0000 35.6662
#
#
#
# Elastic Compliance Matrix: (Units=1/GPa)
#
#
# Indices 1 2 3 4 5 6 
#
# 1 0.016464 -0.002791 -0.001806 0.000000 0.000000 0.000000
# 2 -0.002791 0.011585 -0.002064 0.000000 0.000000 0.000000
# 3 -0.001806 -0.002064 0.014837 0.000000 0.000000 0.000000
# 4 0.000000 0.000000 0.000000 0.054607 0.000000 0.000000
# 5 0.000000 0.000000 0.000000 0.000000 0.052965 0.000000
# 6 0.000000 0.000000 0.000000 0.000000 0.000000 0.028038
#
#
# Mechanical properties :
#
#
# Convention : Reuss Voigt Hill
#
# Bulk Modulus (GPa) = 33.82570 34.94891 34.38731
# Shear Modulus (GPa) = 24.79289 26.96740 25.88014
#
# Velocity S-wave (km/s) = 3.46853 3.61744 3.54377
# Velocity P-wave (km/s) = 5.69692 5.86573 5.78194
#
# Compressibility (1/GPa) = 0.02956332
#
# Stress axis : x y z
#
# Youngs Moduli (GPa) = 60.74040 86.32091 67.39954
#
# Poissons Ratio (x) = 0.24091 0.12175
# Poissons Ratio (y) = 0.16952 0.13909
# Poissons Ratio (z) = 0.10972 0.17814
#
# Static dielectric constant tensor:
#      x y z
#    x 1.799590 0.000000 0.000000 
#    y 0.000000 1.758400 0.000000 
#    z 0.000000 0.000000 1.756010 
# 
# From -- ./inp_files/23784.got.cif
#   From: 2010.05.17/outbox.cif.g08.bks.cpg/sg57_12_cif.got.tgz:23784.got - 2010.06.03 13:58:18.
