data_PCOD9437652
_publ_section_title
;
Structure prediction by ZEFSAII (Michael W. Deem and Ramdas Pophale) SiO2 
 PCOD9437652
Probable space group: P B C M
;
_chemical_formula_sum "Si O2"
_cell_formula_units_Z 64
_cell_length_a 24.777038
_cell_length_b 15.041369
_cell_length_c 9.114907
_cell_angle_alpha 90.000000
_cell_angle_beta 90.000000
_cell_angle_gamma 90.000000
_cell_volume 3396.948748
_symmetry_space_group_name_H-M "P B C M"
_symmetry_group_IT_number 57
_symmetry_cell_setting 'orthorhombic'
loop_
_space_group_symop_operation_xyz
x,y,z
-x,-y,1/2+z
x,1/2-y,-z
-x,1/2+y,1/2-z
-x,-y,-z
x,y,1/2-z
-x,1/2+y,z
x,1/2-y,1/2+z
loop_
_atom_site_type_symbol
_atom_site_label
_atom_site_fract_x
_atom_site_fract_y
_atom_site_fract_z
Si Si1 0.384705 0.390826 0.579887
Si Si2 0.389558 0.893557 0.421539
Si Si3 0.729082 0.337888 0.424581
Si Si4 0.503371 0.402880 0.925461
Si Si5 0.204834 0.014451 0.423797
Si Si6 0.276377 0.160762 0.923049
Si Si7 0.002474 0.848097 0.073532
Si Si8 0.077577 0.485353 0.575194
O O1 0.373152 0.367521 0.750000
O O2 0.385436 0.498695 0.571270
O O3 0.445261 0.359502 0.541505
O O4 0.337383 0.356682 0.477819
O O5 0.396946 0.870901 0.250000
O O6 0.332166 0.857728 0.476030
O O7 0.441686 0.862406 0.511588
O O8 0.749730 0.250000 0.500000
O O9 0.725907 0.326562 0.250000
O O10 0.768311 0.419515 0.453478
O O11 0.506601 0.412350 0.750000
O O12 0.500000 0.500000 0.000000
O O13 0.213158 0.034006 0.250000
O O14 0.238105 0.083266 0.519567
O O15 0.141280 0.014871 0.453300
O O16 0.275185 0.168380 0.750000
O O17 0.257030 0.250000 0.000000
O O18 0.998950 0.837622 0.250000
O O19 0.051604 0.917653 0.040590
O O20 0.006619 0.750000 0.000000
O O21 0.952065 0.905979 0.011844
O O22 0.068752 0.471191 0.750000
#
# Coordination Sequence:
#
# PCOD9437652 Si02
#       8
#     8   8   8   8   8   8   8   8
#     4   9  17  34  55  76 107 144 183 230 289 347
#     4   9  17  32  53  76 107 145 182 227 287 342
#     4  10  21  37  57  82 113 150 189 236 288 342
#     4   9  17  28  48  77 106 138 178 226 283 346
#     4  10  21  42  64  83 117 156 195 242 291 336
#     4  12  25  39  59  85 112 147 192 239 293 352
#     4  10  20  36  60  92 128 162 197 238 285 334
#     4   9  20  38  62  89 117 159 203 240 284 335
#
# _framework density 18.840437999999999
#
# number of rings (size 3 to 8) (size 9 to 14) (size 15 to 20)
#    0.000    2.250    1.250    2.625    0.000    5.500 
#    0.000    0.625    0.000    1.500    0.000    0.000 
#    0.000    0.000    0.000    0.000    0.000    0.000 
#
# Total GULP energy -357153.548599 kJ/mol
# GULP energy per Si atom -5580.524197 kJ/mol
# Density = 1.879756 g / cm^3
# Si number density = 18.840438 Si / 1000 Ang^3
#
#
#
# Elastic Constant Matrix: (Units=GPa)
#
#
# Indices 1 2 3 4 5 6 
#
# 1 105.2703 39.8880 69.6369 0.0000 0.0000 0.0000
# 2 39.8880 105.4234 68.0491 0.0000 0.0000 0.0000
# 3 69.6369 68.0491 84.8501 0.0000 0.0000 0.0000
# 4 0.0000 0.0000 0.0000 28.4231 0.0000 0.0000
# 5 0.0000 0.0000 0.0000 0.0000 208.7005 0.0000
# 6 0.0000 0.0000 0.0000 0.0000 0.0000 -191.3607
#
#
#
# Elastic Compliance Matrix: (Units=1/GPa)
#
#
# Indices 1 2 3 4 5 6 
#
# 1 0.023197 0.007281 -0.024877 0.000000 0.000000 0.000000
# 2 0.007281 0.021952 -0.023581 0.000000 0.000000 0.000000
# 3 -0.024877 -0.023581 0.051114 0.000000 0.000000 0.000000
# 4 0.000000 0.000000 0.000000 0.035183 0.000000 0.000000
# 5 0.000000 0.000000 0.000000 0.000000 0.004792 0.000000
# 6 0.000000 0.000000 0.000000 0.000000 0.000000 -0.005226
#
#
# Mechanical properties :
#
#
# Convention : Reuss Voigt Hill
#
# Bulk Modulus (GPa) = 71.89679 72.29908 72.09793
# Shear Modulus (GPa) = 22.93577 17.01723 19.97650
#
# Velocity S-wave (km/s) = 3.49287 3.00864 3.25976
# Velocity P-wave (km/s) = 7.38313 7.10823 7.24698
#
# Compressibility (1/GPa) = 0.01390883
#
# Stress axis : x y z
#
# Youngs Moduli (GPa) = 43.10938 45.55476 19.56425
#
# Poissons Ratio (x) = -0.33168 0.48670
# Poissons Ratio (y) = -0.31388 0.46134
# Poissons Ratio (z) = 1.07243 1.07421
#
# Static dielectric constant tensor:
#      x y z
#    x 1.657610 0.000000 0.000000 
#    y 0.000000 1.664880 0.000000 
#    z 0.000000 0.000000 1.628730 
# 
# From -- ./inp_files/9352.got.cif
#   From: 2010.05.17/outbox.cif.g08.bks.cpg/sg57_5_cif.got.tgz:9352.got - 2010.06.03 13:58:18.
