data_PCOD9437055
_publ_section_title
;
Structure prediction by ZEFSAII (Michael W. Deem and Ramdas Pophale) SiO2 
 PCOD9437055
Probable space group: P B C M
;
_chemical_formula_sum "Si O2"
_cell_formula_units_Z 64
_cell_length_a 25.054581
_cell_length_b 14.753729
_cell_length_c 8.393935
_cell_angle_alpha 90.000000
_cell_angle_beta 90.000000
_cell_angle_gamma 90.000000
_cell_volume 3102.805467
_symmetry_space_group_name_H-M "P B C M"
_symmetry_group_IT_number 57
_symmetry_cell_setting 'orthorhombic'
loop_
_space_group_symop_operation_xyz
x,y,z
-x,-y,1/2+z
x,1/2-y,-z
-x,1/2+y,1/2-z
-x,-y,-z
x,y,1/2-z
-x,1/2+y,z
x,1/2-y,1/2+z
loop_
_atom_site_type_symbol
_atom_site_label
_atom_site_fract_x
_atom_site_fract_y
_atom_site_fract_z
Si Si1 0.636156 0.471418 0.560192
Si Si2 0.417605 0.351087 0.441997
Si Si3 0.249742 0.968813 0.058171
Si Si4 0.148226 0.853539 0.440702
Si Si5 0.461600 0.852356 0.058947
Si Si6 0.803061 0.647575 0.057633
Si Si7 0.035871 0.644864 0.058589
Si Si8 0.921143 0.645658 0.442345
O O1 0.639403 0.472626 0.750000
O O2 0.623667 0.573399 0.501042
O O3 0.692288 0.436951 0.494829
O O4 0.585194 0.413016 0.510491
O O5 0.406514 0.250000 0.500000
O O6 0.417322 0.350198 0.250000
O O7 0.478030 0.377895 0.492462
O O8 0.248228 0.968237 0.250000
O O9 0.200103 0.907906 0.002021
O O10 0.238764 0.072063 0.003205
O O11 0.151187 0.750000 0.500000
O O12 0.148169 0.853410 0.250000
O O13 0.091215 0.894661 0.494068
O O14 0.459538 0.855790 0.250000
O O15 0.453744 0.750000 0.000000
O O16 0.802738 0.650034 0.250000
O O17 0.862488 0.613548 0.006817
O O18 0.794310 0.750000 0.000000
O O19 0.037920 0.644142 0.250000
O O20 0.978299 0.605870 0.003826
O O21 0.035951 0.750000 0.000000
O O22 0.921724 0.750000 0.500000
O O23 0.921768 0.642990 0.250000
#
# Coordination Sequence:
#
# PCOD9437055 Si02
#       8
#     8   8   8   8   8   8   8   8
#     4  11  23  38  57  83 114 147 186 230 272 316
#     4   9  20  37  59  88 118 149 183 221 267 320
#     4  10  23  40  55  74 104 144 186 224 267 320
#     4  10  20  35  54  74  99 134 175 218 266 318
#     4  10  20  37  61  88 118 149 182 220 267 322
#     4   9  18  35  56  76 102 137 176 219 268 321
#     4   9  15  25  45  73 101 128 162 207 263 323
#     4   8  14  25  45  72  99 128 163 207 260 320
#
# _framework density 20.626495999999999
#
# number of rings (size 3 to 8) (size 9 to 14) (size 15 to 20)
#    0.000    2.500    0.000    2.625    0.000    4.500 
#    0.000    4.375    0.000    0.000    0.000    0.000 
#    0.000    0.000    0.000    0.000    0.000    0.000 
#
# Total GULP energy -357049.774931 kJ/mol
# GULP energy per Si atom -5578.902733 kJ/mol
# Density = 2.057955 g / cm^3
# Si number density = 20.626496 Si / 1000 Ang^3
#
#
#
# Elastic Constant Matrix: (Units=GPa)
#
#
# Indices 1 2 3 4 5 6 
#
# 1 68.5528 12.6923 8.6437 0.0000 0.0000 0.0000
# 2 12.6923 31.5718 -1.2358 0.0000 0.0000 0.0000
# 3 8.6437 -1.2358 20.0716 0.0000 0.0000 0.0000
# 4 0.0000 0.0000 0.0000 17.9803 0.0000 0.0000
# 5 0.0000 0.0000 0.0000 0.0000 15.8553 0.0000
# 6 0.0000 0.0000 0.0000 0.0000 0.0000 27.1456
#
#
#
# Elastic Compliance Matrix: (Units=1/GPa)
#
#
# Indices 1 2 3 4 5 6 
#
# 1 0.016870 -0.007083 -0.007701 0.000000 0.000000 0.000000
# 2 -0.007083 0.034724 0.005188 0.000000 0.000000 0.000000
# 3 -0.007701 0.005188 0.053457 0.000000 0.000000 0.000000
# 4 0.000000 0.000000 0.000000 0.055617 0.000000 0.000000
# 5 0.000000 0.000000 0.000000 0.000000 0.063070 0.000000
# 6 0.000000 0.000000 0.000000 0.000000 0.000000 0.036838
#
#
# Mechanical properties :
#
#
# Convention : Reuss Voigt Hill
#
# Bulk Modulus (GPa) = 11.64688 17.82182 14.73435
# Shear Modulus (GPa) = 16.21332 18.86932 17.54132
#
# Velocity S-wave (km/s) = 2.80669 3.02786 2.91937
# Velocity P-wave (km/s) = 4.02022 4.56979 4.30378
#
# Compressibility (1/GPa) = 0.08585993
#
# Stress axis : x y z
#
# Youngs Moduli (GPa) = 59.27778 28.79812 18.70650
#
# Poissons Ratio (x) = 0.20399 0.14406
# Poissons Ratio (y) = 0.41988 -0.09706
# Poissons Ratio (z) = 0.45649 -0.14942
#
# Static dielectric constant tensor:
#      x y z
#    x 1.763360 0.000000 0.000000 
#    y 0.000000 1.750650 0.000000 
#    z 0.000000 0.000000 1.718190 
# 
# From -- ./inp_files/9424.got.cif
#   From: 2010.05.17/outbox.cif.g08.bks.cpg/sg57_5_cif.got.tgz:9424.got - 2010.06.03 13:58:18.
