data_PCOD9437919
_publ_section_title
;
Structure prediction by ZEFSAII (Michael W. Deem and Ramdas Pophale) SiO2 
 PCOD9437919
Probable space group: P B C M
;
_chemical_formula_sum "Si O2"
_cell_formula_units_Z 48
_cell_length_a 8.019321
_cell_length_b 20.547909
_cell_length_c 13.946779
_cell_angle_alpha 90.000000
_cell_angle_beta 90.000000
_cell_angle_gamma 90.000000
_cell_volume 2298.154123
_symmetry_space_group_name_H-M "P B C M"
_symmetry_group_IT_number 57
_symmetry_cell_setting 'orthorhombic'
loop_
_space_group_symop_operation_xyz
x,y,z
-x,-y,1/2+z
x,1/2-y,-z
-x,1/2+y,1/2-z
-x,-y,-z
x,y,1/2-z
-x,1/2+y,z
x,1/2-y,1/2+z
loop_
_atom_site_type_symbol
_atom_site_label
_atom_site_fract_x
_atom_site_fract_y
_atom_site_fract_z
Si Si1 0.319805 0.737102 0.134982
Si Si2 0.015622 0.327057 0.864268
Si Si3 0.682840 0.385682 0.362003
Si Si4 0.129789 0.553626 0.468427
Si Si5 0.619572 0.854299 0.633417
Si Si6 0.539952 0.011068 0.362926
O O1 0.315821 0.728310 0.250000
O O2 0.368633 0.811589 0.118381
O O3 0.458921 0.686487 0.099545
O O4 0.132367 0.720562 0.101439
O O5 0.027696 0.318297 0.750000
O O6 0.204919 0.325573 0.902913
O O7 0.947156 0.398388 0.889624
O O8 0.736371 0.389267 0.250000
O O9 0.823499 0.404901 0.437537
O O10 0.540503 0.440207 0.374726
O O11 0.296120 0.522362 0.424628
O O12 0.000000 0.500000 0.500000
O O13 0.623709 0.850046 0.750000
O O14 0.588875 0.930489 0.611632
O O15 0.579622 0.019399 0.250000
#
# Coordination Sequence:
#
# PCOD9437919 Si02
#       6
#     8   8   8   8   8   8
#     4   9  18  38  63  89 122 166 208 256 318 375
#     4  10  20  37  64  94 123 160 213 263 310 373
#     4  10  23  41  62  88 127 169 208 262 323 371
#     4  12  24  38  61  91 129 163 210 259 315 380
#     4   9  17  34  65  93 118 159 210 256 305 374
#     4  10  20  40  66  91 122 164 211 260 318 373
#
# _framework density 20.886327000000001
#
# number of rings (size 3 to 8) (size 9 to 14) (size 15 to 20)
#    0.000    2.000    1.667    2.000    0.000    3.333 
#    3.000    0.000    3.667    0.000    0.000    0.000 
#    0.000    0.000    0.000    0.000    0.000    0.000 
#
# Total GULP energy -268051.028442 kJ/mol
# GULP energy per Si atom -5584.396426 kJ/mol
# Density = 2.083879 g / cm^3
# Si number density = 20.886327 Si / 1000 Ang^3
#
#
#
# Elastic Constant Matrix: (Units=GPa)
#
#
# Indices 1 2 3 4 5 6 
#
# 1 140.5970 57.1318 22.1847 0.0000 0.0000 0.0000
# 2 57.1318 125.9792 2.3220 0.0000 0.0000 0.0000
# 3 22.1847 2.3220 48.5641 0.0000 0.0000 0.0000
# 4 0.0000 0.0000 0.0000 14.4822 0.0000 0.0000
# 5 0.0000 0.0000 0.0000 0.0000 16.4269 0.0000
# 6 0.0000 0.0000 0.0000 0.0000 0.0000 23.4548
#
#
#
# Elastic Compliance Matrix: (Units=1/GPa)
#
#
# Indices 1 2 3 4 5 6 
#
# 1 0.009480 -0.004223 -0.004129 0.000000 0.000000 0.000000
# 2 -0.004223 0.009826 0.001459 0.000000 0.000000 0.000000
# 3 -0.004129 0.001459 0.022408 0.000000 0.000000 0.000000
# 4 0.000000 0.000000 0.000000 0.069050 0.000000 0.000000
# 5 0.000000 0.000000 0.000000 0.000000 0.060876 0.000000
# 6 0.000000 0.000000 0.000000 0.000000 0.000000 0.042635
#
#
# Mechanical properties :
#
#
# Convention : Reuss Voigt Hill
#
# Bulk Modulus (GPa) = 35.80527 53.15748 44.48138
# Shear Modulus (GPa) = 21.06422 26.43958 23.75190
#
# Velocity S-wave (km/s) = 3.17916 3.56178 3.37590
# Velocity P-wave (km/s) = 5.53681 6.51315 6.04472
#
# Compressibility (1/GPa) = 0.02792885
#
# Stress axis : x y z
#
# Youngs Moduli (GPa) = 105.48448 101.76958 44.62773
#
# Poissons Ratio (x) = 0.42979 0.18425
# Poissons Ratio (y) = 0.44547 -0.06513
# Poissons Ratio (z) = 0.43551 -0.14852
#
# Static dielectric constant tensor:
#      x y z
#    x 1.747990 0.000000 0.000000 
#    y 0.000000 1.730700 0.000000 
#    z 0.000000 0.000000 1.770170 
# 
# From -- ./inp_files/16534.got.cif
#   From: 2010.05.17/outbox.cif.g08.bks.cpg/sg57_9_cif.got.tgz:16534.got - 2010.06.03 13:58:18.
