data_PCOD9437624
_publ_section_title
;
Structure prediction by ZEFSAII (Michael W. Deem and Ramdas Pophale) SiO2 
 PCOD9437624
Probable space group: P B C M
;
_chemical_formula_sum "Si O2"
_cell_formula_units_Z 64
_cell_length_a 12.381186
_cell_length_b 31.998595
_cell_length_c 8.794692
_cell_angle_alpha 90.000000
_cell_angle_beta 90.000000
_cell_angle_gamma 90.000000
_cell_volume 3484.285970
_symmetry_space_group_name_H-M "P B C M"
_symmetry_group_IT_number 57
_symmetry_cell_setting 'orthorhombic'
loop_
_space_group_symop_operation_xyz
x,y,z
-x,-y,1/2+z
x,1/2-y,-z
-x,1/2+y,1/2-z
-x,-y,-z
x,y,1/2-z
-x,1/2+y,z
x,1/2-y,1/2+z
loop_
_atom_site_type_symbol
_atom_site_label
_atom_site_fract_x
_atom_site_fract_y
_atom_site_fract_z
Si Si1 0.885719 0.486851 0.928855
Si Si2 0.504696 0.704830 0.933404
Si Si3 0.632528 0.124343 0.566971
Si Si4 0.755487 0.794762 0.431792
Si Si5 0.742682 0.944775 0.931355
Si Si6 0.898424 0.867941 0.566575
Si Si7 0.513039 0.546549 0.932445
Si Si8 0.137326 0.887409 0.929170
O O1 0.883888 0.497585 0.750000
O O2 0.871626 0.437433 0.943555
O O3 0.791130 0.511226 0.014801
O O4 0.000000 0.500000 0.000000
O O5 0.498911 0.707324 0.750000
O O6 0.434044 0.665252 0.984512
O O7 0.630205 0.697269 0.975343
O O8 0.472468 0.750000 0.000000
O O9 0.628849 0.123905 0.750000
O O10 0.575613 0.080875 0.516164
O O11 0.755291 0.126906 0.512947
O O12 0.785548 0.750000 0.500000
O O13 0.761338 0.793714 0.250000
O O14 0.832508 0.830082 0.496791
O O15 0.726263 0.944609 0.750000
O O16 0.833167 0.910311 0.970748
O O17 0.630050 0.936950 0.014874
O O18 0.899277 0.865050 0.750000
O O19 0.022620 0.869684 0.514748
O O20 0.508816 0.543520 0.750000
O O21 0.500000 0.500000 0.000000
O O22 0.147538 0.877643 0.750000
#
# Coordination Sequence:
#
# PCOD9437624 Si02
#       8
#     8   8   8   8   8   8   8   8
#     4  11  21  36  56  80 112 151 194 240 288 338
#     4   9  19  37  60  87 116 142 180 231 284 342
#     4  10  22  39  58  82 115 152 192 239 288 345
#     4  10  20  36  60  88 115 145 179 225 283 344
#     4  11  22  37  57  83 114 148 190 239 288 339
#     4  10  21  38  56  80 114 147 184 232 280 331
#     4  11  23  39  57  82 116 154 195 242 293 348
#     4  10  22  39  56  79 113 151 192 237 281 333
#
# _framework density 18.368182000000001
#
# number of rings (size 3 to 8) (size 9 to 14) (size 15 to 20)
#    0.000    1.750    1.250    3.000    0.000    7.500 
#    0.000    0.625    0.000    1.500    0.000    0.000 
#    0.000    0.000    0.000    0.000    0.000    0.000 
#
# Total GULP energy -357497.544710 kJ/mol
# GULP energy per Si atom -5585.899136 kJ/mol
# Density = 1.832638 g / cm^3
# Si number density = 18.368182 Si / 1000 Ang^3
#
#
#
# Elastic Constant Matrix: (Units=GPa)
#
#
# Indices 1 2 3 4 5 6 
#
# 1 118.1062 62.2651 30.6335 0.0000 0.0000 0.0000
# 2 62.2651 105.5316 34.6170 0.0000 0.0000 0.0000
# 3 30.6335 34.6170 25.3871 0.0000 0.0000 0.0000
# 4 0.0000 0.0000 0.0000 31.0195 0.0000 0.0000
# 5 0.0000 0.0000 0.0000 0.0000 33.9577 0.0000
# 6 0.0000 0.0000 0.0000 0.0000 0.0000 36.4984
#
#
#
# Elastic Compliance Matrix: (Units=1/GPa)
#
#
# Indices 1 2 3 4 5 6 
#
# 1 0.013524 -0.004752 -0.009840 0.000000 0.000000 0.000000
# 2 -0.004752 0.018814 -0.019920 0.000000 0.000000 0.000000
# 3 -0.009840 -0.019920 0.078426 0.000000 0.000000 0.000000
# 4 0.000000 0.000000 0.000000 0.032238 0.000000 0.000000
# 5 0.000000 0.000000 0.000000 0.000000 0.029448 0.000000
# 6 0.000000 0.000000 0.000000 0.000000 0.000000 0.027398
#
#
# Mechanical properties :
#
#
# Convention : Reuss Voigt Hill
#
# Bulk Modulus (GPa) = 23.95755 56.00623 39.98189
# Shear Modulus (GPa) = 17.68128 28.39572 23.03850
#
# Velocity S-wave (km/s) = 3.10595 3.93608 3.54540
# Velocity P-wave (km/s) = 5.09253 7.15640 6.21079
#
# Compressibility (1/GPa) = 0.04174050
#
# Stress axis : x y z
#
# Youngs Moduli (GPa) = 73.94131 53.15259 12.75094
#
# Poissons Ratio (x) = 0.25257 0.12547
# Poissons Ratio (y) = 0.35136 0.25400
# Poissons Ratio (z) = 0.72756 1.05880
#
# Static dielectric constant tensor:
#      x y z
#    x 1.626350 0.000000 0.000000 
#    y 0.000000 1.703060 0.000000 
#    z 0.000000 0.000000 1.619640 
# 
# From -- ./inp_files/3763.got.cif
#   From: 2010.05.17/outbox.cif.g08.bks.cpg/sg57_2_cif.got.tgz:3763.got - 2010.06.03 13:58:18.
