data_PCOD9437398
_publ_section_title
;
Structure prediction by ZEFSAII (Michael W. Deem and Ramdas Pophale) SiO2 
 PCOD9437398
Probable space group: P B C M
;
_chemical_formula_sum "Si O2"
_cell_formula_units_Z 48
_cell_length_a 31.767176
_cell_length_b 9.429046
_cell_length_c 8.627600
_cell_angle_alpha 90.000000
_cell_angle_beta 90.000000
_cell_angle_gamma 90.000000
_cell_volume 2584.260952
_symmetry_space_group_name_H-M "P B C M"
_symmetry_group_IT_number 57
_symmetry_cell_setting 'orthorhombic'
loop_
_space_group_symop_operation_xyz
x,y,z
-x,-y,1/2+z
x,1/2-y,-z
-x,1/2+y,1/2-z
-x,-y,-z
x,y,1/2-z
-x,1/2+y,z
x,1/2-y,1/2+z
loop_
_atom_site_type_symbol
_atom_site_label
_atom_site_fract_x
_atom_site_fract_y
_atom_site_fract_z
Si Si1 0.539112 0.409927 0.936209
Si Si2 0.961286 0.910128 0.435530
Si Si3 0.792831 0.407196 0.436534
Si Si4 0.127408 0.090953 0.063244
Si Si5 0.621414 0.591291 0.564166
Si Si6 0.697766 0.409283 0.063675
O O1 0.536867 0.404724 0.750000
O O2 0.581761 0.492915 0.981108
O O3 0.538844 0.250000 0.000000
O O4 0.500000 0.500000 0.000000
O O5 0.964641 0.750000 0.500000
O O6 0.961524 0.907722 0.250000
O O7 0.916389 0.968285 0.495996
O O8 0.000000 0.000000 0.500000
O O9 0.799280 0.250000 0.500000
O O10 0.793399 0.403128 0.250000
O O11 0.831225 0.505677 0.486906
O O12 0.745497 0.452095 0.482601
O O13 0.124907 0.092544 0.250000
O O14 0.130995 0.250000 0.000000
O O15 0.616659 0.750000 0.500000
O O16 0.622926 0.597299 0.750000
O O17 0.663412 0.516631 0.501508
O O18 0.695214 0.405503 0.250000
O O19 0.690396 0.250000 0.000000
#
# Coordination Sequence:
#
# PCOD9437398 Si02
#       6
#     8   8   8   8   8   8
#     4  11  24  41  63  89 119 153 192 235 285 338
#     4  11  22  38  58  82 110 144 184 228 277 331
#     4   9  20  36  56  82 112 145 185 229 276 329
#     4  10  20  36  55  79 110 144 182 226 275 330
#     4  11  24  40  59  86 117 152 191 236 284 336
#     4  10  20  37  59  84 114 150 190 234 281 334
#
# _framework density 18.573975999999998
#
# number of rings (size 3 to 8) (size 9 to 14) (size 15 to 20)
#    0.000    1.667    0.000    5.500    0.000    8.667 
#    0.000    3.333    0.000    0.000    0.000    0.000 
#    0.000    0.000    0.000    0.000    0.000    0.000 
#
# Total GULP energy -268195.243195 kJ/mol
# GULP energy per Si atom -5587.400900 kJ/mol
# Density = 1.853170 g / cm^3
# Si number density = 18.573976 Si / 1000 Ang^3
#
#
#
# Elastic Constant Matrix: (Units=GPa)
#
#
# Indices 1 2 3 4 5 6 
#
# 1 199.0147 114.0934 61.0015 0.0000 0.0000 0.0000
# 2 114.0934 126.1570 43.6696 0.0000 0.0000 0.0000
# 3 61.0015 43.6696 78.6048 0.0000 0.0000 0.0000
# 4 0.0000 0.0000 0.0000 36.6444 0.0000 0.0000
# 5 0.0000 0.0000 0.0000 0.0000 31.0053 0.0000
# 6 0.0000 0.0000 0.0000 0.0000 0.0000 41.7860
#
#
#
# Elastic Compliance Matrix: (Units=1/GPa)
#
#
# Indices 1 2 3 4 5 6 
#
# 1 0.011294 -0.008889 -0.003826 0.000000 0.000000 0.000000
# 2 -0.008889 0.016811 -0.002441 0.000000 0.000000 0.000000
# 3 -0.003826 -0.002441 0.017047 0.000000 0.000000 0.000000
# 4 0.000000 0.000000 0.000000 0.027289 0.000000 0.000000
# 5 0.000000 0.000000 0.000000 0.000000 0.032253 0.000000
# 6 0.000000 0.000000 0.000000 0.000000 0.000000 0.023931
#
#
# Mechanical properties :
#
#
# Convention : Reuss Voigt Hill
#
# Bulk Modulus (GPa) = 67.38842 93.47841 80.43341
# Shear Modulus (GPa) = 30.50950 34.22129 32.36539
#
# Velocity S-wave (km/s) = 4.05729 4.29701 4.17887
# Velocity P-wave (km/s) = 7.63601 8.66349 8.16592
#
# Compressibility (1/GPa) = 0.01483935
#
# Stress axis : x y z
#
# Youngs Moduli (GPa) = 88.54518 59.48531 58.66138
#
# Poissons Ratio (x) = 0.52879 0.22443
# Poissons Ratio (y) = 0.78711 0.14318
# Poissons Ratio (z) = 0.33877 0.14519
#
# Static dielectric constant tensor:
#      x y z
#    x 1.651790 0.000000 0.000000 
#    y 0.000000 1.601370 0.000000 
#    z 0.000000 0.000000 1.626510 
# 
# From -- ./inp_files/10001.got.cif
#   From: 2010.05.17/outbox.cif.g08.bks.cpg/sg57_6_cif.got.tgz:10001.got - 2010.06.03 13:58:18.
