data_PCOD9437670
_publ_section_title
;
Structure prediction by ZEFSAII (Michael W. Deem and Ramdas Pophale) SiO2 
 PCOD9437670
Probable space group: P B C M
;
_chemical_formula_sum "Si O2"
_cell_formula_units_Z 64
_cell_length_a 11.840580
_cell_length_b 18.865687
_cell_length_c 13.450350
_cell_angle_alpha 90.000000
_cell_angle_beta 90.000000
_cell_angle_gamma 90.000000
_cell_volume 3004.548278
_symmetry_space_group_name_H-M "P B C M"
_symmetry_group_IT_number 57
_symmetry_cell_setting 'orthorhombic'
loop_
_space_group_symop_operation_xyz
x,y,z
-x,-y,1/2+z
x,1/2-y,-z
-x,1/2+y,1/2-z
-x,-y,-z
x,y,1/2-z
-x,1/2+y,z
x,1/2-y,1/2+z
loop_
_atom_site_type_symbol
_atom_site_label
_atom_site_fract_x
_atom_site_fract_y
_atom_site_fract_z
Si Si1 0.128259 0.176393 0.368482
Si Si2 0.286508 0.794859 0.128512
Si Si3 0.603956 0.354613 0.870683
Si Si4 0.316134 0.489006 0.370993
Si Si5 0.622356 0.716329 0.370624
Si Si6 0.030198 0.691612 0.630405
Si Si7 0.486735 0.366113 0.370823
Si Si8 0.911630 0.561750 0.521722
O O1 0.128899 0.170635 0.250000
O O2 0.251430 0.201562 0.403586
O O3 0.109886 0.101039 0.417893
O O4 0.033661 0.234833 0.394101
O O5 0.285513 0.796222 0.250000
O O6 0.324945 0.715175 0.100757
O O7 0.159730 0.809851 0.095070
O O8 0.384373 0.850152 0.097116
O O9 0.603978 0.354453 0.750000
O O10 0.652039 0.430667 0.898403
O O11 0.474507 0.339279 0.901166
O O12 0.301457 0.484567 0.250000
O O13 0.418271 0.435929 0.399957
O O14 0.201969 0.465810 0.426006
O O15 0.624233 0.714699 0.250000
O O16 0.582410 0.795087 0.397536
O O17 0.030401 0.687500 0.750000
O O18 0.963807 0.624391 0.588848
O O19 0.490358 0.368145 0.250000
O O20 0.000000 0.500000 0.500000
#
# Coordination Sequence:
#
# PCOD9437670 Si02
#       8
#     8   8   8   8   8   8   8   8
#     4  10  22  41  66  88 113 160 212 260 307 358
#     4   8  15  30  57  90 121 155 205 255 298 356
#     4   8  15  29  55  90 122 155 196 246 303 370
#     4  10  20  36  61  90 126 167 203 246 316 389
#     4   8  14  30  56  85 112 143 197 256 301 350
#     4  10  21  40  67  93 119 162 211 255 306 366
#     4   8  14  28  55  90 120 150 192 246 303 363
#     4  12  27  42  57  87 129 164 206 257 309 370
#
# _framework density 21.30104
#
# number of rings (size 3 to 8) (size 9 to 14) (size 15 to 20)
#    0.000    2.750    0.000    3.000    1.750    3.000 
#    2.250    0.625    0.000    0.000    0.000    0.000 
#    0.000    0.000    0.000    0.000    0.000    0.000 
#
# Total GULP energy -357819.772476 kJ/mol
# GULP energy per Si atom -5590.933945 kJ/mol
# Density = 2.125256 g / cm^3
# Si number density = 21.301040 Si / 1000 Ang^3
#
#
#
# Elastic Constant Matrix: (Units=GPa)
#
#
# Indices 1 2 3 4 5 6 
#
# 1 181.6827 92.4471 36.5887 0.0000 0.0000 0.0000
# 2 92.4471 151.3792 42.0710 0.0000 0.0000 0.0000
# 3 36.5887 42.0710 82.1917 0.0000 0.0000 0.0000
# 4 0.0000 0.0000 0.0000 27.0783 0.0000 0.0000
# 5 0.0000 0.0000 0.0000 0.0000 23.2019 0.0000
# 6 0.0000 0.0000 0.0000 0.0000 0.0000 33.7178
#
#
#
# Elastic Compliance Matrix: (Units=1/GPa)
#
#
# Indices 1 2 3 4 5 6 
#
# 1 0.008094 -0.004596 -0.001251 0.000000 0.000000 0.000000
# 2 -0.004596 0.010311 -0.003232 0.000000 0.000000 0.000000
# 3 -0.001251 -0.003232 0.014378 0.000000 0.000000 0.000000
# 4 0.000000 0.000000 0.000000 0.036930 0.000000 0.000000
# 5 0.000000 0.000000 0.000000 0.000000 0.043100 0.000000
# 6 0.000000 0.000000 0.000000 0.000000 0.000000 0.029658
#
#
# Mechanical properties :
#
#
# Convention : Reuss Voigt Hill
#
# Bulk Modulus (GPa) = 68.37145 84.16303 76.26724
# Shear Modulus (GPa) = 30.21094 33.07607 31.64350
#
# Velocity S-wave (km/s) = 3.77010 3.94482 3.85845
# Velocity P-wave (km/s) = 7.14975 7.76826 7.46541
#
# Compressibility (1/GPa) = 0.01462599
#
# Stress axis : x y z
#
# Youngs Moduli (GPa) = 123.54134 96.98717 69.55140
#
# Poissons Ratio (x) = 0.44571 0.08701
# Poissons Ratio (y) = 0.56775 0.22478
# Poissons Ratio (z) = 0.15455 0.31345
#
# Static dielectric constant tensor:
#      x y z
#    x 1.744700 0.000000 0.000000 
#    y 0.000000 1.700570 0.000000 
#    z 0.000000 0.000000 1.843400 
# 
# From -- ./inp_files/18015.got.cif
#   From: 2010.05.17/outbox.cif.g08.bks.cpg/sg57_10_cif.got.tgz:18015.got - 2010.06.03 13:58:18.
