data_PCOD9437192
_publ_section_title
;
Structure prediction by ZEFSAII (Michael W. Deem and Ramdas Pophale) SiO2 
 PCOD9437192
Probable space group: P B C M
;
_chemical_formula_sum "Si O2"
_cell_formula_units_Z 56
_cell_length_a 16.906948
_cell_length_b 21.668018
_cell_length_c 8.730546
_cell_angle_alpha 90.000000
_cell_angle_beta 90.000000
_cell_angle_gamma 90.000000
_cell_volume 3198.348690
_symmetry_space_group_name_H-M "P B C M"
_symmetry_group_IT_number 57
_symmetry_cell_setting 'orthorhombic'
loop_
_space_group_symop_operation_xyz
x,y,z
-x,-y,1/2+z
x,1/2-y,-z
-x,1/2+y,1/2-z
-x,-y,-z
x,y,1/2-z
-x,1/2+y,z
x,1/2-y,1/2+z
loop_
_atom_site_type_symbol
_atom_site_label
_atom_site_fract_x
_atom_site_fract_y
_atom_site_fract_z
Si Si1 0.956066 0.560978 0.932962
Si Si2 0.645615 0.182207 0.931410
Si Si3 0.797664 0.983992 0.567906
Si Si4 0.376483 0.030035 0.931684
Si Si5 0.798140 0.117439 0.431258
Si Si6 0.523254 0.404175 0.569410
Si Si7 0.960758 0.317341 0.568061
O O1 0.961792 0.558552 0.750000
O O2 0.865345 0.556150 0.987500
O O3 0.993495 0.624659 0.994270
O O4 0.000000 0.500000 0.000000
O O5 0.657427 0.182607 0.750000
O O6 0.648384 0.250000 0.000000
O O7 0.715518 0.143739 0.010842
O O8 0.563277 0.150355 0.975498
O O9 0.801227 0.976849 0.750000
O O10 0.815755 0.054738 0.521406
O O11 0.709652 0.970237 0.506952
O O12 0.370130 0.040638 0.750000
O O13 0.419480 0.963699 0.953202
O O14 0.436969 0.077747 0.008940
O O15 0.794100 0.103229 0.250000
O O16 0.868014 0.166504 0.456110
O O17 0.521629 0.390509 0.750000
O O18 0.979299 0.250000 0.500000
O O19 0.975458 0.317076 0.750000
#
# Coordination Sequence:
#
# PCOD9437192 Si02
#       7
#     8   8   8   8   8   8   8
#     4  12  24  40  62  88 120 157 202 251 302 356
#     4  12  24  37  55  80 116 157 198 238 287 345
#     4  12  23  36  59  88 121 156 195 242 298 351
#     4  10  20  35  57  83 115 148 186 233 286 338
#     4  11  22  37  57  84 120 157 197 240 291 353
#     4  10  20  35  56  81 113 148 190 234 282 338
#     4  11  24  41  62  87 120 159 203 248 300 360
#
# _framework density 17.509035999999998
#
# number of rings (size 3 to 8) (size 9 to 14) (size 15 to 20)
#    0.000    0.857    2.857    6.000    0.000    4.000 
#    0.000    0.000    0.000    0.857    0.000    6.000 
#    0.000    0.000    0.000    0.000    0.000    0.000 
#
# Total GULP energy -313101.783048 kJ/mol
# GULP energy per Si atom -5591.103269 kJ/mol
# Density = 1.746918 g / cm^3
# Si number density = 17.509036 Si / 1000 Ang^3
#
#
#
# Elastic Constant Matrix: (Units=GPa)
#
#
# Indices 1 2 3 4 5 6 
#
# 1 99.9639 40.5944 51.3093 0.0000 0.0000 0.0000
# 2 40.5944 84.0899 40.9348 0.0000 0.0000 0.0000
# 3 51.3093 40.9348 109.7764 0.0000 0.0000 0.0000
# 4 0.0000 0.0000 0.0000 30.7007 0.0000 0.0000
# 5 0.0000 0.0000 0.0000 0.0000 31.5761 0.0000
# 6 0.0000 0.0000 0.0000 0.0000 0.0000 17.2705
#
#
#
# Elastic Compliance Matrix: (Units=1/GPa)
#
#
# Indices 1 2 3 4 5 6 
#
# 1 0.014432 -0.004500 -0.005067 0.000000 0.000000 0.000000
# 2 -0.004500 0.015933 -0.003838 0.000000 0.000000 0.000000
# 3 -0.005067 -0.003838 0.012909 0.000000 0.000000 0.000000
# 4 0.000000 0.000000 0.000000 0.032573 0.000000 0.000000
# 5 0.000000 0.000000 0.000000 0.000000 0.031670 0.000000
# 6 0.000000 0.000000 0.000000 0.000000 0.000000 0.057902
#
#
# Mechanical properties :
#
#
# Convention : Reuss Voigt Hill
#
# Bulk Modulus (GPa) = 60.74259 62.16745 61.45502
# Shear Modulus (GPa) = 25.28870 26.64224 25.96547
#
# Velocity S-wave (km/s) = 3.80455 3.90504 3.85512
# Velocity P-wave (km/s) = 7.35302 7.47766 7.41560
#
# Compressibility (1/GPa) = 0.01646291
#
# Stress axis : x y z
#
# Youngs Moduli (GPa) = 69.28977 62.76372 77.46526
#
# Poissons Ratio (x) = 0.28246 0.39255
# Poissons Ratio (y) = 0.31182 0.29729
# Poissons Ratio (z) = 0.35112 0.24087
#
# Static dielectric constant tensor:
#      x y z
#    x 1.598770 0.000000 0.000000 
#    y 0.000000 1.572890 0.000000 
#    z 0.000000 0.000000 1.579510 
# 
# From -- ./inp_files/5142.got.cif
#   From: 2010.05.17/outbox.cif.g08.bks.cpg/sg57_3_cif.got.tgz:5142.got - 2010.06.03 13:58:18.
