data_PCOD9437930
_publ_section_title
;
Structure prediction by ZEFSAII (Michael W. Deem and Ramdas Pophale) SiO2 
 PCOD9437930
Probable space group: P B C M
;
_chemical_formula_sum "Si O2"
_cell_formula_units_Z 40
_cell_length_a 23.889618
_cell_length_b 9.380690
_cell_length_c 9.806681
_cell_angle_alpha 90.000000
_cell_angle_beta 90.000000
_cell_angle_gamma 90.000000
_cell_volume 2197.688006
_symmetry_space_group_name_H-M "P B C M"
_symmetry_group_IT_number 57
_symmetry_cell_setting 'orthorhombic'
loop_
_space_group_symop_operation_xyz
x,y,z
-x,-y,1/2+z
x,1/2-y,-z
-x,1/2+y,1/2-z
-x,-y,-z
x,y,1/2-z
-x,1/2+y,z
x,1/2-y,1/2+z
loop_
_atom_site_type_symbol
_atom_site_label
_atom_site_fract_x
_atom_site_fract_y
_atom_site_fract_z
Si Si1 0.857419 0.886663 0.590743
Si Si2 0.541557 0.144370 0.750000
Si Si3 0.428512 0.523139 0.250000
Si Si4 0.042401 0.898084 0.415977
Si Si5 0.728766 0.880857 0.905582
Si Si6 0.369911 0.584587 0.522072
O O1 0.873762 0.750000 0.500000
O O2 0.860906 0.845035 0.750000
O O3 0.792651 0.923341 0.558885
O O4 0.898247 0.020134 0.572646
O O5 0.545646 0.316065 0.750000
O O6 0.576559 0.086727 0.621456
O O7 0.478801 0.088326 0.750000
O O8 0.390053 0.513890 0.382471
O O9 0.043003 0.750000 0.500000
O O10 0.030223 0.883004 0.250000
O O11 0.000000 0.000000 0.500000
O O12 0.729542 0.831585 0.750000
O O13 0.712279 0.750000 0.000000
O O14 0.683612 0.004533 0.920289
O O15 0.355513 0.750000 0.500000
#
# Coordination Sequence:
#
# PCOD9437930 Si02
#       6
#     8   4   4   8   8   8
#     4   9  20  38  59  84 115 152 191 239 288 339
#     4  10  20  38  54  80 106 146 177 232 279 336
#     4  10  22  34  56  80 110 138 187 222 283 340
#     4  11  23  39  61  89 123 160 202 245 295 348
#     4  10  21  38  59  84 114 147 190 236 284 337
#     4  10  21  37  57  79 111 147 183 229 283 337
#
# _framework density 18.200945999999998
#
# number of rings (size 3 to 8) (size 9 to 14) (size 15 to 20)
#    0.000    2.000    1.000    1.800    1.400    5.600 
#    0.000    0.000    0.000    0.000    0.000    0.000 
#    0.000    0.000    0.000    0.000    0.000    0.000 
#
# Total GULP energy -223127.226844 kJ/mol
# GULP energy per Si atom -5578.180671 kJ/mol
# Density = 1.815952 g / cm^3
# Si number density = 18.200946 Si / 1000 Ang^3
#
#
#
# Elastic Constant Matrix: (Units=GPa)
#
#
# Indices 1 2 3 4 5 6 
#
# 1 55.6761 45.1073 22.6486 0.0000 0.0000 0.0000
# 2 45.1073 81.2024 42.7176 0.0000 0.0000 0.0000
# 3 22.6486 42.7176 96.9231 0.0000 0.0000 0.0000
# 4 0.0000 0.0000 0.0000 54.2465 0.0000 0.0000
# 5 0.0000 0.0000 0.0000 0.0000 39.2295 0.0000
# 6 0.0000 0.0000 0.0000 0.0000 0.0000 28.7604
#
#
#
# Elastic Compliance Matrix: (Units=1/GPa)
#
#
# Indices 1 2 3 4 5 6 
#
# 1 0.032676 -0.018401 0.000474 0.000000 0.000000 0.000000
# 2 -0.018401 0.026394 -0.007333 0.000000 0.000000 0.000000
# 3 0.000474 -0.007333 0.013439 0.000000 0.000000 0.000000
# 4 0.000000 0.000000 0.000000 0.018434 0.000000 0.000000
# 5 0.000000 0.000000 0.000000 0.000000 0.025491 0.000000
# 6 0.000000 0.000000 0.000000 0.000000 0.000000 0.034770
#
#
# Mechanical properties :
#
#
# Convention : Reuss Voigt Hill
#
# Bulk Modulus (GPa) = 45.47606 50.52763 48.00185
# Shear Modulus (GPa) = 23.91743 32.66914 28.29328
#
# Velocity S-wave (km/s) = 3.62895 4.24124 3.94699
# Velocity P-wave (km/s) = 6.52678 7.19760 6.87038
#
# Compressibility (1/GPa) = 0.02198959
#
# Stress axis : x y z
#
# Youngs Moduli (GPa) = 30.60363 37.88743 74.41273
#
# Poissons Ratio (x) = 0.69716 -0.03529
# Poissons Ratio (y) = 0.56313 0.54567
# Poissons Ratio (z) = -0.01452 0.27783
#
# Static dielectric constant tensor:
#      x y z
#    x 1.609690 0.000000 0.000000 
#    y 0.000000 1.637610 0.000000 
#    z 0.000000 0.000000 1.656460 
# 
# From -- ./inp_files/8932.got.cif
#   From: 2010.05.17/outbox.cif.g08.bks.cpg/sg57_5_cif.got.tgz:8932.got - 2010.06.03 13:58:18.
