data_PCOD9437656
_publ_section_title
;
Structure prediction by ZEFSAII (Michael W. Deem and Ramdas Pophale) SiO2 
 PCOD9437656
Probable space group: P B C M
;
_chemical_formula_sum "Si O2"
_cell_formula_units_Z 56
_cell_length_a 14.830642
_cell_length_b 11.413365
_cell_length_c 17.388156
_cell_angle_alpha 90.000000
_cell_angle_beta 90.000000
_cell_angle_gamma 90.000000
_cell_volume 2943.250223
_symmetry_space_group_name_H-M "P B C M"
_symmetry_group_IT_number 57
_symmetry_cell_setting 'orthorhombic'
loop_
_space_group_symop_operation_xyz
x,y,z
-x,-y,1/2+z
x,1/2-y,-z
-x,1/2+y,1/2-z
-x,-y,-z
x,y,1/2-z
-x,1/2+y,z
x,1/2-y,1/2+z
loop_
_atom_site_type_symbol
_atom_site_label
_atom_site_fract_x
_atom_site_fract_y
_atom_site_fract_z
Si Si1 0.684744 0.791152 0.337598
Si Si2 0.432502 0.139164 0.052496
Si Si3 0.096836 0.492959 0.542557
Si Si4 0.387784 0.977800 0.911498
Si Si5 0.119233 0.287453 0.662148
Si Si6 0.791042 0.145391 0.062456
Si Si7 0.916246 0.298323 0.162353
O O1 0.665705 0.758846 0.250000
O O2 0.643898 0.693368 0.393671
O O3 0.637923 0.914397 0.356735
O O4 0.792921 0.793599 0.347025
O O5 0.516142 0.084652 0.098753
O O6 0.464395 0.250000 0.000000
O O7 0.394725 0.039084 0.995830
O O8 0.115494 0.375610 0.590073
O O9 0.170010 0.530069 0.479309
O O10 0.100856 0.592569 0.607624
O O11 0.000000 0.500000 0.500000
O O12 0.307626 0.884627 0.907681
O O13 0.126281 0.339885 0.750000
O O14 0.023144 0.224191 0.660594
O O15 0.861339 0.189351 0.126633
O O16 0.786382 0.250000 0.000000
O O17 0.888509 0.318657 0.250000
#
# Coordination Sequence:
#
# PCOD9437656 Si02
#       7
#     8   8   8   8   8   8   8
#     4  10  22  37  56  86 113 144 189 231 279 338
#     4   9  19  38  59  84 115 148 183 232 294 345
#     4  11  21  35  55  81 108 147 193 233 271 327
#     4  10  20  36  61  86 111 149 188 234 285 339
#     4  10  21  37  56  79 116 154 185 229 282 334
#     4  10  21  36  54  84 112 145 192 238 272 328
#     4  10  22  38  53  77 115 152 186 229 284 336
#
# _framework density 19.026585000000001
#
# number of rings (size 3 to 8) (size 9 to 14) (size 15 to 20)
#    0.000    2.000    1.429    1.714    2.000    1.143 
#    0.000    0.000    0.000    0.000    0.000    0.000 
#    0.000    0.000    0.000    0.000    0.000    0.000 
#
# Total GULP energy -312401.540256 kJ/mol
# GULP energy per Si atom -5578.598933 kJ/mol
# Density = 1.898328 g / cm^3
# Si number density = 19.026585 Si / 1000 Ang^3
#
#
#
# Elastic Constant Matrix: (Units=GPa)
#
#
# Indices 1 2 3 4 5 6 
#
# 1 91.3197 5.9463 8.9970 0.0000 0.0000 0.0000
# 2 5.9463 22.1935 6.5799 0.0000 0.0000 0.0000
# 3 8.9970 6.5799 63.4325 0.0000 0.0000 0.0000
# 4 0.0000 0.0000 0.0000 20.6475 0.0000 0.0000
# 5 0.0000 0.0000 0.0000 0.0000 19.8776 0.0000
# 6 0.0000 0.0000 0.0000 0.0000 0.0000 29.6753
#
#
#
# Elastic Compliance Matrix: (Units=1/GPa)
#
#
# Indices 1 2 3 4 5 6 
#
# 1 0.011252 -0.002622 -0.001324 0.000000 0.000000 0.000000
# 2 -0.002622 0.047099 -0.004514 0.000000 0.000000 0.000000
# 3 -0.001324 -0.004514 0.016421 0.000000 0.000000 0.000000
# 4 0.000000 0.000000 0.000000 0.048432 0.000000 0.000000
# 5 0.000000 0.000000 0.000000 0.000000 0.050308 0.000000
# 6 0.000000 0.000000 0.000000 0.000000 0.000000 0.033698
#
#
# Mechanical properties :
#
#
# Convention : Reuss Voigt Hill
#
# Bulk Modulus (GPa) = 17.28549 24.44356 20.86453
# Shear Modulus (GPa) = 20.54124 24.40159 22.47141
#
# Velocity S-wave (km/s) = 3.28930 3.58509 3.44037
# Velocity P-wave (km/s) = 4.85084 5.47833 5.17410
#
# Compressibility (1/GPa) = 0.05785198
#
# Stress axis : x y z
#
# Youngs Moduli (GPa) = 88.87536 21.23191 60.89854
#
# Poissons Ratio (x) = 0.05567 0.08062
# Poissons Ratio (y) = 0.23304 0.27487
# Poissons Ratio (z) = 0.11766 0.09583
#
# Static dielectric constant tensor:
#      x y z
#    x 1.650750 0.000000 0.000000 
#    y 0.000000 1.664130 0.000000 
#    z 0.000000 0.000000 1.668730 
# 
# From -- ./inp_files/18523.got.cif
#   From: 2010.05.17/outbox.cif.g08.bks.cpg/sg57_10_cif.got.tgz:18523.got - 2010.06.03 13:58:18.
