data_PCOD9437458
_publ_section_title
;
Structure prediction by ZEFSAII (Michael W. Deem and Ramdas Pophale) SiO2 
 PCOD9437458
Probable space group: P B C M
;
_chemical_formula_sum "Si O2"
_cell_formula_units_Z 48
_cell_length_a 14.104543
_cell_length_b 7.558120
_cell_length_c 19.044644
_cell_angle_alpha 90.000000
_cell_angle_beta 90.000000
_cell_angle_gamma 90.000000
_cell_volume 2030.231964
_symmetry_space_group_name_H-M "P B C M"
_symmetry_group_IT_number 57
_symmetry_cell_setting 'orthorhombic'
loop_
_space_group_symop_operation_xyz
x,y,z
-x,-y,1/2+z
x,1/2-y,-z
-x,1/2+y,1/2-z
-x,-y,-z
x,y,1/2-z
-x,1/2+y,z
x,1/2-y,1/2+z
loop_
_atom_site_type_symbol
_atom_site_label
_atom_site_fract_x
_atom_site_fract_y
_atom_site_fract_z
Si Si1 0.440969 0.808905 0.381747
Si Si2 0.645690 0.581622 0.886136
Si Si3 0.702710 0.050195 0.523561
Si Si4 0.008511 0.750000 0.000000
Si Si5 0.767728 0.528256 0.750000
Si Si6 0.868466 0.626443 0.250000
Si Si7 0.889016 0.004227 0.596914
Si Si8 0.689960 0.374727 0.250000
O O1 0.400980 0.612671 0.389321
O O2 0.553503 0.799114 0.377332
O O3 0.402659 0.925834 0.446044
O O4 0.383110 0.877283 0.314626
O O5 0.713214 0.587932 0.819901
O O6 0.702891 0.582915 0.958494
O O7 0.730622 0.250000 0.500000
O O8 0.776544 0.998195 0.583765
O O9 0.937930 0.614929 0.037694
O O10 0.072265 0.809379 0.067035
O O11 0.859772 0.658293 0.750000
O O12 0.753755 0.311042 0.750000
O O13 0.911871 0.554481 0.323686
O O14 0.763955 0.534683 0.250000
#
# Coordination Sequence:
#
# PCOD9437458 Si02
#       8
#     8   8   8   4   4   4   8   4
#     4  10  20  36  56  91 128 187 239 287 344 394
#     4  10  22  36  59  89 137 182 236 295 335 397
#     4  10  20  38  65  92 134 180 234 288 348 417
#     4  10  26  48  78 102 140 174 224 288 370 454
#     4  10  25  41  58 103 133 183 245 282 343 415
#     4  12  26  44  76 108 139 180 234 286 355 432
#     4  11  24  48  74 109 137 180 225 289 367 443
#     4  10  21  41  62  89 140 193 223 298 352 391
#
# _framework density 23.642617000000001
#
# number of rings (size 3 to 8) (size 9 to 14) (size 15 to 20)
#    0.000    1.667    2.500    1.000    4.667    0.667 
#    3.000    0.000    0.000    0.000    0.000    0.000 
#    0.000    0.000    0.000    0.000    0.000    0.000 
#
# Total GULP energy -267854.422020 kJ/mol
# GULP energy per Si atom -5580.300459 kJ/mol
# Density = 2.358881 g / cm^3
# Si number density = 23.642617 Si / 1000 Ang^3
#
#
#
# Elastic Constant Matrix: (Units=GPa)
#
#
# Indices 1 2 3 4 5 6 
#
# 1 28.1993 6.1444 -4.0842 0.0000 0.0000 0.0000
# 2 6.1444 50.4701 19.5599 0.0000 0.0000 0.0000
# 3 -4.0842 19.5599 137.6875 0.0000 0.0000 0.0000
# 4 0.0000 0.0000 0.0000 23.0032 0.0000 0.0000
# 5 0.0000 0.0000 0.0000 0.0000 -12.2436 0.0000
# 6 0.0000 0.0000 0.0000 0.0000 0.0000 -7.9110
#
#
#
# Elastic Compliance Matrix: (Units=1/GPa)
#
#
# Indices 1 2 3 4 5 6 
#
# 1 0.036860 -0.005197 0.001832 0.000000 0.000000 0.000000
# 2 -0.005197 0.021701 -0.003237 0.000000 0.000000 0.000000
# 3 0.001832 -0.003237 0.007777 0.000000 0.000000 0.000000
# 4 0.000000 0.000000 0.000000 0.043472 0.000000 0.000000
# 5 0.000000 0.000000 0.000000 0.000000 -0.081675 0.000000
# 6 0.000000 0.000000 0.000000 0.000000 0.000000 -0.126406
#
#
# Mechanical properties :
#
#
# Convention : Reuss Voigt Hill
#
# Bulk Modulus (GPa) = 18.82093 28.84413 23.83253
# Shear Modulus (GPa) = -74.23310 13.55216 -30.34047
#
# Velocity S-wave (km/s) = -5.60947 2.39678 -3.58620
# Velocity P-wave (km/s) = 5.82898 4.45936 2.65434
#
# Compressibility (1/GPa) = 0.05313233
#
# Stress axis : x y z
#
# Youngs Moduli (GPa) = 27.13001 46.08091 128.58416
#
# Poissons Ratio (x) = 0.23949 -0.23552
# Poissons Ratio (y) = 0.14100 0.41623
# Poissons Ratio (z) = -0.04969 0.14916
#
# Static dielectric constant tensor:
#      x y z
#    x 1.863130 0.000000 0.000000 
#    y 0.000000 2.052960 0.000000 
#    z 0.000000 0.000000 1.930850 
# 
# From -- ./inp_files/22549.got.cif
#   From: 2010.05.17/outbox.cif.g08.bks.cpg/sg57_12_cif.got.tgz:22549.got - 2010.06.03 13:58:18.
