data_PCOD9437711
_publ_section_title
;
Structure prediction by ZEFSAII (Michael W. Deem and Ramdas Pophale) SiO2 
 PCOD9437711
Probable space group: P B C M
;
_chemical_formula_sum "Si O2"
_cell_formula_units_Z 40
_cell_length_a 12.009112
_cell_length_b 9.055457
_cell_length_c 18.132792
_cell_angle_alpha 90.000000
_cell_angle_beta 90.000000
_cell_angle_gamma 90.000000
_cell_volume 1971.904816
_symmetry_space_group_name_H-M "P B C M"
_symmetry_group_IT_number 57
_symmetry_cell_setting 'orthorhombic'
loop_
_space_group_symop_operation_xyz
x,y,z
-x,-y,1/2+z
x,1/2-y,-z
-x,1/2+y,1/2-z
-x,-y,-z
x,y,1/2-z
-x,1/2+y,z
x,1/2-y,1/2+z
loop_
_atom_site_type_symbol
_atom_site_label
_atom_site_fract_x
_atom_site_fract_y
_atom_site_fract_z
Si Si1 0.442903 0.877895 0.447194
Si Si2 0.726585 0.527271 0.333112
Si Si3 0.081823 0.872404 0.402890
Si Si4 0.316451 0.311302 0.083406
Si Si5 0.861876 0.460927 0.569053
O O1 0.394460 0.750000 0.500000
O O2 0.550961 0.814247 0.405472
O O3 0.500000 0.000000 0.500000
O O4 0.354924 0.945936 0.391340
O O5 0.684889 0.515299 0.250000
O O6 0.847182 0.453755 0.341202
O O7 0.733665 0.695679 0.359676
O O8 0.105350 0.698257 0.398911
O O9 0.128123 0.935564 0.481140
O O10 0.953100 0.918280 0.405891
O O11 0.257559 0.470052 0.087865
O O12 0.296893 0.250000 0.000000
#
# Coordination Sequence:
#
# PCOD9437711 Si02
#       5
#     8   8   8   8   8
#     4  11  22  41  68  95 125 170 222 265 307 385
#     4  12  26  42  63  97 137 168 207 273 337 380
#     4  10  21  36  62  98 128 162 218 267 315 378
#     4  11  21  40  65  94 128 169 219 260 315 383
#     4  10  20  36  67  95 121 168 222 267 304 374
#
# _framework density 20.284953999999999
#
# number of rings (size 3 to 8) (size 9 to 14) (size 15 to 20)
#    0.000    1.200    6.000    1.200    8.400    0.800 
#    0.000    5.000    0.000    0.000    0.000    0.000 
#    0.000    0.000    0.000    0.000    0.000    0.000 
#
# Total GULP energy -223511.055507 kJ/mol
# GULP energy per Si atom -5587.776388 kJ/mol
# Density = 2.023878 g / cm^3
# Si number density = 20.284954 Si / 1000 Ang^3
#
#
#
# Elastic Constant Matrix: (Units=GPa)
#
#
# Indices 1 2 3 4 5 6 
#
# 1 70.8740 23.6880 20.4046 0.0000 0.0000 0.0000
# 2 23.6880 104.4213 24.0305 0.0000 0.0000 0.0000
# 3 20.4046 24.0305 75.9666 0.0000 0.0000 0.0000
# 4 0.0000 0.0000 0.0000 13.6416 0.0000 0.0000
# 5 0.0000 0.0000 0.0000 0.0000 14.3762 0.0000
# 6 0.0000 0.0000 0.0000 0.0000 0.0000 40.6368
#
#
#
# Elastic Compliance Matrix: (Units=1/GPa)
#
#
# Indices 1 2 3 4 5 6 
#
# 1 0.016045 -0.002856 -0.003406 0.000000 0.000000 0.000000
# 2 -0.002856 0.010837 -0.002661 0.000000 0.000000 0.000000
# 3 -0.003406 -0.002661 0.014920 0.000000 0.000000 0.000000
# 4 0.000000 0.000000 0.000000 0.073305 0.000000 0.000000
# 5 0.000000 0.000000 0.000000 0.000000 0.069559 0.000000
# 6 0.000000 0.000000 0.000000 0.000000 0.000000 0.024608
#
#
# Mechanical properties :
#
#
# Convention : Reuss Voigt Hill
#
# Bulk Modulus (GPa) = 41.74349 43.05645 42.39997
# Shear Modulus (GPa) = 21.26703 25.94019 23.60361
#
# Velocity S-wave (km/s) = 3.24144 3.57990 3.41486
# Velocity P-wave (km/s) = 5.88493 6.19350 6.04119
#
# Compressibility (1/GPa) = 0.02395583
#
# Stress axis : x y z
#
# Youngs Moduli (GPa) = 62.32588 92.27817 67.02275
#
# Poissons Ratio (x) = 0.26353 0.22829
# Poissons Ratio (y) = 0.17799 0.17834
# Poissons Ratio (z) = 0.21229 0.24554
#
# Static dielectric constant tensor:
#      x y z
#    x 1.758380 0.000000 0.000000 
#    y 0.000000 1.752990 0.000000 
#    z 0.000000 0.000000 1.702280 
# 
# From -- ./inp_files/21629.got.cif
#   From: 2010.05.17/outbox.cif.g08.bks.cpg/sg57_11_cif.got.tgz:21629.got - 2010.06.03 13:58:18.
