data_PCOD9437661
_publ_section_title
;
Structure prediction by ZEFSAII (Michael W. Deem and Ramdas Pophale) SiO2 
 PCOD9437661
Probable space group: P B C M
;
_chemical_formula_sum "Si O2"
_cell_formula_units_Z 64
_cell_length_a 9.123465
_cell_length_b 24.561376
_cell_length_c 15.387965
_cell_angle_alpha 90.000000
_cell_angle_beta 90.000000
_cell_angle_gamma 90.000000
_cell_volume 3448.209895
_symmetry_space_group_name_H-M "P B C M"
_symmetry_group_IT_number 57
_symmetry_cell_setting 'orthorhombic'
loop_
_space_group_symop_operation_xyz
x,y,z
-x,-y,1/2+z
x,1/2-y,-z
-x,1/2+y,1/2-z
-x,-y,-z
x,y,1/2-z
-x,1/2+y,z
x,1/2-y,1/2+z
loop_
_atom_site_type_symbol
_atom_site_label
_atom_site_fract_x
_atom_site_fract_y
_atom_site_fract_z
Si Si1 0.883747 0.257556 0.344507
Si Si2 0.840860 0.701135 0.936157
Si Si3 0.865431 0.048045 0.349278
Si Si4 0.379263 0.381717 0.352896
Si Si5 0.828656 0.009588 0.653108
Si Si6 0.275206 0.869816 0.383906
Si Si7 0.334588 0.484207 0.022571
Si Si8 0.101462 0.847111 0.547905
O O1 0.865600 0.233092 0.250000
O O2 0.791159 0.313068 0.349520
O O3 0.851318 0.211176 0.414349
O O4 0.050984 0.274167 0.363696
O O5 0.711332 0.669269 0.889848
O O6 0.792630 0.750000 0.000000
O O7 0.952347 0.662873 0.992549
O O8 0.813353 0.049175 0.250000
O O9 0.920865 0.107328 0.379394
O O10 0.743704 0.028387 0.416443
O O11 0.001105 0.006031 0.355055
O O12 0.347965 0.391588 0.250000
O O13 0.553592 0.373471 0.363677
O O14 0.334876 0.430786 0.417166
O O15 0.779758 0.991025 0.750000
O O16 0.800058 0.074482 0.649074
O O17 0.748434 0.982787 0.570252
O O18 0.229726 0.866922 0.484432
O O19 0.500000 0.500000 0.000000
#
# Coordination Sequence:
#
# PCOD9437661 Si02
#       8
#     8   8   8   8   8   8   8   8
#     4  10  20  36  61  88 115 152 198 249 303 363
#     4   9  21  37  59  87 120 156 196 246 302 358
#     4  11  23  38  61  90 117 157 204 247 303 370
#     4  12  24  39  60  89 123 161 204 251 302 364
#     4  11  23  39  61  87 120 159 203 254 304 361
#     4  11  22  38  57  85 120 155 201 250 304 355
#     4  12  24  40  58  86 124 161 199 251 305 363
#     4  10  20  40  60  85 118 156 196 251 306 361
#
# _framework density 18.560355000000001
#
# number of rings (size 3 to 8) (size 9 to 14) (size 15 to 20)
#    0.000    1.250    2.500    4.500    3.500    1.500 
#    0.000    0.000    0.000    0.750    0.000    0.000 
#    0.000    0.000    0.000    0.000    0.000    0.000 
#
# Total GULP energy -357033.892504 kJ/mol
# GULP energy per Si atom -5578.654570 kJ/mol
# Density = 1.851811 g / cm^3
# Si number density = 18.560355 Si / 1000 Ang^3
#
#
#
# Elastic Constant Matrix: (Units=GPa)
#
#
# Indices 1 2 3 4 5 6 
#
# 1 56.7416 38.6970 53.1681 0.0000 0.0000 0.0000
# 2 38.6970 87.3563 47.9737 0.0000 0.0000 0.0000
# 3 53.1681 47.9737 157.7822 0.0000 0.0000 0.0000
# 4 0.0000 0.0000 0.0000 -177.6091 0.0000 0.0000
# 5 0.0000 0.0000 0.0000 0.0000 12.3208 0.0000
# 6 0.0000 0.0000 0.0000 0.0000 0.0000 21.6309
#
#
#
# Elastic Compliance Matrix: (Units=1/GPa)
#
#
# Indices 1 2 3 4 5 6 
#
# 1 0.031398 -0.009722 -0.007624 0.000000 0.000000 0.000000
# 2 -0.009722 0.016752 -0.001818 0.000000 0.000000 0.000000
# 3 -0.007624 -0.001818 0.009460 0.000000 0.000000 0.000000
# 4 0.000000 0.000000 0.000000 -0.005630 0.000000 0.000000
# 5 0.000000 0.000000 0.000000 0.000000 0.081164 0.000000
# 6 0.000000 0.000000 0.000000 0.000000 0.000000 0.046230
#
#
# Mechanical properties :
#
#
# Convention : Reuss Voigt Hill
#
# Bulk Modulus (GPa) = 51.86016 64.61753 58.23885
# Shear Modulus (GPa) = 22.30873 -17.92873 2.19000
#
# Velocity S-wave (km/s) = 3.47068 -3.11138 1.08743
# Velocity P-wave (km/s) = 6.63799 4.68859 5.74655
#
# Compressibility (1/GPa) = 0.01928262
#
# Stress axis : x y z
#
# Youngs Moduli (GPa) = 31.84930 59.69455 105.71198
#
# Poissons Ratio (x) = 0.58032 0.80599
# Poissons Ratio (y) = 0.30962 0.19214
# Poissons Ratio (z) = 0.24283 0.10850
#
# Static dielectric constant tensor:
#      x y z
#    x 1.611460 0.000000 0.000000 
#    y 0.000000 1.663000 0.000000 
#    z 0.000000 0.000000 1.675870 
# 
# From -- ./inp_files/16940.got.cif
#   From: 2010.05.17/outbox.cif.g08.bks.cpg/sg57_9_cif.got.tgz:16940.got - 2010.06.03 13:58:18.
