data_PCOD9437807
_publ_section_title
;
Structure prediction by ZEFSAII (Michael W. Deem and Ramdas Pophale) SiO2 
 PCOD9437807
Probable space group: P B C M
;
_chemical_formula_sum "Si O2"
_cell_formula_units_Z 52
_cell_length_a 6.525735
_cell_length_b 14.725196
_cell_length_c 27.890448
_cell_angle_alpha 90.000000
_cell_angle_beta 90.000000
_cell_angle_gamma 90.000000
_cell_volume 2680.069203
_symmetry_space_group_name_H-M "P B C M"
_symmetry_group_IT_number 57
_symmetry_cell_setting 'orthorhombic'
loop_
_space_group_symop_operation_xyz
x,y,z
-x,-y,1/2+z
x,1/2-y,-z
-x,1/2+y,1/2-z
-x,-y,-z
x,y,1/2-z
-x,1/2+y,z
x,1/2-y,1/2+z
loop_
_atom_site_type_symbol
_atom_site_label
_atom_site_fract_x
_atom_site_fract_y
_atom_site_fract_z
Si Si1 0.610991 0.750000 0.000000
Si Si2 0.919487 0.805363 0.580781
Si Si3 0.454745 0.078060 0.196333
Si Si4 0.392402 0.272988 0.342040
Si Si5 0.302433 0.673362 0.573686
Si Si6 0.177945 0.444682 0.302962
Si Si7 0.861924 0.500747 0.381200
O O1 0.758529 0.698398 0.037070
O O2 0.462558 0.815087 0.030520
O O3 0.800403 0.758588 0.625280
O O4 0.119310 0.746289 0.568787
O O5 0.959493 0.909560 0.595027
O O6 0.371524 0.059599 0.250000
O O7 0.460337 0.185472 0.187730
O O8 0.677450 0.032859 0.194234
O O9 0.319685 0.035524 0.153724
O O10 0.571840 0.302827 0.378049
O O11 0.321437 0.357437 0.310531
O O12 0.216164 0.572281 0.580407
O O13 0.082862 0.440608 0.250000
O O14 0.019075 0.450704 0.345960
#
# Coordination Sequence:
#
# PCOD9437807 Si02
#       7
#     4   8   8   8   8   8   8
#     4  10  24  42  64  92 120 154 200 256 306 370
#     4  10  22  41  63  89 123 153 200 252 302 371
#     4  10  21  37  56  85 123 160 207 249 289 348
#     4  10  20  37  60  86 119 167 200 244 303 349
#     4  11  21  41  64  87 124 157 204 248 307 371
#     4  11  21  36  58  90 126 159 206 248 289 353
#     4  11  22  38  64  88 120 165 197 245 309 356
#
# _framework density 19.402483
#
# number of rings (size 3 to 8) (size 9 to 14) (size 15 to 20)
#    0.000    1.538    3.077    2.308    0.000    0.615 
#    0.000    3.077    0.000    0.000    0.000    0.000 
#    0.000    0.000    0.000    0.000    0.000    0.000 
#
# Total GULP energy -290407.030647 kJ/mol
# GULP energy per Si atom -5584.750589 kJ/mol
# Density = 1.935832 g / cm^3
# Si number density = 19.402483 Si / 1000 Ang^3
#
#
#
# Elastic Constant Matrix: (Units=GPa)
#
#
# Indices 1 2 3 4 5 6 
#
# 1 39.8518 13.4214 3.2430 0.0000 0.0000 0.0000
# 2 13.4214 89.3534 15.1523 0.0000 0.0000 0.0000
# 3 3.2430 15.1523 69.7954 0.0000 0.0000 0.0000
# 4 0.0000 0.0000 0.0000 11.7110 0.0000 0.0000
# 5 0.0000 0.0000 0.0000 0.0000 12.6084 0.0000
# 6 0.0000 0.0000 0.0000 0.0000 0.0000 22.8515
#
#
#
# Elastic Compliance Matrix: (Units=1/GPa)
#
#
# Indices 1 2 3 4 5 6 
#
# 1 0.026440 -0.003907 -0.000380 0.000000 0.000000 0.000000
# 2 -0.003907 0.012197 -0.002466 0.000000 0.000000 0.000000
# 3 -0.000380 -0.002466 0.014881 0.000000 0.000000 0.000000
# 4 0.000000 0.000000 0.000000 0.085390 0.000000 0.000000
# 5 0.000000 0.000000 0.000000 0.000000 0.079312 0.000000
# 6 0.000000 0.000000 0.000000 0.000000 0.000000 0.043761
#
#
# Mechanical properties :
#
#
# Convention : Reuss Voigt Hill
#
# Bulk Modulus (GPa) = 24.99379 29.18154 27.08767
# Shear Modulus (GPa) = 17.31163 20.57978 18.94571
#
# Velocity S-wave (km/s) = 2.99028 3.26034 3.12822
# Velocity P-wave (km/s) = 4.98318 5.40794 5.19990
#
# Compressibility (1/GPa) = 0.04000994
#
# Stress axis : x y z
#
# Youngs Moduli (GPa) = 37.82188 81.99018 67.20116
#
# Poissons Ratio (x) = 0.32033 0.02556
# Poissons Ratio (y) = 0.14777 0.16574
# Poissons Ratio (z) = 0.01438 0.20221
#
# Static dielectric constant tensor:
#      x y z
#    x 1.669550 0.000000 0.000000 
#    y 0.000000 1.652090 0.000000 
#    z 0.000000 0.000000 1.682830 
# 
# From -- ./inp_files/29168.got.cif
#   From: 2010.05.17/outbox.cif.g08.bks.cpg/sg57_15_cif.got.tgz:29168.got - 2010.06.03 13:58:18.
