data_PCOD9437967
_publ_section_title
;
Structure prediction by ZEFSAII (Michael W. Deem and Ramdas Pophale) SiO2 
 PCOD9437967
Probable space group: P B C M
;
_chemical_formula_sum "Si O2"
_cell_formula_units_Z 64
_cell_length_a 24.241135
_cell_length_b 15.386940
_cell_length_c 8.758110
_cell_angle_alpha 90.000000
_cell_angle_beta 90.000000
_cell_angle_gamma 90.000000
_cell_volume 3266.747790
_symmetry_space_group_name_H-M "P B C M"
_symmetry_group_IT_number 57
_symmetry_cell_setting 'orthorhombic'
loop_
_space_group_symop_operation_xyz
x,y,z
-x,-y,1/2+z
x,1/2-y,-z
-x,1/2+y,1/2-z
-x,-y,-z
x,y,1/2-z
-x,1/2+y,z
x,1/2-y,1/2+z
loop_
_atom_site_type_symbol
_atom_site_label
_atom_site_fract_x
_atom_site_fract_y
_atom_site_fract_z
Si Si1 0.499859 0.340013 0.931686
Si Si2 0.081396 0.495959 0.932929
Si Si3 0.600399 0.920107 0.074109
Si Si4 0.376323 0.622201 0.072923
Si Si5 0.202591 0.492589 0.066875
Si Si6 0.739004 0.339876 0.069712
Si Si7 0.008944 0.849421 0.566132
Si Si8 0.712718 0.841301 0.434246
O O1 0.501484 0.337902 0.750000
O O2 0.562955 0.351723 0.984181
O O3 0.478361 0.250000 0.000000
O O4 0.456458 0.411715 0.984653
O O5 0.079760 0.504987 0.750000
O O6 0.044620 0.410180 0.972445
O O7 0.143000 0.482337 0.992116
O O8 0.056925 0.585484 0.004633
O O9 0.589013 0.895566 0.250000
O O10 0.650585 0.862688 0.011101
O O11 0.622720 0.017900 0.074446
O O12 0.368794 0.651363 0.250000
O O13 0.325838 0.653112 0.971645
O O14 0.197598 0.492499 0.250000
O O15 0.244613 0.416081 0.021497
O O16 0.230131 0.581359 0.011286
O O17 0.746861 0.343145 0.250000
O O18 0.759854 0.250000 0.000000
O O19 0.008555 0.750000 0.500000
O O20 0.012681 0.842730 0.750000
O O21 0.730893 0.750000 0.500000
O O22 0.710371 0.839588 0.250000
#
# Coordination Sequence:
#
# PCOD9437967 Si02
#       8
#     8   8   8   8   8   8   8   8
#     4  11  23  36  54  81 112 148 191 244 301 368
#     4  10  22  40  63  95 131 167 213 261 307 360
#     4  10  20  38  60  82 113 150 192 246 306 367
#     4  10  21  40  61  83 115 150 192 246 307 370
#     4  11  23  43  65  89 126 167 209 257 310 360
#     4  12  25  41  64  91 120 158 204 254 308 371
#     4  10  21  39  65  96 133 174 213 257 306 360
#     4  10  22  39  61  86 118 159 201 251 306 365
#
# _framework density 19.591352000000001
#
# number of rings (size 3 to 8) (size 9 to 14) (size 15 to 20)
#    0.000    1.500    1.250    3.750    0.000    7.500 
#    0.000    5.000    0.000    0.000    0.000    0.000 
#    0.000    0.000    0.000    0.000    0.000    0.000 
#
# Total GULP energy -357512.216317 kJ/mol
# GULP energy per Si atom -5586.128380 kJ/mol
# Density = 1.954676 g / cm^3
# Si number density = 19.591352 Si / 1000 Ang^3
#
#
#
# Elastic Constant Matrix: (Units=GPa)
#
#
# Indices 1 2 3 4 5 6 
#
# 1 95.0035 27.8588 20.5400 0.0000 0.0000 0.0000
# 2 27.8588 119.7029 22.4535 0.0000 0.0000 0.0000
# 3 20.5400 22.4535 37.5928 0.0000 0.0000 0.0000
# 4 0.0000 0.0000 0.0000 27.8151 0.0000 0.0000
# 5 0.0000 0.0000 0.0000 0.0000 30.3971 0.0000
# 6 0.0000 0.0000 0.0000 0.0000 0.0000 -449.7712
#
#
#
# Elastic Compliance Matrix: (Units=1/GPa)
#
#
# Indices 1 2 3 4 5 6 
#
# 1 0.012271 -0.001800 -0.005630 0.000000 0.000000 0.000000
# 2 -0.001800 0.009672 -0.004794 0.000000 0.000000 0.000000
# 3 -0.005630 -0.004794 0.032540 0.000000 0.000000 0.000000
# 4 0.000000 0.000000 0.000000 0.035952 0.000000 0.000000
# 5 0.000000 0.000000 0.000000 0.000000 0.032898 0.000000
# 6 0.000000 0.000000 0.000000 0.000000 0.000000 -0.002223
#
#
# Mechanical properties :
#
#
# Convention : Reuss Voigt Hill
#
# Bulk Modulus (GPa) = 33.29246 43.77821 38.53534
# Shear Modulus (GPa) = 32.14051 -66.21533 -17.03741
#
# Velocity S-wave (km/s) = 4.05476 -5.81993 -2.95216
# Velocity P-wave (km/s) = 6.24114 4.77158 2.84463
#
# Compressibility (1/GPa) = 0.03003683
#
# Stress axis : x y z
#
# Youngs Moduli (GPa) = 81.49408 103.39067 30.73163
#
# Poissons Ratio (x) = 0.18609 0.17300
# Poissons Ratio (y) = 0.14668 0.14731
# Poissons Ratio (z) = 0.45877 0.49561
#
# Static dielectric constant tensor:
#      x y z
#    x 1.682240 0.000000 0.000000 
#    y 0.000000 1.704670 0.000000 
#    z 0.000000 0.000000 1.666700 
# 
# From -- ./inp_files/9369.got.cif
#   From: 2010.05.17/outbox.cif.g08.bks.cpg/sg57_5_cif.got.tgz:9369.got - 2010.06.03 13:58:18.
