data_PCOD9437382
_publ_section_title
;
Structure prediction by ZEFSAII (Michael W. Deem and Ramdas Pophale) SiO2 
 PCOD9437382
Probable space group: P B C M
;
_chemical_formula_sum "Si O2"
_cell_formula_units_Z 56
_cell_length_a 14.172747
_cell_length_b 25.053147
_cell_length_c 8.470583
_cell_angle_alpha 90.000000
_cell_angle_beta 90.000000
_cell_angle_gamma 90.000000
_cell_volume 3007.666118
_symmetry_space_group_name_H-M "P B C M"
_symmetry_group_IT_number 57
_symmetry_cell_setting 'orthorhombic'
loop_
_space_group_symop_operation_xyz
x,y,z
-x,-y,1/2+z
x,1/2-y,-z
-x,1/2+y,1/2-z
-x,-y,-z
x,y,1/2-z
-x,1/2+y,z
x,1/2-y,1/2+z
loop_
_atom_site_type_symbol
_atom_site_label
_atom_site_fract_x
_atom_site_fract_y
_atom_site_fract_z
Si Si1 0.223383 0.025027 0.941884
Si Si2 0.664487 0.625911 0.941636
Si Si3 0.844731 0.690103 0.438546
Si Si4 0.168792 0.588361 0.061837
Si Si5 0.271283 0.692072 0.938339
Si Si6 0.039903 0.407556 0.061038
Si Si7 0.512708 0.308382 0.440567
O O1 0.224741 0.024212 0.750000
O O2 0.304525 0.066414 0.992476
O O3 0.123428 0.051890 0.987745
O O4 0.225441 0.964061 0.996481
O O5 0.668650 0.627444 0.750000
O O6 0.562383 0.647156 0.991930
O O7 0.744734 0.665750 0.005178
O O8 0.855044 0.750000 0.500000
O O9 0.849768 0.688844 0.250000
O O10 0.923342 0.650749 0.510381
O O11 0.177070 0.591120 0.250000
O O12 0.207450 0.643193 0.992071
O O13 0.059794 0.580374 0.016761
O O14 0.272304 0.694101 0.750000
O O15 0.379601 0.683187 0.995019
O O16 0.240029 0.750000 0.000000
O O17 0.030982 0.409866 0.250000
O O18 0.482139 0.250000 0.500000
O O19 0.486861 0.807571 0.250000
#
# Coordination Sequence:
#
# PCOD9437382 Si02
#       7
#     8   8   8   8   8   8   8
#     4   8  17  33  54  78 107 138 171 207 252 306
#     4   9  17  33  54  78 106 139 173 211 256 306
#     4  11  21  33  49  75 108 140 172 212 258 311
#     4  11  21  35  55  79 104 137 174 213 258 307
#     4  10  21  38  56  78 104 135 174 219 262 307
#     4  10  20  36  55  76 102 137 176 217 258 305
#     4   9  18  32  54  78 104 136 174 215 259 306
#
# _framework density 18.619088999999999
#
# number of rings (size 3 to 8) (size 9 to 14) (size 15 to 20)
#    0.000    2.286    0.000    4.286    0.000    2.857 
#    0.000   10.000    0.000    0.000    0.000    0.000 
#    0.000    0.000    0.000    0.000    0.000    0.000 
#
# Total GULP energy -312509.545468 kJ/mol
# GULP energy per Si atom -5580.527598 kJ/mol
# Density = 1.857671 g / cm^3
# Si number density = 18.619089 Si / 1000 Ang^3
#
#
#
# Elastic Constant Matrix: (Units=GPa)
#
#
# Indices 1 2 3 4 5 6 
#
# 1 37.9940 26.8625 7.7945 0.0000 0.0000 0.0000
# 2 26.8625 127.4604 19.9105 0.0000 0.0000 0.0000
# 3 7.7945 19.9105 30.7965 0.0000 0.0000 0.0000
# 4 0.0000 0.0000 0.0000 18.1878 0.0000 0.0000
# 5 0.0000 0.0000 0.0000 0.0000 15.6410 0.0000
# 6 0.0000 0.0000 0.0000 0.0000 0.0000 14.6403
#
#
#
# Elastic Compliance Matrix: (Units=1/GPa)
#
#
# Indices 1 2 3 4 5 6 
#
# 1 0.031382 -0.005977 -0.004079 0.000000 0.000000 0.000000
# 2 -0.005977 0.009865 -0.004865 0.000000 0.000000 0.000000
# 3 -0.004079 -0.004865 0.036649 0.000000 0.000000 0.000000
# 4 0.000000 0.000000 0.000000 0.054982 0.000000 0.000000
# 5 0.000000 0.000000 0.000000 0.000000 0.063934 0.000000
# 6 0.000000 0.000000 0.000000 0.000000 0.000000 0.068305
#
#
# Mechanical properties :
#
#
# Convention : Reuss Voigt Hill
#
# Bulk Modulus (GPa) = 20.80949 33.93176 27.37062
# Shear Modulus (GPa) = 16.07833 19.13939 17.60886
#
# Velocity S-wave (km/s) = 2.94179 3.20964 3.07863
# Velocity P-wave (km/s) = 4.76860 5.65680 5.23159
#
# Compressibility (1/GPa) = 0.04805500
#
# Stress axis : x y z
#
# Youngs Moduli (GPa) = 31.86505 101.36658 27.28587
#
# Poissons Ratio (x) = 0.60584 0.11129
# Poissons Ratio (y) = 0.19045 0.13275
# Poissons Ratio (z) = 0.12997 0.49318
#
# Static dielectric constant tensor:
#      x y z
#    x 1.639610 0.000000 0.000000 
#    y 0.000000 1.653050 0.000000 
#    z 0.000000 0.000000 1.628110 
# 
# From -- ./inp_files/5273.got.cif
#   From: 2010.05.17/outbox.cif.g08.bks.cpg/sg57_3_cif.got.tgz:5273.got - 2010.06.03 13:58:18.
