data_PCOD9437549
_publ_section_title
;
Structure prediction by ZEFSAII (Michael W. Deem and Ramdas Pophale) SiO2 
 PCOD9437549
Probable space group: P B C M
;
_chemical_formula_sum "Si O2"
_cell_formula_units_Z 56
_cell_length_a 21.785104
_cell_length_b 15.861652
_cell_length_c 8.605850
_cell_angle_alpha 90.000000
_cell_angle_beta 90.000000
_cell_angle_gamma 90.000000
_cell_volume 2973.732005
_symmetry_space_group_name_H-M "P B C M"
_symmetry_group_IT_number 57
_symmetry_cell_setting 'orthorhombic'
loop_
_space_group_symop_operation_xyz
x,y,z
-x,-y,1/2+z
x,1/2-y,-z
-x,1/2+y,1/2-z
-x,-y,-z
x,y,1/2-z
-x,1/2+y,z
x,1/2-y,1/2+z
loop_
_atom_site_type_symbol
_atom_site_label
_atom_site_fract_x
_atom_site_fract_y
_atom_site_fract_z
Si Si1 0.434617 0.158485 0.063129
Si Si2 0.872253 0.660270 0.563582
Si Si3 0.866090 0.340579 0.562720
Si Si4 0.211589 0.497450 0.437673
Si Si5 0.999872 0.095252 0.436906
Si Si6 0.571779 0.341463 0.063199
Si Si7 0.348851 0.002799 0.437516
O O1 0.437207 0.161456 0.250000
O O2 0.389098 0.083794 0.014557
O O3 0.415112 0.250000 0.000000
O O4 0.503119 0.142434 0.999536
O O5 0.850624 0.750000 0.500000
O O6 0.874012 0.661983 0.750000
O O7 0.828379 0.583530 0.513333
O O8 0.940499 0.642010 0.501373
O O9 0.846875 0.250000 0.500000
O O10 0.864979 0.338918 0.750000
O O11 0.822812 0.417298 0.510339
O O12 0.936112 0.361040 0.514589
O O13 0.212201 0.497868 0.250000
O O14 0.280487 0.493409 0.498026
O O15 0.001950 0.093599 0.250000
O O16 0.000000 0.000000 0.500000
O O17 0.569484 0.338372 0.250000
O O18 0.616435 0.417081 0.014325
O O19 0.591309 0.250000 0.000000
O O20 0.346463 0.002974 0.250000
#
# Coordination Sequence:
#
# PCOD9437549 Si02
#       7
#     8   8   8   8   8   8   8
#     4  10  20  36  58  86 117 147 185 233 281 336
#     4  11  23  41  61  87 118 151 196 243 293 353
#     4  10  22  40  59  85 115 148 190 236 286 343
#     4  10  23  42  59  79 115 155 193 239 285 341
#     4  11  21  37  62  89 120 152 189 241 296 349
#     4  10  20  36  58  86 117 148 186 233 281 335
#     4  10  23  39  57  83 115 150 193 235 279 339
#
# _framework density 18.831557
#
# number of rings (size 3 to 8) (size 9 to 14) (size 15 to 20)
#    0.000    1.714    1.429    3.429    0.000    7.429 
#    0.000    5.714    0.000    0.000    0.000    0.000 
#    0.000    0.000    0.000    0.000    0.000    0.000 
#
# Total GULP energy -312951.065954 kJ/mol
# GULP energy per Si atom -5588.411892 kJ/mol
# Density = 1.878870 g / cm^3
# Si number density = 18.831557 Si / 1000 Ang^3
#
#
#
# Elastic Constant Matrix: (Units=GPa)
#
#
# Indices 1 2 3 4 5 6 
#
# 1 119.0137 88.5241 27.7282 0.0000 0.0000 0.0000
# 2 88.5241 172.1286 34.7345 0.0000 0.0000 0.0000
# 3 27.7282 34.7345 37.3525 0.0000 0.0000 0.0000
# 4 0.0000 0.0000 0.0000 31.2801 0.0000 0.0000
# 5 0.0000 0.0000 0.0000 0.0000 31.9671 0.0000
# 6 0.0000 0.0000 0.0000 0.0000 0.0000 -6.1738
#
#
#
# Elastic Compliance Matrix: (Units=1/GPa)
#
#
# Indices 1 2 3 4 5 6 
#
# 1 0.014229 -0.006384 -0.004626 0.000000 0.000000 0.000000
# 2 -0.006384 0.010016 -0.004575 0.000000 0.000000 0.000000
# 3 -0.004626 -0.004575 0.034460 0.000000 0.000000 0.000000
# 4 0.000000 0.000000 0.000000 0.031969 0.000000 0.000000
# 5 0.000000 0.000000 0.000000 0.000000 0.031282 0.000000
# 6 0.000000 0.000000 0.000000 0.000000 0.000000 -0.161976
#
#
# Mechanical properties :
#
#
# Convention : Reuss Voigt Hill
#
# Bulk Modulus (GPa) = 36.31707 70.05206 53.18456
# Shear Modulus (GPa) = 15179.46985 23.24854 7601.35919
#
# Velocity S-wave (km/s) = 89.87856 3.51743 63.60239
# Velocity P-wave (km/s) = 103.87589 7.33324 73.63415
#
# Compressibility (1/GPa) = 0.02753526
#
# Stress axis : x y z
#
# Youngs Moduli (GPa) = 70.27962 99.83847 29.01906
#
# Poissons Ratio (x) = 0.63740 0.13424
# Poissons Ratio (y) = 0.44869 0.13276
# Poissons Ratio (z) = 0.32510 0.45674
#
# Static dielectric constant tensor:
#      x y z
#    x 1.618010 0.000000 0.000000 
#    y 0.000000 1.645520 0.000000 
#    z 0.000000 0.000000 1.641380 
# 
# From -- ./inp_files/8184.got.cif
#   From: 2010.05.17/outbox.cif.g08.bks.cpg/sg57_5_cif.got.tgz:8184.got - 2010.06.03 13:58:18.
