data_PCOD9437185
_publ_section_title
;
Structure prediction by ZEFSAII (Michael W. Deem and Ramdas Pophale) SiO2 
 PCOD9437185
Probable space group: P B C M
;
_chemical_formula_sum "Si O2"
_cell_formula_units_Z 48
_cell_length_a 14.103926
_cell_length_b 19.465122
_cell_length_c 7.648800
_cell_angle_alpha 90.000000
_cell_angle_beta 90.000000
_cell_angle_gamma 90.000000
_cell_volume 2099.860556
_symmetry_space_group_name_H-M "P B C M"
_symmetry_group_IT_number 57
_symmetry_cell_setting 'orthorhombic'
loop_
_space_group_symop_operation_xyz
x,y,z
-x,-y,1/2+z
x,1/2-y,-z
-x,1/2+y,1/2-z
-x,-y,-z
x,y,1/2-z
-x,1/2+y,z
x,1/2-y,1/2+z
loop_
_atom_site_type_symbol
_atom_site_label
_atom_site_fract_x
_atom_site_fract_y
_atom_site_fract_z
Si Si1 0.603811 0.597697 0.041095
Si Si2 0.001772 0.670948 0.040305
Si Si3 0.097665 0.538865 0.040357
Si Si4 0.412058 0.830276 0.960120
Si Si5 0.208388 0.169802 0.459839
Si Si6 0.695065 0.038211 0.460741
O O1 0.603325 0.607836 0.250000
O O2 0.512249 0.638376 0.973724
O O3 0.701621 0.629504 0.968770
O O4 0.614743 0.516701 0.009896
O O5 0.998029 0.665234 0.250000
O O6 0.896520 0.651374 0.972357
O O7 0.078644 0.616742 0.978196
O O8 0.020649 0.750000 0.000000
O O9 0.104896 0.537890 0.250000
O O10 0.200528 0.515656 0.972471
O O11 0.000000 0.500000 0.000000
O O12 0.413435 0.834651 0.750000
O O13 0.332969 0.885140 0.020135
O O14 0.399378 0.750000 0.000000
O O15 0.221239 0.250000 0.500000
O O16 0.206354 0.160870 0.250000
O O17 0.697774 0.038814 0.250000
#
# Coordination Sequence:
#
# PCOD9437185 Si02
#       6
#     8   8   8   8   8   8
#     4  10  20  35  56  81 109 143 183 225 271 325
#     4   9  18  32  49  71 101 135 173 219 268 318
#     4  10  21  37  56  79 109 144 183 229 277 326
#     4  10  22  39  58  83 114 147 184 224 269 323
#     4   9  17  29  47  73 103 135 174 220 268 318
#     4  10  22  38  56  81 112 144 181 227 276 326
#
# _framework density 22.858658999999999
#
# number of rings (size 3 to 8) (size 9 to 14) (size 15 to 20)
#    0.000    2.333    0.000    2.000    0.000    5.333 
#    0.000    3.333    0.000    0.000    0.000    0.000 
#    0.000    0.000    0.000    0.000    0.000    0.000 
#
# Total GULP energy -267967.022582 kJ/mol
# GULP energy per Si atom -5582.646304 kJ/mol
# Density = 2.280663 g / cm^3
# Si number density = 22.858659 Si / 1000 Ang^3
#
#
#
# Elastic Constant Matrix: (Units=GPa)
#
#
# Indices 1 2 3 4 5 6 
#
# 1 89.7897 32.5338 -0.2548 0.0000 0.0000 0.0000
# 2 32.5338 79.8966 -18.2028 0.0000 0.0000 0.0000
# 3 -0.2548 -18.2028 39.8945 0.0000 0.0000 0.0000
# 4 0.0000 0.0000 0.0000 28.8904 0.0000 0.0000
# 5 0.0000 0.0000 0.0000 0.0000 4.6320 0.0000
# 6 0.0000 0.0000 0.0000 0.0000 0.0000 38.1178
#
#
#
# Elastic Compliance Matrix: (Units=1/GPa)
#
#
# Indices 1 2 3 4 5 6 
#
# 1 0.013314 -0.006029 -0.002666 0.000000 0.000000 0.000000
# 2 -0.006029 0.016698 0.007580 0.000000 0.000000 0.000000
# 3 -0.002666 0.007580 0.028508 0.000000 0.000000 0.000000
# 4 0.000000 0.000000 0.000000 0.034614 0.000000 0.000000
# 5 0.000000 0.000000 0.000000 0.000000 0.215888 0.000000
# 6 0.000000 0.000000 0.000000 0.000000 0.000000 0.026234
#
#
# Mechanical properties :
#
#
# Convention : Reuss Voigt Hill
#
# Bulk Modulus (GPa) = 17.76459 26.41479 22.08969
# Shear Modulus (GPa) = 14.03518 27.36168 20.69843
#
# Velocity S-wave (km/s) = 2.48059 3.46351 3.01241
# Velocity P-wave (km/s) = 3.99910 5.25122 4.66734
#
# Compressibility (1/GPa) = 0.05629176
#
# Stress axis : x y z
#
# Youngs Moduli (GPa) = 75.10891 59.88690 35.07810
#
# Poissons Ratio (x) = 0.36105 0.09351
# Poissons Ratio (y) = 0.45282 -0.26591
# Poissons Ratio (z) = 0.20022 -0.45397
#
# Static dielectric constant tensor:
#      x y z
#    x 1.889740 0.000000 0.000000 
#    y 0.000000 1.848790 0.000000 
#    z 0.000000 0.000000 1.853320 
# 
# From -- ./inp_files/4707.got.cif
#   From: 2010.05.17/outbox.cif.g08.bks.cpg/sg57_3_cif.got.tgz:4707.got - 2010.06.03 13:58:18.
