data_PCOD9437743
_publ_section_title
;
Structure prediction by ZEFSAII (Michael W. Deem and Ramdas Pophale) SiO2 
 PCOD9437743
Probable space group: P B C M
;
_chemical_formula_sum "Si O2"
_cell_formula_units_Z 40
_cell_length_a 26.460465
_cell_length_b 9.223660
_cell_length_c 8.590879
_cell_angle_alpha 90.000000
_cell_angle_beta 90.000000
_cell_angle_gamma 90.000000
_cell_volume 2096.709968
_symmetry_space_group_name_H-M "P B C M"
_symmetry_group_IT_number 57
_symmetry_cell_setting 'orthorhombic'
loop_
_space_group_symop_operation_xyz
x,y,z
-x,-y,1/2+z
x,1/2-y,-z
-x,1/2+y,1/2-z
-x,-y,-z
x,y,1/2-z
-x,1/2+y,z
x,1/2-y,1/2+z
loop_
_atom_site_type_symbol
_atom_site_label
_atom_site_fract_x
_atom_site_fract_y
_atom_site_fract_z
Si Si1 0.654898 0.413763 0.562593
Si Si2 0.245470 0.087732 0.562494
Si Si3 0.547688 0.086714 0.564000
Si Si4 0.145044 0.913451 0.937603
Si Si5 0.951581 0.586384 0.436443
O O1 0.661570 0.250000 0.500000
O O2 0.652454 0.408784 0.750000
O O3 0.702414 0.510889 0.513402
O O4 0.601599 0.471044 0.497357
O O5 0.241395 0.250000 0.500000
O O6 0.245546 0.092987 0.750000
O O7 0.197323 0.991393 0.515037
O O8 0.544255 0.250000 0.500000
O O9 0.547677 0.087374 0.750000
O O10 0.500000 0.000000 0.500000
O O11 0.142039 0.911922 0.750000
O O12 0.143496 0.750000 0.000000
O O13 0.098391 0.004473 0.004634
O O14 0.952144 0.750000 0.500000
O O15 0.952672 0.588434 0.250000
O O16 0.000000 0.500000 0.500000
#
# Coordination Sequence:
#
# PCOD9437743 Si02
#       5
#     8   8   8   8   8
#     4  10  20  37  58  84 114 150 193 239 288 347
#     4  10  23  39  59  86 119 154 194 240 292 348
#     4  11  22  38  59  85 115 152 193 240 292 349
#     4  11  23  41  63  91 122 159 201 245 295 352
#     4  12  25  43  65  92 124 161 201 248 298 352
#
# _framework density 19.077506
#
# number of rings (size 3 to 8) (size 9 to 14) (size 15 to 20)
#    0.000    1.200    0.000    7.800    0.000    5.600 
#    0.000    2.000    0.000    0.000    0.000    0.000 
#    0.000    0.000    0.000    0.000    0.000    0.000 
#
# Total GULP energy -223752.128098 kJ/mol
# GULP energy per Si atom -5593.803202 kJ/mol
# Density = 1.903409 g / cm^3
# Si number density = 19.077506 Si / 1000 Ang^3
#
#
#
# Elastic Constant Matrix: (Units=GPa)
#
#
# Indices 1 2 3 4 5 6 
#
# 1 224.1247 118.6714 76.3389 0.0000 0.0000 0.0000
# 2 118.6714 159.9256 56.8373 0.0000 0.0000 0.0000
# 3 76.3389 56.8373 128.5532 0.0000 0.0000 0.0000
# 4 0.0000 0.0000 0.0000 39.3792 0.0000 0.0000
# 5 0.0000 0.0000 0.0000 0.0000 32.3566 0.0000
# 6 0.0000 0.0000 0.0000 0.0000 0.0000 44.4747
#
#
#
# Elastic Compliance Matrix: (Units=1/GPa)
#
#
# Indices 1 2 3 4 5 6 
#
# 1 0.007981 -0.005028 -0.002516 0.000000 0.000000 0.000000
# 2 -0.005028 0.010586 -0.001695 0.000000 0.000000 0.000000
# 3 -0.002516 -0.001695 0.010022 0.000000 0.000000 0.000000
# 4 0.000000 0.000000 0.000000 0.025394 0.000000 0.000000
# 5 0.000000 0.000000 0.000000 0.000000 0.030906 0.000000
# 6 0.000000 0.000000 0.000000 0.000000 0.000000 0.022485
#
#
# Mechanical properties :
#
#
# Convention : Reuss Voigt Hill
#
# Bulk Modulus (GPa) = 98.89643 112.92206 105.90924
# Shear Modulus (GPa) = 38.69275 40.62584 39.65929
#
# Velocity S-wave (km/s) = 4.50843 4.61967 4.56439
# Velocity P-wave (km/s) = 8.89118 9.36882 9.13312
#
# Compressibility (1/GPa) = 0.01011159
#
# Stress axis : x y z
#
# Youngs Moduli (GPa) = 125.29407 94.46242 99.77561
#
# Poissons Ratio (x) = 0.47496 0.25108
# Poissons Ratio (y) = 0.62999 0.16909
# Poissons Ratio (z) = 0.31530 0.16008
#
# Static dielectric constant tensor:
#      x y z
#    x 1.657910 0.000000 0.000000 
#    y 0.000000 1.619560 0.000000 
#    z 0.000000 0.000000 1.643090 
# 
# From -- ./inp_files/8899.got.cif
#   From: 2010.05.17/outbox.cif.g08.bks.cpg/sg57_5_cif.got.tgz:8899.got - 2010.06.03 13:58:18.
