data_PCOD9437637
_publ_section_title
;
Structure prediction by ZEFSAII (Michael W. Deem and Ramdas Pophale) SiO2 
 PCOD9437637
Probable space group: P B C M
;
_chemical_formula_sum "Si O2"
_cell_formula_units_Z 48
_cell_length_a 15.442684
_cell_length_b 16.676914
_cell_length_c 8.738712
_cell_angle_alpha 90.000000
_cell_angle_beta 90.000000
_cell_angle_gamma 90.000000
_cell_volume 2250.535669
_symmetry_space_group_name_H-M "P B C M"
_symmetry_group_IT_number 57
_symmetry_cell_setting 'orthorhombic'
loop_
_space_group_symop_operation_xyz
x,y,z
-x,-y,1/2+z
x,1/2-y,-z
-x,1/2+y,1/2-z
-x,-y,-z
x,y,1/2-z
-x,1/2+y,z
x,1/2-y,1/2+z
loop_
_atom_site_type_symbol
_atom_site_label
_atom_site_fract_x
_atom_site_fract_y
_atom_site_fract_z
Si Si1 0.408972 0.913896 0.421251
Si Si2 0.931000 0.335664 0.933217
Si Si3 0.416626 0.392645 0.574996
Si Si4 0.223402 0.338859 0.565581
Si Si5 0.069725 0.436394 0.070856
Si Si6 0.250717 0.837167 0.571716
O O1 0.386158 0.887537 0.250000
O O2 0.500158 0.875522 0.471203
O O3 0.332769 0.889706 0.533217
O O4 0.413518 0.010338 0.422048
O O5 0.949467 0.338561 0.750000
O O6 0.840557 0.381341 0.969146
O O7 0.906604 0.250000 0.000000
O O8 0.012379 0.358472 0.034385
O O9 0.432139 0.365599 0.750000
O O10 0.323608 0.358786 0.525081
O O11 0.201850 0.250000 0.500000
O O12 0.215731 0.337302 0.750000
O O13 0.161012 0.410023 0.502999
O O14 0.080171 0.453805 0.250000
O O15 0.000000 0.500000 0.000000
O O16 0.265832 0.750000 0.500000
O O17 0.241345 0.822736 0.750000
#
# Coordination Sequence:
#
# PCOD9437637 Si02
#       6
#     8   8   8   8   8   8
#     4  10  20  36  60  89 122 161 205 257 310 363
#     4  10  21  39  61  88 120 160 202 247 303 361
#     4   9  21  40  61  87 120 163 208 253 307 367
#     4  11  24  44  67  94 127 167 213 262 317 377
#     4  12  26  43  64  92 124 161 205 256 309 370
#     4  10  21  36  57  86 119 156 198 246 297 359
#
# _framework density 21.328256
#
# number of rings (size 3 to 8) (size 9 to 14) (size 15 to 20)
#    0.000    1.667    0.000    4.000    2.333    4.667 
#    0.000    1.667    0.000    0.000    0.000    0.000 
#    0.000    0.000    0.000    0.000    0.000    0.000 
#
# Total GULP energy -267553.194465 kJ/mol
# GULP energy per Si atom -5574.024885 kJ/mol
# Density = 2.127971 g / cm^3
# Si number density = 21.328256 Si / 1000 Ang^3
#
#
#
# Elastic Constant Matrix: (Units=GPa)
#
#
# Indices 1 2 3 4 5 6 
#
# 1 94.5474 0.8541 14.5774 0.0000 0.0000 0.0000
# 2 0.8541 23.8383 3.6089 0.0000 0.0000 0.0000
# 3 14.5774 3.6089 54.4897 0.0000 0.0000 0.0000
# 4 0.0000 0.0000 0.0000 30.8553 0.0000 0.0000
# 5 0.0000 0.0000 0.0000 0.0000 33.7481 0.0000
# 6 0.0000 0.0000 0.0000 0.0000 0.0000 16.4037
#
#
#
# Elastic Compliance Matrix: (Units=1/GPa)
#
#
# Indices 1 2 3 4 5 6 
#
# 1 0.011032 0.000052 -0.002955 0.000000 0.000000 0.000000
# 2 0.000052 0.042374 -0.002820 0.000000 0.000000 0.000000
# 3 -0.002955 -0.002820 0.019329 0.000000 0.000000 0.000000
# 4 0.000000 0.000000 0.000000 0.032409 0.000000 0.000000
# 5 0.000000 0.000000 0.000000 0.000000 0.029631 0.000000
# 6 0.000000 0.000000 0.000000 0.000000 0.000000 0.060962
#
#
# Mechanical properties :
#
#
# Convention : Reuss Voigt Hill
#
# Bulk Modulus (GPa) = 16.31604 23.43957 19.87780
# Shear Modulus (GPa) = 21.96699 26.45707 24.21203
#
# Velocity S-wave (km/s) = 3.21276 3.52585 3.37294
# Velocity P-wave (km/s) = 4.62915 5.25255 4.95067
#
# Compressibility (1/GPa) = 0.06128940
#
# Stress axis : x y z
#
# Youngs Moduli (GPa) = 90.64700 23.59914 51.73474
#
# Poissons Ratio (x) = -0.00123 0.15286
# Poissons Ratio (y) = -0.00472 0.14591
# Poissons Ratio (z) = 0.26784 0.06656
#
# Static dielectric constant tensor:
#      x y z
#    x 1.874090 0.000000 0.000000 
#    y 0.000000 1.724760 0.000000 
#    z 0.000000 0.000000 1.745150 
# 
# From -- ./inp_files/4570.got.cif
#   From: 2010.05.17/outbox.cif.g08.bks.cpg/sg57_3_cif.got.tgz:4570.got - 2010.06.03 13:58:18.
