data_PCOD9437244
_publ_section_title
;
Structure prediction by ZEFSAII (Michael W. Deem and Ramdas Pophale) SiO2 
 PCOD9437244
Probable space group: P B C M
;
_chemical_formula_sum "Si O2"
_cell_formula_units_Z 56
_cell_length_a 19.871369
_cell_length_b 16.287578
_cell_length_c 8.710624
_cell_angle_alpha 90.000000
_cell_angle_beta 90.000000
_cell_angle_gamma 90.000000
_cell_volume 2819.249838
_symmetry_space_group_name_H-M "P B C M"
_symmetry_group_IT_number 57
_symmetry_cell_setting 'orthorhombic'
loop_
_space_group_symop_operation_xyz
x,y,z
-x,-y,1/2+z
x,1/2-y,-z
-x,1/2+y,1/2-z
-x,-y,-z
x,y,1/2-z
-x,1/2+y,z
x,1/2-y,1/2+z
loop_
_atom_site_type_symbol
_atom_site_label
_atom_site_fract_x
_atom_site_fract_y
_atom_site_fract_z
Si Si1 0.843155 0.835885 0.434055
Si Si2 0.288956 0.579801 0.066274
Si Si3 0.567626 0.158259 0.066467
Si Si4 0.571145 0.842322 0.433262
Si Si5 0.709369 0.904711 0.931293
Si Si6 0.153612 0.663381 0.433547
Si Si7 0.925024 0.500698 0.935794
O O1 0.869924 0.750000 0.500000
O O2 0.842126 0.832593 0.250000
O O3 0.767543 0.849132 0.495618
O O4 0.885959 0.916072 0.482210
O O5 0.284230 0.562309 0.250000
O O6 0.364169 0.609651 0.032237
O O7 0.232167 0.646836 0.029728
O O8 0.272929 0.497961 0.973838
O O9 0.559496 0.162714 0.250000
O O10 0.575080 0.250000 0.000000
O O11 0.499640 0.121999 0.993540
O O12 0.574353 0.750000 0.500000
O O13 0.571096 0.840319 0.250000
O O14 0.636905 0.887520 0.494477
O O15 0.706376 0.891310 0.750000
O O16 0.130590 0.750000 0.500000
O O17 0.147578 0.667217 0.250000
O O18 0.113295 0.582416 0.485988
O O19 0.926144 0.500315 0.750000
O O20 0.000000 0.500000 0.000000
#
# Coordination Sequence:
#
# PCOD9437244 Si02
#       7
#     8   8   8   8   8   8   8
#     4  11  23  43  67  94 129 168 210 258 313 371
#     4  10  21  39  60  84 121 161 202 254 314 367
#     4  10  20  35  57  83 115 155 201 255 310 370
#     4  11  22  38  58  80 115 157 201 255 311 371
#     4  12  24  38  60  89 119 156 207 260 311 372
#     4  10  21  40  64  93 127 167 208 253 308 366
#     4  10  23  43  67  93 132 169 205 254 307 367
#
# _framework density 19.863440000000001
#
# number of rings (size 3 to 8) (size 9 to 14) (size 15 to 20)
#    0.000    1.429    1.429    5.143    0.000    4.571 
#    0.000    2.857    0.000    0.000    0.000    0.000 
#    0.000    0.000    0.000    0.000    0.000    0.000 
#
# Total GULP energy -313023.201567 kJ/mol
# GULP energy per Si atom -5589.700028 kJ/mol
# Density = 1.981823 g / cm^3
# Si number density = 19.863440 Si / 1000 Ang^3
#
#
#
# Elastic Constant Matrix: (Units=GPa)
#
#
# Indices 1 2 3 4 5 6 
#
# 1 126.5481 59.3224 39.8797 0.0000 0.0000 0.0000
# 2 59.3224 135.7124 42.8608 0.0000 0.0000 0.0000
# 3 39.8797 42.8608 63.8423 0.0000 0.0000 0.0000
# 4 0.0000 0.0000 0.0000 35.2279 0.0000 0.0000
# 5 0.0000 0.0000 0.0000 0.0000 9.5348 0.0000
# 6 0.0000 0.0000 0.0000 0.0000 0.0000 15.0715
#
#
#
# Elastic Compliance Matrix: (Units=1/GPa)
#
#
# Indices 1 2 3 4 5 6 
#
# 1 0.010902 -0.003318 -0.004582 0.000000 0.000000 0.000000
# 2 -0.003318 0.010361 -0.004883 0.000000 0.000000 0.000000
# 3 -0.004582 -0.004883 0.021804 0.000000 0.000000 0.000000
# 4 0.000000 0.000000 0.000000 0.028387 0.000000 0.000000
# 5 0.000000 0.000000 0.000000 0.000000 0.104879 0.000000
# 6 0.000000 0.000000 0.000000 0.000000 0.000000 0.066350
#
#
# Mechanical properties :
#
#
# Convention : Reuss Voigt Hill
#
# Bulk Modulus (GPa) = 57.14318 67.80317 62.47318
# Shear Modulus (GPa) = 18.24260 24.23617 21.23939
#
# Velocity S-wave (km/s) = 3.03380 3.49684 3.27352
# Velocity P-wave (km/s) = 6.41112 7.10722 6.76812
#
# Compressibility (1/GPa) = 0.01749990
#
# Stress axis : x y z
#
# Youngs Moduli (GPa) = 91.72973 96.51394 45.86248
#
# Poissons Ratio (x) = 0.32025 0.21015
# Poissons Ratio (y) = 0.30437 0.22396
# Poissons Ratio (z) = 0.42032 0.47131
#
# Static dielectric constant tensor:
#      x y z
#    x 1.694080 0.000000 0.000000 
#    y 0.000000 1.724470 0.000000 
#    z 0.000000 0.000000 1.668130 
# 
# From -- ./inp_files/7995.got.cif
#   From: 2010.05.17/outbox.cif.g08.bks.cpg/sg57_4_cif.got.tgz:7995.got - 2010.06.03 13:58:18.
