data_PCOD9437353
_publ_section_title
;
Structure prediction by ZEFSAII (Michael W. Deem and Ramdas Pophale) SiO2 
 PCOD9437353
Probable space group: P B C M
;
_chemical_formula_sum "Si O2"
_cell_formula_units_Z 64
_cell_length_a 14.612542
_cell_length_b 12.343487
_cell_length_c 17.295735
_cell_angle_alpha 90.000000
_cell_angle_beta 90.000000
_cell_angle_gamma 90.000000
_cell_volume 3119.626917
_symmetry_space_group_name_H-M "P B C M"
_symmetry_group_IT_number 57
_symmetry_cell_setting 'orthorhombic'
loop_
_space_group_symop_operation_xyz
x,y,z
-x,-y,1/2+z
x,1/2-y,-z
-x,1/2+y,1/2-z
-x,-y,-z
x,y,1/2-z
-x,1/2+y,z
x,1/2-y,1/2+z
loop_
_atom_site_type_symbol
_atom_site_label
_atom_site_fract_x
_atom_site_fract_y
_atom_site_fract_z
Si Si1 0.540733 0.649308 0.942910
Si Si2 0.982747 0.522641 0.337710
Si Si3 0.939315 0.141952 0.959431
Si Si4 0.364305 0.970012 0.051261
Si Si5 0.134630 0.710343 0.165561
Si Si6 0.281273 0.157538 0.656985
Si Si7 0.225349 0.401550 0.659788
Si Si8 0.219078 0.945684 0.568259
O O1 0.443170 0.605017 0.914047
O O2 0.614522 0.667123 0.874811
O O3 0.527274 0.750000 0.000000
O O4 0.585379 0.560632 0.999815
O O5 0.991912 0.476641 0.250000
O O6 0.000922 0.435804 0.405885
O O7 0.878871 0.560544 0.351714
O O8 0.047100 0.628782 0.337732
O O9 0.873478 0.196792 0.896538
O O10 0.982553 0.250000 0.000000
O O11 0.873569 0.078266 0.018891
O O12 0.296197 0.029442 0.109892
O O13 0.299868 0.912272 0.988797
O O14 0.142271 0.756858 0.250000
O O15 0.216572 0.632750 0.141769
O O16 0.276812 0.135126 0.750000
O O17 0.234994 0.273990 0.642157
O O18 0.233633 0.064830 0.604188
O O19 0.247009 0.415192 0.750000
#
# Coordination Sequence:
#
# PCOD9437353 Si02
#       8
#     8   8   8   8   8   8   8   8
#     4  10  20  35  61  85 120 157 196 251 314 370
#     4  10  21  39  61  87 120 163 210 257 311 364
#     4  10  21  37  58  86 119 157 198 251 303 360
#     4  10  20  37  57  89 117 158 200 248 308 372
#     4  10  22  39  61  87 122 164 209 258 307 360
#     4  10  21  38  63  92 122 156 204 258 312 367
#     4  10  20  37  61  87 120 159 205 256 308 368
#     4  10  21  37  60  86 123 159 202 249 306 366
#
# _framework density 20.515274000000002
#
# number of rings (size 3 to 8) (size 9 to 14) (size 15 to 20)
#    0.000    2.000    2.500    0.750    0.000    5.000 
#    0.000    3.750    0.000    0.750    0.000    0.000 
#    0.000    0.000    0.000    0.000    0.000    0.000 
#
# Total GULP energy -356901.056926 kJ/mol
# GULP energy per Si atom -5576.579014 kJ/mol
# Density = 2.046858 g / cm^3
# Si number density = 20.515274 Si / 1000 Ang^3
#
#
#
# Elastic Constant Matrix: (Units=GPa)
#
#
# Indices 1 2 3 4 5 6 
#
# 1 48.7067 38.1536 30.4014 0.0000 0.0000 0.0000
# 2 38.1536 70.8483 41.9189 0.0000 0.0000 0.0000
# 3 30.4014 41.9189 107.5304 0.0000 0.0000 0.0000
# 4 0.0000 0.0000 0.0000 11.9925 0.0000 0.0000
# 5 0.0000 0.0000 0.0000 0.0000 20.9758 0.0000
# 6 0.0000 0.0000 0.0000 0.0000 0.0000 16.5541
#
#
#
# Elastic Compliance Matrix: (Units=1/GPa)
#
#
# Indices 1 2 3 4 5 6 
#
# 1 0.036470 -0.017599 -0.003451 0.000000 0.000000 0.000000
# 2 -0.017599 0.026838 -0.005487 0.000000 0.000000 0.000000
# 3 -0.003451 -0.005487 0.012414 0.000000 0.000000 0.000000
# 4 0.000000 0.000000 0.000000 0.083386 0.000000 0.000000
# 5 0.000000 0.000000 0.000000 0.000000 0.047674 0.000000
# 6 0.000000 0.000000 0.000000 0.000000 0.000000 0.060408
#
#
# Mechanical properties :
#
#
# Convention : Reuss Voigt Hill
#
# Bulk Modulus (GPa) = 44.14850 49.78148 46.96499
# Shear Modulus (GPa) = 15.25260 17.67859 16.46559
#
# Velocity S-wave (km/s) = 2.72963 2.93870 2.83610
# Velocity P-wave (km/s) = 5.61258 5.98606 5.80233
#
# Compressibility (1/GPa) = 0.02265083
#
# Stress axis : x y z
#
# Youngs Moduli (GPa) = 27.41950 37.25997 80.55271
#
# Poissons Ratio (x) = 0.65573 0.27795
# Poissons Ratio (y) = 0.48255 0.44199
# Poissons Ratio (z) = 0.09461 0.20444
#
# Static dielectric constant tensor:
#      x y z
#    x 1.740340 0.000000 0.000000 
#    y 0.000000 1.794960 0.000000 
#    z 0.000000 0.000000 1.762200 
# 
# From -- ./inp_files/22676.got.cif
#   From: 2010.05.17/outbox.cif.g08.bks.cpg/sg57_12_cif.got.tgz:22676.got - 2010.06.03 13:58:18.
