data_PCOD9437944
_publ_section_title
;
Structure prediction by ZEFSAII (Michael W. Deem and Ramdas Pophale) SiO2 
 PCOD9437944
Probable space group: P B C M
;
_chemical_formula_sum "Si O2"
_cell_formula_units_Z 60
_cell_length_a 12.271617
_cell_length_b 28.354188
_cell_length_c 9.042207
_cell_angle_alpha 90.000000
_cell_angle_beta 90.000000
_cell_angle_gamma 90.000000
_cell_volume 3146.251618
_symmetry_space_group_name_H-M "P B C M"
_symmetry_group_IT_number 57
_symmetry_cell_setting 'orthorhombic'
loop_
_space_group_symop_operation_xyz
x,y,z
-x,-y,1/2+z
x,1/2-y,-z
-x,1/2+y,1/2-z
-x,-y,-z
x,y,1/2-z
-x,1/2+y,z
x,1/2-y,1/2+z
loop_
_atom_site_type_symbol
_atom_site_label
_atom_site_fract_x
_atom_site_fract_y
_atom_site_fract_z
Si Si1 0.442833 0.322673 0.487020
Si Si2 0.119260 0.200513 0.070803
Si Si3 0.598869 0.759278 0.750000
Si Si4 0.747199 0.885265 0.422314
Si Si5 0.322519 0.801382 0.928505
Si Si6 0.082451 0.564594 0.079819
Si Si7 0.098744 0.835919 0.072329
Si Si8 0.164219 0.024363 0.079505
O O1 0.432054 0.280822 0.371550
O O2 0.383131 0.299829 0.625682
O O3 0.377053 0.367947 0.433729
O O4 0.568462 0.330148 0.531373
O O5 0.123270 0.202426 0.250000
O O6 0.159940 0.250000 0.000000
O O7 0.182254 0.155579 0.003172
O O8 0.996019 0.193175 0.010844
O O9 0.780460 0.887226 0.250000
O O10 0.767014 0.934834 0.501211
O O11 0.314091 0.797902 0.750000
O O12 0.339440 0.750000 0.000000
O O13 0.214571 0.821135 0.004408
O O14 0.110842 0.577204 0.250000
O O15 0.959816 0.544219 0.081781
O O16 0.082797 0.609769 0.974203
O O17 0.158845 0.523752 0.013709
O O18 0.093663 0.829219 0.250000
O O19 0.196649 0.016485 0.250000
#
# Coordination Sequence:
#
# PCOD9437944 Si02
#       8
#     8   8   4   8   8   8   8   8
#     4  11  22  37  59  85 118 154 203 248 296 341
#     4  12  26  41  56  80 120 161 198 238 293 354
#     4  10  20  38  58  82 114 156 204 252 288 344
#     4  12  25  37  59  88 123 157 197 242 295 356
#     4  12  23  39  62  86 119 158 205 251 293 344
#     4  10  20  39  63  87 118 152 197 244 295 352
#     4  12  25  40  61  87 119 155 199 244 295 354
#     4  10  21  37  62  89 118 154 192 247 296 352
#
# _framework density 19.070312000000001
#
# number of rings (size 3 to 8) (size 9 to 14) (size 15 to 20)
#    0.000    0.800    4.000    4.400    4.667    1.067 
#    0.000    0.000    0.000    0.800    0.000    0.000 
#    0.000    0.000    0.000    0.000    0.000    0.000 
#
# Total GULP energy -334099.833842 kJ/mol
# GULP energy per Si atom -5568.330564 kJ/mol
# Density = 1.902691 g / cm^3
# Si number density = 19.070312 Si / 1000 Ang^3
#
#
#
# Elastic Constant Matrix: (Units=GPa)
#
#
# Indices 1 2 3 4 5 6 
#
# 1 66.4397 2.4847 20.2170 0.0000 0.0000 0.0000
# 2 2.4847 35.6060 2.9008 0.0000 0.0000 0.0000
# 3 20.2170 2.9008 172.7121 0.0000 0.0000 0.0000
# 4 0.0000 0.0000 0.0000 33.7025 0.0000 0.0000
# 5 0.0000 0.0000 0.0000 0.0000 38.5013 0.0000
# 6 0.0000 0.0000 0.0000 0.0000 0.0000 14.5073
#
#
#
# Elastic Compliance Matrix: (Units=1/GPa)
#
#
# Indices 1 2 3 4 5 6 
#
# 1 0.015639 -0.000943 -0.001815 0.000000 0.000000 0.000000
# 2 -0.000943 0.028181 -0.000363 0.000000 0.000000 0.000000
# 3 -0.001815 -0.000363 0.006009 0.000000 0.000000 0.000000
# 4 0.000000 0.000000 0.000000 0.029671 0.000000 0.000000
# 5 0.000000 0.000000 0.000000 0.000000 0.025973 0.000000
# 6 0.000000 0.000000 0.000000 0.000000 0.000000 0.068931
#
#
# Mechanical properties :
#
#
# Convention : Reuss Voigt Hill
#
# Bulk Modulus (GPa) = 22.94336 36.21810 29.58073
# Shear Modulus (GPa) = 25.61816 33.95256 29.78536
#
# Velocity S-wave (km/s) = 3.66915 4.22404 3.95634
# Velocity P-wave (km/s) = 5.47789 6.54394 6.03450
#
# Compressibility (1/GPa) = 0.04358560
#
# Stress axis : x y z
#
# Youngs Moduli (GPa) = 63.94381 35.48545 166.43072
#
# Poissons Ratio (x) = 0.03348 0.30203
# Poissons Ratio (y) = 0.06033 0.06039
# Poissons Ratio (z) = 0.11604 0.01288
#
# Static dielectric constant tensor:
#      x y z
#    x 1.730010 0.000000 0.000000 
#    y 0.000000 1.654280 0.000000 
#    z 0.000000 0.000000 1.649140 
# 
# From -- ./inp_files/3506.got.cif
#   From: 2010.05.17/outbox.cif.g08.bks.cpg/sg57_2_cif.got.tgz:3506.got - 2010.06.03 13:58:18.
