data_PCOD9437853
_publ_section_title
;
Structure prediction by ZEFSAII (Michael W. Deem and Ramdas Pophale) SiO2 
 PCOD9437853
Probable space group: P B C M
;
_chemical_formula_sum "Si O2"
_cell_formula_units_Z 56
_cell_length_a 14.981427
_cell_length_b 5.307353
_cell_length_c 27.366704
_cell_angle_alpha 90.000000
_cell_angle_beta 90.000000
_cell_angle_gamma 90.000000
_cell_volume 2175.973748
_symmetry_space_group_name_H-M "P B C M"
_symmetry_group_IT_number 57
_symmetry_cell_setting 'orthorhombic'
loop_
_space_group_symop_operation_xyz
x,y,z
-x,-y,1/2+z
x,1/2-y,-z
-x,1/2+y,1/2-z
-x,-y,-z
x,y,1/2-z
-x,1/2+y,z
x,1/2-y,1/2+z
loop_
_atom_site_type_symbol
_atom_site_label
_atom_site_fract_x
_atom_site_fract_y
_atom_site_fract_z
Si Si1 0.040160 0.443060 0.178415
Si Si2 0.762101 0.404215 0.950023
Si Si3 0.949358 0.873557 0.061660
Si Si4 0.703902 0.760076 0.807868
Si Si5 0.448335 0.569257 0.062022
Si Si6 0.520898 0.919663 0.670413
Si Si7 0.783810 0.255713 0.660404
O O1 0.037018 0.390553 0.120235
O O2 0.131272 0.599134 0.182915
O O3 0.027963 0.158664 0.196958
O O4 0.843299 0.606129 0.948807
O O5 0.656483 0.479304 0.948669
O O6 0.781119 0.255964 0.898887
O O7 0.773716 0.250000 0.000000
O O8 0.005008 0.117284 0.044992
O O9 0.687716 0.773992 0.750000
O O10 0.624128 0.878696 0.839631
O O11 0.712306 0.467913 0.822747
O O12 0.778083 0.970318 0.820813
O O13 0.514725 0.343815 0.046130
O O14 0.464396 0.575053 0.120639
O O15 0.491027 0.674837 0.697953
#
# Coordination Sequence:
#
# PCOD9437853 Si02
#       7
#     8   8   8   8   8   8   8
#     4   9  17  33  60  91 124 172 219 262 335 407
#     4  11  25  43  70 104 139 189 236 274 341 415
#     4   9  20  39  62  94 135 174 223 285 338 397
#     4  12  25  43  70  99 128 172 226 281 347 407
#     4  10  21  40  62  89 131 177 226 277 326 388
#     4  10  20  37  61  89 125 163 207 265 329 389
#     4  11  23  43  67  96 139 173 218 290 336 397
#
# _framework density 25.735603999999999
#
# number of rings (size 3 to 8) (size 9 to 14) (size 15 to 20)
#    0.000    1.714    0.000    5.571    0.000    6.286 
#    0.000    5.000    0.000    8.571    0.000    0.000 
#    0.000    0.000    0.000    0.000    0.000    0.000 
#
# Total GULP energy -312650.848115 kJ/mol
# GULP energy per Si atom -5583.050859 kJ/mol
# Density = 2.567703 g / cm^3
# Si number density = 25.735604 Si / 1000 Ang^3
#
#
#
# Elastic Constant Matrix: (Units=GPa)
#
#
# Indices 1 2 3 4 5 6 
#
# 1 155.0830 42.1049 1.3076 0.0000 0.0000 0.0000
# 2 42.1049 155.3745 30.2183 0.0000 0.0000 0.0000
# 3 1.3076 30.2183 126.7191 0.0000 0.0000 0.0000
# 4 0.0000 0.0000 0.0000 -174.5952 0.0000 0.0000
# 5 0.0000 0.0000 0.0000 0.0000 -19.2744 0.0000
# 6 0.0000 0.0000 0.0000 0.0000 0.0000 -223.4358
#
#
#
# Elastic Compliance Matrix: (Units=1/GPa)
#
#
# Indices 1 2 3 4 5 6 
#
# 1 0.006979 -0.001969 0.000397 0.000000 0.000000 0.000000
# 2 -0.001969 0.007304 -0.001722 0.000000 0.000000 0.000000
# 3 0.000397 -0.001722 0.008298 0.000000 0.000000 0.000000
# 4 0.000000 0.000000 0.000000 -0.005728 0.000000 0.000000
# 5 0.000000 0.000000 0.000000 0.000000 -0.051882 0.000000
# 6 0.000000 0.000000 0.000000 0.000000 0.000000 -0.004476
#
#
# Mechanical properties :
#
#
# Convention : Reuss Voigt Hill
#
# Bulk Modulus (GPa) = 62.51519 64.93758 63.72639
# Shear Modulus (GPa) = -181.24946 -59.22470 -120.23708
#
# Velocity S-wave (km/s) = -8.40121 -4.80236 -6.84263
# Velocity P-wave (km/s) = 8.35243 2.33729 6.13295
#
# Compressibility (1/GPa) = 0.01599611
#
# Stress axis : x y z
#
# Youngs Moduli (GPa) = 143.28116 136.90471 120.51246
#
# Poissons Ratio (x) = 0.26951 -0.04790
# Poissons Ratio (y) = 0.28206 0.20747
# Poissons Ratio (z) = -0.05694 0.23569
#
# Static dielectric constant tensor:
#      x y z
#    x 2.206070 0.000000 0.000000 
#    y 0.000000 2.083350 0.000000 
#    z 0.000000 0.000000 1.985100 
# 
# From -- ./inp_files/29866.got.cif
#   From: 2010.05.17/outbox.cif.g08.bks.cpg/sg57_15_cif.got.tgz:29866.got - 2010.06.03 13:58:18.
