data_PCOD9437478
_publ_section_title
;
Structure prediction by ZEFSAII (Michael W. Deem and Ramdas Pophale) SiO2 
 PCOD9437478
Probable space group: P B C M
;
_chemical_formula_sum "Si O2"
_cell_formula_units_Z 48
_cell_length_a 31.780104
_cell_length_b 9.212410
_cell_length_c 8.590881
_cell_angle_alpha 90.000000
_cell_angle_beta 90.000000
_cell_angle_gamma 90.000000
_cell_volume 2515.163810
_symmetry_space_group_name_H-M "P B C M"
_symmetry_group_IT_number 57
_symmetry_cell_setting 'orthorhombic'
loop_
_space_group_symop_operation_xyz
x,y,z
-x,-y,1/2+z
x,1/2-y,-z
-x,1/2+y,1/2-z
-x,-y,-z
x,y,1/2-z
-x,1/2+y,z
x,1/2-y,1/2+z
loop_
_atom_site_type_symbol
_atom_site_label
_atom_site_fract_x
_atom_site_fract_y
_atom_site_fract_z
Si Si1 0.871128 0.586150 0.937236
Si Si2 0.620955 0.413745 0.937503
Si Si3 0.540369 0.913848 0.563610
Si Si4 0.039752 0.086503 0.435922
Si Si5 0.212219 0.587375 0.062042
Si Si6 0.705098 0.587106 0.562269
O O1 0.873481 0.591306 0.750000
O O2 0.831296 0.489747 0.984956
O O3 0.865618 0.750000 0.000000
O O4 0.915360 0.528206 0.003227
O O5 0.618196 0.411960 0.750000
O O6 0.664315 0.493526 0.983460
O O7 0.620271 0.250000 0.000000
O O8 0.581929 0.503528 0.005193
O O9 0.540093 0.750000 0.500000
O O10 0.539371 0.911542 0.750000
O O11 0.500000 0.000000 0.500000
O O12 0.037041 0.250000 0.500000
O O13 0.039638 0.087309 0.250000
O O14 0.000000 0.000000 0.500000
O O15 0.213015 0.591350 0.250000
O O16 0.252253 0.492644 0.009354
O O17 0.214935 0.750000 0.000000
O O18 0.702543 0.750000 0.500000
O O19 0.705827 0.592977 0.750000
#
# Coordination Sequence:
#
# PCOD9437478 Si02
#       6
#     8   8   8   8   8   8
#     4  10  20  36  57  82 112 147 190 235 283 340
#     4  11  23  40  62  90 123 159 200 245 296 350
#     4  12  25  43  65  91 123 159 201 247 298 353
#     4  11  22  38  59  84 114 149 190 235 287 343
#     4  10  22  38  57  84 116 150 190 236 285 340
#     4  10  22  39  60  87 118 154 196 240 288 344
#
# _framework density 19.084244000000002
#
# number of rings (size 3 to 8) (size 9 to 14) (size 15 to 20)
#    0.000    1.333    0.000    7.000    0.000    5.333 
#    0.000    1.667    0.000    0.000    0.000    0.000 
#    0.000    0.000    0.000    0.000    0.000    0.000 
#
# Total GULP energy -268457.936685 kJ/mol
# GULP energy per Si atom -5592.873681 kJ/mol
# Density = 1.904081 g / cm^3
# Si number density = 19.084244 Si / 1000 Ang^3
#
#
#
# Elastic Constant Matrix: (Units=GPa)
#
#
# Indices 1 2 3 4 5 6 
#
# 1 223.4479 120.2038 70.7397 0.0000 0.0000 0.0000
# 2 120.2038 170.0997 52.0482 0.0000 0.0000 0.0000
# 3 70.7397 52.0482 101.4038 0.0000 0.0000 0.0000
# 4 0.0000 0.0000 0.0000 39.9213 0.0000 0.0000
# 5 0.0000 0.0000 0.0000 0.0000 29.4179 0.0000
# 6 0.0000 0.0000 0.0000 0.0000 0.0000 43.9937
#
#
#
# Elastic Compliance Matrix: (Units=1/GPa)
#
#
# Indices 1 2 3 4 5 6 
#
# 1 0.007999 -0.004680 -0.003178 0.000000 0.000000 0.000000
# 2 -0.004680 0.009713 -0.001720 0.000000 0.000000 0.000000
# 3 -0.003178 -0.001720 0.012962 0.000000 0.000000 0.000000
# 4 0.000000 0.000000 0.000000 0.025049 0.000000 0.000000
# 5 0.000000 0.000000 0.000000 0.000000 0.033993 0.000000
# 6 0.000000 0.000000 0.000000 0.000000 0.000000 0.022731
#
#
# Mechanical properties :
#
#
# Convention : Reuss Voigt Hill
#
# Bulk Modulus (GPa) = 86.83384 108.99274 97.91329
# Shear Modulus (GPa) = 36.91615 39.46390 38.19002
#
# Velocity S-wave (km/s) = 4.40293 4.55233 4.47825
# Velocity P-wave (km/s) = 8.45262 9.21232 8.84064
#
# Compressibility (1/GPa) = 0.01151625
#
# Stress axis : x y z
#
# Youngs Moduli (GPa) = 125.01244 102.95752 77.15153
#
# Poissons Ratio (x) = 0.48188 0.24518
# Poissons Ratio (y) = 0.58510 0.13272
# Poissons Ratio (z) = 0.39728 0.17712
#
# Static dielectric constant tensor:
#      x y z
#    x 1.659290 0.000000 0.000000 
#    y 0.000000 1.613100 0.000000 
#    z 0.000000 0.000000 1.646750 
# 
# From -- ./inp_files/10066.got.cif
#   From: 2010.05.17/outbox.cif.g08.bks.cpg/sg57_6_cif.got.tgz:10066.got - 2010.06.03 13:58:18.
