data_PCOD9437840
_publ_section_title
;
Structure prediction by ZEFSAII (Michael W. Deem and Ramdas Pophale) SiO2 
 PCOD9437840
Probable space group: P B C M
;
_chemical_formula_sum "Si O2"
_cell_formula_units_Z 56
_cell_length_a 8.413312
_cell_length_b 22.313358
_cell_length_c 13.584090
_cell_angle_alpha 90.000000
_cell_angle_beta 90.000000
_cell_angle_gamma 90.000000
_cell_volume 2550.130927
_symmetry_space_group_name_H-M "P B C M"
_symmetry_group_IT_number 57
_symmetry_cell_setting 'orthorhombic'
loop_
_space_group_symop_operation_xyz
x,y,z
-x,-y,1/2+z
x,1/2-y,-z
-x,1/2+y,1/2-z
-x,-y,-z
x,y,1/2-z
-x,1/2+y,z
x,1/2-y,1/2+z
loop_
_atom_site_type_symbol
_atom_site_label
_atom_site_fract_x
_atom_site_fract_y
_atom_site_fract_z
Si Si1 0.339008 0.598997 0.998071
Si Si2 0.377580 0.091248 0.865686
Si Si3 0.582667 0.659603 0.132628
Si Si4 0.757011 0.717829 0.633408
Si Si5 0.852937 0.491970 0.632423
Si Si6 0.075675 0.684742 0.981018
Si Si7 0.898931 0.900807 0.866893
O O1 0.427390 0.645141 0.071464
O O2 0.259455 0.550017 0.067809
O O3 0.471594 0.570778 0.927691
O O4 0.204539 0.637372 0.941375
O O5 0.407238 0.082070 0.750000
O O6 0.356344 0.161477 0.884724
O O7 0.209604 0.058595 0.888387
O O8 0.551120 0.661370 0.250000
O O9 0.672342 0.720726 0.103402
O O10 0.713738 0.608046 0.111392
O O11 0.783225 0.722609 0.750000
O O12 0.924794 0.702314 0.585092
O O13 0.829514 0.482514 0.750000
O O14 0.029072 0.466594 0.611210
O O15 0.152097 0.750000 0.000000
O O16 0.000880 0.649192 0.074834
O O17 0.916222 0.889416 0.750000
#
# Coordination Sequence:
#
# PCOD9437840 Si02
#       7
#     8   8   8   8   8   8   8
#     4  11  23  35  58  88 120 154 190 240 292 353
#     4  10  22  39  59  82 117 161 196 236 288 348
#     4  10  20  37  61  88 115 147 192 241 292 345
#     4  10  22  40  60  82 114 156 198 238 285 345
#     4   9  19  39  60  84 117 153 199 243 287 336
#     4  11  22  35  55  83 117 150 186 233 295 340
#     4   9  18  35  59  84 109 146 193 242 282 327
#
# _framework density 21.959658000000001
#
# number of rings (size 3 to 8) (size 9 to 14) (size 15 to 20)
#    0.000    2.000    1.429    1.714    2.000    1.143 
#    0.000    7.857    0.000    3.429    0.000    0.000 
#    0.000    0.000    0.000    0.000    0.000    0.000 
#
# Total GULP energy -312822.062728 kJ/mol
# GULP energy per Si atom -5586.108263 kJ/mol
# Density = 2.190968 g / cm^3
# Si number density = 21.959658 Si / 1000 Ang^3
#
#
#
# Elastic Constant Matrix: (Units=GPa)
#
#
# Indices 1 2 3 4 5 6 
#
# 1 48.4477 -0.5537 5.7572 0.0000 0.0000 0.0000
# 2 -0.5537 40.9229 4.8877 0.0000 0.0000 0.0000
# 3 5.7572 4.8877 57.1599 0.0000 0.0000 0.0000
# 4 0.0000 0.0000 0.0000 24.0459 0.0000 0.0000
# 5 0.0000 0.0000 0.0000 0.0000 27.8124 0.0000
# 6 0.0000 0.0000 0.0000 0.0000 0.0000 23.9210
#
#
#
# Elastic Compliance Matrix: (Units=1/GPa)
#
#
# Indices 1 2 3 4 5 6 
#
# 1 0.020903 0.000540 -0.002151 0.000000 0.000000 0.000000
# 2 0.000540 0.024702 -0.002167 0.000000 0.000000 0.000000
# 3 -0.002151 -0.002167 0.017897 0.000000 0.000000 0.000000
# 4 0.000000 0.000000 0.000000 0.041587 0.000000 0.000000
# 5 0.000000 0.000000 0.000000 0.000000 0.035955 0.000000
# 6 0.000000 0.000000 0.000000 0.000000 0.000000 0.041804
#
#
# Mechanical properties :
#
#
# Convention : Reuss Voigt Hill
#
# Bulk Modulus (GPa) = 17.87471 18.52366 18.19919
# Shear Modulus (GPa) = 23.91735 24.25182 24.08459
#
# Velocity S-wave (km/s) = 3.30381 3.32683 3.31534
# Velocity P-wave (km/s) = 4.76560 4.81775 4.79175
#
# Compressibility (1/GPa) = 0.05594496
#
# Stress axis : x y z
#
# Youngs Moduli (GPa) = 47.84085 40.48211 55.87606
#
# Poissons Ratio (x) = -0.02185 0.12022
# Poissons Ratio (y) = -0.02582 0.12106
# Poissons Ratio (z) = 0.10293 0.08771
#
# Static dielectric constant tensor:
#      x y z
#    x 1.795410 0.000000 0.000000 
#    y 0.000000 1.829520 0.000000 
#    z 0.000000 0.000000 1.826250 
# 
# From -- ./inp_files/16721.got.cif
#   From: 2010.05.17/outbox.cif.g08.bks.cpg/sg57_9_cif.got.tgz:16721.got - 2010.06.03 13:58:18.
