data_PCOD9437211
_publ_section_title
;
Structure prediction by ZEFSAII (Michael W. Deem and Ramdas Pophale) SiO2 
 PCOD9437211
Probable space group: P B C M
;
_chemical_formula_sum "Si O2"
_cell_formula_units_Z 64
_cell_length_a 21.247564
_cell_length_b 19.202067
_cell_length_c 8.741373
_cell_angle_alpha 90.000000
_cell_angle_beta 90.000000
_cell_angle_gamma 90.000000
_cell_volume 3566.455249
_symmetry_space_group_name_H-M "P B C M"
_symmetry_group_IT_number 57
_symmetry_cell_setting 'orthorhombic'
loop_
_space_group_symop_operation_xyz
x,y,z
-x,-y,1/2+z
x,1/2-y,-z
-x,1/2+y,1/2-z
-x,-y,-z
x,y,1/2-z
-x,1/2+y,z
x,1/2-y,1/2+z
loop_
_atom_site_type_symbol
_atom_site_label
_atom_site_fract_x
_atom_site_fract_y
_atom_site_fract_z
Si Si1 0.898670 0.175673 0.433239
Si Si2 0.375818 0.175360 0.566382
Si Si3 0.750215 0.890762 0.566795
Si Si4 0.302911 0.970814 0.564689
Si Si5 0.886868 0.827667 0.933903
Si Si6 0.249572 0.823589 0.567042
Si Si7 0.998128 0.922752 0.432613
Si Si8 0.562682 0.533074 0.566391
O O1 0.919741 0.250000 0.500000
O O2 0.906824 0.174232 0.250000
O O3 0.824609 0.168428 0.468749
O O4 0.939242 0.116482 0.511958
O O5 0.393465 0.250000 0.500000
O O6 0.373535 0.177939 0.750000
O O7 0.306878 0.153318 0.505764
O O8 0.422893 0.112891 0.520140
O O9 0.743617 0.890383 0.750000
O O10 0.817661 0.857867 0.527657
O O11 0.741369 0.969281 0.505087
O O12 0.297698 0.974697 0.750000
O O13 0.284624 0.893308 0.514510
O O14 0.374383 0.990584 0.522458
O O15 0.893006 0.825541 0.750000
O O16 0.893726 0.750000 0.000000
O O17 0.939697 0.878494 0.001851
O O18 0.271628 0.750000 0.500000
O O19 0.255344 0.819787 0.750000
O O20 0.994707 0.924852 0.250000
O O21 0.000000 0.000000 0.500000
O O22 0.500000 0.500000 0.500000
O O23 0.558682 0.531682 0.750000
#
# Coordination Sequence:
#
# PCOD9437211 Si02
#       8
#     8   8   8   8   8   8   8   8
#     4  10  20  37  59  83 108 142 183 226 278 335
#     4  10  20  35  56  83 114 148 186 230 276 329
#     4  10  21  35  56  86 115 146 183 227 277 332
#     4   9  19  36  56  81 113 148 185 229 280 330
#     4  11  24  41  59  84 114 147 186 227 277 335
#     4   9  19  35  57  83 110 143 181 226 279 331
#     4  12  26  42  59  80 109 145 184 233 281 332
#     4   9  19  35  55  79 111 148 187 228 271 323
#
# _framework density 17.944990000000001
#
# number of rings (size 3 to 8) (size 9 to 14) (size 15 to 20)
#    0.000    2.000    0.000    4.125    1.750    6.500 
#    0.000    0.625    0.000    3.000    0.000    0.000 
#    0.000    0.000    0.000    0.000    0.000    0.000 
#
# Total GULP energy -357432.505658 kJ/mol
# GULP energy per Si atom -5584.882901 kJ/mol
# Density = 1.790415 g / cm^3
# Si number density = 17.944990 Si / 1000 Ang^3
#
#
#
# Elastic Constant Matrix: (Units=GPa)
#
#
# Indices 1 2 3 4 5 6 
#
# 1 85.8164 91.4135 44.4887 0.0000 0.0000 0.0000
# 2 91.4135 209.1718 57.7232 0.0000 0.0000 0.0000
# 3 44.4887 57.7232 59.5993 0.0000 0.0000 0.0000
# 4 0.0000 0.0000 0.0000 36.6785 0.0000 0.0000
# 5 0.0000 0.0000 0.0000 0.0000 25.8975 0.0000
# 6 0.0000 0.0000 0.0000 0.0000 0.0000 24.6829
#
#
#
# Elastic Compliance Matrix: (Units=1/GPa)
#
#
# Indices 1 2 3 4 5 6 
#
# 1 0.026759 -0.008437 -0.011803 0.000000 0.000000 0.000000
# 2 -0.008437 0.009185 -0.002598 0.000000 0.000000 0.000000
# 3 -0.011803 -0.002598 0.028105 0.000000 0.000000 0.000000
# 4 0.000000 0.000000 0.000000 0.027264 0.000000 0.000000
# 5 0.000000 0.000000 0.000000 0.000000 0.038614 0.000000
# 6 0.000000 0.000000 0.000000 0.000000 0.000000 0.040514
#
#
# Mechanical properties :
#
#
# Convention : Reuss Voigt Hill
#
# Bulk Modulus (GPa) = 54.42692 82.42648 68.42670
# Shear Modulus (GPa) = 22.49803 28.18260 25.34031
#
# Velocity S-wave (km/s) = 3.54463 3.96725 3.76188
# Velocity P-wave (km/s) = 6.86646 8.18645 7.55534
#
# Compressibility (1/GPa) = 0.01837326
#
# Stress axis : x y z
#
# Youngs Moduli (GPa) = 37.37011 108.87390 35.58059
#
# Poissons Ratio (x) = 0.91860 0.41996
# Poissons Ratio (y) = 0.31530 0.09243
# Poissons Ratio (z) = 0.44108 0.28282
#
# Static dielectric constant tensor:
#      x y z
#    x 1.594410 0.000000 0.000000 
#    y 0.000000 1.624380 0.000000 
#    z 0.000000 0.000000 1.599050 
# 
# From -- ./inp_files/8542.got.cif
#   From: 2010.05.17/outbox.cif.g08.bks.cpg/sg57_5_cif.got.tgz:8542.got - 2010.06.03 13:58:18.
