data_PCOD9437968
_publ_section_title
;
Structure prediction by ZEFSAII (Michael W. Deem and Ramdas Pophale) SiO2 
 PCOD9437968
Probable space group: P B C M
;
_chemical_formula_sum "Si O2"
_cell_formula_units_Z 40
_cell_length_a 10.451264
_cell_length_b 14.278367
_cell_length_c 14.669238
_cell_angle_alpha 90.000000
_cell_angle_beta 90.000000
_cell_angle_gamma 90.000000
_cell_volume 2189.046130
_symmetry_space_group_name_H-M "P B C M"
_symmetry_group_IT_number 57
_symmetry_cell_setting 'orthorhombic'
loop_
_space_group_symop_operation_xyz
x,y,z
-x,-y,1/2+z
x,1/2-y,-z
-x,1/2+y,1/2-z
-x,-y,-z
x,y,1/2-z
-x,1/2+y,z
x,1/2-y,1/2+z
loop_
_atom_site_type_symbol
_atom_site_label
_atom_site_fract_x
_atom_site_fract_y
_atom_site_fract_z
Si Si1 0.165271 0.492960 0.068458
Si Si2 0.882594 0.191102 0.750000
Si Si3 0.440878 0.629360 0.250000
Si Si4 0.051421 0.852712 0.045637
Si Si5 0.540228 0.980353 0.397405
Si Si6 0.577304 0.156912 0.750000
Si Si7 0.133775 0.905910 0.750000
O O1 0.307191 0.463319 0.096966
O O2 0.101899 0.536236 0.159812
O O3 0.081149 0.408351 0.029275
O O4 0.159997 0.579861 0.997913
O O5 0.933162 0.153758 0.654057
O O6 0.730385 0.169982 0.750000
O O7 0.918890 0.301314 0.750000
O O8 0.486307 0.573866 0.161251
O O9 0.475023 0.737434 0.250000
O O10 0.286997 0.613934 0.250000
O O11 0.056096 0.750000 0.000000
O O12 0.471376 0.898966 0.339365
O O13 0.500000 0.000000 0.500000
#
# Coordination Sequence:
#
# PCOD9437968 Si02
#       7
#     8   4   4   8   8   4   4
#     4  10  21  38  59  84 118 153 191 237 294 345
#     4  11  20  35  61  87 110 146 199 238 286 336
#     4   8  19  34  54  83 107 147 195 230 277 343
#     4  11  22  37  59  87 117 151 197 245 284 349
#     4  10  20  38  60  82 117 155 189 237 293 343
#     4  10  21  37  58  88 116 142 195 246 276 347
#     4   9  16  34  59  78 107 147 189 234 279 336
#
# _framework density 18.2728
#
# number of rings (size 3 to 8) (size 9 to 14) (size 15 to 20)
#    0.000    2.000    2.000    2.400    0.000    0.800 
#    3.600    0.000    0.000    0.000    0.000    0.000 
#    0.000    0.000    0.000    0.000    0.000    0.000 
#
# Total GULP energy -222950.693238 kJ/mol
# GULP energy per Si atom -5573.767331 kJ/mol
# Density = 1.823121 g / cm^3
# Si number density = 18.272800 Si / 1000 Ang^3
#
#
#
# Elastic Constant Matrix: (Units=GPa)
#
#
# Indices 1 2 3 4 5 6 
#
# 1 46.8363 32.3319 4.4096 0.0000 0.0000 0.0000
# 2 32.3319 133.9572 48.4747 0.0000 0.0000 0.0000
# 3 4.4096 48.4747 138.0568 0.0000 0.0000 0.0000
# 4 0.0000 0.0000 0.0000 14.0968 0.0000 0.0000
# 5 0.0000 0.0000 0.0000 0.0000 27.9798 0.0000
# 6 0.0000 0.0000 0.0000 0.0000 0.0000 20.8049
#
#
#
# Elastic Compliance Matrix: (Units=1/GPa)
#
#
# Indices 1 2 3 4 5 6 
#
# 1 0.025912 -0.006821 0.001567 0.000000 0.000000 0.000000
# 2 -0.006821 0.010347 -0.003415 0.000000 0.000000 0.000000
# 3 0.001567 -0.003415 0.008393 0.000000 0.000000 0.000000
# 4 0.000000 0.000000 0.000000 0.070938 0.000000 0.000000
# 5 0.000000 0.000000 0.000000 0.000000 0.035740 0.000000
# 6 0.000000 0.000000 0.000000 0.000000 0.000000 0.048066
#
#
# Mechanical properties :
#
#
# Convention : Reuss Voigt Hill
#
# Bulk Modulus (GPa) = 36.61160 54.36474 45.48817
# Shear Modulus (GPa) = 22.13965 28.15190 25.14578
#
# Velocity S-wave (km/s) = 3.48461 3.92936 3.71365
# Velocity P-wave (km/s) = 6.02242 7.09950 6.58303
#
# Compressibility (1/GPa) = 0.02731375
#
# Stress axis : x y z
#
# Youngs Moduli (GPa) = 38.59171 96.64294 119.15377
#
# Poissons Ratio (x) = 0.65924 -0.18677
# Poissons Ratio (y) = 0.26325 0.40695
# Poissons Ratio (z) = -0.06049 0.33007
#
# Static dielectric constant tensor:
#      x y z
#    x 1.628010 0.000000 0.000000 
#    y 0.000000 1.627940 0.000000 
#    z 0.000000 0.000000 1.641420 
# 
# From -- ./inp_files/12783.got.cif
#   From: 2010.05.17/outbox.cif.g08.bks.cpg/sg57_7_cif.got.tgz:12783.got - 2010.06.03 13:58:18.
