data_PCOD9437081
_publ_section_title
;
Structure prediction by ZEFSAII (Michael W. Deem and Ramdas Pophale) SiO2 
 PCOD9437081
Probable space group: P B C M
;
_chemical_formula_sum "Si O2"
_cell_formula_units_Z 48
_cell_length_a 31.870772
_cell_length_b 9.251343
_cell_length_c 8.577031
_cell_angle_alpha 90.000000
_cell_angle_beta 90.000000
_cell_angle_gamma 90.000000
_cell_volume 2528.915663
_symmetry_space_group_name_H-M "P B C M"
_symmetry_group_IT_number 57
_symmetry_cell_setting 'orthorhombic'
loop_
_space_group_symop_operation_xyz
x,y,z
-x,-y,1/2+z
x,1/2-y,-z
-x,1/2+y,1/2-z
-x,-y,-z
x,y,1/2-z
-x,1/2+y,z
x,1/2-y,1/2+z
loop_
_atom_site_type_symbol
_atom_site_label
_atom_site_fract_x
_atom_site_fract_y
_atom_site_fract_z
Si Si1 0.867638 0.587024 0.938241
Si Si2 0.620385 0.413314 0.937827
Si Si3 0.540180 0.913450 0.563319
Si Si4 0.039168 0.087938 0.563398
Si Si5 0.213836 0.588079 0.061333
Si Si6 0.703891 0.587650 0.562047
O O1 0.866548 0.592938 0.750000
O O2 0.914259 0.533884 0.984565
O O3 0.829615 0.485955 0.991140
O O4 0.862200 0.750000 0.000000
O O5 0.617803 0.411434 0.750000
O O6 0.663566 0.492914 0.984467
O O7 0.619504 0.250000 0.000000
O O8 0.581554 0.503752 0.004856
O O9 0.539854 0.750000 0.500000
O O10 0.539232 0.910990 0.750000
O O11 0.500000 0.000000 0.500000
O O12 0.036203 0.250000 0.500000
O O13 0.037576 0.088673 0.750000
O O14 0.000000 0.000000 0.500000
O O15 0.213926 0.591527 0.250000
O O16 0.253375 0.491084 0.010319
O O17 0.217708 0.750000 0.000000
O O18 0.701107 0.750000 0.500000
O O19 0.704361 0.593468 0.750000
#
# Coordination Sequence:
#
# PCOD9437081 Si02
#       6
#     8   8   8   8   8   8
#     4   9  19  35  55  78 106 139 181 225 272 328
#     4  11  23  40  61  89 121 156 195 238 286 339
#     4  12  25  43  65  91 122 158 198 243 291 343
#     4  10  20  35  54  78 107 142 181 227 277 332
#     4  10  21  37  55  81 112 144 182 227 275 329
#     4  10  22  38  59  85 115 149 189 232 279 333
#
# _framework density 18.980467000000001
#
# number of rings (size 3 to 8) (size 9 to 14) (size 15 to 20)
#    0.000    1.667    0.000    4.500    0.000    5.333 
#    0.000    1.667    0.000    0.000    0.000    0.000 
#    0.000    0.000    0.000    0.000    0.000    0.000 
#
# Total GULP energy -268259.180764 kJ/mol
# GULP energy per Si atom -5588.732933 kJ/mol
# Density = 1.893727 g / cm^3
# Si number density = 18.980467 Si / 1000 Ang^3
#
#
#
# Elastic Constant Matrix: (Units=GPa)
#
#
# Indices 1 2 3 4 5 6 
#
# 1 215.2450 121.2031 57.1579 0.0000 0.0000 0.0000
# 2 121.2031 173.6376 44.4579 0.0000 0.0000 0.0000
# 3 57.1579 44.4579 60.9698 0.0000 0.0000 0.0000
# 4 0.0000 0.0000 0.0000 39.9926 0.0000 0.0000
# 5 0.0000 0.0000 0.0000 0.0000 24.0031 0.0000
# 6 0.0000 0.0000 0.0000 0.0000 0.0000 43.5198
#
#
#
# Elastic Compliance Matrix: (Units=1/GPa)
#
#
# Indices 1 2 3 4 5 6 
#
# 1 0.008556 -0.004818 -0.004508 0.000000 0.000000 0.000000
# 2 -0.004818 0.009794 -0.002625 0.000000 0.000000 0.000000
# 3 -0.004508 -0.002625 0.022542 0.000000 0.000000 0.000000
# 4 0.000000 0.000000 0.000000 0.025005 0.000000 0.000000
# 5 0.000000 0.000000 0.000000 0.000000 0.041661 0.000000
# 6 0.000000 0.000000 0.000000 0.000000 0.000000 0.022978
#
#
# Mechanical properties :
#
#
# Convention : Reuss Voigt Hill
#
# Bulk Modulus (GPa) = 58.85742 99.49889 79.17816
# Shear Modulus (GPa) = 31.23031 36.63866 33.93449
#
# Velocity S-wave (km/s) = 4.06074 4.39832 4.23290
# Velocity P-wave (km/s) = 7.28443 8.85038 8.10531
#
# Compressibility (1/GPa) = 0.01699021
#
# Stress axis : x y z
#
# Youngs Moduli (GPa) = 116.87807 102.09969 44.36244
#
# Poissons Ratio (x) = 0.49192 0.19998
# Poissons Ratio (y) = 0.56313 0.11645
# Poissons Ratio (z) = 0.52686 0.26801
#
# Static dielectric constant tensor:
#      x y z
#    x 1.666440 0.000000 0.000000 
#    y 0.000000 1.600630 0.000000 
#    z 0.000000 0.000000 1.648370 
# 
# From -- ./inp_files/9972.got.cif
#   From: 2010.05.17/outbox.cif.g08.bks.cpg/sg57_5_cif.got.tgz:9972.got - 2010.06.03 13:58:18.
