data_PCOD9437557
_publ_section_title
;
Structure prediction by ZEFSAII (Michael W. Deem and Ramdas Pophale) SiO2 
 PCOD9437557
Probable space group: P B C M
;
_chemical_formula_sum "Si O2"
_cell_formula_units_Z 64
_cell_length_a 21.506147
_cell_length_b 18.966799
_cell_length_c 8.690403
_cell_angle_alpha 90.000000
_cell_angle_beta 90.000000
_cell_angle_gamma 90.000000
_cell_volume 3544.839434
_symmetry_space_group_name_H-M "P B C M"
_symmetry_group_IT_number 57
_symmetry_cell_setting 'orthorhombic'
loop_
_space_group_symop_operation_xyz
x,y,z
-x,-y,1/2+z
x,1/2-y,-z
-x,1/2+y,1/2-z
-x,-y,-z
x,y,1/2-z
-x,1/2+y,z
x,1/2-y,1/2+z
loop_
_atom_site_type_symbol
_atom_site_label
_atom_site_fract_x
_atom_site_fract_y
_atom_site_fract_z
Si Si1 0.119157 0.672785 0.934754
Si Si2 0.937291 0.466503 0.934033
Si Si3 0.503752 0.078091 0.435157
Si Si4 0.612885 0.826395 0.564999
Si Si5 0.747392 0.106146 0.934328
Si Si6 0.186367 0.036953 0.434950
Si Si7 0.250758 0.172665 0.933855
Si Si8 0.621654 0.171169 0.434358
O O1 0.113998 0.671694 0.750000
O O2 0.190282 0.650167 0.974214
O O3 0.106304 0.750000 0.000000
O O4 0.074989 0.612684 0.004884
O O5 0.938305 0.466706 0.750000
O O6 0.878736 0.511254 0.995848
O O7 0.000000 0.500000 0.000000
O O8 0.506629 0.074708 0.250000
O O9 0.440925 0.119361 0.476670
O O10 0.564075 0.122334 0.487558
O O11 0.500000 0.000000 0.500000
O O12 0.595063 0.750000 0.500000
O O13 0.619092 0.823151 0.750000
O O14 0.679531 0.843973 0.492674
O O15 0.739007 0.110870 0.750000
O O16 0.763773 0.024935 0.972887
O O17 0.686605 0.136425 0.014510
O O18 0.181738 0.039858 0.250000
O O19 0.207050 0.111356 0.502247
O O20 0.249643 0.174993 0.750000
O O21 0.234981 0.250000 0.000000
O O22 0.616591 0.250000 0.500000
O O23 0.619705 0.175341 0.250000
#
# Coordination Sequence:
#
# PCOD9437557 Si02
#       8
#     8   8   8   8   8   8   8   8
#     4  10  20  36  58  87 120 156 198 242 289 340
#     4  11  22  39  62  89 121 160 200 238 285 339
#     4  10  24  40  55  78 107 143 187 235 286 343
#     4  10  20  37  58  80 106 142 187 235 289 345
#     4   9  20  36  57  84 115 151 187 230 284 337
#     4  10  21  39  61  87 119 153 192 237 286 338
#     4  11  22  37  59  87 116 149 190 238 292 347
#     4  11  23  38  56  81 111 145 187 231 283 342
#
# _framework density 18.054414999999999
#
# number of rings (size 3 to 8) (size 9 to 14) (size 15 to 20)
#    0.000    1.750    0.000    6.000    1.750    6.000 
#    0.000    0.625    0.000    0.000    0.000    0.000 
#    0.000    0.000    0.000    0.000    0.000    0.000 
#
# Total GULP energy -357605.295100 kJ/mol
# GULP energy per Si atom -5587.582736 kJ/mol
# Density = 1.801332 g / cm^3
# Si number density = 18.054415 Si / 1000 Ang^3
#
#
#
# Elastic Constant Matrix: (Units=GPa)
#
#
# Indices 1 2 3 4 5 6 
#
# 1 98.7535 117.6349 54.2701 0.0000 0.0000 0.0000
# 2 117.6349 169.2068 72.4681 0.0000 0.0000 0.0000
# 3 54.2701 72.4681 97.8579 0.0000 0.0000 0.0000
# 4 0.0000 0.0000 0.0000 34.7419 0.0000 0.0000
# 5 0.0000 0.0000 0.0000 0.0000 31.2971 0.0000
# 6 0.0000 0.0000 0.0000 0.0000 0.0000 25.7745
#
#
#
# Elastic Compliance Matrix: (Units=1/GPa)
#
#
# Indices 1 2 3 4 5 6 
#
# 1 0.059717 -0.040027 -0.003476 0.000000 0.000000 0.000000
# 2 -0.040027 0.035485 -0.004080 0.000000 0.000000 0.000000
# 3 -0.003476 -0.004080 0.015168 0.000000 0.000000 0.000000
# 4 0.000000 0.000000 0.000000 0.028784 0.000000 0.000000
# 5 0.000000 0.000000 0.000000 0.000000 0.031952 0.000000
# 6 0.000000 0.000000 0.000000 0.000000 0.000000 0.038798
#
#
# Mechanical properties :
#
#
# Convention : Reuss Voigt Hill
#
# Bulk Modulus (GPa) = 65.77351 94.95159 80.36255
# Shear Modulus (GPa) = 16.12200 26.45904 21.29052
#
# Velocity S-wave (km/s) = 2.99150 3.83236 3.43773
# Velocity P-wave (km/s) = 6.96002 8.50228 7.76951
#
# Compressibility (1/GPa) = 0.01520369
#
# Stress axis : x y z
#
# Youngs Moduli (GPa) = 16.74578 28.18128 65.92987
#
# Poissons Ratio (x) = 1.12802 0.22916
# Poissons Ratio (y) = 0.67029 0.26897
# Poissons Ratio (z) = 0.05820 0.11497
#
# Static dielectric constant tensor:
#      x y z
#    x 1.605660 0.000000 0.000000 
#    y 0.000000 1.607950 0.000000 
#    z 0.000000 0.000000 1.605700 
# 
# From -- ./inp_files/8539.got.cif
#   From: 2010.05.17/outbox.cif.g08.bks.cpg/sg57_5_cif.got.tgz:8539.got - 2010.06.03 13:58:18.
