data_PCOD9437480
_publ_section_title
;
Structure prediction by ZEFSAII (Michael W. Deem and Ramdas Pophale) SiO2 
 PCOD9437480
Probable space group: P B C M
;
_chemical_formula_sum "Si O2"
_cell_formula_units_Z 56
_cell_length_a 20.832845
_cell_length_b 15.977867
_cell_length_c 8.516856
_cell_angle_alpha 90.000000
_cell_angle_beta 90.000000
_cell_angle_gamma 90.000000
_cell_volume 2834.958389
_symmetry_space_group_name_H-M "P B C M"
_symmetry_group_IT_number 57
_symmetry_cell_setting 'orthorhombic'
loop_
_space_group_symop_operation_xyz
x,y,z
-x,-y,1/2+z
x,1/2-y,-z
-x,1/2+y,1/2-z
-x,-y,-z
x,y,1/2-z
-x,1/2+y,z
x,1/2-y,1/2+z
loop_
_atom_site_type_symbol
_atom_site_label
_atom_site_fract_x
_atom_site_fract_y
_atom_site_fract_z
Si Si1 0.802966 0.655675 0.938687
Si Si2 0.067399 0.898061 0.928147
Si Si3 0.572360 0.998062 0.938693
Si Si4 0.799491 0.157051 0.935364
Si Si5 0.342207 0.345598 0.061901
Si Si6 0.658982 0.154278 0.940298
Si Si7 0.932237 0.922757 0.562174
O O1 0.811515 0.651302 0.750000
O O2 0.730885 0.625312 0.977505
O O3 0.803674 0.750000 0.000000
O O4 0.862663 0.613140 0.024320
O O5 0.079045 0.871953 0.750000
O O6 0.995862 0.866872 0.973504
O O7 0.131794 0.878984 0.020350
O O8 0.061580 0.997503 0.949263
O O9 0.572747 0.997293 0.750000
O O10 0.608731 0.083401 0.991305
O O11 0.500000 0.000000 0.000000
O O12 0.609006 0.914681 0.996799
O O13 0.795960 0.156333 0.750000
O O14 0.730433 0.122966 0.991889
O O15 0.800320 0.250000 0.000000
O O16 0.347184 0.342056 0.250000
O O17 0.351477 0.250000 0.000000
O O18 0.657107 0.158378 0.750000
O O19 0.648905 0.250000 0.000000
O O20 0.936164 0.942666 0.750000
#
# Coordination Sequence:
#
# PCOD9437480 Si02
#       7
#     8   8   8   8   8   8   8
#     4  10  21  37  58  85 114 148 194 242 294 353
#     4  10  21  36  53  78 110 148 193 241 292 348
#     4  11  24  42  64  94 128 163 204 248 297 364
#     4  10  20  36  57  83 111 147 190 238 293 349
#     4  10  22  41  64  93 125 162 204 252 307 363
#     4   9  21  40  62  90 122 158 200 247 300 354
#     4  10  21  36  54  77 110 150 192 240 294 348
#
# _framework density 19.753377
#
# number of rings (size 3 to 8) (size 9 to 14) (size 15 to 20)
#    0.000    2.000    0.000    2.571    2.000    6.286 
#    0.000    1.429    0.000    0.000    0.000    0.000 
#    0.000    0.000    0.000    0.000    0.000    0.000 
#
# Total GULP energy -312044.445499 kJ/mol
# GULP energy per Si atom -5572.222241 kJ/mol
# Density = 1.970842 g / cm^3
# Si number density = 19.753377 Si / 1000 Ang^3
#
#
#
# Elastic Constant Matrix: (Units=GPa)
#
#
# Indices 1 2 3 4 5 6 
#
# 1 195.6932 77.6072 50.7380 0.0000 0.0000 0.0000
# 2 77.6072 69.2697 19.3993 0.0000 0.0000 0.0000
# 3 50.7380 19.3993 48.4753 0.0000 0.0000 0.0000
# 4 0.0000 0.0000 0.0000 31.9876 0.0000 0.0000
# 5 0.0000 0.0000 0.0000 0.0000 32.9349 0.0000
# 6 0.0000 0.0000 0.0000 0.0000 0.0000 99.8898
#
#
#
# Elastic Compliance Matrix: (Units=1/GPa)
#
#
# Indices 1 2 3 4 5 6 
#
# 1 0.011211 -0.010444 -0.007554 0.000000 0.000000 0.000000
# 2 -0.010444 0.025989 0.000531 0.000000 0.000000 0.000000
# 3 -0.007554 0.000531 0.028323 0.000000 0.000000 0.000000
# 4 0.000000 0.000000 0.000000 0.031262 0.000000 0.000000
# 5 0.000000 0.000000 0.000000 0.000000 0.030363 0.000000
# 6 0.000000 0.000000 0.000000 0.000000 0.000000 0.010011
#
#
# Mechanical properties :
#
#
# Convention : Reuss Voigt Hill
#
# Bulk Modulus (GPa) = 32.69199 67.65858 50.17528
# Shear Modulus (GPa) = 27.42888 44.00869 35.71879
#
# Velocity S-wave (km/s) = 3.73039 4.72519 4.25695
# Velocity P-wave (km/s) = 5.92794 8.00599 7.04402
#
# Compressibility (1/GPa) = 0.03058853
#
# Stress axis : x y z
#
# Youngs Moduli (GPa) = 89.20088 38.47777 35.30668
#
# Poissons Ratio (x) = 0.40188 0.26671
# Poissons Ratio (y) = 0.93165 -0.01876
# Poissons Ratio (z) = 0.67384 -0.02045
#
# Static dielectric constant tensor:
#      x y z
#    x 1.793330 0.000000 0.000000 
#    y 0.000000 1.670740 0.000000 
#    z 0.000000 0.000000 1.682510 
# 
# From -- ./inp_files/8053.got.cif
#   From: 2010.05.17/outbox.cif.g08.bks.cpg/sg57_5_cif.got.tgz:8053.got - 2010.06.03 13:58:18.
