data_PCOD9437041
_publ_section_title
;
Structure prediction by ZEFSAII (Michael W. Deem and Ramdas Pophale) SiO2 
 PCOD9437041
Probable space group: P B C M
;
_chemical_formula_sum "Si O2"
_cell_formula_units_Z 48
_cell_length_a 32.124260
_cell_length_b 9.506543
_cell_length_c 8.386323
_cell_angle_alpha 90.000000
_cell_angle_beta 90.000000
_cell_angle_gamma 90.000000
_cell_volume 2561.104708
_symmetry_space_group_name_H-M "P B C M"
_symmetry_group_IT_number 57
_symmetry_cell_setting 'orthorhombic'
loop_
_space_group_symop_operation_xyz
x,y,z
-x,-y,1/2+z
x,1/2-y,-z
-x,1/2+y,1/2-z
-x,-y,-z
x,y,1/2-z
-x,1/2+y,z
x,1/2-y,1/2+z
loop_
_atom_site_type_symbol
_atom_site_label
_atom_site_fract_x
_atom_site_fract_y
_atom_site_fract_z
Si Si1 0.801469 0.909794 0.557262
Si Si2 0.880137 0.089994 0.557189
Si Si3 0.369568 0.909660 0.442750
Si Si4 0.960534 0.910831 0.941309
Si Si5 0.708216 0.908802 0.942694
Si Si6 0.538520 0.090372 0.559416
O O1 0.808987 0.750000 0.500000
O O2 0.802151 0.907806 0.750000
O O3 0.754791 0.953154 0.505623
O O4 0.837463 0.015265 0.502335
O O5 0.883905 0.250000 0.500000
O O6 0.880108 0.091492 0.750000
O O7 0.918949 0.993358 0.504964
O O8 0.365894 0.750000 0.500000
O O9 0.368873 0.911630 0.250000
O O10 0.415519 0.962133 0.493845
O O11 0.330145 0.997861 0.501464
O O12 0.960819 0.908559 0.750000
O O13 0.961499 0.750000 0.000000
O O14 0.000000 0.000000 0.000000
O O15 0.707816 0.911465 0.750000
O O16 0.702496 0.750000 0.000000
O O17 0.534449 0.250000 0.500000
O O18 0.538152 0.090273 0.750000
O O19 0.500000 0.000000 0.500000
#
# Coordination Sequence:
#
# PCOD9437041 Si02
#       6
#     8   8   8   8   8   8
#     4   9  18  34  54  76 103 135 171 211 255 303
#     4  10  22  37  54  79 109 140 175 216 260 308
#     4   9  19  34  51  73 101 132 166 206 251 301
#     4  11  23  39  59  83 111 143 180 221 266 314
#     4   9  18  33  52  75 103 133 168 209 252 301
#     4  10  20  35  53  74 101 133 170 211 257 307
#
# _framework density 18.741911999999999
#
# number of rings (size 3 to 8) (size 9 to 14) (size 15 to 20)
#    0.000    2.333    0.000    2.000    0.000    6.000 
#    0.000    1.667    0.000    0.000    0.000    0.000 
#    0.000    0.000    0.000    0.000    0.000    0.000 
#
# Total GULP energy -267830.522025 kJ/mol
# GULP energy per Si atom -5579.802542 kJ/mol
# Density = 1.869925 g / cm^3
# Si number density = 18.741912 Si / 1000 Ang^3
#
#
#
# Elastic Constant Matrix: (Units=GPa)
#
#
# Indices 1 2 3 4 5 6 
#
# 1 221.2061 124.5952 31.9833 0.0000 0.0000 0.0000
# 2 124.5952 129.1071 18.3863 0.0000 0.0000 0.0000
# 3 31.9833 18.3863 14.7567 0.0000 0.0000 0.0000
# 4 0.0000 0.0000 0.0000 34.6804 0.0000 0.0000
# 5 0.0000 0.0000 0.0000 0.0000 19.9392 0.0000
# 6 0.0000 0.0000 0.0000 0.0000 0.0000 42.9238
#
#
#
# Elastic Compliance Matrix: (Units=1/GPa)
#
#
# Indices 1 2 3 4 5 6 
#
# 1 0.011868 -0.009470 -0.013922 0.000000 0.000000 0.000000
# 2 -0.009470 0.016974 -0.000622 0.000000 0.000000 0.000000
# 3 -0.013922 -0.000622 0.098716 0.000000 0.000000 0.000000
# 4 0.000000 0.000000 0.000000 0.028835 0.000000 0.000000
# 5 0.000000 0.000000 0.000000 0.000000 0.050152 0.000000
# 6 0.000000 0.000000 0.000000 0.000000 0.000000 0.023297
#
#
# Mechanical properties :
#
#
# Convention : Reuss Voigt Hill
#
# Bulk Modulus (GPa) = 12.57431 79.44439 46.00935
# Shear Modulus (GPa) = 16.42673 32.18235 24.30454
#
# Velocity S-wave (km/s) = 2.96374 4.14833 3.60502
# Velocity P-wave (km/s) = 4.29365 8.08860 6.47537
#
# Compressibility (1/GPa) = 0.07952722
#
# Stress axis : x y z
#
# Youngs Moduli (GPa) = 84.26067 58.91479 10.13004
#
# Poissons Ratio (x) = 0.55795 0.14103
# Poissons Ratio (y) = 0.79799 0.00631
# Poissons Ratio (z) = 1.17311 0.03667
#
# Static dielectric constant tensor:
#      x y z
#    x 1.683130 0.000000 0.000000 
#    y 0.000000 1.593400 0.000000 
#    z 0.000000 0.000000 1.652280 
# 
# From -- ./inp_files/9942.got.cif
#   From: 2010.05.17/outbox.cif.g08.bks.cpg/sg57_5_cif.got.tgz:9942.got - 2010.06.03 13:58:18.
