data_PCOD9437209
_publ_section_title
;
Structure prediction by ZEFSAII (Michael W. Deem and Ramdas Pophale) SiO2 
 PCOD9437209
Probable space group: P B C M
;
_chemical_formula_sum "Si O2"
_cell_formula_units_Z 48
_cell_length_a 9.881045
_cell_length_b 17.613589
_cell_length_c 15.670348
_cell_angle_alpha 90.000000
_cell_angle_beta 90.000000
_cell_angle_gamma 90.000000
_cell_volume 2727.277795
_symmetry_space_group_name_H-M "P B C M"
_symmetry_group_IT_number 57
_symmetry_cell_setting 'orthorhombic'
loop_
_space_group_symop_operation_xyz
x,y,z
-x,-y,1/2+z
x,1/2-y,-z
-x,1/2+y,1/2-z
-x,-y,-z
x,y,1/2-z
-x,1/2+y,z
x,1/2-y,1/2+z
loop_
_atom_site_type_symbol
_atom_site_label
_atom_site_fract_x
_atom_site_fract_y
_atom_site_fract_z
Si Si1 0.421562 0.476621 0.086606
Si Si2 0.843747 0.439703 0.650159
Si Si3 0.664698 0.552616 0.155387
Si Si4 0.087142 0.942896 0.152052
Si Si5 0.300429 0.339155 0.502503
Si Si6 0.973870 0.161428 0.004449
O O1 0.295456 0.530507 0.109074
O O2 0.537735 0.495549 0.154080
O O3 0.365573 0.391602 0.071861
O O4 0.500000 0.500000 0.000000
O O5 0.826899 0.417090 0.750000
O O6 0.910852 0.376788 0.588954
O O7 0.947593 0.510375 0.649173
O O8 0.687123 0.582832 0.250000
O O9 0.794791 0.502722 0.130870
O O10 0.649026 0.621031 0.089376
O O11 0.107490 0.916163 0.250000
O O12 0.082921 0.880023 0.079467
O O13 0.333759 0.250000 0.500000
O O14 0.137232 0.346980 0.502429
O O15 0.942199 0.250000 0.000000
#
# Coordination Sequence:
#
# PCOD9437209 Si02
#       6
#     8   8   8   8   8   8
#     4  10  20  36  59  83 111 148 191 236 277 338
#     4  11  21  36  59  85 115 151 197 241 283 340
#     4  10  20  37  58  81 111 149 191 232 282 341
#     4  10  20  36  59  83 111 148 192 239 283 341
#     4  10  20  35  56  83 114 145 184 235 289 348
#     4  11  21  35  57  85 118 150 189 242 300 345
#
# _framework density 17.599966999999999
#
# number of rings (size 3 to 8) (size 9 to 14) (size 15 to 20)
#    0.000    1.667    3.333    3.000    0.000    0.667 
#    0.000   11.667    0.000    2.000    0.000    0.000 
#    0.000    0.000    0.000    0.000    0.000    0.000 
#
# Total GULP energy -267562.876752 kJ/mol
# GULP energy per Si atom -5574.226599 kJ/mol
# Density = 1.755991 g / cm^3
# Si number density = 17.599967 Si / 1000 Ang^3
#
#
#
# Elastic Constant Matrix: (Units=GPa)
#
#
# Indices 1 2 3 4 5 6 
#
# 1 93.4443 33.6961 22.7851 0.0000 0.0000 0.0000
# 2 33.6961 116.0618 87.7883 0.0000 0.0000 0.0000
# 3 22.7851 87.7883 110.3600 0.0000 0.0000 0.0000
# 4 0.0000 0.0000 0.0000 7.3352 0.0000 0.0000
# 5 0.0000 0.0000 0.0000 0.0000 -26.6993 0.0000
# 6 0.0000 0.0000 0.0000 0.0000 0.0000 19.3189
#
#
#
# Elastic Compliance Matrix: (Units=1/GPa)
#
#
# Indices 1 2 3 4 5 6 
#
# 1 0.011977 -0.004034 0.000736 0.000000 0.000000 0.000000
# 2 -0.004034 0.022990 -0.017455 0.000000 0.000000 0.000000
# 3 0.000736 -0.017455 0.022794 0.000000 0.000000 0.000000
# 4 0.000000 0.000000 0.000000 0.136329 0.000000 0.000000
# 5 0.000000 0.000000 0.000000 0.000000 -0.037454 0.000000
# 6 0.000000 0.000000 0.000000 0.000000 0.000000 0.051763
#
#
# Mechanical properties :
#
#
# Convention : Reuss Voigt Hill
#
# Bulk Modulus (GPa) = 61.51846 67.60058 64.55952
# Shear Modulus (GPa) = 19.58298 11.69741 15.64019
#
# Velocity S-wave (km/s) = 3.33929 2.58083 2.98426
# Velocity P-wave (km/s) = 7.06381 6.88286 6.97392
#
# Compressibility (1/GPa) = 0.01625528
#
# Stress axis : x y z
#
# Youngs Moduli (GPa) = 83.49522 43.49639 43.87030
#
# Poissons Ratio (x) = 0.17547 -0.03230
# Poissons Ratio (y) = 0.33683 0.76577
# Poissons Ratio (z) = -0.06148 0.75924
#
# Static dielectric constant tensor:
#      x y z
#    x 1.620560 0.000000 0.000000 
#    y 0.000000 1.569460 0.000000 
#    z 0.000000 0.000000 2.523760 
# 
# From -- ./inp_files/16372.got.cif
#   From: 2010.05.17/outbox.cif.g08.bks.cpg/sg57_9_cif.got.tgz:16372.got - 2010.06.03 13:58:18.
