data_PCOD9437609
_publ_section_title
;
Structure prediction by ZEFSAII (Michael W. Deem and Ramdas Pophale) SiO2 
 PCOD9437609
Probable space group: P B C M
;
_chemical_formula_sum "Si O2"
_cell_formula_units_Z 64
_cell_length_a 9.394844
_cell_length_b 12.521496
_cell_length_c 27.337016
_cell_angle_alpha 90.000000
_cell_angle_beta 90.000000
_cell_angle_gamma 90.000000
_cell_volume 3215.858263
_symmetry_space_group_name_H-M "P B C M"
_symmetry_group_IT_number 57
_symmetry_cell_setting 'orthorhombic'
loop_
_space_group_symop_operation_xyz
x,y,z
-x,-y,1/2+z
x,1/2-y,-z
-x,1/2+y,1/2-z
-x,-y,-z
x,y,1/2-z
-x,1/2+y,z
x,1/2-y,1/2+z
loop_
_atom_site_type_symbol
_atom_site_label
_atom_site_fract_x
_atom_site_fract_y
_atom_site_fract_z
Si Si1 0.123427 0.288201 0.195597
Si Si2 0.624219 0.086040 0.647878
Si Si3 0.607465 0.135459 0.475933
Si Si4 0.746216 0.179397 0.124907
Si Si5 0.903201 0.455870 0.195743
Si Si6 0.692244 0.542328 0.450935
Si Si7 0.333084 0.487667 0.306394
Si Si8 0.932188 0.871657 0.885043
O O1 0.146397 0.241792 0.250000
O O2 0.214118 0.395785 0.191900
O O3 0.151891 0.207809 0.151700
O O4 0.963526 0.335342 0.192713
O O5 0.673849 0.206766 0.636526
O O6 0.734613 0.045353 0.688754
O O7 0.644658 0.017484 0.598718
O O8 0.466975 0.064654 0.666437
O O9 0.630222 0.250000 0.500000
O O10 0.664108 0.132434 0.421382
O O11 0.694803 0.049455 0.507945
O O12 0.437715 0.114046 0.471208
O O13 0.912215 0.180023 0.108629
O O14 0.721263 0.096068 0.168747
O O15 0.945136 0.495783 0.250000
O O16 0.955340 0.523664 0.149127
O O17 0.837520 0.600671 0.432826
O O18 0.368414 0.508668 0.250000
#
# Coordination Sequence:
#
# PCOD9437609 Si02
#       8
#     8   8   8   8   8   8   8   8
#     4  10  21  37  59  89 129 175 215 258 316 385
#     4  11  22  40  65  96 124 170 215 268 326 384
#     4  11  23  45  72  98 127 166 212 267 335 398
#     4  12  24  41  68  93 129 173 212 272 327 386
#     4  10  20  36  59  90 128 171 216 261 311 381
#     4  10  24  43  69  97 126 164 216 269 329 389
#     4  11  25  41  60  96 136 171 217 268 317 380
#     4  11  23  40  63  94 129 169 219 265 322 386
#
# _framework density 19.901375999999999
#
# number of rings (size 3 to 8) (size 9 to 14) (size 15 to 20)
#    0.000    1.250    5.000    0.750    1.750    2.000 
#    0.000    3.125    0.000    0.000    0.000    0.000 
#    0.000    0.000    0.000    0.000    0.000    0.000 
#
# Total GULP energy -356896.563209 kJ/mol
# GULP energy per Si atom -5576.508800 kJ/mol
# Density = 1.985608 g / cm^3
# Si number density = 19.901376 Si / 1000 Ang^3
#
#
#
# Elastic Constant Matrix: (Units=GPa)
#
#
# Indices 1 2 3 4 5 6 
#
# 1 63.2893 0.8284 -7.6763 0.0000 0.0000 0.0000
# 2 0.8284 53.4308 10.8186 0.0000 0.0000 0.0000
# 3 -7.6763 10.8186 43.4494 0.0000 0.0000 0.0000
# 4 0.0000 0.0000 0.0000 30.8819 0.0000 0.0000
# 5 0.0000 0.0000 0.0000 0.0000 37.0810 0.0000
# 6 0.0000 0.0000 0.0000 0.0000 0.0000 19.7673
#
#
#
# Elastic Compliance Matrix: (Units=1/GPa)
#
#
# Indices 1 2 3 4 5 6 
#
# 1 0.016185 -0.000874 0.003077 0.000000 0.000000 0.000000
# 2 -0.000874 0.019757 -0.005074 0.000000 0.000000 0.000000
# 3 0.003077 -0.005074 0.024822 0.000000 0.000000 0.000000
# 4 0.000000 0.000000 0.000000 0.032381 0.000000 0.000000
# 5 0.000000 0.000000 0.000000 0.000000 0.026968 0.000000
# 6 0.000000 0.000000 0.000000 0.000000 0.000000 0.050589
#
#
# Mechanical properties :
#
#
# Convention : Reuss Voigt Hill
#
# Bulk Modulus (GPa) = 18.17427 18.67898 18.42662
# Shear Modulus (GPa) = 25.66946 27.95931 26.81439
#
# Velocity S-wave (km/s) = 3.59532 3.75226 3.67463
# Velocity P-wave (km/s) = 5.13684 5.30836 5.22330
#
# Compressibility (1/GPa) = 0.05502286
#
# Stress axis : x y z
#
# Youngs Moduli (GPa) = 61.78519 50.61584 40.28647
#
# Poissons Ratio (x) = 0.04424 -0.12396
# Poissons Ratio (y) = 0.05400 0.20440
# Poissons Ratio (z) = -0.19012 0.25681
#
# Static dielectric constant tensor:
#      x y z
#    x 1.730440 0.000000 0.000000 
#    y 0.000000 1.729640 0.000000 
#    z 0.000000 0.000000 1.680310 
# 
# From -- ./inp_files/29610.got.cif
#   From: 2010.05.17/outbox.cif.g08.bks.cpg/sg57_15_cif.got.tgz:29610.got - 2010.06.03 13:58:18.
