data_PCOD9437710
_publ_section_title
;
Structure prediction by ZEFSAII (Michael W. Deem and Ramdas Pophale) SiO2 
 PCOD9437710
Probable space group: P B C M
;
_chemical_formula_sum "Si O2"
_cell_formula_units_Z 56
_cell_length_a 5.279485
_cell_length_b 18.928289
_cell_length_c 24.744596
_cell_angle_alpha 90.000000
_cell_angle_beta 90.000000
_cell_angle_gamma 90.000000
_cell_volume 2472.767511
_symmetry_space_group_name_H-M "P B C M"
_symmetry_group_IT_number 57
_symmetry_cell_setting 'orthorhombic'
loop_
_space_group_symop_operation_xyz
x,y,z
-x,-y,1/2+z
x,1/2-y,-z
-x,1/2+y,1/2-z
-x,-y,-z
x,y,1/2-z
-x,1/2+y,z
x,1/2-y,1/2+z
loop_
_atom_site_type_symbol
_atom_site_label
_atom_site_fract_x
_atom_site_fract_y
_atom_site_fract_z
Si Si1 0.595066 0.862219 0.597704
Si Si2 0.331982 0.564356 0.812282
Si Si3 0.693681 0.438071 0.512579
Si Si4 0.926781 0.734791 0.562544
Si Si5 0.347653 0.917534 0.689602
Si Si6 0.036173 0.481547 0.609141
Si Si7 0.412232 0.846531 0.410922
O O1 0.394454 0.870672 0.549308
O O2 0.807904 0.806271 0.585708
O O3 0.497560 0.856148 0.658608
O O4 0.705086 0.941627 0.596580
O O5 0.278347 0.584935 0.750000
O O6 0.492746 0.491286 0.808595
O O7 0.464349 0.620475 0.851824
O O8 0.089223 0.546602 0.850549
O O9 0.500000 0.500000 0.500000
O O10 0.892765 0.478373 0.552034
O O11 0.717099 0.402134 0.453392
O O12 0.981533 0.750000 0.500000
O O13 0.685217 0.680631 0.567219
O O14 0.188332 0.711630 0.590874
O O15 0.271779 0.900268 0.750000
O O16 0.117769 0.931409 0.649696
#
# Coordination Sequence:
#
# PCOD9437710 Si02
#       7
#     8   8   8   8   8   8   8
#     4  10  22  39  60  92 127 168 220 271 330 400
#     4  10  23  43  65  97 133 174 224 280 344 414
#     4  11  23  38  63  99 135 164 217 285 346 407
#     4  12  26  45  68  94 135 183 227 273 333 408
#     4   9  19  37  65  94 128 167 218 281 343 397
#     4  10  20  36  66  95 129 169 213 275 350 402
#     4  12  27  43  69 100 133 187 229 274 342 406
#
# _framework density 22.646688000000001
#
# number of rings (size 3 to 8) (size 9 to 14) (size 15 to 20)
#    0.000    1.429    1.429    4.286    8.000    1.714 
#    0.000    1.429    0.000    0.000    0.000    0.000 
#    0.000    0.000    0.000    0.000    0.000    0.000 
#
# Total GULP energy -312063.042353 kJ/mol
# GULP energy per Si atom -5572.554328 kJ/mol
# Density = 2.259514 g / cm^3
# Si number density = 22.646688 Si / 1000 Ang^3
#
#
#
# Elastic Constant Matrix: (Units=GPa)
#
#
# Indices 1 2 3 4 5 6 
#
# 1 46.0407 -4.4474 21.2665 0.0000 0.0000 0.0000
# 2 -4.4474 46.7957 28.7618 0.0000 0.0000 0.0000
# 3 21.2665 28.7618 212.4950 0.0000 0.0000 0.0000
# 4 0.0000 0.0000 0.0000 24.2901 0.0000 0.0000
# 5 0.0000 0.0000 0.0000 0.0000 24.2315 0.0000
# 6 0.0000 0.0000 0.0000 0.0000 0.0000 29.0160
#
#
#
# Elastic Compliance Matrix: (Units=1/GPa)
#
#
# Indices 1 2 3 4 5 6 
#
# 1 0.023440 0.004003 -0.002888 0.000000 0.000000 0.000000
# 2 0.004003 0.023992 -0.003648 0.000000 0.000000 0.000000
# 3 -0.002888 -0.003648 0.005489 0.000000 0.000000 0.000000
# 4 0.000000 0.000000 0.000000 0.041169 0.000000 0.000000
# 5 0.000000 0.000000 0.000000 0.000000 0.041269 0.000000
# 6 0.000000 0.000000 0.000000 0.000000 0.000000 0.034464
#
#
# Mechanical properties :
#
#
# Convention : Reuss Voigt Hill
#
# Bulk Modulus (GPa) = 20.89645 44.05481 32.47563
# Shear Modulus (GPa) = 26.19993 32.82424 29.51208
#
# Velocity S-wave (km/s) = 3.40501 3.81124 3.61384
# Velocity P-wave (km/s) = 4.97051 6.23399 5.63776
#
# Compressibility (1/GPa) = 0.04785502
#
# Stress axis : x y z
#
# Youngs Moduli (GPa) = 42.66145 41.68056 182.19075
#
# Poissons Ratio (x) = -0.16683 0.52611
# Poissons Ratio (y) = -0.17076 0.66463
# Poissons Ratio (z) = 0.12319 0.15205
#
# Static dielectric constant tensor:
#      x y z
#    x 1.963000 0.000000 0.000000 
#    y 0.000000 1.972130 0.000000 
#    z 0.000000 0.000000 1.975960 
# 
# From -- ./inp_files/26304.got.cif
#   From: 2010.05.17/outbox.cif.g08.bks.cpg/sg57_14_cif.got.tgz:26304.got - 2010.06.03 13:58:18.
