data_PCOD9437221
_publ_section_title
;
Structure prediction by ZEFSAII (Michael W. Deem and Ramdas Pophale) SiO2 
 PCOD9437221
Probable space group: P B C M
;
_chemical_formula_sum "Si O2"
_cell_formula_units_Z 64
_cell_length_a 12.051906
_cell_length_b 30.769376
_cell_length_c 8.330301
_cell_angle_alpha 90.000000
_cell_angle_beta 90.000000
_cell_angle_gamma 90.000000
_cell_volume 3089.122415
_symmetry_space_group_name_H-M "P B C M"
_symmetry_group_IT_number 57
_symmetry_cell_setting 'orthorhombic'
loop_
_space_group_symop_operation_xyz
x,y,z
-x,-y,1/2+z
x,1/2-y,-z
-x,1/2+y,1/2-z
-x,-y,-z
x,y,1/2-z
-x,1/2+y,z
x,1/2-y,1/2+z
loop_
_atom_site_type_symbol
_atom_site_label
_atom_site_fract_x
_atom_site_fract_y
_atom_site_fract_z
Si Si1 0.604503 0.648848 0.058140
Si Si2 0.567966 0.556642 0.560133
Si Si3 0.672649 0.469515 0.440360
Si Si4 0.184886 0.201464 0.056883
Si Si5 0.994379 0.867946 0.937692
Si Si6 0.602484 0.295289 0.558789
Si Si7 0.924953 0.040131 0.940930
Si Si8 0.151823 0.702496 0.937135
O O1 0.616032 0.642347 0.250000
O O2 0.692578 0.685564 0.010756
O O3 0.481989 0.666350 0.025228
O O4 0.620211 0.603255 0.972520
O O5 0.567176 0.546937 0.750000
O O6 0.638285 0.519338 0.473173
O O7 0.438871 0.555510 0.500506
O O8 0.677993 0.461131 0.250000
O O9 0.796724 0.460324 0.505397
O O10 0.175935 0.202133 0.250000
O O11 0.103794 0.163058 0.997691
O O12 0.159723 0.250000 0.000000
O O13 0.974120 0.876024 0.750000
O O14 0.017225 0.914136 0.017491
O O15 0.099317 0.836543 0.963418
O O16 0.550516 0.250000 0.500000
O O17 0.624430 0.293077 0.750000
O O18 0.716671 0.299581 0.463987
O O19 0.917467 0.036062 0.750000
O O20 0.000000 0.000000 0.000000
O O21 0.124163 0.698212 0.750000
O O22 0.115233 0.750000 0.000000
#
# Coordination Sequence:
#
# PCOD9437221 Si02
#       8
#     8   8   8   8   8   8   8   8
#     4  10  22  38  58  87 123 160 198 246 306 365
#     4  10  21  37  62  94 120 155 202 250 302 365
#     4   9  21  42  63  86 123 161 198 248 311 365
#     4  10  23  42  64  89 123 163 206 256 310 366
#     4  11  24  42  64  92 123 161 208 256 310 372
#     4  10  20  35  56  84 118 157 197 241 296 358
#     4  11  25  44  66  93 127 166 207 258 311 369
#     4  11  22  38  61  89 124 162 203 254 308 366
#
# _framework density 20.717859000000001
#
# number of rings (size 3 to 8) (size 9 to 14) (size 15 to 20)
#    0.000    1.750    0.000    4.125    3.500    5.000 
#    0.000    0.000    0.000    0.000    0.000    0.000 
#    0.000    0.000    0.000    0.000    0.000    0.000 
#
# Total GULP energy -357371.752085 kJ/mol
# GULP energy per Si atom -5583.933626 kJ/mol
# Density = 2.067070 g / cm^3
# Si number density = 20.717859 Si / 1000 Ang^3
#
#
#
# Elastic Constant Matrix: (Units=GPa)
#
#
# Indices 1 2 3 4 5 6 
#
# 1 76.2752 38.9631 3.6924 0.0000 0.0000 0.0000
# 2 38.9631 115.1829 -2.4226 0.0000 0.0000 0.0000
# 3 3.6924 -2.4226 7.1987 0.0000 0.0000 0.0000
# 4 0.0000 0.0000 0.0000 36.0653 0.0000 0.0000
# 5 0.0000 0.0000 0.0000 0.0000 14.0324 0.0000
# 6 0.0000 0.0000 0.0000 0.0000 0.0000 15.8525
#
#
#
# Elastic Compliance Matrix: (Units=1/GPa)
#
#
# Indices 1 2 3 4 5 6 
#
# 1 0.016598 -0.005835 -0.010478 0.000000 0.000000 0.000000
# 2 -0.005835 0.010795 0.006626 0.000000 0.000000 0.000000
# 3 -0.010478 0.006626 0.146518 0.000000 0.000000 0.000000
# 4 0.000000 0.000000 0.000000 0.027727 0.000000 0.000000
# 5 0.000000 0.000000 0.000000 0.000000 0.071264 0.000000
# 6 0.000000 0.000000 0.000000 0.000000 0.000000 0.063082
#
#
# Mechanical properties :
#
#
# Convention : Reuss Voigt Hill
#
# Bulk Modulus (GPa) = 6.47090 31.01363 18.74227
# Shear Modulus (GPa) = 12.28893 23.75163 18.02028
#
# Velocity S-wave (km/s) = 2.43812 3.38957 2.95243
# Velocity P-wave (km/s) = 3.32506 5.50645 4.54846
#
# Compressibility (1/GPa) = 0.15453795
#
# Stress axis : x y z
#
# Youngs Moduli (GPa) = 60.24696 92.63496 6.82510
#
# Poissons Ratio (x) = 0.54054 0.07151
# Poissons Ratio (y) = 0.35155 -0.04522
# Poissons Ratio (z) = 0.63124 -0.61379
#
# Static dielectric constant tensor:
#      x y z
#    x 1.791300 0.000000 0.000000 
#    y 0.000000 1.629530 0.000000 
#    z 0.000000 0.000000 1.762920 
# 
# From -- ./inp_files/3768.got.cif
#   From: 2010.05.17/outbox.cif.g08.bks.cpg/sg57_2_cif.got.tgz:3768.got - 2010.06.03 13:58:18.
