data_PCOD9437282
_publ_section_title
;
Structure prediction by ZEFSAII (Michael W. Deem and Ramdas Pophale) SiO2 
 PCOD9437282
Probable space group: P B C M
;
_chemical_formula_sum "Si O2"
_cell_formula_units_Z 64
_cell_length_a 12.556187
_cell_length_b 30.757574
_cell_length_c 9.206030
_cell_angle_alpha 90.000000
_cell_angle_beta 90.000000
_cell_angle_gamma 90.000000
_cell_volume 3555.349000
_symmetry_space_group_name_H-M "P B C M"
_symmetry_group_IT_number 57
_symmetry_cell_setting 'orthorhombic'
loop_
_space_group_symop_operation_xyz
x,y,z
-x,-y,1/2+z
x,1/2-y,-z
-x,1/2+y,1/2-z
-x,-y,-z
x,y,1/2-z
-x,1/2+y,z
x,1/2-y,1/2+z
loop_
_atom_site_type_symbol
_atom_site_label
_atom_site_fract_x
_atom_site_fract_y
_atom_site_fract_z
Si Si1 0.615724 0.094143 0.915199
Si Si2 0.859359 0.208932 0.587646
Si Si3 0.637514 0.587788 0.922578
Si Si4 0.889465 0.790999 0.413182
Si Si5 0.006744 0.952371 0.925021
Si Si6 0.611237 0.994958 0.916981
Si Si7 0.833843 0.878065 0.923793
Si Si8 0.816908 0.380154 0.922246
O O1 0.629561 0.111098 0.750000
O O2 0.489044 0.095353 0.948667
O O3 0.652569 0.043691 0.912052
O O4 0.694017 0.114638 0.031264
O O5 0.812909 0.250000 0.500000
O O6 0.813587 0.205395 0.750000
O O7 0.851669 0.163579 0.503330
O O8 0.985023 0.217677 0.602984
O O9 0.653457 0.589164 0.750000
O O10 0.669299 0.540634 0.987289
O O11 0.716221 0.618695 0.008686
O O12 0.842125 0.750000 0.500000
O O13 0.844720 0.795969 0.250000
O O14 0.881112 0.834858 0.505312
O O15 0.007731 0.958868 0.750000
O O16 0.110234 0.922270 0.963402
O O17 0.906685 0.920372 0.960168
O O18 0.000000 0.000000 0.000000
O O19 0.598809 0.979863 0.750000
O O20 0.500000 0.000000 0.000000
O O21 0.831321 0.875023 0.750000
O O22 0.829236 0.375022 0.750000
#
# Coordination Sequence:
#
# PCOD9437282 Si02
#       8
#     8   8   8   8   8   8   8   8
#     4   9  20  36  53  76 107 144 186 233 280 328
#     4  10  20  35  58  85 113 145 181 228 280 332
#     4  10  21  36  54  78 108 144 190 237 281 332
#     4  10  20  35  58  86 113 145 182 228 280 333
#     4  10  24  40  54  78 114 155 192 231 277 330
#     4   9  17  31  50  73 101 136 182 233 279 321
#     4  11  22  38  58  82 115 150 188 234 281 336
#     4  11  22  37  57  83 114 148 189 233 277 334
#
# _framework density 18.001045999999999
#
# number of rings (size 3 to 8) (size 9 to 14) (size 15 to 20)
#    0.000    2.000    1.250    3.000    1.750    6.000 
#    0.000    0.000    0.000    0.750    0.000    0.000 
#    0.000    0.000    0.000    0.000    0.000    0.000 
#
# Total GULP energy -356416.706190 kJ/mol
# GULP energy per Si atom -5569.011034 kJ/mol
# Density = 1.796007 g / cm^3
# Si number density = 18.001046 Si / 1000 Ang^3
#
#
#
# Elastic Constant Matrix: (Units=GPa)
#
#
# Indices 1 2 3 4 5 6 
#
# 1 61.4684 23.9520 41.1322 0.0000 0.0000 0.0000
# 2 23.9520 114.4278 66.6540 0.0000 0.0000 0.0000
# 3 41.1322 66.6540 122.5919 0.0000 0.0000 0.0000
# 4 0.0000 0.0000 0.0000 26.3988 0.0000 0.0000
# 5 0.0000 0.0000 0.0000 0.0000 22.2434 0.0000
# 6 0.0000 0.0000 0.0000 0.0000 0.0000 12.5957
#
#
#
# Elastic Compliance Matrix: (Units=1/GPa)
#
#
# Indices 1 2 3 4 5 6 
#
# 1 0.020993 -0.000426 -0.006812 0.000000 0.000000 0.000000
# 2 -0.000426 0.012798 -0.006816 0.000000 0.000000 0.000000
# 3 -0.006812 -0.006816 0.014148 0.000000 0.000000 0.000000
# 4 0.000000 0.000000 0.000000 0.037880 0.000000 0.000000
# 5 0.000000 0.000000 0.000000 0.000000 0.044957 0.000000
# 6 0.000000 0.000000 0.000000 0.000000 0.000000 0.079392
#
#
# Mechanical properties :
#
#
# Convention : Reuss Voigt Hill
#
# Bulk Modulus (GPa) = 50.42294 62.44047 56.43170
# Shear Modulus (GPa) = 20.41754 23.36424 21.89089
#
# Velocity S-wave (km/s) = 3.37150 3.60660 3.49103
# Velocity P-wave (km/s) = 6.57480 7.21844 6.90412
#
# Compressibility (1/GPa) = 0.01983224
#
# Stress axis : x y z
#
# Youngs Moduli (GPa) = 47.63543 78.13468 70.68013
#
# Poissons Ratio (x) = 0.03332 0.48145
# Poissons Ratio (y) = 0.02031 0.48172
# Poissons Ratio (z) = 0.32448 0.53253
#
# Static dielectric constant tensor:
#      x y z
#    x 1.612300 0.000000 0.000000 
#    y 0.000000 1.626400 0.000000 
#    z 0.000000 0.000000 1.628230 
# 
# From -- ./inp_files/3811.got.cif
#   From: 2010.05.17/outbox.cif.g08.bks.cpg/sg57_2_cif.got.tgz:3811.got - 2010.06.03 13:58:18.
