data_PCOD9437846
_publ_section_title
;
Structure prediction by ZEFSAII (Michael W. Deem and Ramdas Pophale) SiO2 
 PCOD9437846
Probable space group: P B C M
;
_chemical_formula_sum "Si O2"
_cell_formula_units_Z 48
_cell_length_a 11.964639
_cell_length_b 26.030388
_cell_length_c 8.708696
_cell_angle_alpha 90.000000
_cell_angle_beta 90.000000
_cell_angle_gamma 90.000000
_cell_volume 2712.272819
_symmetry_space_group_name_H-M "P B C M"
_symmetry_group_IT_number 57
_symmetry_cell_setting 'orthorhombic'
loop_
_space_group_symop_operation_xyz
x,y,z
-x,-y,1/2+z
x,1/2-y,-z
-x,1/2+y,1/2-z
-x,-y,-z
x,y,1/2-z
-x,1/2+y,z
x,1/2-y,1/2+z
loop_
_atom_site_type_symbol
_atom_site_label
_atom_site_fract_x
_atom_site_fract_y
_atom_site_fract_z
Si Si1 0.375767 0.497125 0.066839
Si Si2 0.235386 0.097809 0.066585
Si Si3 0.993978 0.557735 0.566237
Si Si4 0.366465 0.306367 0.434570
Si Si5 0.374557 0.805789 0.065635
Si Si6 0.757786 0.406610 0.434931
O O1 0.379174 0.492586 0.250000
O O2 0.500000 0.500000 0.000000
O O3 0.311839 0.448345 0.997083
O O4 0.309068 0.547887 0.016695
O O5 0.236894 0.097229 0.250000
O O6 0.110865 0.086830 0.006414
O O7 0.286382 0.150642 0.003756
O O8 0.979764 0.554707 0.750000
O O9 0.000000 0.500000 0.500000
O O10 0.111200 0.585902 0.533363
O O11 0.340594 0.250000 0.500000
O O12 0.358668 0.306335 0.250000
O O13 0.496366 0.317647 0.477331
O O14 0.370977 0.802608 0.250000
O O15 0.293368 0.851874 0.017505
O O16 0.345320 0.750000 0.000000
O O17 0.742243 0.411922 0.250000
#
# Coordination Sequence:
#
# PCOD9437846 Si02
#       6
#     8   8   8   8   8   8
#     4  12  24  37  57  85 118 151 189 239 298 358
#     4  12  24  39  59  85 118 155 200 246 295 354
#     4  11  22  38  60  84 116 158 202 245 296 352
#     4  10  20  37  61  88 119 154 194 241 297 357
#     4   9  19  36  59  86 116 150 187 233 289 348
#     4  10  21  38  59  84 116 153 195 241 290 349
#
# _framework density 17.697334999999999
#
# number of rings (size 3 to 8) (size 9 to 14) (size 15 to 20)
#    0.000    1.333    1.667    5.000    0.000    3.333 
#    0.000    0.833    0.000    2.000    0.000    0.000 
#    0.000    0.000    0.000    0.000    0.000    0.000 
#
# Total GULP energy -268329.307388 kJ/mol
# GULP energy per Si atom -5590.193904 kJ/mol
# Density = 1.765705 g / cm^3
# Si number density = 17.697335 Si / 1000 Ang^3
#
#
#
# Elastic Constant Matrix: (Units=GPa)
#
#
# Indices 1 2 3 4 5 6 
#
# 1 162.4172 114.1670 85.7450 0.0000 0.0000 0.0000
# 2 114.1670 173.0019 73.5835 0.0000 0.0000 0.0000
# 3 85.7450 73.5835 104.9030 0.0000 0.0000 0.0000
# 4 0.0000 0.0000 0.0000 34.6990 0.0000 0.0000
# 5 0.0000 0.0000 0.0000 0.0000 29.0255 0.0000
# 6 0.0000 0.0000 0.0000 0.0000 0.0000 -27.0903
#
#
#
# Elastic Compliance Matrix: (Units=1/GPa)
#
#
# Indices 1 2 3 4 5 6 
#
# 1 0.014643 -0.006517 -0.007398 0.000000 0.000000 0.000000
# 2 -0.006517 0.011138 -0.002486 0.000000 0.000000 0.000000
# 3 -0.007398 -0.002486 0.017323 0.000000 0.000000 0.000000
# 4 0.000000 0.000000 0.000000 0.028819 0.000000 0.000000
# 5 0.000000 0.000000 0.000000 0.000000 0.034452 0.000000
# 6 0.000000 0.000000 0.000000 0.000000 0.000000 -0.036914
#
#
# Mechanical properties :
#
#
# Convention : Reuss Voigt Hill
#
# Bulk Modulus (GPa) = 97.05742 109.70148 103.37945
# Shear Modulus (GPa) = 47.30375 18.44862 32.87619
#
# Velocity S-wave (km/s) = 5.17565 3.23221 4.31477
# Velocity P-wave (km/s) = 9.52252 8.72076 9.13045
#
# Compressibility (1/GPa) = 0.01030318
#
# Stress axis : x y z
#
# Youngs Moduli (GPa) = 68.28977 89.77987 57.72522
#
# Poissons Ratio (x) = 0.58509 0.42705
# Poissons Ratio (y) = 0.44504 0.14352
# Poissons Ratio (z) = 0.50521 0.22321
#
# Static dielectric constant tensor:
#      x y z
#    x 1.589380 0.000000 0.000000 
#    y 0.000000 1.567300 0.000000 
#    z 0.000000 0.000000 1.598950 
# 
# From -- ./inp_files/3182.got.cif
#   From: 2010.05.17/outbox.cif.g08.bks.cpg/sg57_2_cif.got.tgz:3182.got - 2010.06.03 13:58:18.
