data_PCOD9437810
_publ_section_title
;
Structure prediction by ZEFSAII (Michael W. Deem and Ramdas Pophale) SiO2 
 PCOD9437810
Probable space group: P B C M
;
_chemical_formula_sum "Si O2"
_cell_formula_units_Z 40
_cell_length_a 26.090009
_cell_length_b 9.402371
_cell_length_c 8.627532
_cell_angle_alpha 90.000000
_cell_angle_beta 90.000000
_cell_angle_gamma 90.000000
_cell_volume 2116.402137
_symmetry_space_group_name_H-M "P B C M"
_symmetry_group_IT_number 57
_symmetry_cell_setting 'orthorhombic'
loop_
_space_group_symop_operation_xyz
x,y,z
-x,-y,1/2+z
x,1/2-y,-z
-x,1/2+y,1/2-z
-x,-y,-z
x,y,1/2-z
-x,1/2+y,z
x,1/2-y,1/2+z
loop_
_atom_site_type_symbol
_atom_site_label
_atom_site_fract_x
_atom_site_fract_y
_atom_site_fract_z
Si Si1 0.860372 0.908264 0.063455
Si Si2 0.257183 0.406974 0.436723
Si Si3 0.452359 0.090090 0.936325
Si Si4 0.047280 0.908863 0.435131
Si Si5 0.352779 0.591686 0.063009
O O1 0.864548 0.908126 0.250000
O O2 0.801413 0.942497 0.019601
O O3 0.871354 0.750000 0.000000
O O4 0.900547 0.017179 0.992246
O O5 0.269081 0.250000 0.500000
O O6 0.258983 0.400641 0.250000
O O7 0.299582 0.519518 0.489658
O O8 0.454746 0.094288 0.750000
O O9 0.400121 0.009114 0.982814
O O10 0.453325 0.250000 0.000000
O O11 0.500000 0.000000 0.000000
O O12 0.044006 0.750000 0.500000
O O13 0.045346 0.907031 0.250000
O O14 0.000000 0.000000 0.500000
O O15 0.352268 0.598082 0.250000
O O16 0.359045 0.750000 0.000000
#
# Coordination Sequence:
#
# PCOD9437810 Si02
#       5
#     8   8   8   8   8
#     4  10  20  37  60  87 118 152 190 234 283 338
#     4   9  19  36  58  84 114 148 189 232 279 334
#     4  11  23  39  60  85 115 149 190 236 287 342
#     4  12  25  42  62  86 116 151 191 235 284 338
#     4  10  22  38  56  82 114 150 190 235 283 336
#
# _framework density 18.899999999999999
#
# number of rings (size 3 to 8) (size 9 to 14) (size 15 to 20)
#    0.000    1.600    0.000    4.800    0.000    5.600 
#    0.000    2.000    0.000    0.000    0.000    0.000 
#    0.000    0.000    0.000    0.000    0.000    0.000 
#
# Total GULP energy -223622.775985 kJ/mol
# GULP energy per Si atom -5590.569400 kJ/mol
# Density = 1.885698 g / cm^3
# Si number density = 18.900000 Si / 1000 Ang^3
#
#
#
# Elastic Constant Matrix: (Units=GPa)
#
#
# Indices 1 2 3 4 5 6 
#
# 1 142.6759 125.9634 53.8597 0.0000 0.0000 0.0000
# 2 125.9634 198.2267 58.3066 0.0000 0.0000 0.0000
# 3 53.8597 58.3066 77.9528 0.0000 0.0000 0.0000
# 4 0.0000 0.0000 0.0000 39.8548 0.0000 0.0000
# 5 0.0000 0.0000 0.0000 0.0000 27.7442 0.0000
# 6 0.0000 0.0000 0.0000 0.0000 0.0000 41.7158
#
#
#
# Elastic Compliance Matrix: (Units=1/GPa)
#
#
# Indices 1 2 3 4 5 6 
#
# 1 0.017246 -0.009556 -0.004768 0.000000 0.000000 0.000000
# 2 -0.009556 0.011763 -0.002196 0.000000 0.000000 0.000000
# 3 -0.004768 -0.002196 0.017765 0.000000 0.000000 0.000000
# 4 0.000000 0.000000 0.000000 0.025091 0.000000 0.000000
# 5 0.000000 0.000000 0.000000 0.000000 0.036044 0.000000
# 6 0.000000 0.000000 0.000000 0.000000 0.000000 0.023972
#
#
# Mechanical properties :
#
#
# Convention : Reuss Voigt Hill
#
# Bulk Modulus (GPa) = 72.81168 99.45720 86.13444
# Shear Modulus (GPa) = 29.49896 33.91135 31.70516
#
# Velocity S-wave (km/s) = 3.95497 4.24046 4.10020
# Velocity P-wave (km/s) = 7.71129 8.75856 8.25156
#
# Compressibility (1/GPa) = 0.01373406
#
# Stress axis : x y z
#
# Youngs Moduli (GPa) = 57.98560 85.01050 56.29147
#
# Poissons Ratio (x) = 0.81240 0.26837
# Poissons Ratio (y) = 0.55414 0.12360
# Poissons Ratio (z) = 0.27645 0.18666
#
# Static dielectric constant tensor:
#      x y z
#    x 1.657120 0.000000 0.000000 
#    y 0.000000 1.604860 0.000000 
#    z 0.000000 0.000000 1.639210 
# 
# From -- ./inp_files/8873.got.cif
#   From: 2010.05.17/outbox.cif.g08.bks.cpg/sg57_5_cif.got.tgz:8873.got - 2010.06.03 13:58:18.
