data_PCOD9437439
_publ_section_title
;
Structure prediction by ZEFSAII (Michael W. Deem and Ramdas Pophale) SiO2 
 PCOD9437439
Probable space group: P B C M
;
_chemical_formula_sum "Si O2"
_cell_formula_units_Z 48
_cell_length_a 31.656452
_cell_length_b 9.214927
_cell_length_c 8.676849
_cell_angle_alpha 90.000000
_cell_angle_beta 90.000000
_cell_angle_gamma 90.000000
_cell_volume 2531.140058
_symmetry_space_group_name_H-M "P B C M"
_symmetry_group_IT_number 57
_symmetry_cell_setting 'orthorhombic'
loop_
_space_group_symop_operation_xyz
x,y,z
-x,-y,1/2+z
x,1/2-y,-z
-x,1/2+y,1/2-z
-x,-y,-z
x,y,1/2-z
-x,1/2+y,z
x,1/2-y,1/2+z
loop_
_atom_site_type_symbol
_atom_site_label
_atom_site_fract_x
_atom_site_fract_y
_atom_site_fract_z
Si Si1 0.960872 0.588198 0.565374
Si Si2 0.215481 0.588420 0.435216
Si Si3 0.459851 0.086862 0.565282
Si Si4 0.380025 0.587206 0.565047
Si Si5 0.705547 0.911595 0.934365
Si Si6 0.866849 0.587462 0.564266
O O1 0.963518 0.750000 0.500000
O O2 0.963156 0.590100 0.750000
O O3 0.913851 0.533549 0.520273
O O4 0.000000 0.500000 0.500000
O O5 0.219713 0.750000 0.500000
O O6 0.216461 0.592997 0.250000
O O7 0.253665 0.489300 0.494673
O O8 0.171149 0.516147 0.485702
O O9 0.459878 0.250000 0.500000
O O10 0.461523 0.090666 0.750000
O O11 0.500000 0.000000 0.500000
O O12 0.418057 0.003375 0.509328
O O13 0.379683 0.750000 0.500000
O O14 0.385427 0.591031 0.750000
O O15 0.335977 0.506578 0.530023
O O16 0.710044 0.904477 0.750000
O O17 0.700939 0.750000 0.000000
O O18 0.861141 0.750000 0.500000
O O19 0.865674 0.596610 0.750000
#
# Coordination Sequence:
#
# PCOD9437439 Si02
#       6
#     8   8   8   8   8   8
#     4  10  20  36  56  81 112 147 188 233 285 341
#     4  11  23  39  59  85 117 152 192 238 289 344
#     4  12  25  43  66  93 126 163 205 251 301 355
#     4  11  24  42  64  92 125 161 201 246 297 350
#     4  11  24  41  63  90 121 157 197 242 292 348
#     4   9  20  37  57  81 110 146 188 234 284 342
#
# _framework density 18.963787
#
# number of rings (size 3 to 8) (size 9 to 14) (size 15 to 20)
#    0.000    1.333    0.000    5.500    0.000    9.333 
#    0.000    1.667    0.000    0.000    0.000    0.000 
#    0.000    0.000    0.000    0.000    0.000    0.000 
#
# Total GULP energy -268423.055977 kJ/mol
# GULP energy per Si atom -5592.147000 kJ/mol
# Density = 1.892062 g / cm^3
# Si number density = 18.963787 Si / 1000 Ang^3
#
#
#
# Elastic Constant Matrix: (Units=GPa)
#
#
# Indices 1 2 3 4 5 6 
#
# 1 189.2371 107.6013 83.3899 0.0000 0.0000 0.0000
# 2 107.6013 168.8100 65.0761 0.0000 0.0000 0.0000
# 3 83.3899 65.0761 92.0683 0.0000 0.0000 0.0000
# 4 0.0000 0.0000 0.0000 38.5288 0.0000 0.0000
# 5 0.0000 0.0000 0.0000 0.0000 31.0317 0.0000
# 6 0.0000 0.0000 0.0000 0.0000 0.0000 38.4948
#
#
#
# Elastic Compliance Matrix: (Units=1/GPa)
#
#
# Indices 1 2 3 4 5 6 
#
# 1 0.010590 -0.004196 -0.006626 0.000000 0.000000 0.000000
# 2 -0.004196 0.009805 -0.003130 0.000000 0.000000 0.000000
# 3 -0.006626 -0.003130 0.019075 0.000000 0.000000 0.000000
# 4 0.000000 0.000000 0.000000 0.025955 0.000000 0.000000
# 5 0.000000 0.000000 0.000000 0.000000 0.032225 0.000000
# 6 0.000000 0.000000 0.000000 0.000000 0.000000 0.025978
#
#
# Mechanical properties :
#
#
# Convention : Reuss Voigt Hill
#
# Bulk Modulus (GPa) = 86.45701 106.91667 96.68684
# Shear Modulus (GPa) = 32.17774 34.54760 33.36267
#
# Velocity S-wave (km/s) = 4.12369 4.27285 4.19893
# Velocity P-wave (km/s) = 8.26817 8.99137 8.63734
#
# Compressibility (1/GPa) = 0.01156644
#
# Stress axis : x y z
#
# Youngs Moduli (GPa) = 94.42843 101.98961 52.42366
#
# Poissons Ratio (x) = 0.42793 0.34736
# Poissons Ratio (y) = 0.39621 0.16409
# Poissons Ratio (z) = 0.62569 0.31923
#
# Static dielectric constant tensor:
#      x y z
#    x 1.655550 0.000000 0.000000 
#    y 0.000000 1.605770 0.000000 
#    z 0.000000 0.000000 1.638870 
# 
# From -- ./inp_files/9910.got.cif
#   From: 2010.05.17/outbox.cif.g08.bks.cpg/sg57_5_cif.got.tgz:9910.got - 2010.06.03 13:58:18.
