data_PCOD9437764
_publ_section_title
;
Structure prediction by ZEFSAII (Michael W. Deem and Ramdas Pophale) SiO2 
 PCOD9437764
Probable space group: P B C M
;
_chemical_formula_sum "Si O2"
_cell_formula_units_Z 48
_cell_length_a 7.770283
_cell_length_b 35.234531
_cell_length_c 8.520719
_cell_angle_alpha 90.000000
_cell_angle_beta 90.000000
_cell_angle_gamma 90.000000
_cell_volume 2332.821852
_symmetry_space_group_name_H-M "P B C M"
_symmetry_group_IT_number 57
_symmetry_cell_setting 'orthorhombic'
loop_
_space_group_symop_operation_xyz
x,y,z
-x,-y,1/2+z
x,1/2-y,-z
-x,1/2+y,1/2-z
-x,-y,-z
x,y,1/2-z
-x,1/2+y,z
x,1/2-y,1/2+z
loop_
_atom_site_type_symbol
_atom_site_label
_atom_site_fract_x
_atom_site_fract_y
_atom_site_fract_z
Si Si1 0.273624 0.349655 0.561209
Si Si2 0.105711 0.833127 0.434618
Si Si3 0.206571 0.430807 0.572749
Si Si4 0.686210 0.489215 0.438240
Si Si5 0.440236 0.791604 0.061386
Si Si6 0.806286 0.089985 0.425619
O O1 0.279732 0.351411 0.750000
O O2 0.295036 0.393417 0.499656
O O3 0.421350 0.322106 0.499461
O O4 0.082034 0.335002 0.514491
O O5 0.076117 0.828375 0.250000
O O6 0.245451 0.802416 0.490924
O O7 0.202595 0.873115 0.466806
O O8 0.278591 0.434793 0.750000
O O9 0.208567 0.473359 0.505660
O O10 0.009458 0.418597 0.583582
O O11 0.500000 0.500000 0.500000
O O12 0.699285 0.485618 0.250000
O O13 0.728509 0.448663 0.510626
O O14 0.442247 0.792264 0.250000
O O15 0.485647 0.750000 0.000000
O O16 0.741827 0.098635 0.250000
#
# Coordination Sequence:
#
# PCOD9437764 Si02
#       6
#     8   8   8   8   8   8
#     4  10  21  40  66  94 124 163 205 250 306 365
#     4  10  22  41  64  93 126 162 206 255 306 365
#     4   8  18  36  57  81 111 151 197 241 291 349
#     4  11  22  35  51  80 117 155 199 247 297 351
#     4  11  25  43  65  94 125 160 200 247 305 367
#     4  10  20  37  59  83 111 153 201 248 303 357
#
# _framework density 20.575941
#
# number of rings (size 3 to 8) (size 9 to 14) (size 15 to 20)
#    0.000    2.000    0.000    4.000    2.333    3.333 
#    0.000   10.000    0.000    0.000    0.000    0.000 
#    0.000    0.000    0.000    0.000    0.000    0.000 
#
# Total GULP energy -267703.684660 kJ/mol
# GULP energy per Si atom -5577.160097 kJ/mol
# Density = 2.052911 g / cm^3
# Si number density = 20.575941 Si / 1000 Ang^3
#
#
#
# Elastic Constant Matrix: (Units=GPa)
#
#
# Indices 1 2 3 4 5 6 
#
# 1 42.7230 3.6062 5.4061 0.0000 0.0000 0.0000
# 2 3.6062 41.9131 -11.3278 0.0000 0.0000 0.0000
# 3 5.4061 -11.3278 33.7411 0.0000 0.0000 0.0000
# 4 0.0000 0.0000 0.0000 24.8565 0.0000 0.0000
# 5 0.0000 0.0000 0.0000 0.0000 23.1870 0.0000
# 6 0.0000 0.0000 0.0000 0.0000 0.0000 41.2641
#
#
#
# Elastic Compliance Matrix: (Units=1/GPa)
#
#
# Indices 1 2 3 4 5 6 
#
# 1 0.024339 -0.003462 -0.005062 0.000000 0.000000 0.000000
# 2 -0.003462 0.026732 0.009530 0.000000 0.000000 0.000000
# 3 -0.005062 0.009530 0.033648 0.000000 0.000000 0.000000
# 4 0.000000 0.000000 0.000000 0.040231 0.000000 0.000000
# 5 0.000000 0.000000 0.000000 0.000000 0.043128 0.000000
# 6 0.000000 0.000000 0.000000 0.000000 0.000000 0.024234
#
#
# Mechanical properties :
#
#
# Convention : Reuss Voigt Hill
#
# Bulk Modulus (GPa) = 11.53006 12.63845 12.08425
# Shear Modulus (GPa) = 22.80899 25.90772 24.35835
#
# Velocity S-wave (km/s) = 3.33307 3.55227 3.44441
# Velocity P-wave (km/s) = 4.51976 4.79380 4.65880
#
# Compressibility (1/GPa) = 0.08672985
#
# Stress axis : x y z
#
# Youngs Moduli (GPa) = 41.08571 37.40787 29.71962
#
# Poissons Ratio (x) = 0.12952 0.15044
# Poissons Ratio (y) = 0.14225 -0.28321
# Poissons Ratio (z) = 0.20798 -0.35648
#
# Static dielectric constant tensor:
#      x y z
#    x 1.750960 0.000000 0.000000 
#    y 0.000000 1.833980 0.000000 
#    z 0.000000 0.000000 1.735800 
# 
# From -- ./inp_files/2129.got.cif
#   From: 2010.05.17/outbox.cif.g08.bks.cpg/sg57_2_cif.got.tgz:2129.got - 2010.06.03 13:58:18.
