data_PCOD9437268
_publ_section_title
;
Structure prediction by ZEFSAII (Michael W. Deem and Ramdas Pophale) SiO2 
 PCOD9437268
Probable space group: P B C M
;
_chemical_formula_sum "Si O2"
_cell_formula_units_Z 56
_cell_length_a 11.781881
_cell_length_b 15.819148
_cell_length_c 13.970453
_cell_angle_alpha 90.000000
_cell_angle_beta 90.000000
_cell_angle_gamma 90.000000
_cell_volume 2603.803520
_symmetry_space_group_name_H-M "P B C M"
_symmetry_group_IT_number 57
_symmetry_cell_setting 'orthorhombic'
loop_
_space_group_symop_operation_xyz
x,y,z
-x,-y,1/2+z
x,1/2-y,-z
-x,1/2+y,1/2-z
-x,-y,-z
x,y,1/2-z
-x,1/2+y,z
x,1/2-y,1/2+z
loop_
_atom_site_type_symbol
_atom_site_label
_atom_site_fract_x
_atom_site_fract_y
_atom_site_fract_z
Si Si1 0.244911 0.207010 0.403669
Si Si2 0.009662 0.368112 0.856863
Si Si3 0.076542 0.453054 0.367044
Si Si4 0.324176 0.880314 0.363379
Si Si5 0.085573 0.702364 0.866708
Si Si6 0.427044 0.353238 0.357841
Si Si7 0.695986 0.960647 0.497897
O O1 0.199306 0.250000 0.500000
O O2 0.133374 0.174535 0.350524
O O3 0.336205 0.276486 0.368721
O O4 0.303844 0.119852 0.431427
O O5 0.962846 0.377016 0.750000
O O6 0.000856 0.464408 0.890686
O O7 0.936031 0.296036 0.906621
O O8 0.098724 0.448284 0.250000
O O9 0.189931 0.460174 0.431435
O O10 0.006606 0.368944 0.393808
O O11 0.317712 0.907166 0.250000
O O12 0.212514 0.826961 0.384295
O O13 0.442012 0.829389 0.374549
O O14 0.319902 0.957688 0.437596
O O15 0.073405 0.706431 0.750000
O O16 0.415719 0.382833 0.250000
O O17 0.400752 0.433138 0.424208
#
# Coordination Sequence:
#
# PCOD9437268 Si02
#       7
#     8   8   8   8   8   8   8
#     4  10  21  34  56  86 115 150 197 247 296 353
#     4  10  20  35  57  86 118 154 198 243 297 365
#     4  10  21  37  60  91 126 162 198 245 307 370
#     4  10  22  39  59  82 113 156 198 245 302 354
#     4   9  18  35  57  83 120 160 200 247 299 358
#     4  10  21  40  62  83 114 156 201 247 299 352
#     4  11  22  38  61  89 120 152 196 247 297 362
#
# _framework density 21.506999
#
# number of rings (size 3 to 8) (size 9 to 14) (size 15 to 20)
#    0.000    2.000    0.000    3.857    0.000    6.857 
#    0.000    5.714    0.000    3.429    0.000    0.000 
#    0.000    0.000    0.000    0.000    0.000    0.000 
#
# Total GULP energy -312239.198379 kJ/mol
# GULP energy per Si atom -5575.699971 kJ/mol
# Density = 2.145805 g / cm^3
# Si number density = 21.506999 Si / 1000 Ang^3
#
#
#
# Elastic Constant Matrix: (Units=GPa)
#
#
# Indices 1 2 3 4 5 6 
#
# 1 105.1882 24.9612 34.2630 0.0000 0.0000 0.0000
# 2 24.9612 108.4419 26.5392 0.0000 0.0000 0.0000
# 3 34.2630 26.5392 74.3753 0.0000 0.0000 0.0000
# 4 0.0000 0.0000 0.0000 19.4711 0.0000 0.0000
# 5 0.0000 0.0000 0.0000 0.0000 16.8469 0.0000
# 6 0.0000 0.0000 0.0000 0.0000 0.0000 15.6356
#
#
#
# Elastic Compliance Matrix: (Units=1/GPa)
#
#
# Indices 1 2 3 4 5 6 
#
# 1 0.011394 -0.001466 -0.004726 0.000000 0.000000 0.000000
# 2 -0.001466 0.010293 -0.002997 0.000000 0.000000 0.000000
# 3 -0.004726 -0.002997 0.016692 0.000000 0.000000 0.000000
# 4 0.000000 0.000000 0.000000 0.051358 0.000000 0.000000
# 5 0.000000 0.000000 0.000000 0.000000 0.059358 0.000000
# 6 0.000000 0.000000 0.000000 0.000000 0.000000 0.063957
#
#
# Mechanical properties :
#
#
# Convention : Reuss Voigt Hill
#
# Bulk Modulus (GPa) = 49.99981 51.05912 50.52946
# Shear Modulus (GPa) = 20.99989 23.87351 22.43670
#
# Velocity S-wave (km/s) = 3.12816 3.33533 3.23341
# Velocity P-wave (km/s) = 6.02875 6.21489 6.12253
#
# Compressibility (1/GPa) = 0.02000008
#
# Stress axis : x y z
#
# Youngs Moduli (GPa) = 87.76527 97.15791 59.90924
#
# Poissons Ratio (x) = 0.14244 0.28312
# Poissons Ratio (y) = 0.12867 0.17956
# Poissons Ratio (z) = 0.41476 0.29121
#
# Static dielectric constant tensor:
#      x y z
#    x 1.811150 0.000000 0.000000 
#    y 0.000000 1.779950 0.000000 
#    z 0.000000 0.000000 1.815330 
# 
# From -- ./inp_files/17724.got.cif
#   From: 2010.05.17/outbox.cif.g08.bks.cpg/sg57_9_cif.got.tgz:17724.got - 2010.06.03 13:58:18.
