data_PCOD9437091
_publ_section_title
;
Structure prediction by ZEFSAII (Michael W. Deem and Ramdas Pophale) SiO2 
 PCOD9437091
Probable space group: P B C M
;
_chemical_formula_sum "Si O2"
_cell_formula_units_Z 48
_cell_length_a 18.096639
_cell_length_b 16.357919
_cell_length_c 7.731302
_cell_angle_alpha 90.000000
_cell_angle_beta 90.000000
_cell_angle_gamma 90.000000
_cell_volume 2288.645956
_symmetry_space_group_name_H-M "P B C M"
_symmetry_group_IT_number 57
_symmetry_cell_setting 'orthorhombic'
loop_
_space_group_symop_operation_xyz
x,y,z
-x,-y,1/2+z
x,1/2-y,-z
-x,1/2+y,1/2-z
-x,-y,-z
x,y,1/2-z
-x,1/2+y,z
x,1/2-y,1/2+z
loop_
_atom_site_type_symbol
_atom_site_label
_atom_site_fract_x
_atom_site_fract_y
_atom_site_fract_z
Si Si1 0.154573 0.344759 0.956933
Si Si2 0.586221 0.998974 0.958798
Si Si3 0.683419 0.846709 0.541366
Si Si4 0.997578 0.093960 0.042694
Si Si5 0.676840 0.153420 0.549723
Si Si6 0.839924 0.345010 0.956027
O O1 0.152759 0.359026 0.750000
O O2 0.234515 0.375228 0.020419
O O3 0.075334 0.372629 0.027715
O O4 0.158068 0.250000 0.000000
O O5 0.594620 0.998757 0.750000
O O6 0.624904 0.914473 0.020503
O O7 0.625117 0.082267 0.028296
O O8 0.500000 0.000000 0.000000
O O9 0.670588 0.750000 0.500000
O O10 0.684735 0.849105 0.750000
O O11 0.996721 0.109534 0.250000
O O12 0.918591 0.124504 0.974192
O O13 0.000000 0.000000 0.000000
O O14 0.670750 0.250000 0.500000
O O15 0.659145 0.155109 0.750000
O O16 0.761791 0.123833 0.526583
O O17 0.838207 0.357689 0.750000
O O18 0.838849 0.250000 0.000000
#
# Coordination Sequence:
#
# PCOD9437091 Si02
#       6
#     8   8   8   8   8   8
#     4   9  18  34  55  76 104 141 181 224 269 319
#     4  10  23  40  60  86 114 148 185 226 283 343
#     4   9  19  37  59  84 112 145 186 227 275 333
#     4  10  22  34  49  77 110 146 185 226 272 321
#     4  10  21  38  61  86 113 152 192 231 284 337
#     4  10  20  35  54  80 109 144 188 231 276 326
#
# _framework density 20.973102000000001
#
# number of rings (size 3 to 8) (size 9 to 14) (size 15 to 20)
#    0.000    2.333    0.000    2.500    2.333    4.667 
#    0.000    3.333    0.000    0.000    0.000    0.000 
#    0.000    0.000    0.000    0.000    0.000    0.000 
#
# Total GULP energy -267370.047481 kJ/mol
# GULP energy per Si atom -5570.209323 kJ/mol
# Density = 2.092537 g / cm^3
# Si number density = 20.973102 Si / 1000 Ang^3
#
#
#
# Elastic Constant Matrix: (Units=GPa)
#
#
# Indices 1 2 3 4 5 6 
#
# 1 205.6575 106.0131 -8.8610 0.0000 0.0000 0.0000
# 2 106.0131 103.1322 2.9727 0.0000 0.0000 0.0000
# 3 -8.8610 2.9727 27.5368 0.0000 0.0000 0.0000
# 4 0.0000 0.0000 0.0000 20.2712 0.0000 0.0000
# 5 0.0000 0.0000 0.0000 0.0000 126.0567 0.0000
# 6 0.0000 0.0000 0.0000 0.0000 0.0000 50.2720
#
#
#
# Elastic Compliance Matrix: (Units=1/GPa)
#
#
# Indices 1 2 3 4 5 6 
#
# 1 0.010928 -0.011370 0.004744 0.000000 0.000000 0.000000
# 2 -0.011370 0.021556 -0.005986 0.000000 0.000000 0.000000
# 3 0.004744 -0.005986 0.038488 0.000000 0.000000 0.000000
# 4 0.000000 0.000000 0.000000 0.049331 0.000000 0.000000
# 5 0.000000 0.000000 0.000000 0.000000 0.007933 0.000000
# 6 0.000000 0.000000 0.000000 0.000000 0.000000 0.019892
#
#
# Mechanical properties :
#
#
# Convention : Reuss Voigt Hill
#
# Bulk Modulus (GPa) = 21.85871 59.61956 40.73913
# Shear Modulus (GPa) = 26.51111 55.06678 40.78895
#
# Velocity S-wave (km/s) = 3.55921 5.12961 4.41480
# Velocity P-wave (km/s) = 5.22834 7.97322 6.74195
#
# Compressibility (1/GPa) = 0.04574835
#
# Stress axis : x y z
#
# Youngs Moduli (GPa) = 91.50992 46.39038 25.98235
#
# Poissons Ratio (x) = 0.52745 -0.12326
# Poissons Ratio (y) = 1.04045 0.15552
# Poissons Ratio (z) = -0.43411 0.27768
#
# Static dielectric constant tensor:
#      x y z
#    x 1.909280 0.000000 0.000000 
#    y 0.000000 1.727500 0.000000 
#    z 0.000000 0.000000 1.790610 
# 
# From -- ./inp_files/4585.got.cif
#   From: 2010.05.17/outbox.cif.g08.bks.cpg/sg57_3_cif.got.tgz:4585.got - 2010.06.03 13:58:18.
