data_PCOD9437703
_publ_section_title
;
Structure prediction by ZEFSAII (Michael W. Deem and Ramdas Pophale) SiO2 
 PCOD9437703
Probable space group: P B C M
;
_chemical_formula_sum "Si O2"
_cell_formula_units_Z 60
_cell_length_a 12.067040
_cell_length_b 28.699537
_cell_length_c 9.559518
_cell_angle_alpha 90.000000
_cell_angle_beta 90.000000
_cell_angle_gamma 90.000000
_cell_volume 3310.637561
_symmetry_space_group_name_H-M "P B C M"
_symmetry_group_IT_number 57
_symmetry_cell_setting 'orthorhombic'
loop_
_space_group_symop_operation_xyz
x,y,z
-x,-y,1/2+z
x,1/2-y,-z
-x,1/2+y,1/2-z
-x,-y,-z
x,y,1/2-z
-x,1/2+y,z
x,1/2-y,1/2+z
loop_
_atom_site_type_symbol
_atom_site_label
_atom_site_fract_x
_atom_site_fract_y
_atom_site_fract_z
Si Si1 0.312430 0.914066 0.583923
Si Si2 0.065898 0.201614 0.584209
Si Si3 0.084396 0.865722 0.585886
Si Si4 0.061933 0.040775 0.415029
Si Si5 0.659342 0.735396 0.250000
Si Si6 0.534174 0.907954 0.412498
Si Si7 0.688879 0.819695 0.031647
Si Si8 0.275460 0.022899 0.916401
O O1 0.330765 0.910199 0.750000
O O2 0.209177 0.880792 0.548599
O O3 0.424552 0.903061 0.503581
O O4 0.278467 0.967671 0.556365
O O5 0.079997 0.250000 0.500000
O O6 0.052706 0.210401 0.750000
O O7 0.180254 0.173586 0.561612
O O8 0.966249 0.173182 0.514743
O O9 0.081199 0.851041 0.750000
O O10 0.009125 0.912036 0.574433
O O11 0.071025 0.029185 0.250000
O O12 0.181003 0.045419 0.488049
O O13 0.000000 0.000000 0.500000
O O14 0.654791 0.776941 0.130771
O O15 0.672663 0.696069 0.373118
O O16 0.502418 0.910629 0.250000
O O17 0.616652 0.864695 0.434035
O O18 0.606295 0.953771 0.447098
O O19 0.252153 0.029925 0.750000
#
# Coordination Sequence:
#
# PCOD9437703 Si02
#       8
#     8   8   8   8   4   8   8   8
#     4  10  22  42  60  79 118 163 203 243 294 344
#     4  12  22  38  64  92 124 154 192 244 302 361
#     4  10  23  40  60  84 119 162 202 243 296 353
#     4  11  21  36  60  89 119 155 196 246 296 358
#     4  10  20  36  64  84 124 152 184 236 306 358
#     4  11  23  37  61  89 121 152 200 248 290 353
#     4  11  20  38  59  94 119 152 185 239 302 354
#     4  10  21  40  60  86 121 157 197 249 301 346
#
# _framework density 18.123398000000002
#
# number of rings (size 3 to 8) (size 9 to 14) (size 15 to 20)
#    0.000    1.333    4.000    2.000    1.867    3.733 
#    0.000    0.000    2.933    0.000    0.000    0.000 
#    0.000    0.000    0.000    0.000    0.000    0.000 
#
# Total GULP energy -334035.643493 kJ/mol
# GULP energy per Si atom -5567.260725 kJ/mol
# Density = 1.808215 g / cm^3
# Si number density = 18.123398 Si / 1000 Ang^3
#
#
#
# Elastic Constant Matrix: (Units=GPa)
#
#
# Indices 1 2 3 4 5 6 
#
# 1 128.5152 32.8306 52.9604 0.0000 0.0000 0.0000
# 2 32.8306 33.2426 21.6035 0.0000 0.0000 0.0000
# 3 52.9604 21.6035 109.9441 0.0000 0.0000 0.0000
# 4 0.0000 0.0000 0.0000 28.1509 0.0000 0.0000
# 5 0.0000 0.0000 0.0000 0.0000 8.0721 0.0000
# 6 0.0000 0.0000 0.0000 0.0000 0.0000 1.6887
#
#
#
# Elastic Compliance Matrix: (Units=1/GPa)
#
#
# Indices 1 2 3 4 5 6 
#
# 1 0.011674 -0.009027 -0.003849 0.000000 0.000000 0.000000
# 2 -0.009027 0.041467 -0.003800 0.000000 0.000000 0.000000
# 3 -0.003849 -0.003800 0.011696 0.000000 0.000000 0.000000
# 4 0.000000 0.000000 0.000000 0.035523 0.000000 0.000000
# 5 0.000000 0.000000 0.000000 0.000000 0.123884 0.000000
# 6 0.000000 0.000000 0.000000 0.000000 0.000000 0.592167
#
#
# Mechanical properties :
#
#
# Convention : Reuss Voigt Hill
#
# Bulk Modulus (GPa) = 31.76205 54.05456 42.90831
# Shear Modulus (GPa) = 5.81221 18.53617 12.17419
#
# Velocity S-wave (km/s) = 1.79276 3.20156 2.59460
# Velocity P-wave (km/s) = 4.67427 6.59979 5.71865
#
# Compressibility (1/GPa) = 0.03148411
#
# Stress axis : x y z
#
# Youngs Moduli (GPa) = 85.66324 24.11581 85.49658
#
# Poissons Ratio (x) = 0.21770 0.32911
# Poissons Ratio (y) = 0.77331 0.32485
# Poissons Ratio (z) = 0.32975 0.09163
#
# Static dielectric constant tensor:
#      x y z
#    x 1.619840 0.000000 0.000000 
#    y 0.000000 1.623530 0.000000 
#    z 0.000000 0.000000 1.608860 
# 
# From -- ./inp_files/3465.got.cif
#   From: 2010.05.17/outbox.cif.g08.bks.cpg/sg57_2_cif.got.tgz:3465.got - 2010.06.03 13:58:18.
