data_PCOD9437534
_publ_section_title
;
Structure prediction by ZEFSAII (Michael W. Deem and Ramdas Pophale) SiO2 
 PCOD9437534
Probable space group: P B C M
;
_chemical_formula_sum "Si O2"
_cell_formula_units_Z 48
_cell_length_a 15.462498
_cell_length_b 19.777664
_cell_length_c 8.570744
_cell_angle_alpha 90.000000
_cell_angle_beta 90.000000
_cell_angle_gamma 90.000000
_cell_volume 2621.037136
_symmetry_space_group_name_H-M "P B C M"
_symmetry_group_IT_number 57
_symmetry_cell_setting 'orthorhombic'
loop_
_space_group_symop_operation_xyz
x,y,z
-x,-y,1/2+z
x,1/2-y,-z
-x,1/2+y,1/2-z
-x,-y,-z
x,y,1/2-z
-x,1/2+y,z
x,1/2-y,1/2+z
loop_
_atom_site_type_symbol
_atom_site_label
_atom_site_fract_x
_atom_site_fract_y
_atom_site_fract_z
Si Si1 0.367834 0.324570 0.063066
Si Si2 0.727781 0.411325 0.438855
Si Si3 0.565407 0.324492 0.438187
Si Si4 0.764784 0.934937 0.938578
Si Si5 0.110440 0.825917 0.937177
Si Si6 0.037190 0.070737 0.438429
O O1 0.366208 0.323045 0.250000
O O2 0.466950 0.339704 0.011891
O O3 0.346055 0.250000 0.000000
O O4 0.301662 0.380225 0.002624
O O5 0.731511 0.409703 0.250000
O O6 0.636716 0.378708 0.488820
O O7 0.739720 0.488971 0.488062
O O8 0.805734 0.365971 0.502600
O O9 0.588416 0.250000 0.500000
O O10 0.566259 0.322241 0.250000
O O11 0.762307 0.932788 0.750000
O O12 0.863503 0.920825 0.988810
O O13 0.112460 0.824261 0.750000
O O14 0.026083 0.868709 0.987764
O O15 0.109173 0.750000 0.000000
O O16 0.036469 0.068019 0.250000
O O17 0.000000 0.000000 0.500000
#
# Coordination Sequence:
#
# PCOD9437534 Si02
#       6
#     8   8   8   8   8   8
#     4  10  21  38  58  81 111 146 189 236 280 332
#     4  10  20  36  58  83 115 150 184 228 281 336
#     4   9  19  35  55  80 110 148 188 229 280 332
#     4  10  21  37  58  84 114 148 185 228 283 337
#     4  11  23  37  56  84 115 147 189 233 278 333
#     4  10  21  38  59  82 111 148 188 228 278 335
#
# _framework density 18.313361
#
# number of rings (size 3 to 8) (size 9 to 14) (size 15 to 20)
#    0.000    2.000    1.667    1.500    0.000    6.000 
#    0.000    1.667    0.000    0.000    0.000    0.000 
#    0.000    0.000    0.000    0.000    0.000    0.000 
#
# Total GULP energy -268041.944797 kJ/mol
# GULP energy per Si atom -5584.207183 kJ/mol
# Density = 1.827168 g / cm^3
# Si number density = 18.313361 Si / 1000 Ang^3
#
#
#
# Elastic Constant Matrix: (Units=GPa)
#
#
# Indices 1 2 3 4 5 6 
#
# 1 167.9847 131.3181 30.8568 0.0000 0.0000 0.0000
# 2 131.3181 190.0322 33.4150 0.0000 0.0000 0.0000
# 3 30.8568 33.4150 12.4158 0.0000 0.0000 0.0000
# 4 0.0000 0.0000 0.0000 30.7049 0.0000 0.0000
# 5 0.0000 0.0000 0.0000 0.0000 10.9733 0.0000
# 6 0.0000 0.0000 0.0000 0.0000 0.0000 42.0265
#
#
#
# Elastic Compliance Matrix: (Units=1/GPa)
#
#
# Indices 1 2 3 4 5 6 
#
# 1 0.014702 -0.007090 -0.017458 0.000000 0.000000 0.000000
# 2 -0.007090 0.013409 -0.018468 0.000000 0.000000 0.000000
# 3 -0.017458 -0.018468 0.173632 0.000000 0.000000 0.000000
# 4 0.000000 0.000000 0.000000 0.032568 0.000000 0.000000
# 5 0.000000 0.000000 0.000000 0.000000 0.091131 0.000000
# 6 0.000000 0.000000 0.000000 0.000000 0.000000 0.023795
#
#
# Mechanical properties :
#
#
# Convention : Reuss Voigt Hill
#
# Bulk Modulus (GPa) = 8.64207 84.62362 46.63284
# Shear Modulus (GPa) = 10.55215 28.39711 19.47463
#
# Velocity S-wave (km/s) = 2.40302 3.94207 3.26454
# Velocity P-wave (km/s) = 3.52542 8.18711 6.30307
#
# Compressibility (1/GPa) = 0.11571307
#
# Stress axis : x y z
#
# Youngs Moduli (GPa) = 68.01822 74.57776 5.75930
#
# Poissons Ratio (x) = 0.52874 0.10054
# Poissons Ratio (y) = 0.48223 0.10636
# Poissons Ratio (z) = 1.18744 1.37727
#
# Static dielectric constant tensor:
#      x y z
#    x 1.629060 0.000000 0.000000 
#    y 0.000000 1.588420 0.000000 
#    z 0.000000 0.000000 1.615560 
# 
# From -- ./inp_files/4655.got.cif
#   From: 2010.05.17/outbox.cif.g08.bks.cpg/sg57_3_cif.got.tgz:4655.got - 2010.06.03 13:58:18.
