data_PCOD9437301
_publ_section_title
;
Structure prediction by ZEFSAII (Michael W. Deem and Ramdas Pophale) SiO2 
 PCOD9437301
Probable space group: P B C M
;
_chemical_formula_sum "Si O2"
_cell_formula_units_Z 56
_cell_length_a 5.189404
_cell_length_b 24.200146
_cell_length_c 21.544849
_cell_angle_alpha 90.000000
_cell_angle_beta 90.000000
_cell_angle_gamma 90.000000
_cell_volume 2705.695523
_symmetry_space_group_name_H-M "P B C M"
_symmetry_group_IT_number 57
_symmetry_cell_setting 'orthorhombic'
loop_
_space_group_symop_operation_xyz
x,y,z
-x,-y,1/2+z
x,1/2-y,-z
-x,1/2+y,1/2-z
-x,-y,-z
x,y,1/2-z
-x,1/2+y,z
x,1/2-y,1/2+z
loop_
_atom_site_type_symbol
_atom_site_label
_atom_site_fract_x
_atom_site_fract_y
_atom_site_fract_z
Si Si1 0.026820 0.144263 0.818622
Si Si2 0.316150 0.201910 0.583644
Si Si3 0.796310 0.822693 0.944993
Si Si4 0.294188 0.749480 0.182132
Si Si5 0.332720 0.955255 0.324572
Si Si6 0.718090 0.362112 0.618312
Si Si7 0.829845 0.480956 0.825234
O O1 0.124704 0.125952 0.750000
O O2 0.219777 0.150957 0.874900
O O3 0.936712 0.207427 0.812357
O O4 0.787971 0.105081 0.836140
O O5 0.327484 0.180467 0.513471
O O6 0.152730 0.258819 0.574872
O O7 0.551549 0.227053 0.622958
O O8 0.574534 0.850741 0.903255
O O9 0.069010 0.852901 0.935831
O O10 0.431770 0.752772 0.250000
O O11 0.224226 0.686464 0.168187
O O12 0.342869 0.958689 0.250000
O O13 0.111009 0.998025 0.345370
O O14 0.613423 0.974425 0.345550
O O15 0.756327 0.421949 0.647342
O O16 0.830132 0.477721 0.750000
#
# Coordination Sequence:
#
# PCOD9437301 Si02
#       7
#     8   8   8   8   8   8   8
#     4  10  20  35  58  87 119 146 184 239 296 347
#     4  10  21  36  56  83 119 157 191 230 287 351
#     4  10  23  36  60  82 118 154 201 229 277 346
#     4  10  21  35  57  92 122 147 183 240 309 354
#     4   9  20  35  56  84 112 150 190 230 285 353
#     4  11  21  39  58  87 115 155 190 244 282 341
#     4  10  20  37  59  83 114 151 193 236 289 344
#
# _framework density 20.69708
#
# number of rings (size 3 to 8) (size 9 to 14) (size 15 to 20)
#    0.000    2.000    1.429    1.714    4.000    1.143 
#    0.000    1.429    0.000    5.143    0.000    0.000 
#    0.000    0.000    0.000    0.000    0.000    0.000 
#
# Total GULP energy -311996.546038 kJ/mol
# GULP energy per Si atom -5571.366894 kJ/mol
# Density = 2.064997 g / cm^3
# Si number density = 20.697080 Si / 1000 Ang^3
#
#
#
# Elastic Constant Matrix: (Units=GPa)
#
#
# Indices 1 2 3 4 5 6 
#
# 1 56.5243 4.5667 6.6724 0.0000 0.0000 0.0000
# 2 4.5667 90.2401 23.4223 0.0000 0.0000 0.0000
# 3 6.6724 23.4223 75.4689 0.0000 0.0000 0.0000
# 4 0.0000 0.0000 0.0000 9.5128 0.0000 0.0000
# 5 0.0000 0.0000 0.0000 0.0000 -23.4553 0.0000
# 6 0.0000 0.0000 0.0000 0.0000 0.0000 32.1856
#
#
#
# Elastic Compliance Matrix: (Units=1/GPa)
#
#
# Indices 1 2 3 4 5 6 
#
# 1 0.017902 -0.000539 -0.001416 0.000000 0.000000 0.000000
# 2 -0.000539 0.012069 -0.003698 0.000000 0.000000 0.000000
# 3 -0.001416 -0.003698 0.014523 0.000000 0.000000 0.000000
# 4 0.000000 0.000000 0.000000 0.105122 0.000000 0.000000
# 5 0.000000 0.000000 0.000000 0.000000 -0.042634 0.000000
# 6 0.000000 0.000000 0.000000 0.000000 0.000000 0.031070
#
#
# Mechanical properties :
#
#
# Convention : Reuss Voigt Hill
#
# Bulk Modulus (GPa) = 30.12969 32.39511 31.26240
# Shear Modulus (GPa) = 31.16840 16.15341 23.66090
#
# Velocity S-wave (km/s) = 3.88484 2.79672 3.38479
# Velocity P-wave (km/s) = 5.89167 5.11027 5.51482
#
# Compressibility (1/GPa) = 0.03318985
#
# Stress axis : x y z
#
# Youngs Moduli (GPa) = 55.85926 82.85943 68.85468
#
# Poissons Ratio (x) = 0.04462 0.09747
# Poissons Ratio (y) = 0.03008 0.25462
# Poissons Ratio (z) = 0.07908 0.30641
#
# Static dielectric constant tensor:
#      x y z
#    x 1.798100 0.000000 0.000000 
#    y 0.000000 1.742180 0.000000 
#    z 0.000000 0.000000 1.853740 
# 
# From -- ./inp_files/23771.got.cif
#   From: 2010.05.17/outbox.cif.g08.bks.cpg/sg57_12_cif.got.tgz:23771.got - 2010.06.03 13:58:18.
