data_PCOD9437446
_publ_section_title
;
Structure prediction by ZEFSAII (Michael W. Deem and Ramdas Pophale) SiO2 
 PCOD9437446
Probable space group: P B C M
;
_chemical_formula_sum "Si O2"
_cell_formula_units_Z 40
_cell_length_a 26.456266
_cell_length_b 9.241625
_cell_length_c 8.575878
_cell_angle_alpha 90.000000
_cell_angle_beta 90.000000
_cell_angle_gamma 90.000000
_cell_volume 2096.792646
_symmetry_space_group_name_H-M "P B C M"
_symmetry_group_IT_number 57
_symmetry_cell_setting 'orthorhombic'
loop_
_space_group_symop_operation_xyz
x,y,z
-x,-y,1/2+z
x,1/2-y,-z
-x,1/2+y,1/2-z
-x,-y,-z
x,y,1/2-z
-x,1/2+y,z
x,1/2-y,1/2+z
loop_
_atom_site_type_symbol
_atom_site_label
_atom_site_fract_x
_atom_site_fract_y
_atom_site_fract_z
Si Si1 0.645311 0.086615 0.063126
Si Si2 0.840462 0.413022 0.437937
Si Si3 0.451502 0.413642 0.937008
Si Si4 0.047235 0.587838 0.563317
Si Si5 0.258525 0.412714 0.938063
O O1 0.643575 0.087818 0.250000
O O2 0.642897 0.250000 0.000000
O O3 0.598318 0.995301 0.997362
O O4 0.696448 0.010246 0.005109
O O5 0.833165 0.250000 0.500000
O O6 0.839686 0.405842 0.250000
O O7 0.896623 0.465360 0.485455
O O8 0.794938 0.516633 0.487153
O O9 0.452044 0.412122 0.750000
O O10 0.452244 0.250000 0.000000
O O11 0.500000 0.500000 0.000000
O O12 0.043507 0.750000 0.500000
O O13 0.045415 0.588046 0.750000
O O14 0.000000 0.500000 0.500000
O O15 0.261379 0.412579 0.750000
O O16 0.263072 0.250000 0.000000
#
# Coordination Sequence:
#
# PCOD9437446 Si02
#       5
#     8   8   8   8   8
#     4  12  25  43  65  92 123 160 201 246 296 353
#     4   9  20  37  58  82 112 148 192 238 290 349
#     4  12  25  44  67  95 128 165 205 250 299 352
#     4  10  20  36  56  82 113 150 191 238 290 348
#     4  11  23  40  60  87 119 155 195 242 294 350
#
# _framework density 19.076757000000001
#
# number of rings (size 3 to 8) (size 9 to 14) (size 15 to 20)
#    0.000    1.200    0.000    6.600    0.000    4.800 
#    0.000    2.000    0.000    0.000    0.000    0.000 
#    0.000    0.000    0.000    0.000    0.000    0.000 
#
# Total GULP energy -223701.351547 kJ/mol
# GULP energy per Si atom -5592.533789 kJ/mol
# Density = 1.903334 g / cm^3
# Si number density = 19.076757 Si / 1000 Ang^3
#
#
#
# Elastic Constant Matrix: (Units=GPa)
#
#
# Indices 1 2 3 4 5 6 
#
# 1 208.6585 116.4336 74.9943 0.0000 0.0000 0.0000
# 2 116.4336 164.6478 63.4184 0.0000 0.0000 0.0000
# 3 74.9943 63.4184 132.7718 0.0000 0.0000 0.0000
# 4 0.0000 0.0000 0.0000 38.7923 0.0000 0.0000
# 5 0.0000 0.0000 0.0000 0.0000 31.0889 0.0000
# 6 0.0000 0.0000 0.0000 0.0000 0.0000 44.2878
#
#
#
# Elastic Compliance Matrix: (Units=1/GPa)
#
#
# Indices 1 2 3 4 5 6 
#
# 1 0.008479 -0.005088 -0.002359 0.000000 0.000000 0.000000
# 2 -0.005088 0.010495 -0.002139 0.000000 0.000000 0.000000
# 3 -0.002359 -0.002139 0.009886 0.000000 0.000000 0.000000
# 4 0.000000 0.000000 0.000000 0.025778 0.000000 0.000000
# 5 0.000000 0.000000 0.000000 0.000000 0.032166 0.000000
# 6 0.000000 0.000000 0.000000 0.000000 0.000000 0.022580
#
#
# Mechanical properties :
#
#
# Convention : Reuss Voigt Hill
#
# Bulk Modulus (GPa) = 103.21806 112.86339 108.04072
# Shear Modulus (GPa) = 37.93992 39.58260 38.76126
#
# Velocity S-wave (km/s) = 4.46444 4.56006 4.51250
# Velocity P-wave (km/s) = 8.98883 9.32828 9.16013
#
# Compressibility (1/GPa) = 0.00968823
#
# Stress axis : x y z
#
# Youngs Moduli (GPa) = 117.93213 95.27951 101.14992
#
# Poissons Ratio (x) = 0.48474 0.23865
# Poissons Ratio (y) = 0.59999 0.21641
# Poissons Ratio (z) = 0.27825 0.20385
#
# Static dielectric constant tensor:
#      x y z
#    x 1.666340 0.000000 0.000000 
#    y 0.000000 1.611200 0.000000 
#    z 0.000000 0.000000 1.643770 
# 
# From -- ./inp_files/8898.got.cif
#   From: 2010.05.17/outbox.cif.g08.bks.cpg/sg57_5_cif.got.tgz:8898.got - 2010.06.03 13:58:18.
