data_PCOD9437422
_publ_section_title
;
Structure prediction by ZEFSAII (Michael W. Deem and Ramdas Pophale) SiO2 
 PCOD9437422
Probable space group: P B C M
;
_chemical_formula_sum "Si O2"
_cell_formula_units_Z 40
_cell_length_a 11.849232
_cell_length_b 21.015122
_cell_length_c 8.890564
_cell_angle_alpha 90.000000
_cell_angle_beta 90.000000
_cell_angle_gamma 90.000000
_cell_volume 2213.866512
_symmetry_space_group_name_H-M "P B C M"
_symmetry_group_IT_number 57
_symmetry_cell_setting 'orthorhombic'
loop_
_space_group_symop_operation_xyz
x,y,z
-x,-y,1/2+z
x,1/2-y,-z
-x,1/2+y,1/2-z
-x,-y,-z
x,y,1/2-z
-x,1/2+y,z
x,1/2-y,1/2+z
loop_
_atom_site_type_symbol
_atom_site_label
_atom_site_fract_x
_atom_site_fract_y
_atom_site_fract_z
Si Si1 0.089434 0.450310 0.569700
Si Si2 0.334123 0.043829 0.576883
Si Si3 0.727091 0.181577 0.927982
Si Si4 0.452831 0.905592 0.921639
Si Si5 0.965946 0.180596 0.070143
O O1 0.091947 0.458791 0.750000
O O2 0.212579 0.460817 0.499803
O O3 0.050386 0.377539 0.538347
O O4 0.000000 0.500000 0.500000
O O5 0.323084 0.065035 0.750000
O O6 0.420869 0.087492 0.484111
O O7 0.393907 0.974843 0.578874
O O8 0.741846 0.186003 0.750000
O O9 0.704400 0.250000 0.000000
O O10 0.624489 0.136736 0.972004
O O11 0.844748 0.160092 0.003003
O O12 0.452122 0.881636 0.750000
O O13 0.956280 0.187938 0.250000
O O14 0.993767 0.250000 0.000000
#
# Coordination Sequence:
#
# PCOD9437422 Si02
#       5
#     8   8   8   8   8
#     4  11  23  37  56  83 113 145 184 229 275 327
#     4  10  21  36  56  81 108 141 179 220 270 324
#     4  11  21  34  55  81 108 140 179 221 267 318
#     4  10  20  36  56  79 109 140 175 221 269 320
#     4  10  21  37  56  80 110 145 184 225 272 324
#
# _framework density 18.067937000000001
#
# number of rings (size 3 to 8) (size 9 to 14) (size 15 to 20)
#    0.000    1.600    0.000    6.600    0.000   10.400 
#    0.000    1.000    0.000    2.400    0.000    0.000 
#    0.000    0.000    0.000    0.000    0.000    0.000 
#
# Total GULP energy -223386.801386 kJ/mol
# GULP energy per Si atom -5584.670035 kJ/mol
# Density = 1.802681 g / cm^3
# Si number density = 18.067937 Si / 1000 Ang^3
#
#
#
# Elastic Constant Matrix: (Units=GPa)
#
#
# Indices 1 2 3 4 5 6 
#
# 1 126.1127 42.1443 55.0956 0.0000 0.0000 0.0000
# 2 42.1443 29.5115 36.5585 0.0000 0.0000 0.0000
# 3 55.0956 36.5585 115.5764 0.0000 0.0000 0.0000
# 4 0.0000 0.0000 0.0000 28.7767 0.0000 0.0000
# 5 0.0000 0.0000 0.0000 0.0000 13.7741 0.0000
# 6 0.0000 0.0000 0.0000 0.0000 0.0000 31.0161
#
#
#
# Elastic Compliance Matrix: (Units=1/GPa)
#
#
# Indices 1 2 3 4 5 6 
#
# 1 0.015195 -0.020927 -0.000624 0.000000 0.000000 0.000000
# 2 -0.020927 0.084538 -0.016765 0.000000 0.000000 0.000000
# 3 -0.000624 -0.016765 0.014253 0.000000 0.000000 0.000000
# 4 0.000000 0.000000 0.000000 0.034750 0.000000 0.000000
# 5 0.000000 0.000000 0.000000 0.000000 0.072600 0.000000
# 6 0.000000 0.000000 0.000000 0.000000 0.000000 0.032241
#
#
# Mechanical properties :
#
#
# Convention : Reuss Voigt Hill
#
# Bulk Modulus (GPa) = 26.77049 59.86636 43.31843
# Shear Modulus (GPa) = 14.59172 23.87354 19.23263
#
# Velocity S-wave (km/s) = 2.84492 3.63894 3.26615
# Velocity P-wave (km/s) = 5.06361 7.13175 6.18474
#
# Compressibility (1/GPa) = 0.03735456
#
# Stress axis : x y z
#
# Youngs Moduli (GPa) = 65.80940 11.82906 70.16166
#
# Poissons Ratio (x) = 0.24754 0.04380
# Poissons Ratio (y) = 1.37717 1.17624
# Poissons Ratio (z) = 0.04108 0.19831
#
# Static dielectric constant tensor:
#      x y z
#    x 1.600090 0.000000 0.000000 
#    y 0.000000 1.607620 0.000000 
#    z 0.000000 0.000000 1.614040 
# 
# From -- ./inp_files/1542.got.cif
#   From: 2010.05.17/outbox.cif.g08.bks.cpg/sg57_1_cif.got.tgz:1542.got - 2010.06.03 13:58:18.
