data_PCOD9437707
_publ_section_title
;
Structure prediction by ZEFSAII (Michael W. Deem and Ramdas Pophale) SiO2 
 PCOD9437707
Probable space group: P B C M
;
_chemical_formula_sum "Si O2"
_cell_formula_units_Z 64
_cell_length_a 5.420979
_cell_length_b 30.565081
_cell_length_c 17.447537
_cell_angle_alpha 90.000000
_cell_angle_beta 90.000000
_cell_angle_gamma 90.000000
_cell_volume 2890.928855
_symmetry_space_group_name_H-M "P B C M"
_symmetry_group_IT_number 57
_symmetry_cell_setting 'orthorhombic'
loop_
_space_group_symop_operation_xyz
x,y,z
-x,-y,1/2+z
x,1/2-y,-z
-x,1/2+y,1/2-z
-x,-y,-z
x,y,1/2-z
-x,1/2+y,z
x,1/2-y,1/2+z
loop_
_atom_site_type_symbol
_atom_site_label
_atom_site_fract_x
_atom_site_fract_y
_atom_site_fract_z
Si Si1 0.259604 0.596847 0.390812
Si Si2 0.750015 0.558603 0.533407
Si Si3 0.842136 0.761753 0.908908
Si Si4 0.581732 0.985778 0.603429
Si Si5 0.656940 0.225569 0.582519
Si Si6 0.230400 0.144251 0.339964
Si Si7 0.865276 0.056670 0.833131
Si Si8 0.627546 0.376873 0.058725
O O1 0.358757 0.547303 0.378995
O O2 0.501982 0.624486 0.363277
O O3 0.232017 0.605702 0.482462
O O4 0.007390 0.612472 0.351581
O O5 0.779403 0.541711 0.447210
O O6 0.518621 0.527899 0.557000
O O7 0.652726 0.607931 0.540489
O O8 0.946711 0.549555 0.597557
O O9 0.596312 0.739095 0.877118
O O10 0.821388 0.812994 0.891535
O O11 0.096856 0.742609 0.877034
O O12 0.847313 0.750000 0.000000
O O13 0.712796 0.011610 0.670619
O O14 0.651411 0.250000 0.500000
O O15 0.662271 0.174203 0.567223
O O16 0.241292 0.155748 0.250000
O O17 0.976368 0.065758 0.750000
O O18 0.709896 0.098147 0.864158
#
# Coordination Sequence:
#
# PCOD9437707 Si02
#       8
#     8   8   8   8   8   8   8   8
#     4  11  24  41  71 100 134 180 229 281 337 421
#     4   9  20  39  65  94 128 178 227 287 339 399
#     4  10  20  38  64  92 126 170 218 268 331 413
#     4   9  21  40  63  95 128 178 237 281 332 412
#     4  10  20  36  65  98 124 160 221 281 323 391
#     4  12  26  44  65 100 143 178 219 288 363 408
#     4  11  24  40  65  96 140 181 226 290 351 403
#     4  10  23  40  67  99 131 176 230 283 338 417
#
# _framework density 22.138213
#
# number of rings (size 3 to 8) (size 9 to 14) (size 15 to 20)
#    0.000    1.750    0.000    5.250    7.000    3.000 
#    0.000    1.250    0.000    0.000    0.000    0.000 
#    0.000    0.000    0.000    0.000    0.000    0.000 
#
# Total GULP energy -357051.112688 kJ/mol
# GULP energy per Si atom -5578.923636 kJ/mol
# Density = 2.208783 g / cm^3
# Si number density = 22.138213 Si / 1000 Ang^3
#
#
#
# Elastic Constant Matrix: (Units=GPa)
#
#
# Indices 1 2 3 4 5 6 
#
# 1 37.5852 -25.8046 3.5886 0.0000 0.0000 0.0000
# 2 -25.8046 97.5634 10.7500 0.0000 0.0000 0.0000
# 3 3.5886 10.7500 88.6941 0.0000 0.0000 0.0000
# 4 0.0000 0.0000 0.0000 -1.3599 0.0000 0.0000
# 5 0.0000 0.0000 0.0000 0.0000 -17.4339 0.0000
# 6 0.0000 0.0000 0.0000 0.0000 0.0000 29.1043
#
#
#
# Elastic Compliance Matrix: (Units=1/GPa)
#
#
# Indices 1 2 3 4 5 6 
#
# 1 0.033017 0.009000 -0.002427 0.000000 0.000000 0.000000
# 2 0.009000 0.012842 -0.001921 0.000000 0.000000 0.000000
# 3 -0.002427 -0.001921 0.011606 0.000000 0.000000 0.000000
# 4 0.000000 0.000000 0.000000 -0.735365 0.000000 0.000000
# 5 0.000000 0.000000 0.000000 0.000000 -0.057360 0.000000
# 6 0.000000 0.000000 0.000000 0.000000 0.000000 0.034359
#
#
# Mechanical properties :
#
#
# Convention : Reuss Voigt Hill
#
# Bulk Modulus (GPa) = 14.97680 22.32342 18.65011
# Shear Modulus (GPa) = -7.26797 17.74934 5.24068
#
# Velocity S-wave (km/s) = -1.81387 2.83459 1.54026
# Velocity P-wave (km/s) = 1.54693 4.56276 3.40674
#
# Compressibility (1/GPa) = 0.06676994
#
# Stress axis : x y z
#
# Youngs Moduli (GPa) = 30.28742 77.87065 86.16472
#
# Poissons Ratio (x) = -0.70084 0.20910
# Poissons Ratio (y) = -0.27259 0.16549
# Poissons Ratio (z) = 0.07350 0.14956
#
# Static dielectric constant tensor:
#      x y z
#    x 2.159030 0.000000 0.000000 
#    y 0.000000 1.799740 0.000000 
#    z 0.000000 0.000000 1.847570 
# 
# From -- ./inp_files/20365.got.cif
#   From: 2010.05.17/outbox.cif.g08.bks.cpg/sg57_11_cif.got.tgz:20365.got - 2010.06.03 13:58:18.
