data_PCOD9437140
_publ_section_title
;
Structure prediction by ZEFSAII (Michael W. Deem and Ramdas Pophale) SiO2 
 PCOD9437140
Probable space group: P B C M
;
_chemical_formula_sum "Si O2"
_cell_formula_units_Z 56
_cell_length_a 13.902605
_cell_length_b 24.765106
_cell_length_c 8.900956
_cell_angle_alpha 90.000000
_cell_angle_beta 90.000000
_cell_angle_gamma 90.000000
_cell_volume 3064.594580
_symmetry_space_group_name_H-M "P B C M"
_symmetry_group_IT_number 57
_symmetry_cell_setting 'orthorhombic'
loop_
_space_group_symop_operation_xyz
x,y,z
-x,-y,1/2+z
x,1/2-y,-z
-x,1/2+y,1/2-z
-x,-y,-z
x,y,1/2-z
-x,1/2+y,z
x,1/2-y,1/2+z
loop_
_atom_site_type_symbol
_atom_site_label
_atom_site_fract_x
_atom_site_fract_y
_atom_site_fract_z
Si Si1 0.660581 0.191302 0.429582
Si Si2 0.996346 0.692357 0.071346
Si Si3 0.768052 0.692772 0.071847
Si Si4 0.453800 0.596404 0.569868
Si Si5 0.726254 0.478515 0.070776
Si Si6 0.160725 0.627209 0.930295
Si Si7 0.324435 0.087465 0.571300
O O1 0.646031 0.250000 0.500000
O O2 0.665484 0.194065 0.250000
O O3 0.577762 0.150259 0.483465
O O4 0.758725 0.165743 0.495866
O O5 0.013104 0.693468 0.250000
O O6 0.882559 0.685554 0.044221
O O7 0.025077 0.750000 0.000000
O O8 0.059163 0.645953 0.994796
O O9 0.752908 0.694822 0.250000
O O10 0.739291 0.750000 0.000000
O O11 0.712983 0.642438 0.001678
O O12 0.445931 0.605963 0.750000
O O13 0.375081 0.550759 0.532153
O O14 0.562488 0.580437 0.534283
O O15 0.727717 0.487261 0.250000
O O16 0.807454 0.434082 0.033727
O O17 0.731779 0.535368 0.989028
O O18 0.164198 0.633308 0.750000
O O19 0.315211 0.091048 0.750000
#
# Coordination Sequence:
#
# PCOD9437140 Si02
#       7
#     8   8   8   8   8   8   8
#     4  11  21  33  51  76 108 144 180 221 268 321
#     4  10  20  35  57  83 109 141 180 222 267 320
#     4  10  22  40  60  82 110 141 179 225 270 317
#     4   9  20  37  54  77 108 142 181 225 270 318
#     4   9  19  36  56  79 110 143 177 219 267 317
#     4  10  20  35  55  80 111 144 177 219 268 319
#     4  11  22  36  58  83 108 141 181 223 269 320
#
# _framework density 18.273216999999999
#
# number of rings (size 3 to 8) (size 9 to 14) (size 15 to 20)
#    0.000    2.000    0.000    4.714    0.000    6.286 
#    0.000    0.714    0.000    0.000    0.000    0.000 
#    0.000    0.000    0.000    0.000    0.000    0.000 
#
# Total GULP energy -312790.007738 kJ/mol
# GULP energy per Si atom -5585.535852 kJ/mol
# Density = 1.823163 g / cm^3
# Si number density = 18.273217 Si / 1000 Ang^3
#
#
#
# Elastic Constant Matrix: (Units=GPa)
#
#
# Indices 1 2 3 4 5 6 
#
# 1 34.4954 31.3469 24.7258 0.0000 0.0000 0.0000
# 2 31.3469 131.4185 46.0031 0.0000 0.0000 0.0000
# 3 24.7258 46.0031 53.0070 0.0000 0.0000 0.0000
# 4 0.0000 0.0000 0.0000 36.0031 0.0000 0.0000
# 5 0.0000 0.0000 0.0000 0.0000 28.7409 0.0000
# 6 0.0000 0.0000 0.0000 0.0000 0.0000 19.1905
#
#
#
# Elastic Compliance Matrix: (Units=1/GPa)
#
#
# Indices 1 2 3 4 5 6 
#
# 1 0.045677 -0.004936 -0.017022 0.000000 0.000000 0.000000
# 2 -0.004936 0.011463 -0.007646 0.000000 0.000000 0.000000
# 3 -0.017022 -0.007646 0.033441 0.000000 0.000000 0.000000
# 4 0.000000 0.000000 0.000000 0.027775 0.000000 0.000000
# 5 0.000000 0.000000 0.000000 0.000000 0.034794 0.000000
# 6 0.000000 0.000000 0.000000 0.000000 0.000000 0.052109
#
#
# Mechanical properties :
#
#
# Convention : Reuss Voigt Hill
#
# Bulk Modulus (GPa) = 31.87566 47.00807 39.44186
# Shear Modulus (GPa) = 18.18673 24.57655 21.38164
#
# Velocity S-wave (km/s) = 3.15821 3.67133 3.42440
# Velocity P-wave (km/s) = 5.54805 6.61457 6.10464
#
# Compressibility (1/GPa) = 0.03137190
#
# Stress axis : x y z
#
# Youngs Moduli (GPa) = 21.89309 87.23564 29.90317
#
# Poissons Ratio (x) = 0.43063 0.50902
# Poissons Ratio (y) = 0.10807 0.22864
# Poissons Ratio (z) = 0.37267 0.66699
#
# Static dielectric constant tensor:
#      x y z
#    x 1.632640 0.000000 0.000000 
#    y 0.000000 1.603680 0.000000 
#    z 0.000000 0.000000 1.602540 
# 
# From -- ./inp_files/5120.got.cif
#   From: 2010.05.17/outbox.cif.g08.bks.cpg/sg57_3_cif.got.tgz:5120.got - 2010.06.03 13:58:18.
