data_PCOD9437143
_publ_section_title
;
Structure prediction by ZEFSAII (Michael W. Deem and Ramdas Pophale) SiO2 
 PCOD9437143
Probable space group: P B C M
;
_chemical_formula_sum "Si O2"
_cell_formula_units_Z 64
_cell_length_a 23.114787
_cell_length_b 17.920886
_cell_length_c 8.821273
_cell_angle_alpha 90.000000
_cell_angle_beta 90.000000
_cell_angle_gamma 90.000000
_cell_volume 3654.101746
_symmetry_space_group_name_H-M "P B C M"
_symmetry_group_IT_number 57
_symmetry_cell_setting 'orthorhombic'
loop_
_space_group_symop_operation_xyz
x,y,z
-x,-y,1/2+z
x,1/2-y,-z
-x,1/2+y,1/2-z
-x,-y,-z
x,y,1/2-z
-x,1/2+y,z
x,1/2-y,1/2+z
loop_
_atom_site_type_symbol
_atom_site_label
_atom_site_fract_x
_atom_site_fract_y
_atom_site_fract_z
Si Si1 0.041093 0.064356 0.932291
Si Si2 0.058567 0.830737 0.431875
Si Si3 0.742622 0.983324 0.432139
Si Si4 0.583174 0.630132 0.569014
Si Si5 0.295250 0.327920 0.930524
Si Si6 0.137939 0.527511 0.567865
Si Si7 0.545594 0.172994 0.569681
Si Si8 0.615676 0.460925 0.571004
O O1 0.043737 0.058682 0.750000
O O2 0.006149 0.139661 0.971620
O O3 0.102618 0.043788 0.003280
O O4 0.000000 0.000000 0.000000
O O5 0.070736 0.750000 0.500000
O O6 0.061406 0.826002 0.250000
O O7 0.103475 0.896623 0.477442
O O8 0.746501 0.978732 0.250000
O O9 0.736306 0.900059 0.499413
O O10 0.798070 0.023739 0.501203
O O11 0.682769 0.025773 0.470055
O O12 0.591745 0.643945 0.750000
O O13 0.637416 0.663183 0.479403
O O14 0.521014 0.660133 0.519751
O O15 0.585114 0.540859 0.547110
O O16 0.290193 0.327834 0.750000
O O17 0.273961 0.250000 0.000000
O O18 0.138281 0.524308 0.750000
O O19 0.567298 0.250000 0.500000
O O20 0.545063 0.177791 0.750000
O O21 0.584260 0.103834 0.518670
O O22 0.612747 0.444064 0.750000
#
# Coordination Sequence:
#
# PCOD9437143 Si02
#       8
#     8   8   8   8   8   8   8   8
#     4   9  17  31  51  77 106 137 171 211 257 306
#     4   9  19  33  52  80 112 141 175 217 261 307
#     4  10  21  38  58  79 104 139 180 221 264 313
#     4   9  19  35  54  78 104 132 168 212 263 323
#     4  11  21  34  54  79 107 138 171 214 264 316
#     4  10  20  35  55  81 108 140 182 221 259 313
#     4  11  22  34  51  75 104 136 172 215 266 319
#     4   9  19  36  55  75 102 133 171 217 266 319
#
# _framework density 17.514564
#
# number of rings (size 3 to 8) (size 9 to 14) (size 15 to 20)
#    0.000    2.250    0.000    4.875    0.000    7.500 
#    0.000    1.250    0.000    3.000    0.000    0.000 
#    0.000    0.000    0.000    0.000    0.000    0.000 
#
# Total GULP energy -357045.143238 kJ/mol
# GULP energy per Si atom -5578.830363 kJ/mol
# Density = 1.747470 g / cm^3
# Si number density = 17.514564 Si / 1000 Ang^3
#
#
#
# Elastic Constant Matrix: (Units=GPa)
#
#
# Indices 1 2 3 4 5 6 
#
# 1 68.3070 44.0725 28.3656 0.0000 0.0000 0.0000
# 2 44.0725 92.0030 36.7733 0.0000 0.0000 0.0000
# 3 28.3656 36.7733 55.8957 0.0000 0.0000 0.0000
# 4 0.0000 0.0000 0.0000 28.3221 0.0000 0.0000
# 5 0.0000 0.0000 0.0000 0.0000 30.9946 0.0000
# 6 0.0000 0.0000 0.0000 0.0000 0.0000 14.7463
#
#
#
# Elastic Compliance Matrix: (Units=1/GPa)
#
#
# Indices 1 2 3 4 5 6 
#
# 1 0.022528 -0.008442 -0.005878 0.000000 0.000000 0.000000
# 2 -0.008442 0.017911 -0.007499 0.000000 0.000000 0.000000
# 3 -0.005878 -0.007499 0.025807 0.000000 0.000000 0.000000
# 4 0.000000 0.000000 0.000000 0.035308 0.000000 0.000000
# 5 0.000000 0.000000 0.000000 0.000000 0.032264 0.000000
# 6 0.000000 0.000000 0.000000 0.000000 0.000000 0.067814
#
#
# Mechanical properties :
#
#
# Convention : Reuss Voigt Hill
#
# Bulk Modulus (GPa) = 44.23488 48.29207 46.26348
# Shear Modulus (GPa) = 19.77807 21.94556 20.86181
#
# Velocity S-wave (km/s) = 3.36406 3.54360 3.45499
# Velocity P-wave (km/s) = 6.35610 6.66147 6.51058
#
# Compressibility (1/GPa) = 0.02260659
#
# Stress axis : x y z
#
# Youngs Moduli (GPa) = 44.38978 55.83286 38.74889
#
# Poissons Ratio (x) = 0.47134 0.22778
# Poissons Ratio (y) = 0.37474 0.29058
# Poissons Ratio (z) = 0.26094 0.41870
#
# Static dielectric constant tensor:
#      x y z
#    x 1.722660 0.000000 0.000000 
#    y 0.000000 1.584040 0.000000 
#    z 0.000000 0.000000 1.583040 
# 
# From -- ./inp_files/9452.got.cif
#   From: 2010.05.17/outbox.cif.g08.bks.cpg/sg57_5_cif.got.tgz:9452.got - 2010.06.03 13:58:18.
