data_PCOD9437790
_publ_section_title
;
Structure prediction by ZEFSAII (Michael W. Deem and Ramdas Pophale) SiO2 
 PCOD9437790
Probable space group: P B C M
;
_chemical_formula_sum "Si O2"
_cell_formula_units_Z 40
_cell_length_a 9.336871
_cell_length_b 26.409089
_cell_length_c 8.686212
_cell_angle_alpha 90.000000
_cell_angle_beta 90.000000
_cell_angle_gamma 90.000000
_cell_volume 2141.831017
_symmetry_space_group_name_H-M "P B C M"
_symmetry_group_IT_number 57
_symmetry_cell_setting 'orthorhombic'
loop_
_space_group_symop_operation_xyz
x,y,z
-x,-y,1/2+z
x,1/2-y,-z
-x,1/2+y,1/2-z
-x,-y,-z
x,y,1/2-z
-x,1/2+y,z
x,1/2-y,1/2+z
loop_
_atom_site_type_symbol
_atom_site_label
_atom_site_fract_x
_atom_site_fract_y
_atom_site_fract_z
Si Si1 0.842649 0.402555 0.436506
Si Si2 0.663769 0.195507 0.935228
Si Si3 0.161677 0.400141 0.565225
Si Si4 0.340236 0.499194 0.935672
Si Si5 0.330654 0.195131 0.934747
O O1 0.851412 0.402438 0.250000
O O2 0.762683 0.350984 0.485389
O O3 0.748266 0.451022 0.483262
O O4 0.000861 0.405419 0.504172
O O5 0.667933 0.197779 0.750000
O O6 0.497566 0.186654 0.979869
O O7 0.708535 0.250000 0.000000
O O8 0.160584 0.398418 0.750000
O O9 0.255633 0.448712 0.515987
O O10 0.234019 0.349484 0.500494
O O11 0.347452 0.499441 0.750000
O O12 0.500000 0.500000 0.000000
O O13 0.322238 0.195688 0.750000
O O14 0.288497 0.250000 0.000000
#
# Coordination Sequence:
#
# PCOD9437790 Si02
#       5
#     8   8   8   8   8
#     4  10  21  38  57  80 112 150 187 228 280 336
#     4   9  19  35  57  82 108 141 184 228 274 327
#     4  11  23  37  55  84 116 147 185 231 281 336
#     4  10  22  39  60  84 111 144 188 236 283 336
#     4  10  20  37  60  84 112 148 187 231 278 329
#
# _framework density 18.675611
#
# number of rings (size 3 to 8) (size 9 to 14) (size 15 to 20)
#    0.000    2.000    0.000    3.000    0.000    6.400 
#    0.000    2.000    0.000    0.000    0.000    0.000 
#    0.000    0.000    0.000    0.000    0.000    0.000 
#
# Total GULP energy -223496.862591 kJ/mol
# GULP energy per Si atom -5587.421565 kJ/mol
# Density = 1.863310 g / cm^3
# Si number density = 18.675611 Si / 1000 Ang^3
#
#
#
# Elastic Constant Matrix: (Units=GPa)
#
#
# Indices 1 2 3 4 5 6 
#
# 1 173.1152 138.5452 41.4961 0.0000 0.0000 0.0000
# 2 138.5452 206.4075 47.1884 0.0000 0.0000 0.0000
# 3 41.4961 47.1884 27.3626 0.0000 0.0000 0.0000
# 4 0.0000 0.0000 0.0000 28.0365 0.0000 0.0000
# 5 0.0000 0.0000 0.0000 0.0000 29.8214 0.0000
# 6 0.0000 0.0000 0.0000 0.0000 0.0000 -16.5124
#
#
#
# Elastic Compliance Matrix: (Units=1/GPa)
#
#
# Indices 1 2 3 4 5 6 
#
# 1 0.013459 -0.007211 -0.007976 0.000000 0.000000 0.000000
# 2 -0.007211 0.011861 -0.009520 0.000000 0.000000 0.000000
# 3 -0.007976 -0.009520 0.065060 0.000000 0.000000 0.000000
# 4 0.000000 0.000000 0.000000 0.035668 0.000000 0.000000
# 5 0.000000 0.000000 0.000000 0.000000 0.033533 0.000000
# 6 0.000000 0.000000 0.000000 0.000000 0.000000 -0.060561
#
#
# Mechanical properties :
#
#
# Convention : Reuss Voigt Hill
#
# Bulk Modulus (GPa) = 24.40995 95.70495 60.05745
# Shear Modulus (GPa) = 30.84711 20.24614 25.54662
#
# Velocity S-wave (km/s) = 4.06856 3.29613 3.70254
# Velocity P-wave (km/s) = 5.93041 8.11438 7.10679
#
# Compressibility (1/GPa) = 0.04096690
#
# Stress axis : x y z
#
# Youngs Moduli (GPa) = 74.29993 84.30875 15.37036
#
# Poissons Ratio (x) = 0.60791 0.12259
# Poissons Ratio (y) = 0.53574 0.14633
# Poissons Ratio (z) = 0.59261 0.80265
#
# Static dielectric constant tensor:
#      x y z
#    x 1.609540 0.000000 0.000000 
#    y 0.000000 1.625860 0.000000 
#    z 0.000000 0.000000 1.634570 
# 
# From -- ./inp_files/1483.got.cif
#   From: 2010.05.17/outbox.cif.g08.bks.cpg/sg57_1_cif.got.tgz:1483.got - 2010.06.03 13:58:18.
