data_PCOD9437615
_publ_section_title
;
Structure prediction by ZEFSAII (Michael W. Deem and Ramdas Pophale) SiO2 
 PCOD9437615
Probable space group: P B C M
;
_chemical_formula_sum "Si O2"
_cell_formula_units_Z 56
_cell_length_a 13.769476
_cell_length_b 12.421348
_cell_length_c 17.422477
_cell_angle_alpha 90.000000
_cell_angle_beta 90.000000
_cell_angle_gamma 90.000000
_cell_volume 2979.861249
_symmetry_space_group_name_H-M "P B C M"
_symmetry_group_IT_number 57
_symmetry_cell_setting 'orthorhombic'
loop_
_space_group_symop_operation_xyz
x,y,z
-x,-y,1/2+z
x,1/2-y,-z
-x,1/2+y,1/2-z
-x,-y,-z
x,y,1/2-z
-x,1/2+y,z
x,1/2-y,1/2+z
loop_
_atom_site_type_symbol
_atom_site_label
_atom_site_fract_x
_atom_site_fract_y
_atom_site_fract_z
Si Si1 0.600942 0.472558 0.658185
Si Si2 0.897033 0.775961 0.913349
Si Si3 0.902892 0.278464 0.339810
Si Si4 0.753502 0.151142 0.442633
Si Si5 0.296848 0.200254 0.840852
Si Si6 0.621556 0.934210 0.841410
Si Si7 0.813581 0.014837 0.918191
O O1 0.609672 0.448882 0.750000
O O2 0.663711 0.391485 0.606919
O O3 0.643720 0.591810 0.645026
O O4 0.487497 0.466348 0.637614
O O5 0.801363 0.709152 0.889613
O O6 0.985791 0.747989 0.858359
O O7 0.866325 0.900727 0.910536
O O8 0.927329 0.750000 0.000000
O O9 0.883862 0.273243 0.250000
O O10 0.835464 0.195025 0.385520
O O11 0.873159 0.395040 0.372455
O O12 0.727903 0.250000 0.500000
O O13 0.798327 0.057277 0.495611
O O14 0.271736 0.203460 0.750000
O O15 0.358996 0.307802 0.857253
O O16 0.632734 0.950333 0.750000
O O17 0.705769 0.000230 0.883309
#
# Coordination Sequence:
#
# PCOD9437615 Si02
#       7
#     8   8   8   8   8   8   8
#     4  10  20  36  60  86 114 150 191 239 285 326
#     4  11  22  38  60  85 115 149 187 233 286 341
#     4  11  24  40  60  84 112 150 192 236 285 339
#     4  10  22  39  57  84 117 148 188 235 283 339
#     4   9  19  35  55  83 115 146 188 234 276 333
#     4   9  19  36  58  84 115 153 191 227 277 339
#     4  10  22  40  59  82 117 155 188 228 286 348
#
# _framework density 18.792821
#
# number of rings (size 3 to 8) (size 9 to 14) (size 15 to 20)
#    0.000    2.000    0.000    3.429    0.000    8.000 
#    0.000    7.143    0.000    0.000    0.000    0.000 
#    0.000    0.000    0.000    0.000    0.000    0.000 
#
# Total GULP energy -312845.389722 kJ/mol
# GULP energy per Si atom -5586.524816 kJ/mol
# Density = 1.875005 g / cm^3
# Si number density = 18.792821 Si / 1000 Ang^3
#
#
#
# Elastic Constant Matrix: (Units=GPa)
#
#
# Indices 1 2 3 4 5 6 
#
# 1 108.2711 64.2354 48.8356 0.0000 0.0000 0.0000
# 2 64.2354 73.2822 38.4353 0.0000 0.0000 0.0000
# 3 48.8356 38.4353 80.1963 0.0000 0.0000 0.0000
# 4 0.0000 0.0000 0.0000 22.9259 0.0000 0.0000
# 5 0.0000 0.0000 0.0000 0.0000 -66.2389 0.0000
# 6 0.0000 0.0000 0.0000 0.0000 0.0000 20.5080
#
#
#
# Elastic Compliance Matrix: (Units=1/GPa)
#
#
# Indices 1 2 3 4 5 6 
#
# 1 0.020771 -0.015458 -0.005240 0.000000 0.000000 0.000000
# 2 -0.015458 0.029732 -0.004836 0.000000 0.000000 0.000000
# 3 -0.005240 -0.004836 0.017978 0.000000 0.000000 0.000000
# 4 0.000000 0.000000 0.000000 0.043619 0.000000 0.000000
# 5 0.000000 0.000000 0.000000 0.000000 -0.015097 0.000000
# 6 0.000000 0.000000 0.000000 0.000000 0.000000 0.048761
#
#
# Mechanical properties :
#
#
# Convention : Reuss Voigt Hill
#
# Bulk Modulus (GPa) = 57.43044 62.75135 60.09089
# Shear Modulus (GPa) = 24.67467 2.78856 13.73161
#
# Velocity S-wave (km/s) = 3.62744 1.21945 2.70605
# Velocity P-wave (km/s) = 6.94050 5.95369 6.46595
#
# Compressibility (1/GPa) = 0.01741237
#
# Stress axis : x y z
#
# Youngs Moduli (GPa) = 48.14513 33.63334 55.62367
#
# Poissons Ratio (x) = 0.51991 0.29145
# Poissons Ratio (y) = 0.74424 0.26902
# Poissons Ratio (z) = 0.25226 0.16266
#
# Static dielectric constant tensor:
#      x y z
#    x 1.610620 0.000000 0.000000 
#    y 0.000000 1.639570 0.000000 
#    z 0.000000 0.000000 1.641840 
# 
# From -- ./inp_files/18512.got.cif
#   From: 2010.05.17/outbox.cif.g08.bks.cpg/sg57_10_cif.got.tgz:18512.got - 2010.06.03 13:58:18.
