data_PCOD9437338
_publ_section_title
;
Structure prediction by ZEFSAII (Michael W. Deem and Ramdas Pophale) SiO2 
 PCOD9437338
Probable space group: P B C M
;
_chemical_formula_sum "Si O2"
_cell_formula_units_Z 40
_cell_length_a 8.638996
_cell_length_b 9.921387
_cell_length_c 21.616772
_cell_angle_alpha 90.000000
_cell_angle_beta 90.000000
_cell_angle_gamma 90.000000
_cell_volume 1852.791310
_symmetry_space_group_name_H-M "P B C M"
_symmetry_group_IT_number 57
_symmetry_cell_setting 'orthorhombic'
loop_
_space_group_symop_operation_xyz
x,y,z
-x,-y,1/2+z
x,1/2-y,-z
-x,1/2+y,1/2-z
-x,-y,-z
x,y,1/2-z
-x,1/2+y,z
x,1/2-y,1/2+z
loop_
_atom_site_type_symbol
_atom_site_label
_atom_site_fract_x
_atom_site_fract_y
_atom_site_fract_z
Si Si1 0.362110 0.511885 0.316962
Si Si2 0.392288 0.383628 0.585216
Si Si3 0.178567 0.237364 0.319340
Si Si4 0.640992 0.335964 0.055235
Si Si5 0.178310 0.724217 0.819919
O O1 0.438341 0.533269 0.250000
O O2 0.481907 0.549207 0.369210
O O3 0.295933 0.362970 0.319590
O O4 0.221095 0.617074 0.320342
O O5 0.239546 0.353200 0.624930
O O6 0.362471 0.505962 0.537913
O O7 0.478573 0.246413 0.564162
O O8 0.183310 0.175662 0.250000
O O9 0.004649 0.289762 0.328289
O O10 0.727234 0.330815 0.121576
O O11 0.719219 0.250000 0.000000
O O12 0.220745 0.675452 0.750000
#
# Coordination Sequence:
#
# PCOD9437338 Si02
#       5
#     8   8   8   8   8
#     4   9  18  34  55  86 121 150 193 248 295 355
#     4  11  21  39  61  86 118 158 203 244 304 355
#     4  10  20  35  59  92 122 155 198 249 305 360
#     4  11  24  42  63  88 122 160 205 251 303 359
#     4   9  21  38  61  87 121 158 199 249 301 357
#
# _framework density 21.589047000000001
#
# number of rings (size 3 to 8) (size 9 to 14) (size 15 to 20)
#    0.000    2.000    2.000    1.200    2.800    2.400 
#    0.000    2.000    0.000    0.000    0.000    0.000 
#    0.000    0.000    0.000    0.000    0.000    0.000 
#
# Total GULP energy -223079.769868 kJ/mol
# GULP energy per Si atom -5576.994247 kJ/mol
# Density = 2.153991 g / cm^3
# Si number density = 21.589047 Si / 1000 Ang^3
#
#
#
# Elastic Constant Matrix: (Units=GPa)
#
#
# Indices 1 2 3 4 5 6 
#
# 1 54.7774 -14.9488 28.1458 0.0000 0.0000 0.0000
# 2 -14.9488 60.6684 -4.0514 0.0000 0.0000 0.0000
# 3 28.1458 -4.0514 87.5559 0.0000 0.0000 0.0000
# 4 0.0000 0.0000 0.0000 23.9438 0.0000 0.0000
# 5 0.0000 0.0000 0.0000 0.0000 22.1384 0.0000
# 6 0.0000 0.0000 0.0000 0.0000 0.0000 16.6436
#
#
#
# Elastic Compliance Matrix: (Units=1/GPa)
#
#
# Indices 1 2 3 4 5 6 
#
# 1 0.023446 0.005290 -0.007292 0.000000 0.000000 0.000000
# 2 0.005290 0.017728 -0.000880 0.000000 0.000000 0.000000
# 3 -0.007292 -0.000880 0.013725 0.000000 0.000000 0.000000
# 4 0.000000 0.000000 0.000000 0.041765 0.000000 0.000000
# 5 0.000000 0.000000 0.000000 0.000000 0.045170 0.000000
# 6 0.000000 0.000000 0.000000 0.000000 0.000000 0.060083
#
#
# Mechanical properties :
#
#
# Convention : Reuss Voigt Hill
#
# Bulk Modulus (GPa) = 20.35245 24.58811 22.47028
# Shear Modulus (GPa) = 22.31548 25.46889 23.89219
#
# Velocity S-wave (km/s) = 3.21853 3.43842 3.33029
# Velocity P-wave (km/s) = 4.82282 5.21321 5.02181
#
# Compressibility (1/GPa) = 0.04913412
#
# Stress axis : x y z
#
# Youngs Moduli (GPa) = 42.65053 56.40868 72.86117
#
# Poissons Ratio (x) = -0.29841 0.53133
# Poissons Ratio (y) = -0.22563 0.06414
# Poissons Ratio (z) = 0.31102 0.04966
#
# Static dielectric constant tensor:
#      x y z
#    x 1.745430 0.000000 0.000000 
#    y 0.000000 1.838140 0.000000 
#    z 0.000000 0.000000 1.849610 
# 
# From -- ./inp_files/20521.got.cif
#   From: 2010.05.17/outbox.cif.g08.bks.cpg/sg57_11_cif.got.tgz:20521.got - 2010.06.03 13:58:18.
