data_PCOD9437444
_publ_section_title
;
Structure prediction by ZEFSAII (Michael W. Deem and Ramdas Pophale) SiO2 
 PCOD9437444
Probable space group: P B C M
;
_chemical_formula_sum "Si O2"
_cell_formula_units_Z 48
_cell_length_a 31.466712
_cell_length_b 9.538164
_cell_length_c 8.688620
_cell_angle_alpha 90.000000
_cell_angle_beta 90.000000
_cell_angle_gamma 90.000000
_cell_volume 2607.756006
_symmetry_space_group_name_H-M "P B C M"
_symmetry_group_IT_number 57
_symmetry_cell_setting 'orthorhombic'
loop_
_space_group_symop_operation_xyz
x,y,z
-x,-y,1/2+z
x,1/2-y,-z
-x,1/2+y,1/2-z
-x,-y,-z
x,y,1/2-z
-x,1/2+y,z
x,1/2-y,1/2+z
loop_
_atom_site_type_symbol
_atom_site_label
_atom_site_fract_x
_atom_site_fract_y
_atom_site_fract_z
Si Si1 0.633176 0.905871 0.435150
Si Si2 0.462656 0.405533 0.434499
Si Si3 0.134020 0.907488 0.564845
Si Si4 0.286869 0.907200 0.935635
Si Si5 0.790330 0.592641 0.434373
Si Si6 0.037024 0.904888 0.566485
O O1 0.641309 0.750000 0.500000
O O2 0.634196 0.895538 0.250000
O O3 0.585326 0.950578 0.480176
O O4 0.669221 0.015758 0.481721
O O5 0.467964 0.250000 0.500000
O O6 0.500000 0.500000 0.500000
O O7 0.464801 0.403868 0.250000
O O8 0.140869 0.750000 0.500000
O O9 0.138988 0.904622 0.750000
O O10 0.085347 0.949729 0.527563
O O11 0.167194 0.014226 0.491208
O O12 0.284232 0.903561 0.750000
O O13 0.284698 0.750000 0.000000
O O14 0.248688 0.000960 0.001171
O O15 0.788314 0.750000 0.500000
O O16 0.788870 0.596607 0.250000
O O17 0.031857 0.750000 0.500000
O O18 0.033917 0.901311 0.750000
O O19 0.000000 0.000000 0.500000
#
# Coordination Sequence:
#
# PCOD9437444 Si02
#       6
#     8   8   8   8   8   8
#     4   9  20  37  58  82 111 146 187 231 280 334
#     4  10  20  36  56  82 113 149 189 232 281 334
#     4  10  21  39  61  86 115 151 191 234 282 335
#     4  11  23  40  60  85 115 149 187 230 278 333
#     4  12  25  41  61  86 115 149 187 232 281 335
#     4  10  21  37  59  85 116 152 192 235 283 335
#
# _framework density 18.40663
#
# number of rings (size 3 to 8) (size 9 to 14) (size 15 to 20)
#    0.000    1.667    0.000    4.500    0.000    6.667 
#    0.000    1.667    0.000    0.000    0.000    0.000 
#    0.000    0.000    0.000    0.000    0.000    0.000 
#
# Total GULP energy -268209.933630 kJ/mol
# GULP energy per Si atom -5587.706951 kJ/mol
# Density = 1.836474 g / cm^3
# Si number density = 18.406630 Si / 1000 Ang^3
#
#
#
# Elastic Constant Matrix: (Units=GPa)
#
#
# Indices 1 2 3 4 5 6 
#
# 1 199.5228 135.5907 79.7208 0.0000 0.0000 0.0000
# 2 135.5907 148.1052 63.8837 0.0000 0.0000 0.0000
# 3 79.7208 63.8837 92.0748 0.0000 0.0000 0.0000
# 4 0.0000 0.0000 0.0000 38.3926 0.0000 0.0000
# 5 0.0000 0.0000 0.0000 0.0000 28.1345 0.0000
# 6 0.0000 0.0000 0.0000 0.0000 0.0000 43.3584
#
#
#
# Elastic Compliance Matrix: (Units=1/GPa)
#
#
# Indices 1 2 3 4 5 6 
#
# 1 0.014620 -0.011309 -0.004812 0.000000 0.000000 0.000000
# 2 -0.011309 0.018384 -0.002963 0.000000 0.000000 0.000000
# 3 -0.004812 -0.002963 0.017083 0.000000 0.000000 0.000000
# 4 0.000000 0.000000 0.000000 0.026047 0.000000 0.000000
# 5 0.000000 0.000000 0.000000 0.000000 0.035544 0.000000
# 6 0.000000 0.000000 0.000000 0.000000 0.000000 0.023064
#
#
# Mechanical properties :
#
#
# Convention : Reuss Voigt Hill
#
# Bulk Modulus (GPa) = 83.90592 110.89923 97.40258
# Shear Modulus (GPa) = 28.26756 32.67761 30.47259
#
# Velocity S-wave (km/s) = 3.92309 4.21802 4.07323
# Velocity P-wave (km/s) = 8.13661 9.17075 8.66911
#
# Compressibility (1/GPa) = 0.01191811
#
# Stress axis : x y z
#
# Youngs Moduli (GPa) = 68.40008 54.39639 58.53791
#
# Poissons Ratio (x) = 0.61517 0.28167
# Poissons Ratio (y) = 0.77354 0.17347
# Poissons Ratio (z) = 0.32913 0.16119
#
# Static dielectric constant tensor:
#      x y z
#    x 1.645640 0.000000 0.000000 
#    y 0.000000 1.579360 0.000000 
#    z 0.000000 0.000000 1.630890 
# 
# From -- ./inp_files/9907.got.cif
#   From: 2010.05.17/outbox.cif.g08.bks.cpg/sg57_5_cif.got.tgz:9907.got - 2010.06.03 13:58:18.
