data_PCOD9437794
_publ_section_title
;
Structure prediction by ZEFSAII (Michael W. Deem and Ramdas Pophale) SiO2 
 PCOD9437794
Probable space group: P B C M
;
_chemical_formula_sum "Si O2"
_cell_formula_units_Z 56
_cell_length_a 29.734389
_cell_length_b 5.021168
_cell_length_c 14.542754
_cell_angle_alpha 90.000000
_cell_angle_beta 90.000000
_cell_angle_gamma 90.000000
_cell_volume 2171.252987
_symmetry_space_group_name_H-M "P B C M"
_symmetry_group_IT_number 57
_symmetry_cell_setting 'orthorhombic'
loop_
_space_group_symop_operation_xyz
x,y,z
-x,-y,1/2+z
x,1/2-y,-z
-x,1/2+y,1/2-z
-x,-y,-z
x,y,1/2-z
-x,1/2+y,z
x,1/2-y,1/2+z
loop_
_atom_site_type_symbol
_atom_site_label
_atom_site_fract_x
_atom_site_fract_y
_atom_site_fract_z
Si Si1 0.577975 0.484333 0.062097
Si Si2 0.980953 0.121631 0.896949
Si Si3 0.271445 0.250000 0.000000
Si Si4 0.327681 0.560126 0.853427
Si Si5 0.854817 0.158650 0.857133
Si Si6 0.095753 0.324295 0.139129
Si Si7 0.527527 0.858691 0.750000
Si Si8 0.760029 0.416589 0.848904
O O1 0.625675 0.367482 0.098357
O O2 0.552330 0.563468 0.155440
O O3 0.556227 0.250000 0.000000
O O4 0.583701 0.750000 0.000000
O O5 0.980524 0.420825 0.853068
O O6 0.942356 0.894720 0.893176
O O7 0.984974 0.250000 0.000000
O O8 0.303800 0.353857 0.920280
O O9 0.239725 0.055480 0.945822
O O10 0.336699 0.460773 0.750000
O O11 0.289150 0.782387 0.846521
O O12 0.869013 0.160133 0.750000
O O13 0.888371 0.385853 0.898028
O O14 0.802631 0.225745 0.854824
O O15 0.861727 0.859846 0.888571
O O16 0.093041 0.336355 0.250000
O O17 0.516801 0.545425 0.750000
O O18 0.764978 0.565904 0.750000
#
# Coordination Sequence:
#
# PCOD9437794 Si02
#       8
#     8   8   4   8   8   8   4   8
#     4  12  26  48  78 113 152 199 254 316 375 447
#     4  10  21  37  56  81 117 151 193 255 328 396
#     4  12  22  40  64 100 132 168 242 290 346 414
#     4  11  24  44  68 100 141 189 236 299 367 427
#     4   9  20  38  59  85 123 164 209 262 325 396
#     4  10  20  37  60  85 115 155 207 262 319 394
#     4  12  28  52  78 116 158 204 256 314 384 460
#     4  10  23  41  63  92 135 185 227 286 356 419
#
# _framework density 25.79156
#
# number of rings (size 3 to 8) (size 9 to 14) (size 15 to 20)
#    0.000    1.429    1.429    3.429    2.000    2.286 
#    2.571    0.000    0.000    0.000    0.000    0.000 
#    0.000    0.000    0.000    0.000    0.000    0.000 
#
# Total GULP energy -312223.315741 kJ/mol
# GULP energy per Si atom -5575.416353 kJ/mol
# Density = 2.573286 g / cm^3
# Si number density = 25.791560 Si / 1000 Ang^3
#
#
#
# Elastic Constant Matrix: (Units=GPa)
#
#
# Indices 1 2 3 4 5 6 
#
# 1 51.2306 -3.3098 21.3714 0.0000 0.0000 0.0000
# 2 -3.3098 130.5130 45.4826 0.0000 0.0000 0.0000
# 3 21.3714 45.4826 173.5071 0.0000 0.0000 0.0000
# 4 0.0000 0.0000 0.0000 33.2219 0.0000 0.0000
# 5 0.0000 0.0000 0.0000 0.0000 13.3311 0.0000
# 6 0.0000 0.0000 0.0000 0.0000 0.0000 25.4364
#
#
#
# Elastic Compliance Matrix: (Units=1/GPa)
#
#
# Indices 1 2 3 4 5 6 
#
# 1 0.020864 0.001568 -0.002981 0.000000 0.000000 0.000000
# 2 0.001568 0.008550 -0.002434 0.000000 0.000000 0.000000
# 3 -0.002981 -0.002434 0.006769 0.000000 0.000000 0.000000
# 4 0.000000 0.000000 0.000000 0.030101 0.000000 0.000000
# 5 0.000000 0.000000 0.000000 0.000000 0.075013 0.000000
# 6 0.000000 0.000000 0.000000 0.000000 0.000000 0.039314
#
#
# Mechanical properties :
#
#
# Convention : Reuss Voigt Hill
#
# Bulk Modulus (GPa) = 35.10189 53.59326 44.34758
# Shear Modulus (GPa) = 25.27784 33.84496 29.56140
#
# Velocity S-wave (km/s) = 3.13402 3.62643 3.38918
# Velocity P-wave (km/s) = 5.17064 6.19347 5.70503
#
# Compressibility (1/GPa) = 0.02848849
#
# Stress axis : x y z
#
# Youngs Moduli (GPa) = 47.92852 116.95605 147.73690
#
# Poissons Ratio (x) = -0.18338 0.44040
# Poissons Ratio (y) = -0.07515 0.35966
# Poissons Ratio (z) = 0.14287 0.28472
#
# Static dielectric constant tensor:
#      x y z
#    x 2.189690 0.000000 0.000000 
#    y 0.000000 2.018070 0.000000 
#    z 0.000000 0.000000 2.114940 
# 
# From -- ./inp_files/19655.got.cif
#   From: 2010.05.17/outbox.cif.g08.bks.cpg/sg57_10_cif.got.tgz:19655.got - 2010.06.03 13:58:18.
