data_PCOD9437765
_publ_section_title
;
Structure prediction by ZEFSAII (Michael W. Deem and Ramdas Pophale) SiO2 
 PCOD9437765
Probable space group: P B C M
;
_chemical_formula_sum "Si O2"
_cell_formula_units_Z 64
_cell_length_a 17.440948
_cell_length_b 10.343058
_cell_length_c 14.366508
_cell_angle_alpha 90.000000
_cell_angle_beta 90.000000
_cell_angle_gamma 90.000000
_cell_volume 2591.613696
_symmetry_space_group_name_H-M "P B C M"
_symmetry_group_IT_number 57
_symmetry_cell_setting 'orthorhombic'
loop_
_space_group_symop_operation_xyz
x,y,z
-x,-y,1/2+z
x,1/2-y,-z
-x,1/2+y,1/2-z
-x,-y,-z
x,y,1/2-z
-x,1/2+y,z
x,1/2-y,1/2+z
loop_
_atom_site_type_symbol
_atom_site_label
_atom_site_fract_x
_atom_site_fract_y
_atom_site_fract_z
Si Si1 0.965858 0.829697 0.363948
Si Si2 0.326798 0.240924 0.887802
Si Si3 0.763197 0.515153 0.115605
Si Si4 0.483532 0.408200 0.143279
Si Si5 0.417191 0.676649 0.364243
Si Si6 0.196966 0.458211 0.101959
Si Si7 0.757046 0.276535 0.895733
Si Si8 0.936545 0.555844 0.144405
O O1 0.963551 0.819285 0.250000
O O2 0.886430 0.895970 0.393935
O O3 0.969340 0.684265 0.400976
O O4 0.035384 0.920420 0.395471
O O5 0.303840 0.385676 0.857079
O O6 0.406116 0.178118 0.856477
O O7 0.258559 0.143555 0.858603
O O8 0.330197 0.250000 0.000000
O O9 0.754499 0.366953 0.146665
O O10 0.845462 0.566114 0.147976
O O11 0.773483 0.522316 0.003805
O O12 0.506807 0.432226 0.250000
O O13 0.546778 0.311939 0.102502
O O14 0.463584 0.549240 0.103556
O O15 0.417326 0.674752 0.250000
O O16 0.329943 0.671328 0.396374
O O17 0.196552 0.602292 0.144548
O O18 0.785520 0.250000 0.000000
O O19 0.965935 0.552842 0.250000
#
# Coordination Sequence:
#
# PCOD9437765 Si02
#       8
#     8   8   8   8   8   8   8   8
#     4  10  22  38  58  82 113 148 186 231 277 331
#     4  10  20  37  59  84 111 145 188 231 278 333
#     4  10  22  37  58  84 114 145 182 235 277 328
#     4  10  22  39  59  83 114 149 189 232 278 334
#     4  10  22  40  59  83 114 149 189 232 278 333
#     4  10  20  39  59  81 112 145 187 229 278 332
#     4  10  22  39  58  85 116 146 186 234 281 331
#     4  10  22  39  56  82 114 147 187 229 277 332
#
# _framework density 24.695039000000001
#
# number of rings (size 3 to 8) (size 9 to 14) (size 15 to 20)
#    0.000    2.000    2.500    0.000    3.500    3.000 
#    0.000    1.250    0.000    0.000    0.000    0.000 
#    0.000    0.000    0.000    0.000    0.000    0.000 
#
# Total GULP energy -357761.036961 kJ/mol
# GULP energy per Si atom -5590.016203 kJ/mol
# Density = 2.463883 g / cm^3
# Si number density = 24.695039 Si / 1000 Ang^3
#
#
#
# Elastic Constant Matrix: (Units=GPa)
#
#
# Indices 1 2 3 4 5 6 
#
# 1 24.7581 -10.4377 -14.7485 0.0000 0.0000 0.0000
# 2 -10.4377 166.2039 13.7259 0.0000 0.0000 0.0000
# 3 -14.7485 13.7259 88.1243 0.0000 0.0000 0.0000
# 4 0.0000 0.0000 0.0000 4.8605 0.0000 0.0000
# 5 0.0000 0.0000 0.0000 0.0000 24.1489 0.0000
# 6 0.0000 0.0000 0.0000 0.0000 0.0000 49.5056
#
#
#
# Elastic Compliance Matrix: (Units=1/GPa)
#
#
# Indices 1 2 3 4 5 6 
#
# 1 0.045691 0.002267 0.007294 0.000000 0.000000 0.000000
# 2 0.002267 0.006208 -0.000587 0.000000 0.000000 0.000000
# 3 0.007294 -0.000587 0.012660 0.000000 0.000000 0.000000
# 4 0.000000 0.000000 0.000000 0.205742 0.000000 0.000000
# 5 0.000000 0.000000 0.000000 0.000000 0.041410 0.000000
# 6 0.000000 0.000000 0.000000 0.000000 0.000000 0.020200
#
#
# Mechanical properties :
#
#
# Convention : Reuss Voigt Hill
#
# Bulk Modulus (GPa) = 12.12037 28.46287 20.29162
# Shear Modulus (GPa) = 14.64278 35.07278 24.85778
#
# Velocity S-wave (km/s) = 2.43769 3.77269 3.17612
# Velocity P-wave (km/s) = 3.58354 5.52525 4.65672
#
# Compressibility (1/GPa) = 0.08250575
#
# Stress axis : x y z
#
# Youngs Moduli (GPa) = 21.88592 161.09300 78.99023
#
# Poissons Ratio (x) = -0.36521 -0.57614
# Poissons Ratio (y) = -0.04962 0.04640
# Poissons Ratio (z) = -0.15963 0.09463
#
# Static dielectric constant tensor:
#      x y z
#    x 1.869190 0.000000 0.000000 
#    y 0.000000 1.992100 0.000000 
#    z 0.000000 0.000000 1.958150 
# 
# From -- ./inp_files/25623.got.cif
#   From: 2010.05.17/outbox.cif.g08.bks.cpg/sg57_13_cif.got.tgz:25623.got - 2010.06.03 13:58:18.
