data_PCOD9437201
_publ_section_title
;
Structure prediction by ZEFSAII (Michael W. Deem and Ramdas Pophale) SiO2 
 PCOD9437201
Probable space group: P B C M
;
_chemical_formula_sum "Si O2"
_cell_formula_units_Z 48
_cell_length_a 15.026568
_cell_length_b 18.771651
_cell_length_c 9.043311
_cell_angle_alpha 90.000000
_cell_angle_beta 90.000000
_cell_angle_gamma 90.000000
_cell_volume 2550.878297
_symmetry_space_group_name_H-M "P B C M"
_symmetry_group_IT_number 57
_symmetry_cell_setting 'orthorhombic'
loop_
_space_group_symop_operation_xyz
x,y,z
-x,-y,1/2+z
x,1/2-y,-z
-x,1/2+y,1/2-z
-x,-y,-z
x,y,1/2-z
-x,1/2+y,z
x,1/2-y,1/2+z
loop_
_atom_site_type_symbol
_atom_site_label
_atom_site_fract_x
_atom_site_fract_y
_atom_site_fract_z
Si Si1 0.127557 0.063939 0.575072
Si Si2 0.025122 0.674056 0.572705
Si Si3 0.374465 0.947369 0.574207
Si Si4 0.281619 0.320304 0.423246
Si Si5 0.189748 0.920184 0.073504
Si Si6 0.430222 0.096590 0.074595
O O1 0.117569 0.046749 0.750000
O O2 0.214142 0.113990 0.558937
O O3 0.044592 0.112610 0.527114
O O4 0.142765 0.992500 0.483643
O O5 0.007438 0.750000 0.500000
O O6 0.016101 0.680985 0.750000
O O7 0.123572 0.644779 0.538678
O O8 0.363172 0.958538 0.750000
O O9 0.285065 0.915983 0.505289
O O10 0.463666 0.901090 0.550364
O O11 0.395357 0.023094 0.497709
O O12 0.243833 0.250000 0.500000
O O13 0.293947 0.307666 0.250000
O O14 0.373978 0.341216 0.500175
O O15 0.201203 0.924139 0.250000
O O16 0.413960 0.094694 0.250000
#
# Coordination Sequence:
#
# PCOD9437201 Si02
#       6
#     8   8   8   8   8   8
#     4  10  21  38  59  85 116 150 193 240 289 347
#     4  10  23  41  59  84 116 153 195 238 290 347
#     4  10  20  35  57  84 113 147 187 234 287 338
#     4  11  22  35  55  83 118 156 194 237 291 349
#     4  11  22  36  59  89 117 150 195 242 286 342
#     4  10  20  35  56  82 113 148 189 235 285 341
#
# _framework density 18.817049999999998
#
# number of rings (size 3 to 8) (size 9 to 14) (size 15 to 20)
#    0.000    1.667    1.667    3.000    0.000    4.667 
#    0.000    0.833    0.000    2.000    0.000    0.000 
#    0.000    0.000    0.000    0.000    0.000    0.000 
#
# Total GULP energy -268174.317206 kJ/mol
# GULP energy per Si atom -5586.964942 kJ/mol
# Density = 1.877422 g / cm^3
# Si number density = 18.817050 Si / 1000 Ang^3
#
#
#
# Elastic Constant Matrix: (Units=GPa)
#
#
# Indices 1 2 3 4 5 6 
#
# 1 105.7284 3.7286 42.5960 0.0000 0.0000 0.0000
# 2 3.7286 24.9901 18.3121 0.0000 0.0000 0.0000
# 3 42.5960 18.3121 64.8251 0.0000 0.0000 0.0000
# 4 0.0000 0.0000 0.0000 27.9858 0.0000 0.0000
# 5 0.0000 0.0000 0.0000 0.0000 26.1070 0.0000
# 6 0.0000 0.0000 0.0000 0.0000 0.0000 8.2606
#
#
#
# Elastic Compliance Matrix: (Units=1/GPa)
#
#
# Indices 1 2 3 4 5 6 
#
# 1 0.013466 0.005643 -0.010443 0.000000 0.000000 0.000000
# 2 0.005643 0.052826 -0.018630 0.000000 0.000000 0.000000
# 3 -0.010443 -0.018630 0.027551 0.000000 0.000000 0.000000
# 4 0.000000 0.000000 0.000000 0.035732 0.000000 0.000000
# 5 0.000000 0.000000 0.000000 0.000000 0.038304 0.000000
# 6 0.000000 0.000000 0.000000 0.000000 0.000000 0.121057
#
#
# Mechanical properties :
#
#
# Convention : Reuss Voigt Hill
#
# Bulk Modulus (GPa) = 21.28449 36.09077 28.68763
# Shear Modulus (GPa) = 14.22651 21.19781 17.71216
#
# Velocity S-wave (km/s) = 2.75261 3.36001 3.07136
# Velocity P-wave (km/s) = 4.63015 5.85443 5.27791
#
# Compressibility (1/GPa) = 0.04698257
#
# Stress axis : x y z
#
# Youngs Moduli (GPa) = 74.25923 18.93016 36.29676
#
# Poissons Ratio (x) = -0.10682 0.37903
# Poissons Ratio (y) = -0.41903 0.67622
# Poissons Ratio (z) = 0.77546 0.35267
#
# Static dielectric constant tensor:
#      x y z
#    x 1.676080 0.000000 0.000000 
#    y 0.000000 1.620360 0.000000 
#    z 0.000000 0.000000 1.625750 
# 
# From -- ./inp_files/4721.got.cif
#   From: 2010.05.17/outbox.cif.g08.bks.cpg/sg57_3_cif.got.tgz:4721.got - 2010.06.03 13:58:18.
