data_PCOD9437197
_publ_section_title
;
Structure prediction by ZEFSAII (Michael W. Deem and Ramdas Pophale) SiO2 
 PCOD9437197
Probable space group: P B C M
;
_chemical_formula_sum "Si O2"
_cell_formula_units_Z 40
_cell_length_a 7.231438
_cell_length_b 23.178924
_cell_length_c 10.513291
_cell_angle_alpha 90.000000
_cell_angle_beta 90.000000
_cell_angle_gamma 90.000000
_cell_volume 1762.205791
_symmetry_space_group_name_H-M "P B C M"
_symmetry_group_IT_number 57
_symmetry_cell_setting 'orthorhombic'
loop_
_space_group_symop_operation_xyz
x,y,z
-x,-y,1/2+z
x,1/2-y,-z
-x,1/2+y,1/2-z
-x,-y,-z
x,y,1/2-z
-x,1/2+y,z
x,1/2-y,1/2+z
loop_
_atom_site_type_symbol
_atom_site_label
_atom_site_fract_x
_atom_site_fract_y
_atom_site_fract_z
Si Si1 0.466628 0.797686 0.897715
Si Si2 0.912659 0.793774 0.608878
Si Si3 0.760013 0.482487 0.111466
Si Si4 0.511874 0.614056 0.609949
Si Si5 0.092392 0.091986 0.966088
O O1 0.400845 0.797886 0.750000
O O2 0.689024 0.789826 0.887775
O O3 0.399813 0.750000 0.000000
O O4 0.441982 0.855405 0.981486
O O5 0.976803 0.750000 0.500000
O O6 0.980141 0.779534 0.750000
O O7 0.958703 0.859366 0.569131
O O8 0.771797 0.509758 0.250000
O O9 0.564167 0.450956 0.100872
O O10 0.909111 0.430503 0.101966
O O11 0.817261 0.533180 0.018944
O O12 0.449820 0.636800 0.750000
O O13 0.734525 0.618860 0.609265
#
# Coordination Sequence:
#
# PCOD9437197 Si02
#       5
#     8   8   8   8   8
#     4   9  17  31  53  81 112 147 187 232 280 331
#     4   9  18  32  54  82 111 144 183 227 274 327
#     4  10  21  36  55  82 113 146 186 229 275 330
#     4  10  20  35  56  82 112 147 186 229 278 331
#     4  10  20  36  57  81 111 148 185 226 276 329
#
# _framework density 22.698824999999999
#
# number of rings (size 3 to 8) (size 9 to 14) (size 15 to 20)
#    0.000    2.400    0.000    2.400    0.000    6.400 
#    0.000    7.000    0.000    0.000    0.000    0.000 
#    0.000    0.000    0.000    0.000    0.000    0.000 
#
# Total GULP energy -222913.323641 kJ/mol
# GULP energy per Si atom -5572.833091 kJ/mol
# Density = 2.264716 g / cm^3
# Si number density = 22.698825 Si / 1000 Ang^3
#
#
#
# Elastic Constant Matrix: (Units=GPa)
#
#
# Indices 1 2 3 4 5 6 
#
# 1 76.1700 -1.7865 13.6537 0.0000 0.0000 0.0000
# 2 -1.7865 66.9610 55.6626 0.0000 0.0000 0.0000
# 3 13.6537 55.6626 194.1389 0.0000 0.0000 0.0000
# 4 0.0000 0.0000 0.0000 20.7579 0.0000 0.0000
# 5 0.0000 0.0000 0.0000 0.0000 9.5268 0.0000
# 6 0.0000 0.0000 0.0000 0.0000 0.0000 -17.8032
#
#
#
# Elastic Compliance Matrix: (Units=1/GPa)
#
#
# Indices 1 2 3 4 5 6 
#
# 1 0.013410 0.001499 -0.001373 0.000000 0.000000 0.000000
# 2 0.001499 0.019775 -0.005775 0.000000 0.000000 0.000000
# 3 -0.001373 -0.005775 0.006903 0.000000 0.000000 0.000000
# 4 0.000000 0.000000 0.000000 0.048174 0.000000 0.000000
# 5 0.000000 0.000000 0.000000 0.000000 0.104967 0.000000
# 6 0.000000 0.000000 0.000000 0.000000 0.000000 -0.056170
#
#
# Mechanical properties :
#
#
# Convention : Reuss Voigt Hill
#
# Bulk Modulus (GPa) = 34.73450 52.48104 43.60777
# Shear Modulus (GPa) = 31.65467 20.47898 26.06682
#
# Velocity S-wave (km/s) = 3.73842 3.00693 3.39245
# Velocity P-wave (km/s) = 5.82837 5.93517 5.88202
#
# Compressibility (1/GPa) = 0.02878982
#
# Stress axis : x y z
#
# Youngs Moduli (GPa) = 74.57246 50.56950 144.85760
#
# Poissons Ratio (x) = -0.07580 0.19887
# Poissons Ratio (y) = -0.11179 0.83657
# Poissons Ratio (z) = 0.10238 0.29205
#
# Static dielectric constant tensor:
#      x y z
#    x 1.855270 0.000000 0.000000 
#    y 0.000000 1.838720 0.000000 
#    z 0.000000 0.000000 1.918770 
# 
# From -- ./inp_files/1518.got.cif
#   From: 2010.05.17/outbox.cif.g08.bks.cpg/sg57_1_cif.got.tgz:1518.got - 2010.06.03 13:58:18.
