data_PCOD9437037
_publ_section_title
;
Structure prediction by ZEFSAII (Michael W. Deem and Ramdas Pophale) SiO2 
 PCOD9437037
Probable space group: P B C M
;
_chemical_formula_sum "Si O2"
_cell_formula_units_Z 64
_cell_length_a 18.128448
_cell_length_b 20.741160
_cell_length_c 8.217952
_cell_angle_alpha 90.000000
_cell_angle_beta 90.000000
_cell_angle_gamma 90.000000
_cell_volume 3089.991375
_symmetry_space_group_name_H-M "P B C M"
_symmetry_group_IT_number 57
_symmetry_cell_setting 'orthorhombic'
loop_
_space_group_symop_operation_xyz
x,y,z
-x,-y,1/2+z
x,1/2-y,-z
-x,1/2+y,1/2-z
-x,-y,-z
x,y,1/2-z
-x,1/2+y,z
x,1/2-y,1/2+z
loop_
_atom_site_type_symbol
_atom_site_label
_atom_site_fract_x
_atom_site_fract_y
_atom_site_fract_z
Si Si1 0.571144 0.960652 0.946569
Si Si2 0.386056 0.177619 0.053417
Si Si3 0.930488 0.879225 0.060434
Si Si4 0.716293 0.461515 0.448795
Si Si5 0.756539 0.318218 0.446948
Si Si6 0.219236 0.321648 0.942767
Si Si7 0.121473 0.997029 0.062308
Si Si8 0.082662 0.653615 0.561365
O O1 0.574116 0.959945 0.750000
O O2 0.569505 0.885741 0.001073
O O3 0.645256 0.998109 0.002430
O O4 0.500000 0.000000 0.000000
O O5 0.386613 0.178612 0.250000
O O6 0.301753 0.164441 0.995310
O O7 0.407489 0.250000 0.000000
O O8 0.932499 0.864490 0.250000
O O9 0.000892 0.841439 0.986054
O O10 0.850127 0.862525 0.995804
O O11 0.931429 0.955968 0.035671
O O12 0.717551 0.462163 0.250000
O O13 0.718527 0.385761 0.497916
O O14 0.793764 0.493934 0.499364
O O15 0.722736 0.250000 0.500000
O O16 0.759376 0.320046 0.250000
O O17 0.841436 0.319854 0.512097
O O18 0.224133 0.325134 0.750000
O O19 0.202064 0.250000 0.000000
O O20 0.121906 0.019616 0.250000
O O21 0.096156 0.923213 0.063984
O O22 0.080122 0.676265 0.750000
#
# Coordination Sequence:
#
# PCOD9437037 Si02
#       8
#     8   8   8   8   8   8   8   8
#     4  10  20  36  57  84 113 142 172 207 252 308
#     4   9  19  36  59  82 107 139 179 217 253 302
#     4  11  20  29  43  69 102 131 161 208 262 313
#     4   8  16  33  56  75  98 134 174 211 257 313
#     4   9  17  33  54  73  94 130 176 221 264 311
#     4  10  20  35  52  71  95 129 170 210 248 295
#     4   9  16  31  52  69  88 125 172 213 253 305
#     4   8  17  31  46  65  94 130 169 211 260 311
#
# _framework density 20.712032000000001
#
# number of rings (size 3 to 8) (size 9 to 14) (size 15 to 20)
#    0.000    2.750    0.000    3.375    0.000    3.500 
#    0.000    8.750    0.000    3.000    0.000    0.000 
#    0.000    0.000    0.000    0.000    0.000    0.000 
#
# Total GULP energy -356613.190685 kJ/mol
# GULP energy per Si atom -5572.081104 kJ/mol
# Density = 2.066489 g / cm^3
# Si number density = 20.712032 Si / 1000 Ang^3
#
#
#
# Elastic Constant Matrix: (Units=GPa)
#
#
# Indices 1 2 3 4 5 6 
#
# 1 75.7568 57.9709 7.5170 0.0000 0.0000 0.0000
# 2 57.9709 123.7942 10.2335 0.0000 0.0000 0.0000
# 3 7.5170 10.2335 9.6597 0.0000 0.0000 0.0000
# 4 0.0000 0.0000 0.0000 27.7153 0.0000 0.0000
# 5 0.0000 0.0000 0.0000 0.0000 4.4796 0.0000
# 6 0.0000 0.0000 0.0000 0.0000 0.0000 22.2505
#
#
#
# Elastic Compliance Matrix: (Units=1/GPa)
#
#
# Indices 1 2 3 4 5 6 
#
# 1 0.020935 -0.009268 -0.006472 0.000000 0.000000 0.000000
# 2 -0.009268 0.012957 -0.006514 0.000000 0.000000 0.000000
# 3 -0.006472 -0.006514 0.115460 0.000000 0.000000 0.000000
# 4 0.000000 0.000000 0.000000 0.036081 0.000000 0.000000
# 5 0.000000 0.000000 0.000000 0.000000 0.223233 0.000000
# 6 0.000000 0.000000 0.000000 0.000000 0.000000 0.044943
#
#
# Mechanical properties :
#
#
# Convention : Reuss Voigt Hill
#
# Bulk Modulus (GPa) = 9.53806 40.07260 24.80533
# Shear Modulus (GPa) = 9.37971 19.78837 14.58404
#
# Velocity S-wave (km/s) = 2.13037 3.09431 2.65643
# Velocity P-wave (km/s) = 3.26594 5.67062 4.62722
#
# Compressibility (1/GPa) = 0.10484316
#
# Stress axis : x y z
#
# Youngs Moduli (GPa) = 47.76755 77.18066 8.66098
#
# Poissons Ratio (x) = 0.71534 0.05606
# Poissons Ratio (y) = 0.44273 0.05642
# Poissons Ratio (z) = 0.30916 0.50274
#
# Static dielectric constant tensor:
#      x y z
#    x 1.777350 0.000000 0.000000 
#    y 0.000000 1.816090 0.000000 
#    z 0.000000 0.000000 1.739380 
# 
# From -- ./inp_files/7242.got.cif
#   From: 2010.05.17/outbox.cif.g08.bks.cpg/sg57_4_cif.got.tgz:7242.got - 2010.06.03 13:58:18.
