data_PCOD9437626
_publ_section_title
;
Structure prediction by ZEFSAII (Michael W. Deem and Ramdas Pophale) SiO2 
 PCOD9437626
Probable space group: P B C M
;
_chemical_formula_sum "Si O2"
_cell_formula_units_Z 40
_cell_length_a 12.836711
_cell_length_b 18.508207
_cell_length_c 8.769477
_cell_angle_alpha 90.000000
_cell_angle_beta 90.000000
_cell_angle_gamma 90.000000
_cell_volume 2083.491847
_symmetry_space_group_name_H-M "P B C M"
_symmetry_group_IT_number 57
_symmetry_cell_setting 'orthorhombic'
loop_
_space_group_symop_operation_xyz
x,y,z
-x,-y,1/2+z
x,1/2-y,-z
-x,1/2+y,1/2-z
-x,-y,-z
x,y,1/2-z
-x,1/2+y,z
x,1/2-y,1/2+z
loop_
_atom_site_type_symbol
_atom_site_label
_atom_site_fract_x
_atom_site_fract_y
_atom_site_fract_z
Si Si1 0.819496 0.670284 0.933290
Si Si2 0.393742 0.908003 0.069209
Si Si3 0.793176 0.171901 0.068884
Si Si4 0.367927 0.434685 0.433146
Si Si5 0.976634 0.421287 0.066762
O O1 0.816280 0.675078 0.750000
O O2 0.723129 0.619513 0.980762
O O3 0.927356 0.631230 0.975306
O O4 0.812674 0.750000 0.000000
O O5 0.377646 0.899928 0.250000
O O6 0.517100 0.902722 0.036804
O O7 0.322554 0.851345 0.981050
O O8 0.361240 0.988469 0.016417
O O9 0.802316 0.173772 0.250000
O O10 0.819039 0.250000 0.000000
O O11 0.871923 0.112774 0.000716
O O12 0.359978 0.447135 0.250000
O O13 0.969791 0.425079 0.250000
O O14 0.000000 0.500000 0.000000
#
# Coordination Sequence:
#
# PCOD9437626 Si02
#       5
#     8   8   8   8   8
#     4  10  22  38  57  83 116 150 185 230 283 339
#     4  10  20  36  60  88 117 152 195 240 289 348
#     4  12  25  41  60  84 118 156 197 247 299 351
#     4   9  19  37  59  86 119 153 192 238 287 343
#     4  11  23  40  63  90 118 151 192 237 289 350
#
# _framework density 19.198539
#
# number of rings (size 3 to 8) (size 9 to 14) (size 15 to 20)
#    0.000    1.600    0.000    4.800    0.000    7.200 
#    0.000    2.000    0.000    0.000    0.000    0.000 
#    0.000    0.000    0.000    0.000    0.000    0.000 
#
# Total GULP energy -223667.585150 kJ/mol
# GULP energy per Si atom -5591.689629 kJ/mol
# Density = 1.915484 g / cm^3
# Si number density = 19.198539 Si / 1000 Ang^3
#
#
#
# Elastic Constant Matrix: (Units=GPa)
#
#
# Indices 1 2 3 4 5 6 
#
# 1 61.4790 8.2493 30.3160 0.0000 0.0000 0.0000
# 2 8.2493 44.9130 22.0971 0.0000 0.0000 0.0000
# 3 30.3160 22.0971 68.4607 0.0000 0.0000 0.0000
# 4 0.0000 0.0000 0.0000 40.3158 0.0000 0.0000
# 5 0.0000 0.0000 0.0000 0.0000 18.1357 0.0000
# 6 0.0000 0.0000 0.0000 0.0000 0.0000 13.3908
#
#
#
# Elastic Compliance Matrix: (Units=1/GPa)
#
#
# Indices 1 2 3 4 5 6 
#
# 1 0.020837 0.000847 -0.009500 0.000000 0.000000 0.000000
# 2 0.000847 0.026503 -0.008929 0.000000 0.000000 0.000000
# 3 -0.009500 -0.008929 0.021696 0.000000 0.000000 0.000000
# 4 0.000000 0.000000 0.000000 0.024804 0.000000 0.000000
# 5 0.000000 0.000000 0.000000 0.000000 0.055140 0.000000
# 6 0.000000 0.000000 0.000000 0.000000 0.000000 0.074678
#
#
# Mechanical properties :
#
#
# Convention : Reuss Voigt Hill
#
# Bulk Modulus (GPa) = 29.52447 32.90859 31.21653
# Shear Modulus (GPa) = 18.51073 21.98115 20.24594
#
# Velocity S-wave (km/s) = 3.10848 3.38737 3.25092
# Velocity P-wave (km/s) = 5.31935 5.69889 5.51239
#
# Compressibility (1/GPa) = 0.03387021
#
# Stress axis : x y z
#
# Youngs Moduli (GPa) = 47.99189 37.73160 46.09117
#
# Poissons Ratio (x) = -0.03196 0.43789
# Poissons Ratio (y) = -0.04065 0.41157
# Poissons Ratio (z) = 0.45594 0.33692
#
# Static dielectric constant tensor:
#      x y z
#    x 1.659120 0.000000 0.000000 
#    y 0.000000 1.633900 0.000000 
#    z 0.000000 0.000000 1.641180 
# 
# From -- ./inp_files/2650.got.cif
#   From: 2010.05.17/outbox.cif.g08.bks.cpg/sg57_2_cif.got.tgz:2650.got - 2010.06.03 13:58:18.
