data_PCOD9437257
_publ_section_title
;
Structure prediction by ZEFSAII (Michael W. Deem and Ramdas Pophale) SiO2 
 PCOD9437257
Probable space group: P B C M
;
_chemical_formula_sum "Si O2"
_cell_formula_units_Z 64
_cell_length_a 21.428787
_cell_length_b 19.147671
_cell_length_c 8.644828
_cell_angle_alpha 90.000000
_cell_angle_beta 90.000000
_cell_angle_gamma 90.000000
_cell_volume 3547.071163
_symmetry_space_group_name_H-M "P B C M"
_symmetry_group_IT_number 57
_symmetry_cell_setting 'orthorhombic'
loop_
_space_group_symop_operation_xyz
x,y,z
-x,-y,1/2+z
x,1/2-y,-z
-x,1/2+y,1/2-z
-x,-y,-z
x,y,1/2-z
-x,1/2+y,z
x,1/2-y,1/2+z
loop_
_atom_site_type_symbol
_atom_site_label
_atom_site_fract_x
_atom_site_fract_y
_atom_site_fract_z
Si Si1 0.126686 0.826070 0.436189
Si Si2 0.937763 0.465902 0.064543
Si Si3 0.500978 0.077725 0.563339
Si Si4 0.609841 0.675384 0.563969
Si Si5 0.747390 0.104957 0.064862
Si Si6 0.194344 0.032322 0.435731
Si Si7 0.245719 0.174380 0.564152
Si Si8 0.620177 0.328573 0.436350
O O1 0.111278 0.750000 0.500000
O O2 0.130504 0.824785 0.250000
O O3 0.077089 0.885998 0.482623
O O4 0.193733 0.850852 0.501145
O O5 0.941510 0.466730 0.250000
O O6 0.875674 0.508870 0.020072
O O7 0.000000 0.500000 0.000000
O O8 0.500997 0.075300 0.750000
O O9 0.438158 0.116901 0.511191
O O10 0.561272 0.123320 0.516801
O O11 0.500000 0.000000 0.500000
O O12 0.589199 0.750000 0.500000
O O13 0.608664 0.677832 0.750000
O O14 0.681564 0.664208 0.517024
O O15 0.746819 0.107395 0.250000
O O16 0.683690 0.136926 0.999154
O O17 0.759534 0.025663 0.008167
O O18 0.199673 0.028951 0.250000
O O19 0.208640 0.109313 0.495781
O O20 0.225968 0.250000 0.500000
O O21 0.241979 0.174579 0.750000
O O22 0.613719 0.250000 0.500000
O O23 0.622544 0.325892 0.250000
#
# Coordination Sequence:
#
# PCOD9437257 Si02
#       8
#     8   8   8   8   8   8   8   8
#     4  10  20  36  57  85 117 149 187 232 278 330
#     4   9  20  37  58  83 114 150 187 229 273 325
#     4  10  23  39  55  78 108 142 183 230 279 333
#     4   9  19  36  56  79 105 136 180 228 275 332
#     4  11  22  36  57  84 113 149 186 230 282 335
#     4  10  21  38  58  84 117 149 185 231 279 330
#     4  10  20  35  57  85 113 146 187 234 285 335
#     4  11  23  39  57  81 111 147 186 229 282 337
#
# _framework density 18.043054999999999
#
# number of rings (size 3 to 8) (size 9 to 14) (size 15 to 20)
#    0.000    2.000    0.000    4.125    1.750    5.000 
#    0.000    0.625    0.000    1.500    0.000    0.000 
#    0.000    0.000    0.000    0.000    0.000    0.000 
#
# Total GULP energy -357402.992764 kJ/mol
# GULP energy per Si atom -5584.421762 kJ/mol
# Density = 1.800199 g / cm^3
# Si number density = 18.043055 Si / 1000 Ang^3
#
#
#
# Elastic Constant Matrix: (Units=GPa)
#
#
# Indices 1 2 3 4 5 6 
#
# 1 84.1176 90.0604 33.7918 0.0000 0.0000 0.0000
# 2 90.0604 197.2234 50.2329 0.0000 0.0000 0.0000
# 3 33.7918 50.2329 61.0581 0.0000 0.0000 0.0000
# 4 0.0000 0.0000 0.0000 38.4339 0.0000 0.0000
# 5 0.0000 0.0000 0.0000 0.0000 22.3573 0.0000
# 6 0.0000 0.0000 0.0000 0.0000 0.0000 27.3190
#
#
#
# Elastic Compliance Matrix: (Units=1/GPa)
#
#
# Indices 1 2 3 4 5 6 
#
# 1 0.024660 -0.009848 -0.005545 0.000000 0.000000 0.000000
# 2 -0.009848 0.010348 -0.003063 0.000000 0.000000 0.000000
# 3 -0.005545 -0.003063 0.021967 0.000000 0.000000 0.000000
# 4 0.000000 0.000000 0.000000 0.026019 0.000000 0.000000
# 5 0.000000 0.000000 0.000000 0.000000 0.044728 0.000000
# 6 0.000000 0.000000 0.000000 0.000000 0.000000 0.036605
#
#
# Mechanical properties :
#
#
# Convention : Reuss Voigt Hill
#
# Bulk Modulus (GPa) = 49.84717 76.72991 63.28854
# Shear Modulus (GPa) = 24.04710 28.84298 26.44504
#
# Velocity S-wave (km/s) = 3.65466 4.00254 3.83255
# Velocity P-wave (km/s) = 6.74504 7.99867 7.39846
#
# Compressibility (1/GPa) = 0.02006132
#
# Stress axis : x y z
#
# Youngs Moduli (GPa) = 40.55159 96.64079 45.52383
#
# Poissons Ratio (x) = 0.95175 0.25245
# Poissons Ratio (y) = 0.39937 0.13942
# Poissons Ratio (z) = 0.22488 0.29597
#
# Static dielectric constant tensor:
#      x y z
#    x 1.603810 0.000000 0.000000 
#    y 0.000000 1.583590 0.000000 
#    z 0.000000 0.000000 1.607980 
# 
# From -- ./inp_files/8536.got.cif
#   From: 2010.05.17/outbox.cif.g08.bks.cpg/sg57_5_cif.got.tgz:8536.got - 2010.06.03 13:58:18.
