data_PCOD9437397
_publ_section_title
;
Structure prediction by ZEFSAII (Michael W. Deem and Ramdas Pophale) SiO2 
 PCOD9437397
Probable space group: P B C M
;
_chemical_formula_sum "Si O2"
_cell_formula_units_Z 56
_cell_length_a 14.111009
_cell_length_b 24.965775
_cell_length_c 8.615920
_cell_angle_alpha 90.000000
_cell_angle_beta 90.000000
_cell_angle_gamma 90.000000
_cell_volume 3035.322064
_symmetry_space_group_name_H-M "P B C M"
_symmetry_group_IT_number 57
_symmetry_cell_setting 'orthorhombic'
loop_
_space_group_symop_operation_xyz
x,y,z
-x,-y,1/2+z
x,1/2-y,-z
-x,1/2+y,1/2-z
-x,-y,-z
x,y,1/2-z
-x,1/2+y,z
x,1/2-y,1/2+z
loop_
_atom_site_type_symbol
_atom_site_label
_atom_site_fract_x
_atom_site_fract_y
_atom_site_fract_z
Si Si1 0.328115 0.585630 0.936717
Si Si2 0.779469 0.307376 0.063369
Si Si3 0.838993 0.626883 0.936624
Si Si4 0.723909 0.975732 0.436388
Si Si5 0.008276 0.807669 0.935215
Si Si6 0.543618 0.905869 0.061959
Si Si7 0.340830 0.309199 0.564610
O O1 0.327556 0.584788 0.750000
O O2 0.284309 0.642377 0.985976
O O3 0.437426 0.580546 0.988368
O O4 0.269785 0.534773 0.995947
O O5 0.782118 0.305055 0.250000
O O6 0.745445 0.250000 0.000000
O O7 0.886091 0.315359 0.000909
O O8 0.842858 0.629519 0.750000
O O9 0.804318 0.567225 0.981957
O O10 0.756493 0.666503 0.995922
O O11 0.937118 0.646671 0.007488
O O12 0.724115 0.978870 0.250000
O O13 0.623174 0.949211 0.484775
O O14 0.010967 0.805364 0.750000
O O15 0.974189 0.750000 0.000000
O O16 0.546010 0.902180 0.250000
O O17 0.577728 0.849596 0.992582
O O18 0.355828 0.250000 0.500000
O O19 0.335567 0.308619 0.750000
#
# Coordination Sequence:
#
# PCOD9437397 Si02
#       7
#     8   8   8   8   8   8   8
#     4  10  21  36  57  80 107 140 178 222 269 315
#     4  10  21  38  57  80 107 139 176 221 267 313
#     4  10  20  36  55  79 110 142 175 218 264 314
#     4   9  19  34  55  80 109 141 176 217 264 315
#     4  11  21  35  57  83 108 140 177 218 264 318
#     4   9  19  36  53  76 108 143 181 224 267 313
#     4  11  21  33  50  76 108 143 179 220 267 320
#
# _framework density 18.449442999999999
#
# number of rings (size 3 to 8) (size 9 to 14) (size 15 to 20)
#    0.000    2.000    0.000    6.000    0.000    5.143 
#    0.000    2.143    0.000    0.000    0.000    0.000 
#    0.000    0.000    0.000    0.000    0.000    0.000 
#
# Total GULP energy -312718.884516 kJ/mol
# GULP energy per Si atom -5584.265795 kJ/mol
# Density = 1.840745 g / cm^3
# Si number density = 18.449443 Si / 1000 Ang^3
#
#
#
# Elastic Constant Matrix: (Units=GPa)
#
#
# Indices 1 2 3 4 5 6 
#
# 1 45.0256 36.3604 14.8884 0.0000 0.0000 0.0000
# 2 36.3604 138.5209 27.4848 0.0000 0.0000 0.0000
# 3 14.8884 27.4848 60.0064 0.0000 0.0000 0.0000
# 4 0.0000 0.0000 0.0000 32.3875 0.0000 0.0000
# 5 0.0000 0.0000 0.0000 0.0000 21.1255 0.0000
# 6 0.0000 0.0000 0.0000 0.0000 0.0000 20.6645
#
#
#
# Elastic Compliance Matrix: (Units=1/GPa)
#
#
# Indices 1 2 3 4 5 6 
#
# 1 0.029068 -0.006819 -0.004089 0.000000 0.000000 0.000000
# 2 -0.006819 0.009540 -0.002678 0.000000 0.000000 0.000000
# 3 -0.004089 -0.002678 0.018906 0.000000 0.000000 0.000000
# 4 0.000000 0.000000 0.000000 0.030876 0.000000 0.000000
# 5 0.000000 0.000000 0.000000 0.000000 0.047336 0.000000
# 6 0.000000 0.000000 0.000000 0.000000 0.000000 0.048392
#
#
# Mechanical properties :
#
#
# Convention : Reuss Voigt Hill
#
# Bulk Modulus (GPa) = 32.95643 44.55778 38.75710
# Shear Modulus (GPa) = 22.58308 25.82346 24.20327
#
# Velocity S-wave (km/s) = 3.50244 3.74530 3.62590
# Velocity P-wave (km/s) = 5.85303 6.55032 6.21147
#
# Compressibility (1/GPa) = 0.03034309
#
# Stress axis : x y z
#
# Youngs Moduli (GPa) = 34.40191 104.81803 52.89324
#
# Poissons Ratio (x) = 0.71473 0.21628
# Poissons Ratio (y) = 0.23458 0.14164
# Poissons Ratio (z) = 0.14067 0.28070
#
# Static dielectric constant tensor:
#      x y z
#    x 1.630330 0.000000 0.000000 
#    y 0.000000 1.630530 0.000000 
#    z 0.000000 0.000000 1.618720 
# 
# From -- ./inp_files/5119.got.cif
#   From: 2010.05.17/outbox.cif.g08.bks.cpg/sg57_3_cif.got.tgz:5119.got - 2010.06.03 13:58:18.
