data_PCOD9437033
_publ_section_title
;
Structure prediction by ZEFSAII (Michael W. Deem and Ramdas Pophale) SiO2 
 PCOD9437033
Probable space group: P B C M
;
_chemical_formula_sum "Si O2"
_cell_formula_units_Z 64
_cell_length_a 18.483791
_cell_length_b 22.717012
_cell_length_c 7.469063
_cell_angle_alpha 90.000000
_cell_angle_beta 90.000000
_cell_angle_gamma 90.000000
_cell_volume 3136.233427
_symmetry_space_group_name_H-M "P B C M"
_symmetry_group_IT_number 57
_symmetry_cell_setting 'orthorhombic'
loop_
_space_group_symop_operation_xyz
x,y,z
-x,-y,1/2+z
x,1/2-y,-z
-x,1/2+y,1/2-z
-x,-y,-z
x,y,1/2-z
-x,1/2+y,z
x,1/2-y,1/2+z
loop_
_atom_site_type_symbol
_atom_site_label
_atom_site_fract_x
_atom_site_fract_y
_atom_site_fract_z
Si Si1 0.085287 0.662575 0.453766
Si Si2 0.926481 0.684845 0.464076
Si Si3 0.921881 0.471730 0.037237
Si Si4 0.333718 0.053743 0.036452
Si Si5 0.353050 0.584901 0.466038
Si Si6 0.756399 0.315285 0.964531
Si Si7 0.510201 0.569441 0.036051
Si Si8 0.175973 0.079399 0.469340
O O1 0.084876 0.685677 0.250000
O O2 0.084962 0.591801 0.450607
O O3 0.161487 0.681329 0.537258
O O4 0.008489 0.680475 0.537387
O O5 0.898013 0.750000 0.500000
O O6 0.931964 0.676075 0.250000
O O7 0.874007 0.633396 0.530315
O O8 0.914595 0.463449 0.250000
O O9 0.861900 0.518377 0.976890
O O10 0.000000 0.500000 0.000000
O O11 0.334475 0.062658 0.250000
O O12 0.408951 0.081127 0.965407
O O13 0.258619 0.080077 0.968362
O O14 0.334163 0.982933 0.009023
O O15 0.354443 0.588513 0.250000
O O16 0.294643 0.632131 0.532142
O O17 0.435278 0.597422 0.531206
O O18 0.761468 0.323312 0.750000
O O19 0.727067 0.250000 0.000000
O O20 0.511801 0.578769 0.250000
O O21 0.500000 0.500000 0.000000
O O22 0.176065 0.080057 0.250000
#
# Coordination Sequence:
#
# PCOD9437033 Si02
#       8
#     8   8   8   8   8   8   8   8
#     4  10  20  35  51  69  95 123 155 199 243 279
#     4  10  20  35  50  64  87 118 155 197 234 270
#     4  11  20  32  50  72  98 126 155 191 238 290
#     4   9  16  28  49  74  94 121 157 189 232 290
#     4   9  17  30  46  69 100 127 149 189 242 280
#     4  10  21  34  49  68  95 130 166 203 240 282
#     4   8  14  25  44  69  95 119 147 180 221 278
#     4   9  18  32  48  68  96 123 149 192 237 271
#
# _framework density 20.406645999999999
#
# number of rings (size 3 to 8) (size 9 to 14) (size 15 to 20)
#    0.000    2.500    1.250    1.500    0.000    1.500 
#    0.000    1.250    0.000    0.750    0.000    0.000 
#    0.000    0.000    0.000    0.000    0.000    0.000 
#
# Total GULP energy -357079.414300 kJ/mol
# GULP energy per Si atom -5579.365848 kJ/mol
# Density = 2.036020 g / cm^3
# Si number density = 20.406646 Si / 1000 Ang^3
#
#
#
# Elastic Constant Matrix: (Units=GPa)
#
#
# Indices 1 2 3 4 5 6 
#
# 1 165.3547 37.0712 9.2440 0.0000 0.0000 0.0000
# 2 37.0712 79.1597 -6.2291 0.0000 0.0000 0.0000
# 3 9.2440 -6.2291 66.1355 0.0000 0.0000 0.0000
# 4 0.0000 0.0000 0.0000 17.0158 0.0000 0.0000
# 5 0.0000 0.0000 0.0000 0.0000 -3.5708 0.0000
# 6 0.0000 0.0000 0.0000 0.0000 0.0000 9.8601
#
#
#
# Elastic Compliance Matrix: (Units=1/GPa)
#
#
# Indices 1 2 3 4 5 6 
#
# 1 0.006861 -0.003313 -0.001271 0.000000 0.000000 0.000000
# 2 -0.003313 0.014327 0.001813 0.000000 0.000000 0.000000
# 3 -0.001271 0.001813 0.015469 0.000000 0.000000 0.000000
# 4 0.000000 0.000000 0.000000 0.058769 0.000000 0.000000
# 5 0.000000 0.000000 0.000000 0.000000 -0.280053 0.000000
# 6 0.000000 0.000000 0.000000 0.000000 0.000000 0.101419
#
#
# Mechanical properties :
#
#
# Convention : Reuss Voigt Hill
#
# Bulk Modulus (GPa) = 32.14039 43.42466 37.78253
# Shear Modulus (GPa) = -74.30216 22.69861 -25.80177
#
# Velocity S-wave (km/s) = -6.04068 3.33876 -3.55967
# Velocity P-wave (km/s) = 5.73314 6.01572 1.28841
#
# Compressibility (1/GPa) = 0.03111350
#
# Stress axis : x y z
#
# Youngs Moduli (GPa) = 145.74104 69.79841 64.64597
#
# Poissons Ratio (x) = 0.23126 0.08217
# Poissons Ratio (y) = 0.48289 -0.11717
# Poissons Ratio (z) = 0.18526 -0.12651
#
# Static dielectric constant tensor:
#      x y z
#    x 1.777380 0.000000 0.000000 
#    y 0.000000 1.666820 0.000000 
#    z 0.000000 0.000000 1.760500 
# 
# From -- ./inp_files/7257.got.cif
#   From: 2010.05.17/outbox.cif.g08.bks.cpg/sg57_4_cif.got.tgz:7257.got - 2010.06.03 13:58:18.
