data_PCOD9437553
_publ_section_title
;
Structure prediction by ZEFSAII (Michael W. Deem and Ramdas Pophale) SiO2 
 PCOD9437553
Probable space group: P B C M
;
_chemical_formula_sum "Si O2"
_cell_formula_units_Z 56
_cell_length_a 16.110716
_cell_length_b 8.973156
_cell_length_c 20.351602
_cell_angle_alpha 90.000000
_cell_angle_beta 90.000000
_cell_angle_gamma 90.000000
_cell_volume 2942.108339
_symmetry_space_group_name_H-M "P B C M"
_symmetry_group_IT_number 57
_symmetry_cell_setting 'orthorhombic'
loop_
_space_group_symop_operation_xyz
x,y,z
-x,-y,1/2+z
x,1/2-y,-z
-x,1/2+y,1/2-z
-x,-y,-z
x,y,1/2-z
-x,1/2+y,z
x,1/2-y,1/2+z
loop_
_atom_site_type_symbol
_atom_site_label
_atom_site_fract_x
_atom_site_fract_y
_atom_site_fract_z
Si Si1 0.514812 0.534460 0.138736
Si Si2 0.929451 0.371505 0.674805
Si Si3 0.894602 0.774978 0.174354
Si Si4 0.209363 0.678913 0.428571
Si Si5 0.382059 0.198588 0.680658
Si Si6 0.244892 0.327296 0.071022
Si Si7 0.388584 0.728270 0.922986
O O1 0.576022 0.639947 0.178718
O O2 0.456077 0.420994 0.177305
O O3 0.451752 0.646859 0.102963
O O4 0.571945 0.431102 0.092986
O O5 0.909847 0.324825 0.750000
O O6 0.919800 0.550275 0.672038
O O7 0.865973 0.303682 0.622182
O O8 0.023419 0.321771 0.661353
O O9 0.867186 0.744007 0.250000
O O10 0.825716 0.755234 0.118024
O O11 0.192722 0.750000 0.500000
O O12 0.224744 0.502077 0.438051
O O13 0.294569 0.747079 0.398561
O O14 0.335802 0.175945 0.750000
O O15 0.327290 0.181480 0.615615
O O16 0.252223 0.250000 0.000000
O O17 0.381866 0.750000 0.000000
#
# Coordination Sequence:
#
# PCOD9437553 Si02
#       7
#     8   8   8   8   8   8   8
#     4  10  22  38  60  85 114 155 202 245 294 347
#     4   9  19  38  63  89 115 153 195 237 291 351
#     4   9  19  39  63  88 117 151 195 239 290 349
#     4  10  22  39  58  86 123 157 194 244 293 349
#     4  11  23  41  61  86 119 155 198 246 297 349
#     4  11  24  39  61  88 121 159 197 240 294 351
#     4  10  20  36  58  86 120 156 197 244 293 345
#
# _framework density 19.033968999999999
#
# number of rings (size 3 to 8) (size 9 to 14) (size 15 to 20)
#    0.000    2.000    1.429    1.286    4.000    4.571 
#    0.000    4.286    0.000    0.000    0.000    0.000 
#    0.000    0.000    0.000    0.000    0.000    0.000 
#
# Total GULP energy -312393.886091 kJ/mol
# GULP energy per Si atom -5578.462252 kJ/mol
# Density = 1.899065 g / cm^3
# Si number density = 19.033969 Si / 1000 Ang^3
#
#
#
# Elastic Constant Matrix: (Units=GPa)
#
#
# Indices 1 2 3 4 5 6 
#
# 1 53.6097 11.1161 44.7562 0.0000 0.0000 0.0000
# 2 11.1161 56.1067 29.7999 0.0000 0.0000 0.0000
# 3 44.7562 29.7999 121.0380 0.0000 0.0000 0.0000
# 4 0.0000 0.0000 0.0000 3.9696 0.0000 0.0000
# 5 0.0000 0.0000 0.0000 0.0000 24.0164 0.0000
# 6 0.0000 0.0000 0.0000 0.0000 0.0000 23.4996
#
#
#
# Elastic Compliance Matrix: (Units=1/GPa)
#
#
# Indices 1 2 3 4 5 6 
#
# 1 0.026983 -0.000054 -0.009964 0.000000 0.000000 0.000000
# 2 -0.000054 0.020505 -0.005028 0.000000 0.000000 0.000000
# 3 -0.009964 -0.005028 0.013184 0.000000 0.000000 0.000000
# 4 0.000000 0.000000 0.000000 0.251917 0.000000 0.000000
# 5 0.000000 0.000000 0.000000 0.000000 0.041638 0.000000
# 6 0.000000 0.000000 0.000000 0.000000 0.000000 0.042554
#
#
# Mechanical properties :
#
#
# Convention : Reuss Voigt Hill
#
# Bulk Modulus (GPa) = 32.70194 44.67767 38.68981
# Shear Modulus (GPa) = 11.43989 19.96925 15.70457
#
# Velocity S-wave (km/s) = 2.45424 3.24255 2.87554
# Velocity P-wave (km/s) = 5.02486 6.12719 5.60320
#
# Compressibility (1/GPa) = 0.03057922
#
# Stress axis : x y z
#
# Youngs Moduli (GPa) = 37.06005 48.76964 75.84717
#
# Poissons Ratio (x) = 0.00262 0.75577
# Poissons Ratio (y) = 0.00199 0.38139
# Poissons Ratio (z) = 0.36928 0.24524
#
# Static dielectric constant tensor:
#      x y z
#    x 1.661890 0.000000 0.000000 
#    y 0.000000 1.681080 0.000000 
#    z 0.000000 0.000000 1.656670 
# 
# From -- ./inp_files/25409.got.cif
#   From: 2010.05.17/outbox.cif.g08.bks.cpg/sg57_13_cif.got.tgz:25409.got - 2010.06.03 13:58:18.
