data_PCOD9437235
_publ_section_title
;
Structure prediction by ZEFSAII (Michael W. Deem and Ramdas Pophale) SiO2 
 PCOD9437235
Probable space group: P B C M
;
_chemical_formula_sum "Si O2"
_cell_formula_units_Z 64
_cell_length_a 26.867734
_cell_length_b 15.164207
_cell_length_c 8.441720
_cell_angle_alpha 90.000000
_cell_angle_beta 90.000000
_cell_angle_gamma 90.000000
_cell_volume 3439.392083
_symmetry_space_group_name_H-M "P B C M"
_symmetry_group_IT_number 57
_symmetry_cell_setting 'orthorhombic'
loop_
_space_group_symop_operation_xyz
x,y,z
-x,-y,1/2+z
x,1/2-y,-z
-x,1/2+y,1/2-z
-x,-y,-z
x,y,1/2-z
-x,1/2+y,z
x,1/2-y,1/2+z
loop_
_atom_site_type_symbol
_atom_site_label
_atom_site_fract_x
_atom_site_fract_y
_atom_site_fract_z
Si Si1 0.501057 0.900221 0.558579
Si Si2 0.056115 0.499726 0.940740
Si Si3 0.792065 0.499476 0.940813
Si Si4 0.609906 0.656365 0.060775
Si Si5 0.865893 0.648699 0.059598
Si Si6 0.866397 0.351188 0.059627
Si Si7 0.677677 0.499875 0.558914
Si Si8 0.392785 0.657140 0.059221
O O1 0.500950 0.898225 0.750000
O O2 0.553049 0.859046 0.502614
O O3 0.449615 0.856842 0.502061
O O4 0.500000 0.000000 0.500000
O O5 0.056254 0.499554 0.750000
O O6 0.086525 0.411645 0.991374
O O7 0.086205 0.588111 0.991194
O O8 0.000000 0.500000 0.000000
O O9 0.794044 0.499795 0.750000
O O10 0.734714 0.498588 0.994337
O O11 0.819953 0.587611 0.001904
O O12 0.820393 0.411773 0.001292
O O13 0.609136 0.652903 0.250000
O O14 0.627023 0.750000 0.000000
O O15 0.647210 0.584145 0.995850
O O16 0.865140 0.651272 0.250000
O O17 0.866040 0.750000 0.000000
O O18 0.865571 0.348723 0.250000
O O19 0.866787 0.250000 0.000000
O O20 0.678444 0.497722 0.750000
O O21 0.644363 0.418161 0.502382
O O22 0.394006 0.654750 0.250000
O O23 0.374194 0.750000 0.000000
#
# Coordination Sequence:
#
# PCOD9437235 Si02
#       8
#     8   8   8   8   8   8   8   8
#     4  10  20  35  57  81 107 142 180 220 271 326
#     4   9  20  36  55  83 119 155 192 234 280 329
#     4  10  21  38  60  84 110 146 189 236 290 339
#     4  11  23  37  57  84 110 144 184 223 274 333
#     4  10  21  38  59  85 115 151 193 236 283 335
#     4  10  21  38  59  85 116 153 195 237 282 333
#     4  10  22  40  59  81 112 145 181 230 282 332
#     4  10  21  37  56  80 110 142 176 220 270 326
#
# _framework density 18.607939999999999
#
# number of rings (size 3 to 8) (size 9 to 14) (size 15 to 20)
#    0.000    2.000    1.250    2.625    0.000    7.000 
#    0.000    3.750    0.000    0.000    0.000    0.000 
#    0.000    0.000    0.000    0.000    0.000    0.000 
#
# Total GULP energy -357114.467222 kJ/mol
# GULP energy per Si atom -5579.913550 kJ/mol
# Density = 1.856559 g / cm^3
# Si number density = 18.607940 Si / 1000 Ang^3
#
#
#
# Elastic Constant Matrix: (Units=GPa)
#
#
# Indices 1 2 3 4 5 6 
#
# 1 180.6430 101.1331 29.2716 0.0000 0.0000 0.0000
# 2 101.1331 205.4604 25.0791 0.0000 0.0000 0.0000
# 3 29.2716 25.0791 17.0704 0.0000 0.0000 0.0000
# 4 0.0000 0.0000 0.0000 33.2363 0.0000 0.0000
# 5 0.0000 0.0000 0.0000 0.0000 36.7824 0.0000
# 6 0.0000 0.0000 0.0000 0.0000 0.0000 30.8564
#
#
#
# Elastic Compliance Matrix: (Units=1/GPa)
#
#
# Indices 1 2 3 4 5 6 
#
# 1 0.009057 -0.003122 -0.010944 0.000000 0.000000 0.000000
# 2 -0.003122 0.007007 -0.004940 0.000000 0.000000 0.000000
# 3 -0.010944 -0.004940 0.084605 0.000000 0.000000 0.000000
# 4 0.000000 0.000000 0.000000 0.030088 0.000000 0.000000
# 5 0.000000 0.000000 0.000000 0.000000 0.027187 0.000000
# 6 0.000000 0.000000 0.000000 0.000000 0.000000 0.032408
#
#
# Mechanical properties :
#
#
# Convention : Reuss Voigt Hill
#
# Bulk Modulus (GPa) = 15.96010 79.34905 47.65457
# Shear Modulus (GPa) = 20.06021 36.68768 28.37395
#
# Velocity S-wave (km/s) = 3.28692 4.44510 3.90914
# Velocity P-wave (km/s) = 4.79592 8.31146 6.78532
#
# Compressibility (1/GPa) = 0.06265626
#
# Stress axis : x y z
#
# Youngs Moduli (GPa) = 110.41007 142.71302 11.81968
#
# Poissons Ratio (x) = 0.44560 0.12935
# Poissons Ratio (y) = 0.34474 0.05839
# Poissons Ratio (z) = 1.20828 0.70506
#
# Static dielectric constant tensor:
#      x y z
#    x 1.650890 0.000000 0.000000 
#    y 0.000000 1.616120 0.000000 
#    z 0.000000 0.000000 1.650990 
# 
# From -- ./inp_files/9262.got.cif
#   From: 2010.05.17/outbox.cif.g08.bks.cpg/sg57_5_cif.got.tgz:9262.got - 2010.06.03 13:58:18.
