data_PCOD9437177
_publ_section_title
;
Structure prediction by ZEFSAII (Michael W. Deem and Ramdas Pophale) SiO2 
 PCOD9437177
Probable space group: P B C M
;
_chemical_formula_sum "Si O2"
_cell_formula_units_Z 48
_cell_length_a 9.851676
_cell_length_b 31.252149
_cell_length_c 8.796162
_cell_angle_alpha 90.000000
_cell_angle_beta 90.000000
_cell_angle_gamma 90.000000
_cell_volume 2708.215540
_symmetry_space_group_name_H-M "P B C M"
_symmetry_group_IT_number 57
_symmetry_cell_setting 'orthorhombic'
loop_
_space_group_symop_operation_xyz
x,y,z
-x,-y,1/2+z
x,1/2-y,-z
-x,1/2+y,1/2-z
-x,-y,-z
x,y,1/2-z
-x,1/2+y,z
x,1/2-y,1/2+z
loop_
_atom_site_type_symbol
_atom_site_label
_atom_site_fract_x
_atom_site_fract_y
_atom_site_fract_z
Si Si1 0.355716 0.015043 0.568718
Si Si2 0.191426 0.702945 0.068728
Si Si3 0.585683 0.365241 0.931125
Si Si4 0.005958 0.132426 0.568099
Si Si5 0.290162 0.392329 0.931596
Si Si6 0.220586 0.935715 0.430578
O O1 0.366377 0.017301 0.750000
O O2 0.315975 0.060783 0.500771
O O3 0.500000 0.000000 0.500000
O O4 0.246254 0.979434 0.519214
O O5 0.176335 0.705095 0.250000
O O6 0.332352 0.677998 0.034665
O O7 0.188874 0.750000 0.000000
O O8 0.074368 0.672621 0.000861
O O9 0.602369 0.374171 0.750000
O O10 0.426444 0.365236 0.964231
O O11 0.658753 0.403285 0.022236
O O12 0.008794 0.136143 0.750000
O O13 0.155487 0.127563 0.502250
O O14 0.916693 0.090033 0.530710
O O15 0.275675 0.395756 0.750000
O O16 0.224574 0.943444 0.250000
#
# Coordination Sequence:
#
# PCOD9437177 Si02
#       6
#     8   8   8   8   8   8
#     4  12  23  35  54  81 113 151 196 242 286 334
#     4  10  20  38  63  89 113 143 183 229 281 342
#     4   9  19  35  57  82 111 145 185 231 279 333
#     4  10  22  39  58  84 116 152 191 234 286 343
#     4  11  22  37  57  83 115 153 192 236 287 337
#     4  10  20  35  56  80 109 149 195 238 282 332
#
# _framework density 17.723846999999999
#
# number of rings (size 3 to 8) (size 9 to 14) (size 15 to 20)
#    0.000    1.667    1.667    3.500    0.000    4.000 
#    0.000    0.833    0.000    2.000    0.000    0.000 
#    0.000    0.000    0.000    0.000    0.000    0.000 
#
# Total GULP energy -268152.820216 kJ/mol
# GULP energy per Si atom -5586.517088 kJ/mol
# Density = 1.768351 g / cm^3
# Si number density = 17.723847 Si / 1000 Ang^3
#
#
#
# Elastic Constant Matrix: (Units=GPa)
#
#
# Indices 1 2 3 4 5 6 
#
# 1 153.8883 73.9803 65.2572 0.0000 0.0000 0.0000
# 2 73.9803 130.9168 56.4858 0.0000 0.0000 0.0000
# 3 65.2572 56.4858 80.3090 0.0000 0.0000 0.0000
# 4 0.0000 0.0000 0.0000 28.8135 0.0000 0.0000
# 5 0.0000 0.0000 0.0000 0.0000 29.3480 0.0000
# 6 0.0000 0.0000 0.0000 0.0000 0.0000 14.8864
#
#
#
# Elastic Compliance Matrix: (Units=1/GPa)
#
#
# Indices 1 2 3 4 5 6 
#
# 1 0.010844 -0.003340 -0.006463 0.000000 0.000000 0.000000
# 2 -0.003340 0.011995 -0.005723 0.000000 0.000000 0.000000
# 3 -0.006463 -0.005723 0.021729 0.000000 0.000000 0.000000
# 4 0.000000 0.000000 0.000000 0.034706 0.000000 0.000000
# 5 0.000000 0.000000 0.000000 0.000000 0.034074 0.000000
# 6 0.000000 0.000000 0.000000 0.000000 0.000000 0.067175
#
#
# Mechanical properties :
#
#
# Convention : Reuss Voigt Hill
#
# Bulk Modulus (GPa) = 73.98081 84.06229 79.02155
# Shear Modulus (GPa) = 23.13959 25.90231 24.52095
#
# Velocity S-wave (km/s) = 3.61718 3.82702 3.72358
# Velocity P-wave (km/s) = 7.69914 8.18902 7.94785
#
# Compressibility (1/GPa) = 0.01351702
#
# Stress axis : x y z
#
# Youngs Moduli (GPa) = 92.21413 83.36909 46.02173
#
# Poissons Ratio (x) = 0.27841 0.29744
# Poissons Ratio (y) = 0.30795 0.26338
# Poissons Ratio (z) = 0.59598 0.47712
#
# Static dielectric constant tensor:
#      x y z
#    x 1.604570 0.000000 0.000000 
#    y 0.000000 1.574740 0.000000 
#    z 0.000000 0.000000 1.589160 
# 
# From -- ./inp_files/1992.got.cif
#   From: 2010.05.17/outbox.cif.g08.bks.cpg/sg57_1_cif.got.tgz:1992.got - 2010.06.03 13:58:18.
