data_PCOD9437262
_publ_section_title
;
Structure prediction by ZEFSAII (Michael W. Deem and Ramdas Pophale) SiO2 
 PCOD9437262
Probable space group: P B C M
;
_chemical_formula_sum "Si O2"
_cell_formula_units_Z 32
_cell_length_a 5.191986
_cell_length_b 28.845785
_cell_length_c 9.278949
_cell_angle_alpha 90.000000
_cell_angle_beta 90.000000
_cell_angle_gamma 90.000000
_cell_volume 1389.679537
_symmetry_space_group_name_H-M "P B C M"
_symmetry_group_IT_number 57
_symmetry_cell_setting 'orthorhombic'
loop_
_space_group_symop_operation_xyz
x,y,z
-x,-y,1/2+z
x,1/2-y,-z
-x,1/2+y,1/2-z
-x,-y,-z
x,y,1/2-z
-x,1/2+y,z
x,1/2-y,1/2+z
loop_
_atom_site_type_symbol
_atom_site_label
_atom_site_fract_x
_atom_site_fract_y
_atom_site_fract_z
Si Si1 0.469134 0.927170 0.098000
Si Si2 0.632283 0.699806 0.426874
Si Si3 0.793726 0.975765 0.902034
Si Si4 0.124938 0.657372 0.578082
O O1 0.589433 0.910693 0.250000
O O2 0.218299 0.896239 0.075088
O O3 0.401959 0.981175 0.115893
O O4 0.659103 0.930550 0.965220
O O5 0.676171 0.750000 0.500000
O O6 0.632314 0.700742 0.250000
O O7 0.863562 0.669115 0.494576
O O8 0.360246 0.682453 0.493403
O O9 0.916312 0.964325 0.750000
O O10 0.000000 0.000000 0.000000
O O11 0.111832 0.670415 0.750000
#
# Coordination Sequence:
#
# PCOD9437262 Si02
#       4
#     8   8   8   8
#     4   9  21  39  58  84 120 164 211 257 315 377
#     4  12  26  46  70 100 134 171 216 269 331 396
#     4  10  20  35  57  85 120 163 208 259 313 372
#     4  11  24  44  70  99 133 175 220 271 328 392
#
# _framework density 23.026890000000002
#
# number of rings (size 3 to 8) (size 9 to 14) (size 15 to 20)
#    0.000    1.500    0.000    4.500    3.500    3.000 
#    0.000    0.000    0.000    0.000    0.000    0.000 
#    0.000    0.000    0.000    0.000    0.000    0.000 
#
# Total GULP energy -178450.577540 kJ/mol
# GULP energy per Si atom -5576.580548 kJ/mol
# Density = 2.297448 g / cm^3
# Si number density = 23.026890 Si / 1000 Ang^3
#
#
#
# Elastic Constant Matrix: (Units=GPa)
#
#
# Indices 1 2 3 4 5 6 
#
# 1 80.6540 18.3074 58.5164 0.0000 0.0000 0.0000
# 2 18.3074 97.7735 26.5172 0.0000 0.0000 0.0000
# 3 58.5164 26.5172 208.1345 0.0000 0.0000 0.0000
# 4 0.0000 0.0000 0.0000 26.4331 0.0000 0.0000
# 5 0.0000 0.0000 0.0000 0.0000 33.5514 0.0000
# 6 0.0000 0.0000 0.0000 0.0000 0.0000 37.9876
#
#
#
# Elastic Compliance Matrix: (Units=1/GPa)
#
#
# Indices 1 2 3 4 5 6 
#
# 1 0.015884 -0.001826 -0.004233 0.000000 0.000000 0.000000
# 2 -0.001826 0.010804 -0.000863 0.000000 0.000000 0.000000
# 3 -0.004233 -0.000863 0.006105 0.000000 0.000000 0.000000
# 4 0.000000 0.000000 0.000000 0.037831 0.000000 0.000000
# 5 0.000000 0.000000 0.000000 0.000000 0.029805 0.000000
# 6 0.000000 0.000000 0.000000 0.000000 0.000000 0.026324
#
#
# Mechanical properties :
#
#
# Convention : Reuss Voigt Hill
#
# Bulk Modulus (GPa) = 52.77577 65.91599 59.34588
# Shear Modulus (GPa) = 34.03345 38.47584 36.25464
#
# Velocity S-wave (km/s) = 3.84863 4.09211 3.97224
# Velocity P-wave (km/s) = 6.53592 7.14248 6.84592
#
# Compressibility (1/GPa) = 0.01894809
#
# Stress axis : x y z
#
# Youngs Moduli (GPa) = 62.95468 92.56079 163.80847
#
# Poissons Ratio (x) = 0.16903 0.69343
# Poissons Ratio (y) = 0.11496 0.14137
# Poissons Ratio (z) = 0.26650 0.07988
#
# Static dielectric constant tensor:
#      x y z
#    x 1.881220 0.000000 0.000000 
#    y 0.000000 1.893880 0.000000 
#    z 0.000000 0.000000 1.658410 
# 
# From -- ./inp_files/782.got.cif
#   From: 2010.05.17/outbox.cif.g08.bks.cpg/sg57_1_cif.got.tgz:782.got - 2010.06.03 13:58:18.
