data_PCOD9437951
_publ_section_title
;
Structure prediction by ZEFSAII (Michael W. Deem and Ramdas Pophale) SiO2 
 PCOD9437951
Probable space group: P B C M
;
_chemical_formula_sum "Si O2"
_cell_formula_units_Z 48
_cell_length_a 26.268201
_cell_length_b 5.409703
_cell_length_c 14.584108
_cell_angle_alpha 90.000000
_cell_angle_beta 90.000000
_cell_angle_gamma 90.000000
_cell_volume 2072.447917
_symmetry_space_group_name_H-M "P B C M"
_symmetry_group_IT_number 57
_symmetry_cell_setting 'orthorhombic'
loop_
_space_group_symop_operation_xyz
x,y,z
-x,-y,1/2+z
x,1/2-y,-z
-x,1/2+y,1/2-z
-x,-y,-z
x,y,1/2-z
-x,1/2+y,z
x,1/2-y,1/2+z
loop_
_atom_site_type_symbol
_atom_site_label
_atom_site_fract_x
_atom_site_fract_y
_atom_site_fract_z
Si Si1 0.695848 0.862831 0.601181
Si Si2 0.971545 0.103427 0.361298
Si Si3 0.632517 0.934675 0.250000
Si Si4 0.601210 0.195508 0.603947
Si Si5 0.187644 0.206629 0.109518
Si Si6 0.855265 0.209901 0.104943
Si Si7 0.467989 0.031463 0.250000
O O1 0.692592 0.750000 0.500000
O O2 0.670053 0.679400 0.671520
O O3 0.755089 0.889395 0.624025
O O4 0.660015 0.104110 0.604713
O O5 0.970499 0.103444 0.250000
O O6 0.913727 0.128396 0.393804
O O7 0.002771 0.346621 0.390800
O O8 0.598706 0.070435 0.330578
O O9 0.585277 0.250000 0.500000
O O10 0.568572 0.991915 0.660375
O O11 0.176280 0.481264 0.146532
O O12 0.151693 0.985658 0.144377
O O13 0.180104 0.250000 0.000000
O O14 0.837811 0.250000 0.000000
O O15 0.503514 0.790828 0.250000
#
# Coordination Sequence:
#
# PCOD9437951 Si02
#       7
#     8   8   4   8   8   8   4
#     4  11  23  42  71 101 142 188 236 288 355 418
#     4  10  21  37  57  78 110 153 205 264 324 392
#     4  11  23  42  66 104 142 180 242 290 338 419
#     4  11  25  44  77 105 144 192 240 300 359 415
#     4   9  21  37  60  88 131 171 205 265 338 410
#     4  10  20  38  58  86 121 160 208 267 334 399
#     4  11  29  50  76 110 152 190 244 304 358 425
#
# _framework density 23.161014999999999
#
# number of rings (size 3 to 8) (size 9 to 14) (size 15 to 20)
#    0.000    1.667    1.667    2.000    7.000    2.000 
#    3.000    0.000    0.000    0.000    0.000    0.000 
#    0.000    0.000    0.000    0.000    0.000    0.000 
#
# Total GULP energy -267240.890231 kJ/mol
# GULP energy per Si atom -5567.518546 kJ/mol
# Density = 2.310830 g / cm^3
# Si number density = 23.161015 Si / 1000 Ang^3
#
#
#
# Elastic Constant Matrix: (Units=GPa)
#
#
# Indices 1 2 3 4 5 6 
#
# 1 80.8080 37.9462 9.1092 0.0000 0.0000 0.0000
# 2 37.9462 123.8305 19.3671 0.0000 0.0000 0.0000
# 3 9.1092 19.3671 134.3293 0.0000 0.0000 0.0000
# 4 0.0000 0.0000 0.0000 -14.5062 0.0000 0.0000
# 5 0.0000 0.0000 0.0000 0.0000 33.5880 0.0000
# 6 0.0000 0.0000 0.0000 0.0000 0.0000 49.7693
#
#
#
# Elastic Compliance Matrix: (Units=1/GPa)
#
#
# Indices 1 2 3 4 5 6 
#
# 1 0.014471 -0.004380 -0.000350 0.000000 0.000000 0.000000
# 2 -0.004380 0.009587 -0.001085 0.000000 0.000000 0.000000
# 3 -0.000350 -0.001085 0.007625 0.000000 0.000000 0.000000
# 4 0.000000 0.000000 0.000000 -0.068936 0.000000 0.000000
# 5 0.000000 0.000000 0.000000 0.000000 0.029773 0.000000
# 6 0.000000 0.000000 0.000000 0.000000 0.000000 0.020093
#
#
# Mechanical properties :
#
#
# Convention : Reuss Voigt Hill
#
# Bulk Modulus (GPa) = 49.86707 52.42366 51.14536
# Shear Modulus (GPa) = 161.67236 31.93989 96.80613
#
# Velocity S-wave (km/s) = 8.36392 3.71757 6.47207
# Velocity P-wave (km/s) = 10.71685 6.41176 8.83067
#
# Compressibility (1/GPa) = 0.02005331
#
# Stress axis : x y z
#
# Youngs Moduli (GPa) = 69.10315 104.30349 131.15460
#
# Poissons Ratio (x) = 0.45682 0.04589
# Poissons Ratio (y) = 0.30266 0.14234
# Poissons Ratio (z) = 0.02418 0.11320
#
# Static dielectric constant tensor:
#      x y z
#    x 1.868200 0.000000 0.000000 
#    y 0.000000 1.950530 0.000000 
#    z 0.000000 0.000000 1.846590 
# 
# From -- ./inp_files/19596.got.cif
#   From: 2010.05.17/outbox.cif.g08.bks.cpg/sg57_10_cif.got.tgz:19596.got - 2010.06.03 13:58:18.
