data_PCOD9437533
_publ_section_title
;
Structure prediction by ZEFSAII (Michael W. Deem and Ramdas Pophale) SiO2 
 PCOD9437533
Probable space group: P B C M
;
_chemical_formula_sum "Si O2"
_cell_formula_units_Z 48
_cell_length_a 9.856745
_cell_length_b 31.209544
_cell_length_c 8.772631
_cell_angle_alpha 90.000000
_cell_angle_beta 90.000000
_cell_angle_gamma 90.000000
_cell_volume 2698.676372
_symmetry_space_group_name_H-M "P B C M"
_symmetry_group_IT_number 57
_symmetry_cell_setting 'orthorhombic'
loop_
_space_group_symop_operation_xyz
x,y,z
-x,-y,1/2+z
x,1/2-y,-z
-x,1/2+y,1/2-z
-x,-y,-z
x,y,1/2-z
-x,1/2+y,z
x,1/2-y,1/2+z
loop_
_atom_site_type_symbol
_atom_site_label
_atom_site_fract_x
_atom_site_fract_y
_atom_site_fract_z
Si Si1 0.084917 0.136228 0.566877
Si Si2 0.689950 0.703059 0.567599
Si Si3 0.196177 0.887563 0.568041
Si Si4 0.710210 0.933565 0.567785
Si Si5 0.511610 0.127125 0.933303
Si Si6 0.146564 0.512094 0.068124
O O1 0.087418 0.131064 0.750000
O O2 0.169992 0.178809 0.526802
O O3 0.167909 0.096888 0.492568
O O4 0.933224 0.135702 0.504982
O O5 0.677992 0.750000 0.500000
O O6 0.685838 0.706298 0.750000
O O7 0.570730 0.670107 0.521768
O O8 0.196865 0.881610 0.750000
O O9 0.337158 0.872705 0.496299
O O10 0.177844 0.938313 0.536911
O O11 0.708300 0.933380 0.750000
O O12 0.573619 0.912468 0.502279
O O13 0.742974 0.980588 0.505239
O O14 0.509918 0.123993 0.750000
O O15 0.143356 0.505724 0.250000
O O16 0.000000 0.500000 0.000000
#
# Coordination Sequence:
#
# PCOD9437533 Si02
#       6
#     8   8   8   8   8   8
#     4  10  20  36  58  83 114 148 185 229 281 334
#     4   9  20  38  62  89 111 141 183 227 279 343
#     4  11  23  37  56  85 115 149 193 237 284 335
#     4  11  21  35  56  82 111 150 197 238 279 330
#     4  10  22  40  59  82 115 153 189 231 289 344
#     4  11  22  35  54  81 114 151 197 242 286 333
#
# _framework density 17.786497000000001
#
# number of rings (size 3 to 8) (size 9 to 14) (size 15 to 20)
#    0.000    1.667    1.667    4.500    0.000    6.667 
#    0.000    0.833    0.000    0.000    0.000    0.000 
#    0.000    0.000    0.000    0.000    0.000    0.000 
#
# Total GULP energy -268184.555462 kJ/mol
# GULP energy per Si atom -5587.178239 kJ/mol
# Density = 1.774601 g / cm^3
# Si number density = 17.786497 Si / 1000 Ang^3
#
#
#
# Elastic Constant Matrix: (Units=GPa)
#
#
# Indices 1 2 3 4 5 6 
#
# 1 159.5701 56.4450 58.8522 0.0000 0.0000 0.0000
# 2 56.4450 99.5366 59.5181 0.0000 0.0000 0.0000
# 3 58.8522 59.5181 85.4091 0.0000 0.0000 0.0000
# 4 0.0000 0.0000 0.0000 31.2408 0.0000 0.0000
# 5 0.0000 0.0000 0.0000 0.0000 34.3658 0.0000
# 6 0.0000 0.0000 0.0000 0.0000 0.0000 13.8402
#
#
#
# Elastic Compliance Matrix: (Units=1/GPa)
#
#
# Indices 1 2 3 4 5 6 
#
# 1 0.008702 -0.002313 -0.004384 0.000000 0.000000 0.000000
# 2 -0.002313 0.017838 -0.010837 0.000000 0.000000 0.000000
# 3 -0.004384 -0.010837 0.022281 0.000000 0.000000 0.000000
# 4 0.000000 0.000000 0.000000 0.032009 0.000000 0.000000
# 5 0.000000 0.000000 0.000000 0.000000 0.029099 0.000000
# 6 0.000000 0.000000 0.000000 0.000000 0.000000 0.072253
#
#
# Mechanical properties :
#
#
# Convention : Reuss Voigt Hill
#
# Bulk Modulus (GPa) = 72.71215 77.12737 74.91976
# Shear Modulus (GPa) = 22.53923 27.20274 24.87098
#
# Velocity S-wave (km/s) = 3.56365 3.91500 3.74345
# Velocity P-wave (km/s) = 7.60934 7.99333 7.80370
#
# Compressibility (1/GPa) = 0.01375286
#
# Stress axis : x y z
#
# Youngs Moduli (GPa) = 114.91484 56.05965 44.88099
#
# Poissons Ratio (x) = 0.12967 0.19677
# Poissons Ratio (y) = 0.26581 0.48637
# Poissons Ratio (z) = 0.50383 0.60751
#
# Static dielectric constant tensor:
#      x y z
#    x 1.599510 0.000000 0.000000 
#    y 0.000000 1.591280 0.000000 
#    z 0.000000 0.000000 1.603980 
# 
# From -- ./inp_files/1984.got.cif
#   From: 2010.05.17/outbox.cif.g08.bks.cpg/sg57_1_cif.got.tgz:1984.got - 2010.06.03 13:58:18.
