data_PCOD9437279
_publ_section_title
;
Structure prediction by ZEFSAII (Michael W. Deem and Ramdas Pophale) SiO2 
 PCOD9437279
Probable space group: P B C M
;
_chemical_formula_sum "Si O2"
_cell_formula_units_Z 64
_cell_length_a 12.213520
_cell_length_b 19.159499
_cell_length_c 15.087321
_cell_angle_alpha 90.000000
_cell_angle_beta 90.000000
_cell_angle_gamma 90.000000
_cell_volume 3530.507407
_symmetry_space_group_name_H-M "P B C M"
_symmetry_group_IT_number 57
_symmetry_cell_setting 'orthorhombic'
loop_
_space_group_symop_operation_xyz
x,y,z
-x,-y,1/2+z
x,1/2-y,-z
-x,1/2+y,1/2-z
-x,-y,-z
x,y,1/2-z
-x,1/2+y,z
x,1/2-y,1/2+z
loop_
_atom_site_type_symbol
_atom_site_label
_atom_site_fract_x
_atom_site_fract_y
_atom_site_fract_z
Si Si1 0.832094 0.031888 0.940701
Si Si2 0.382369 0.400933 0.350243
Si Si3 0.972564 0.592261 0.464699
Si Si4 0.391060 0.531995 0.457258
Si Si5 0.564653 0.327065 0.029408
Si Si6 0.869512 0.864458 0.350485
Si Si7 0.217193 0.826384 0.146467
Si Si8 0.988448 0.228988 0.147575
O O1 0.826589 0.095140 0.871308
O O2 0.893487 0.961261 0.913145
O O3 0.710869 0.018730 0.977021
O O4 0.907023 0.060492 0.021446
O O5 0.419768 0.391255 0.250000
O O6 0.373305 0.483462 0.372302
O O7 0.468501 0.362836 0.413798
O O8 0.260755 0.370021 0.360349
O O9 0.923831 0.598867 0.564475
O O10 0.984618 0.665815 0.416988
O O11 0.500000 0.500000 0.500000
O O12 0.406378 0.615601 0.453270
O O13 0.674706 0.318692 0.087686
O O14 0.531755 0.250000 0.000000
O O15 0.897535 0.890607 0.250000
O O16 0.914947 0.785898 0.354440
O O17 0.241325 0.817666 0.250000
O O18 0.121869 0.771418 0.122080
O O19 0.975518 0.205524 0.250000
#
# Coordination Sequence:
#
# PCOD9437279 Si02
#       8
#     8   8   8   8   8   8   8   8
#     4  10  21  34  56  86 109 147 200 229 291 347
#     4  10  20  39  61  83 113 152 194 240 292 348
#     4  11  21  35  57  83 117 154 191 246 288 350
#     4   9  19  38  57  82 112 145 189 235 283 348
#     4  10  22  36  61  88 115 149 194 243 290 356
#     4  10  20  35  58  84 114 153 196 239 290 350
#     4  10  21  37  57  82 117 154 193 241 294 352
#     4  10  22  37  55  84 116 155 196 238 294 347
#
# _framework density 18.127707000000001
#
# number of rings (size 3 to 8) (size 9 to 14) (size 15 to 20)
#    0.000    2.000    2.500    0.750    3.500    1.500 
#    0.000    3.750    0.000    0.000    0.000    0.000 
#    0.000    0.000    0.000    0.000    0.000    0.000 
#
# Total GULP energy -356746.692517 kJ/mol
# GULP energy per Si atom -5574.167071 kJ/mol
# Density = 1.808645 g / cm^3
# Si number density = 18.127707 Si / 1000 Ang^3
#
#
#
# Elastic Constant Matrix: (Units=GPa)
#
#
# Indices 1 2 3 4 5 6 
#
# 1 91.6044 36.0079 27.6238 0.0000 0.0000 0.0000
# 2 36.0079 119.3163 44.7113 0.0000 0.0000 0.0000
# 3 27.6238 44.7113 63.1723 0.0000 0.0000 0.0000
# 4 0.0000 0.0000 0.0000 6.5008 0.0000 0.0000
# 5 0.0000 0.0000 0.0000 0.0000 18.1029 0.0000
# 6 0.0000 0.0000 0.0000 0.0000 0.0000 20.7158
#
#
#
# Elastic Compliance Matrix: (Units=1/GPa)
#
#
# Indices 1 2 3 4 5 6 
#
# 1 0.013083 -0.002456 -0.003983 0.000000 0.000000 0.000000
# 2 -0.002456 0.011867 -0.007325 0.000000 0.000000 0.000000
# 3 -0.003983 -0.007325 0.022756 0.000000 0.000000 0.000000
# 4 0.000000 0.000000 0.000000 0.153827 0.000000 0.000000
# 5 0.000000 0.000000 0.000000 0.000000 0.055240 0.000000
# 6 0.000000 0.000000 0.000000 0.000000 0.000000 0.048272
#
#
# Mechanical properties :
#
#
# Convention : Reuss Voigt Hill
#
# Bulk Modulus (GPa) = 49.55822 54.53097 52.04460
# Shear Modulus (GPa) = 14.73625 20.11389 17.42507
#
# Velocity S-wave (km/s) = 2.85426 3.33463 3.10375
# Velocity P-wave (km/s) = 6.18548 6.70621 6.45110
#
# Compressibility (1/GPa) = 0.02017829
#
# Stress axis : x y z
#
# Youngs Moduli (GPa) = 76.43605 84.26563 43.94454
#
# Poissons Ratio (x) = 0.20694 0.17502
# Poissons Ratio (y) = 0.18771 0.32191
# Poissons Ratio (z) = 0.30442 0.61728
#
# Static dielectric constant tensor:
#      x y z
#    x 1.622670 0.000000 0.000000 
#    y 0.000000 1.635960 0.000000 
#    z 0.000000 0.000000 1.634940 
# 
# From -- ./inp_files/17993.got.cif
#   From: 2010.05.17/outbox.cif.g08.bks.cpg/sg57_9_cif.got.tgz:17993.got - 2010.06.03 13:58:18.
