data_PCOD9437954
_publ_section_title
;
Structure prediction by ZEFSAII (Michael W. Deem and Ramdas Pophale) SiO2 
 PCOD9437954
Probable space group: P B C M
;
_chemical_formula_sum "Si O2"
_cell_formula_units_Z 40
_cell_length_a 14.665511
_cell_length_b 7.171227
_cell_length_c 16.201189
_cell_angle_alpha 90.000000
_cell_angle_beta 90.000000
_cell_angle_gamma 90.000000
_cell_volume 1703.874324
_symmetry_space_group_name_H-M "P B C M"
_symmetry_group_IT_number 57
_symmetry_cell_setting 'orthorhombic'
loop_
_space_group_symop_operation_xyz
x,y,z
-x,-y,1/2+z
x,1/2-y,-z
-x,1/2+y,1/2-z
-x,-y,-z
x,y,1/2-z
-x,1/2+y,z
x,1/2-y,1/2+z
loop_
_atom_site_type_symbol
_atom_site_label
_atom_site_fract_x
_atom_site_fract_y
_atom_site_fract_z
Si Si1 0.227249 0.519208 0.914006
Si Si2 0.197657 0.529168 0.403815
Si Si3 0.918078 0.090708 0.250000
Si Si4 0.393985 0.482934 0.157806
Si Si5 0.580741 0.141216 0.913910
Si Si6 0.129044 0.473850 0.750000
O O1 0.213073 0.745173 0.908058
O O2 0.336997 0.493598 0.914137
O O3 0.182040 0.428835 0.834094
O O4 0.183007 0.467191 0.001861
O O5 0.293700 0.442160 0.375518
O O6 0.121994 0.498780 0.333512
O O7 0.881358 0.301488 0.250000
O O8 0.026503 0.099761 0.250000
O O9 0.405645 0.408665 0.250000
O O10 0.478880 0.426466 0.101156
O O11 0.399083 0.708064 0.156939
O O12 0.588609 0.250000 0.000000
#
# Coordination Sequence:
#
# PCOD9437954 Si02
#       6
#     8   8   4   8   8   4
#     4   9  18  34  56  84 104 148 190 230 262 342
#     4   9  17  34  58  77 109 147 188 218 279 339
#     4  10  20  38  59  80 106 142 179 238 279 350
#     4  11  21  34  55  86 113 154 191 231 277 335
#     4  11  21  35  56  83 118 150 197 230 276 333
#     4  10  22  36  61  82 108 136 189 236 293 328
#
# _framework density 23.475909999999999
#
# number of rings (size 3 to 8) (size 9 to 14) (size 15 to 20)
#    0.000    2.000    5.000    1.200    5.600    0.800 
#    0.000    2.000    0.000    0.000    0.000    0.000 
#    0.000    0.000    0.000    0.000    0.000    0.000 
#
# Total GULP energy -223599.595316 kJ/mol
# GULP energy per Si atom -5589.989883 kJ/mol
# Density = 2.342248 g / cm^3
# Si number density = 23.475910 Si / 1000 Ang^3
#
#
#
# Elastic Constant Matrix: (Units=GPa)
#
#
# Indices 1 2 3 4 5 6 
#
# 1 155.6384 6.0343 103.1660 0.0000 0.0000 0.0000
# 2 6.0343 59.7742 3.0084 0.0000 0.0000 0.0000
# 3 103.1660 3.0084 201.1717 0.0000 0.0000 0.0000
# 4 0.0000 0.0000 0.0000 0.8435 0.0000 0.0000
# 5 0.0000 0.0000 0.0000 0.0000 24.4131 0.0000
# 6 0.0000 0.0000 0.0000 0.0000 0.0000 19.4349
#
#
#
# Elastic Compliance Matrix: (Units=1/GPa)
#
#
# Indices 1 2 3 4 5 6 
#
# 1 0.009766 -0.000734 -0.004997 0.000000 0.000000 0.000000
# 2 -0.000734 0.016797 0.000125 0.000000 0.000000 0.000000
# 3 -0.004997 0.000125 0.007532 0.000000 0.000000 0.000000
# 4 0.000000 0.000000 0.000000 1.185603 0.000000 0.000000
# 5 0.000000 0.000000 0.000000 0.000000 0.040962 0.000000
# 6 0.000000 0.000000 0.000000 0.000000 0.000000 0.051454
#
#
# Mechanical properties :
#
#
# Convention : Reuss Voigt Hill
#
# Bulk Modulus (GPa) = 43.70110 71.22242 57.46176
# Shear Modulus (GPa) = 3.75670 29.23000 16.49335
#
# Velocity S-wave (km/s) = 1.26638 3.53243 2.65347
# Velocity P-wave (km/s) = 4.56004 6.85870 5.82391
#
# Compressibility (1/GPa) = 0.02288272
#
# Stress axis : x y z
#
# Youngs Moduli (GPa) = 102.39442 59.53287 132.77079
#
# Poissons Ratio (x) = 0.04372 0.66350
# Poissons Ratio (y) = 0.07520 -0.01665
# Poissons Ratio (z) = 0.51170 -0.00747
#
# Static dielectric constant tensor:
#      x y z
#    x 1.849550 0.000000 0.000000 
#    y 0.000000 1.985000 0.000000 
#    z 0.000000 0.000000 1.876460 
# 
# From -- ./inp_files/17457.got.cif
#   From: 2010.05.17/outbox.cif.g08.bks.cpg/sg57_9_cif.got.tgz:17457.got - 2010.06.03 13:58:18.
