data_PCOD9437886
_publ_section_title
;
Structure prediction by ZEFSAII (Michael W. Deem and Ramdas Pophale) SiO2 
 PCOD9437886
Probable space group: P B C M
;
_chemical_formula_sum "Si O2"
_cell_formula_units_Z 64
_cell_length_a 18.927501
_cell_length_b 11.057298
_cell_length_c 14.440423
_cell_angle_alpha 90.000000
_cell_angle_beta 90.000000
_cell_angle_gamma 90.000000
_cell_volume 3022.193082
_symmetry_space_group_name_H-M "P B C M"
_symmetry_group_IT_number 57
_symmetry_cell_setting 'orthorhombic'
loop_
_space_group_symop_operation_xyz
x,y,z
-x,-y,1/2+z
x,1/2-y,-z
-x,1/2+y,1/2-z
-x,-y,-z
x,y,1/2-z
-x,1/2+y,z
x,1/2-y,1/2+z
loop_
_atom_site_type_symbol
_atom_site_label
_atom_site_fract_x
_atom_site_fract_y
_atom_site_fract_z
Si Si1 0.055804 0.293494 0.854223
Si Si2 0.423758 0.024537 0.861541
Si Si3 0.794245 0.702913 0.355077
Si Si4 0.964438 0.517844 0.597931
Si Si5 0.645986 0.731031 0.361110
Si Si6 0.677822 0.387557 0.520907
Si Si7 0.199365 0.493399 0.357019
Si Si8 0.584313 0.486038 0.358835
O O1 0.078209 0.262716 0.750000
O O2 0.005516 0.409188 0.849947
O O3 0.130884 0.328942 0.901650
O O4 0.026120 0.163138 0.885561
O O5 0.419441 0.015025 0.750000
O O6 0.377953 0.139253 0.895917
O O7 0.505023 0.050916 0.884678
O O8 0.387791 0.909121 0.908347
O O9 0.792296 0.650349 0.250000
O O10 0.718911 0.676369 0.400434
O O11 0.791839 0.848602 0.352676
O O12 0.881802 0.489749 0.611632
O O13 0.000000 0.500000 0.500000
O O14 0.657524 0.746830 0.250000
O O15 0.586298 0.631141 0.370106
O O16 0.696243 0.250000 0.500000
O O17 0.744766 0.449980 0.571601
O O18 0.645161 0.435976 0.424605
O O19 0.209370 0.537235 0.250000
O O20 0.596812 0.458756 0.250000
#
# Coordination Sequence:
#
# PCOD9437886 Si02
#       8
#     8   8   8   8   8   8   8   8
#     4  10  20  37  62  92 126 171 218 267 324 395
#     4  10  21  41  66  89 121 169 215 261 326 397
#     4   8  15  32  61  90 114 147 207 265 310 372
#     4  11  23  39  63  96 134 169 214 275 335 401
#     4   9  17  35  63  90 118 160 211 260 316 389
#     4  12  26  40  61  94 128 168 222 273 320 391
#     4  10  21  43  67  90 124 175 228 268 318 399
#     4  10  24  41  60  92 131 165 207 274 340 391
#
# _framework density 21.176676
#
# number of rings (size 3 to 8) (size 9 to 14) (size 15 to 20)
#    0.000    2.000    1.250    3.000    1.750    3.500 
#    0.000    1.250    0.000    4.500    0.000    0.000 
#    0.000    0.000    0.000    0.000    0.000    0.000 
#
# Total GULP energy -356583.557747 kJ/mol
# GULP energy per Si atom -5571.618090 kJ/mol
# Density = 2.112848 g / cm^3
# Si number density = 21.176676 Si / 1000 Ang^3
#
#
#
# Elastic Constant Matrix: (Units=GPa)
#
#
# Indices 1 2 3 4 5 6 
#
# 1 135.8494 44.0111 31.8008 0.0000 0.0000 0.0000
# 2 44.0111 66.0511 8.5228 0.0000 0.0000 0.0000
# 3 31.8008 8.5228 84.2029 0.0000 0.0000 0.0000
# 4 0.0000 0.0000 0.0000 28.0696 0.0000 0.0000
# 5 0.0000 0.0000 0.0000 0.0000 30.6540 0.0000
# 6 0.0000 0.0000 0.0000 0.0000 0.0000 29.3417
#
#
#
# Elastic Compliance Matrix: (Units=1/GPa)
#
#
# Indices 1 2 3 4 5 6 
#
# 1 0.010172 -0.006365 -0.003197 0.000000 0.000000 0.000000
# 2 -0.006365 0.019323 0.000448 0.000000 0.000000 0.000000
# 3 -0.003197 0.000448 0.013038 0.000000 0.000000 0.000000
# 4 0.000000 0.000000 0.000000 0.035626 0.000000 0.000000
# 5 0.000000 0.000000 0.000000 0.000000 0.032622 0.000000
# 6 0.000000 0.000000 0.000000 0.000000 0.000000 0.034081
#
#
# Mechanical properties :
#
#
# Convention : Reuss Voigt Hill
#
# Bulk Modulus (GPa) = 41.14465 50.53033 45.83749
# Shear Modulus (GPa) = 29.20699 31.06431 30.13565
#
# Velocity S-wave (km/s) = 3.71779 3.83418 3.77644
# Velocity P-wave (km/s) = 6.15636 6.59654 6.38025
#
# Compressibility (1/GPa) = 0.02430450
#
# Stress axis : x y z
#
# Youngs Moduli (GPa) = 98.31306 51.75160 76.69752
#
# Poissons Ratio (x) = 0.32940 0.24522
# Poissons Ratio (y) = 0.62576 -0.03436
# Poissons Ratio (z) = 0.31433 -0.02319
#
# Static dielectric constant tensor:
#      x y z
#    x 1.868060 0.000000 0.000000 
#    y 0.000000 1.746570 0.000000 
#    z 0.000000 0.000000 1.636020 
# 
# From -- ./inp_files/19141.got.cif
#   From: 2010.05.17/outbox.cif.g08.bks.cpg/sg57_10_cif.got.tgz:19141.got - 2010.06.03 13:58:18.
