data_PCOD9437224
_publ_section_title
;
Structure prediction by ZEFSAII (Michael W. Deem and Ramdas Pophale) SiO2 
 PCOD9437224
Probable space group: P B C M
;
_chemical_formula_sum "Si O2"
_cell_formula_units_Z 64
_cell_length_a 22.169105
_cell_length_b 18.145695
_cell_length_c 8.775164
_cell_angle_alpha 90.000000
_cell_angle_beta 90.000000
_cell_angle_gamma 90.000000
_cell_volume 3530.018724
_symmetry_space_group_name_H-M "P B C M"
_symmetry_group_IT_number 57
_symmetry_cell_setting 'orthorhombic'
loop_
_space_group_symop_operation_xyz
x,y,z
-x,-y,1/2+z
x,1/2-y,-z
-x,1/2+y,1/2-z
-x,-y,-z
x,y,1/2-z
-x,1/2+y,z
x,1/2-y,1/2+z
loop_
_atom_site_type_symbol
_atom_site_label
_atom_site_fract_x
_atom_site_fract_y
_atom_site_fract_z
Si Si1 0.312035 0.545159 0.066774
Si Si2 0.997719 0.670544 0.567997
Si Si3 0.120496 0.401294 0.566298
Si Si4 0.112550 0.925986 0.433459
Si Si5 0.563364 0.525293 0.566958
Si Si6 0.777637 0.168457 0.067493
Si Si7 0.254881 0.101148 0.433315
Si Si8 0.379543 0.328225 0.932857
O O1 0.308633 0.539682 0.250000
O O2 0.381272 0.529325 0.023056
O O3 0.282231 0.622430 0.021814
O O4 0.272480 0.478827 0.997992
O O5 0.013523 0.750000 0.500000
O O6 0.996328 0.675672 0.750000
O O7 0.933091 0.644428 0.507495
O O8 0.048914 0.611223 0.524812
O O9 0.115815 0.395353 0.750000
O O10 0.114500 0.487872 0.525360
O O11 0.187730 0.376818 0.518261
O O12 0.119687 0.921399 0.250000
O O13 0.165914 0.879603 0.509546
O O14 0.500000 0.500000 0.500000
O O15 0.560477 0.528299 0.750000
O O16 0.582175 0.604742 0.501412
O O17 0.779876 0.173035 0.250000
O O18 0.779104 0.250000 0.000000
O O19 0.254284 0.095460 0.250000
O O20 0.309693 0.154775 0.476478
O O21 0.384050 0.328545 0.750000
O O22 0.397918 0.250000 0.000000
#
# Coordination Sequence:
#
# PCOD9437224 Si02
#       8
#     8   8   8   8   8   8   8   8
#     4   9  19  35  55  80 111 144 182 226 269 323
#     4  11  24  39  54  75 105 144 186 231 282 334
#     4  10  20  36  58  83 110 141 180 229 281 337
#     4  10  21  38  59  81 107 141 183 230 280 335
#     4  10  20  37  60  86 116 152 193 234 277 329
#     4  11  22  35  55  83 112 144 182 227 280 331
#     4   9  18  33  56  82 110 142 178 223 277 333
#     4  10  20  35  56  85 117 152 190 231 280 331
#
# _framework density 18.130215
#
# number of rings (size 3 to 8) (size 9 to 14) (size 15 to 20)
#    0.000    2.000    1.250    2.250    0.000    5.000 
#    0.000    1.875    0.000    1.500    0.000    0.000 
#    0.000    0.000    0.000    0.000    0.000    0.000 
#
# Total GULP energy -357339.480007 kJ/mol
# GULP energy per Si atom -5583.429375 kJ/mol
# Density = 1.808895 g / cm^3
# Si number density = 18.130215 Si / 1000 Ang^3
#
#
#
# Elastic Constant Matrix: (Units=GPa)
#
#
# Indices 1 2 3 4 5 6 
#
# 1 112.7982 13.2792 26.1911 0.0000 0.0000 0.0000
# 2 13.2792 43.7387 13.4291 0.0000 0.0000 0.0000
# 3 26.1911 13.4291 24.6798 0.0000 0.0000 0.0000
# 4 0.0000 0.0000 0.0000 25.1669 0.0000 0.0000
# 5 0.0000 0.0000 0.0000 0.0000 24.6727 0.0000
# 6 0.0000 0.0000 0.0000 0.0000 0.0000 18.2323
#
#
#
# Elastic Compliance Matrix: (Units=1/GPa)
#
#
# Indices 1 2 3 4 5 6 
#
# 1 0.011768 0.000314 -0.012659 0.000000 0.000000 0.000000
# 2 0.000314 0.027457 -0.015274 0.000000 0.000000 0.000000
# 3 -0.012659 -0.015274 0.062264 0.000000 0.000000 0.000000
# 4 0.000000 0.000000 0.000000 0.039735 0.000000 0.000000
# 5 0.000000 0.000000 0.000000 0.000000 0.040531 0.000000
# 6 0.000000 0.000000 0.000000 0.000000 0.000000 0.054848
#
#
# Mechanical properties :
#
#
# Convention : Reuss Voigt Hill
#
# Bulk Modulus (GPa) = 21.62092 31.89064 26.75578
# Shear Modulus (GPa) = 16.27299 22.16887 19.22093
#
# Velocity S-wave (km/s) = 2.99918 3.50059 3.25954
# Velocity P-wave (km/s) = 4.89333 5.82810 5.38106
#
# Compressibility (1/GPa) = 0.04625150
#
# Stress axis : x y z
#
# Youngs Moduli (GPa) = 84.97735 36.42034 16.06055
#
# Poissons Ratio (x) = -0.01144 0.20332
# Poissons Ratio (y) = -0.02669 0.24530
# Poissons Ratio (z) = 1.07576 0.55627
#
# Static dielectric constant tensor:
#      x y z
#    x 1.623670 0.000000 0.000000 
#    y 0.000000 1.596840 0.000000 
#    z 0.000000 0.000000 1.603250 
# 
# From -- ./inp_files/8434.got.cif
#   From: 2010.05.17/outbox.cif.g08.bks.cpg/sg57_5_cif.got.tgz:8434.got - 2010.06.03 13:58:18.
