data_PCOD9437174
_publ_section_title
;
Structure prediction by ZEFSAII (Michael W. Deem and Ramdas Pophale) SiO2 
 PCOD9437174
Probable space group: P B C M
;
_chemical_formula_sum "Si O2"
_cell_formula_units_Z 56
_cell_length_a 22.032583
_cell_length_b 14.472631
_cell_length_c 8.067185
_cell_angle_alpha 90.000000
_cell_angle_beta 90.000000
_cell_angle_gamma 90.000000
_cell_volume 2572.378793
_symmetry_space_group_name_H-M "P B C M"
_symmetry_group_IT_number 57
_symmetry_cell_setting 'orthorhombic'
loop_
_space_group_symop_operation_xyz
x,y,z
-x,-y,1/2+z
x,1/2-y,-z
-x,1/2+y,1/2-z
-x,-y,-z
x,y,1/2-z
-x,1/2+y,z
x,1/2-y,1/2+z
loop_
_atom_site_type_symbol
_atom_site_label
_atom_site_fract_x
_atom_site_fract_y
_atom_site_fract_z
Si Si1 0.278201 0.033749 0.948240
Si Si2 0.031143 0.147379 0.058703
Si Si3 0.473364 0.641840 0.550187
Si Si4 0.604426 0.857583 0.450775
Si Si5 0.899674 0.144748 0.940373
Si Si6 0.340239 0.643752 0.551501
Si Si7 0.854261 0.539187 0.558228
O O1 0.276467 0.046260 0.750000
O O2 0.336351 0.089455 0.014716
O O3 0.212134 0.063816 0.010741
O O4 0.290887 0.926620 0.984151
O O5 0.012277 0.149910 0.250000
O O6 0.047955 0.250000 0.000000
O O7 0.089242 0.083787 0.035045
O O8 0.971171 0.119646 0.957853
O O9 0.474698 0.750000 0.500000
O O10 0.472884 0.634935 0.750000
O O11 0.538500 0.604201 0.489858
O O12 0.407252 0.610266 0.489025
O O13 0.608190 0.750000 0.500000
O O14 0.604227 0.863036 0.250000
O O15 0.881186 0.137330 0.750000
O O16 0.893619 0.250000 0.000000
O O17 0.862425 0.070938 0.045068
O O18 0.331713 0.750000 0.500000
O O19 0.340065 0.639832 0.750000
O O20 0.858679 0.567932 0.750000
#
# Coordination Sequence:
#
# PCOD9437174 Si02
#       7
#     8   8   8   8   8   8   8
#     4  10  23  39  55  78 111 150 189 228 273 328
#     4  11  22  39  63  91 119 149 185 228 277 328
#     4   8  15  29  51  78 105 135 175 224 279 333
#     4   9  18  35  56  79 108 142 181 228 280 331
#     4  11  22  39  63  91 118 147 184 229 280 331
#     4  10  20  35  56  80 108 142 182 230 281 334
#     4  11  23  40  58  81 115 154 193 232 276 328
#
# _framework density 21.769732000000001
#
# number of rings (size 3 to 8) (size 9 to 14) (size 15 to 20)
#    0.000    2.000    0.000    4.714    0.000    4.000 
#    0.000    1.429    0.000    0.000    0.000    0.000 
#    0.000    0.000    0.000    0.000    0.000    0.000 
#
# Total GULP energy -312785.686535 kJ/mol
# GULP energy per Si atom -5585.458688 kJ/mol
# Density = 2.172018 g / cm^3
# Si number density = 21.769732 Si / 1000 Ang^3
#
#
#
# Elastic Constant Matrix: (Units=GPa)
#
#
# Indices 1 2 3 4 5 6 
#
# 1 53.9844 17.1529 -7.7870 0.0000 0.0000 0.0000
# 2 17.1529 38.5632 -12.2754 0.0000 0.0000 0.0000
# 3 -7.7870 -12.2754 37.9660 0.0000 0.0000 0.0000
# 4 0.0000 0.0000 0.0000 24.1993 0.0000 0.0000
# 5 0.0000 0.0000 0.0000 0.0000 4.7402 0.0000
# 6 0.0000 0.0000 0.0000 0.0000 0.0000 18.1177
#
#
#
# Elastic Compliance Matrix: (Units=1/GPa)
#
#
# Indices 1 2 3 4 5 6 
#
# 1 0.021647 -0.009158 0.001479 0.000000 0.000000 0.000000
# 2 -0.009158 0.032781 0.008721 0.000000 0.000000 0.000000
# 3 0.001479 0.008721 0.029462 0.000000 0.000000 0.000000
# 4 0.000000 0.000000 0.000000 0.041323 0.000000 0.000000
# 5 0.000000 0.000000 0.000000 0.000000 0.210963 0.000000
# 6 0.000000 0.000000 0.000000 0.000000 0.000000 0.055195
#
#
# Mechanical properties :
#
#
# Convention : Reuss Voigt Hill
#
# Bulk Modulus (GPa) = 11.63148 13.85494 12.74321
# Shear Modulus (GPa) = 11.96329 18.30632 15.13480
#
# Velocity S-wave (km/s) = 2.34676 2.90299 2.63957
# Velocity P-wave (km/s) = 3.56337 4.19697 3.89308
#
# Compressibility (1/GPa) = 0.08597359
#
# Stress axis : x y z
#
# Youngs Moduli (GPa) = 46.19583 30.50574 33.94165
#
# Poissons Ratio (x) = 0.27936 -0.05020
# Poissons Ratio (y) = 0.42305 -0.29599
# Poissons Ratio (z) = -0.06832 -0.26603
#
# Static dielectric constant tensor:
#      x y z
#    x 1.832000 0.000000 0.000000 
#    y 0.000000 1.778300 0.000000 
#    z 0.000000 0.000000 1.743470 
# 
# From -- ./inp_files/8038.got.cif
#   From: 2010.05.17/outbox.cif.g08.bks.cpg/sg57_5_cif.got.tgz:8038.got - 2010.06.03 13:58:18.
