data_PCOD9437659
_publ_section_title
;
Structure prediction by ZEFSAII (Michael W. Deem and Ramdas Pophale) SiO2 
 PCOD9437659
Probable space group: P B C M
;
_chemical_formula_sum "Si O2"
_cell_formula_units_Z 56
_cell_length_a 9.200485
_cell_length_b 21.404964
_cell_length_c 14.906040
_cell_angle_alpha 90.000000
_cell_angle_beta 90.000000
_cell_angle_gamma 90.000000
_cell_volume 2935.536642
_symmetry_space_group_name_H-M "P B C M"
_symmetry_group_IT_number 57
_symmetry_cell_setting 'orthorhombic'
loop_
_space_group_symop_operation_xyz
x,y,z
-x,-y,1/2+z
x,1/2-y,-z
-x,1/2+y,1/2-z
-x,-y,-z
x,y,1/2-z
-x,1/2+y,z
x,1/2-y,1/2+z
loop_
_atom_site_type_symbol
_atom_site_label
_atom_site_fract_x
_atom_site_fract_y
_atom_site_fract_z
Si Si1 0.565175 0.810435 0.644391
Si Si2 0.382011 0.926537 0.912633
Si Si3 0.951547 0.083595 0.457917
Si Si4 0.373230 0.331628 0.349868
Si Si5 0.111307 0.978170 0.353542
Si Si6 0.823574 0.677130 0.485973
Si Si7 0.550761 0.046632 0.618824
O O1 0.585762 0.815043 0.750000
O O2 0.438372 0.858838 0.618579
O O3 0.553790 0.735564 0.623454
O O4 0.705928 0.834240 0.591411
O O5 0.208120 0.926223 0.918404
O O6 0.448808 0.986642 0.861459
O O7 0.439511 0.938796 0.012934
O O8 0.947349 0.064490 0.563759
O O9 0.020569 0.151337 0.460174
O O10 0.061803 0.044113 0.395737
O O11 0.310672 0.322769 0.250000
O O12 0.250852 0.348498 0.422943
O O13 0.485883 0.388562 0.345563
O O14 0.059770 0.969434 0.250000
O O15 0.285302 0.969357 0.352457
O O16 0.834689 0.750000 0.500000
#
# Coordination Sequence:
#
# PCOD9437659 Si02
#       7
#     8   8   8   8   8   8   8
#     4  10  21  39  63  88 115 155 203 246 295 351
#     4  10  21  37  58  88 117 150 194 248 293 346
#     4  10  23  39  57  88 123 155 200 237 290 365
#     4  10  21  36  62  92 116 150 201 248 291 348
#     4  10  22  39  59  84 120 159 192 239 299 353
#     4  10  21  40  59  84 118 160 196 240 290 349
#     4  10  20  36  61  87 115 149 195 245 299 349
#
# _framework density 19.076581000000001
#
# number of rings (size 3 to 8) (size 9 to 14) (size 15 to 20)
#    0.000    2.000    1.429    1.286    6.000    4.000 
#    5.143    0.000    0.000    0.000    0.000    0.000 
#    0.000    0.000    0.000    0.000    0.000    0.000 
#
# Total GULP energy -311858.996341 kJ/mol
# GULP energy per Si atom -5568.910649 kJ/mol
# Density = 1.903316 g / cm^3
# Si number density = 19.076581 Si / 1000 Ang^3
#
#
#
# Elastic Constant Matrix: (Units=GPa)
#
#
# Indices 1 2 3 4 5 6 
#
# 1 68.3357 58.5881 30.8999 0.0000 0.0000 0.0000
# 2 58.5881 81.1529 18.4835 0.0000 0.0000 0.0000
# 3 30.8999 18.4835 77.5174 0.0000 0.0000 0.0000
# 4 0.0000 0.0000 0.0000 4.0273 0.0000 0.0000
# 5 0.0000 0.0000 0.0000 0.0000 -13.8427 0.0000
# 6 0.0000 0.0000 0.0000 0.0000 0.0000 21.5498
#
#
#
# Elastic Compliance Matrix: (Units=1/GPa)
#
#
# Indices 1 2 3 4 5 6 
#
# 1 0.045800 -0.030567 -0.010968 0.000000 0.000000 0.000000
# 2 -0.030567 0.033431 0.004213 0.000000 0.000000 0.000000
# 3 -0.010968 0.004213 0.016268 0.000000 0.000000 0.000000
# 4 0.000000 0.000000 0.000000 0.248307 0.000000 0.000000
# 5 0.000000 0.000000 0.000000 0.000000 -0.072240 0.000000
# 6 0.000000 0.000000 0.000000 0.000000 0.000000 0.046404
#
#
# Mechanical properties :
#
#
# Convention : Reuss Voigt Hill
#
# Bulk Modulus (GPa) = 47.95138 49.21659 48.58398
# Shear Modulus (GPa) = 12.51360 10.28250 11.39805
#
# Velocity S-wave (km/s) = 2.56396 2.32418 2.44701
# Velocity P-wave (km/s) = 5.82718 5.74960 5.78852
#
# Compressibility (1/GPa) = 0.02085446
#
# Stress axis : x y z
#
# Youngs Moduli (GPa) = 21.83391 29.91262 61.47084
#
# Poissons Ratio (x) = 0.91435 0.67423
# Poissons Ratio (y) = 0.66740 -0.25900
# Poissons Ratio (z) = 0.23948 -0.12603
#
# Static dielectric constant tensor:
#      x y z
#    x 1.644920 0.000000 0.000000 
#    y 0.000000 1.694910 0.000000 
#    z 0.000000 0.000000 1.730620 
# 
# From -- ./inp_files/16717.got.cif
#   From: 2010.05.17/outbox.cif.g08.bks.cpg/sg57_9_cif.got.tgz:16717.got - 2010.06.03 13:58:18.
