data_PCOD9437379
_publ_section_title
;
Structure prediction by ZEFSAII (Michael W. Deem and Ramdas Pophale) SiO2 
 PCOD9437379
Probable space group: P B C M
;
_chemical_formula_sum "Si O2"
_cell_formula_units_Z 40
_cell_length_a 22.865408
_cell_length_b 5.316332
_cell_length_c 13.732505
_cell_angle_alpha 90.000000
_cell_angle_beta 90.000000
_cell_angle_gamma 90.000000
_cell_volume 1669.324684
_symmetry_space_group_name_H-M "P B C M"
_symmetry_group_IT_number 57
_symmetry_cell_setting 'orthorhombic'
loop_
_space_group_symop_operation_xyz
x,y,z
-x,-y,1/2+z
x,1/2-y,-z
-x,1/2+y,1/2-z
-x,-y,-z
x,y,1/2-z
-x,1/2+y,z
x,1/2-y,1/2+z
loop_
_atom_site_type_symbol
_atom_site_label
_atom_site_fract_x
_atom_site_fract_y
_atom_site_fract_z
Si Si1 0.347972 0.999589 0.064345
Si Si2 0.779835 0.906767 0.864971
Si Si3 0.839689 0.091514 0.130556
Si Si4 0.968035 0.590639 0.868921
Si Si5 0.526367 0.897027 0.635995
O O1 0.286806 0.011024 0.120564
O O2 0.407151 0.013781 0.126189
O O3 0.348728 0.250000 0.000000
O O4 0.349388 0.750000 0.000000
O O5 0.791294 0.892396 0.750000
O O6 0.793890 0.625131 0.900815
O O7 0.821576 0.130046 0.902450
O O8 0.839720 0.102800 0.250000
O O9 0.903676 0.997313 0.101037
O O10 0.968039 0.594986 0.750000
O O11 0.986792 0.870884 0.898681
O O12 0.512006 0.868837 0.750000
O O13 0.514881 0.618205 0.595054
#
# Coordination Sequence:
#
# PCOD9437379 Si02
#       5
#     8   8   8   8   8
#     4  12  25  39  58  85 116 146 183 230 277 322
#     4  10  20  36  55  75 106 146 187 226 268 325
#     4   9  17  29  48  73 102 142 184 221 269 329
#     4   9  15  23  38  65 103 138 167 211 274 332
#     4  10  22  41  64  88 115 149 186 221 265 325
#
# _framework density 23.961784000000002
#
# number of rings (size 3 to 8) (size 9 to 14) (size 15 to 20)
#    0.000    2.000    0.000    4.200    0.000    7.200 
#    0.000    8.000    0.000    0.000    0.000    0.000 
#    0.000   56.000    0.000    0.000    0.000    0.000 
#
# Total GULP energy -223928.286462 kJ/mol
# GULP energy per Si atom -5598.207162 kJ/mol
# Density = 2.390725 g / cm^3
# Si number density = 23.961784 Si / 1000 Ang^3
#
#
#
# Elastic Constant Matrix: (Units=GPa)
#
#
# Indices 1 2 3 4 5 6 
#
# 1 99.0640 28.8717 -23.0124 0.0000 0.0000 0.0000
# 2 28.8717 180.5158 21.0041 0.0000 0.0000 0.0000
# 3 -23.0124 21.0041 52.3104 0.0000 0.0000 0.0000
# 4 0.0000 0.0000 0.0000 36.1910 0.0000 0.0000
# 5 0.0000 0.0000 0.0000 0.0000 24.9762 0.0000
# 6 0.0000 0.0000 0.0000 0.0000 0.0000 46.5451
#
#
#
# Elastic Compliance Matrix: (Units=1/GPa)
#
#
# Indices 1 2 3 4 5 6 
#
# 1 0.012422 -0.002751 0.006570 0.000000 0.000000 0.000000
# 2 -0.002751 0.006421 -0.003788 0.000000 0.000000 0.000000
# 3 0.006570 -0.003788 0.023528 0.000000 0.000000 0.000000
# 4 0.000000 0.000000 0.000000 0.027631 0.000000 0.000000
# 5 0.000000 0.000000 0.000000 0.000000 0.040038 0.000000
# 6 0.000000 0.000000 0.000000 0.000000 0.000000 0.021485
#
#
# Mechanical properties :
#
#
# Convention : Reuss Voigt Hill
#
# Bulk Modulus (GPa) = 23.56779 42.84634 33.20706
# Shear Modulus (GPa) = 34.33872 41.87760 38.10816
#
# Velocity S-wave (km/s) = 3.78969 4.18506 3.99227
# Velocity P-wave (km/s) = 5.38571 6.42440 5.92785
#
# Compressibility (1/GPa) = 0.04243080
#
# Stress axis : x y z
#
# Youngs Moduli (GPa) = 80.49949 155.75076 42.50277
#
# Poissons Ratio (x) = 0.42851 -0.27923
# Poissons Ratio (y) = 0.22147 0.16102
# Poissons Ratio (z) = -0.52885 0.59004
#
# Static dielectric constant tensor:
#      x y z
#    x 1.866900 0.000000 0.000000 
#    y 0.000000 1.936910 0.000000 
#    z 0.000000 0.000000 1.973410 
# 
# From -- ./inp_files/22757.got.cif
#   From: 2010.05.17/outbox.cif.g08.bks.cpg/sg57_12_cif.got.tgz:22757.got - 2010.06.03 13:58:18.
