data_PCOD9437361
_publ_section_title
;
Structure prediction by ZEFSAII (Michael W. Deem and Ramdas Pophale) SiO2 
 PCOD9437361
Probable space group: P B C M
;
_chemical_formula_sum "Si O2"
_cell_formula_units_Z 40
_cell_length_a 24.657747
_cell_length_b 8.680483
_cell_length_c 9.499033
_cell_angle_alpha 90.000000
_cell_angle_beta 90.000000
_cell_angle_gamma 90.000000
_cell_volume 2033.183982
_symmetry_space_group_name_H-M "P B C M"
_symmetry_group_IT_number 57
_symmetry_cell_setting 'orthorhombic'
loop_
_space_group_symop_operation_xyz
x,y,z
-x,-y,1/2+z
x,1/2-y,-z
-x,1/2+y,1/2-z
-x,-y,-z
x,y,1/2-z
-x,1/2+y,z
x,1/2-y,1/2+z
loop_
_atom_site_type_symbol
_atom_site_label
_atom_site_fract_x
_atom_site_fract_y
_atom_site_fract_z
Si Si1 0.425113 0.425934 0.750000
Si Si2 0.258843 0.911962 0.585319
Si Si3 0.541761 0.569459 0.750000
Si Si4 0.953508 0.591541 0.416735
Si Si5 0.159600 0.588269 0.583269
Si Si6 0.620364 0.065253 0.022119
O O1 0.478333 0.534244 0.750000
O O2 0.445286 0.250579 0.750000
O O3 0.388938 0.471033 0.618497
O O4 0.263307 0.750000 0.500000
O O5 0.244786 0.894091 0.750000
O O6 0.210089 0.991471 0.498787
O O7 0.319920 0.975263 0.579372
O O8 0.571373 0.488513 0.619880
O O9 0.947727 0.750000 0.500000
O O10 0.966809 0.611348 0.250000
O O11 0.896411 0.502903 0.425576
O O12 0.000000 0.500000 0.500000
O O13 0.151879 0.750000 0.500000
O O14 0.171761 0.609177 0.750000
O O15 0.617108 0.250000 0.000000
#
# Coordination Sequence:
#
# PCOD9437361 Si02
#       6
#     4   8   4   8   8   8
#     4  12  26  40  68  86 126 164 197 262 311 376
#     4  10  20  35  62  92 123 158 205 254 302 365
#     4  12  24  46  60  94 124 158 209 248 317 378
#     4  11  24  41  63  92 127 170 215 266 320 379
#     4  10  21  37  62  94 127 163 210 255 306 366
#     4  11  23  40  65  94 122 161 208 255 310 373
#
# _framework density 19.673577000000002
#
# number of rings (size 3 to 8) (size 9 to 14) (size 15 to 20)
#    0.000    1.200    1.000    6.600    5.600    4.800 
#    0.000    2.000    0.000    0.000    0.000    0.000 
#    0.000    0.000    0.000    0.000    0.000    0.000 
#
# Total GULP energy -223241.064453 kJ/mol
# GULP energy per Si atom -5581.026611 kJ/mol
# Density = 1.962880 g / cm^3
# Si number density = 19.673577 Si / 1000 Ang^3
#
#
#
# Elastic Constant Matrix: (Units=GPa)
#
#
# Indices 1 2 3 4 5 6 
#
# 1 118.1833 25.6723 54.9103 0.0000 0.0000 0.0000
# 2 25.6723 87.3208 30.8608 0.0000 0.0000 0.0000
# 3 54.9103 30.8608 178.2316 0.0000 0.0000 0.0000
# 4 0.0000 0.0000 0.0000 27.6318 0.0000 0.0000
# 5 0.0000 0.0000 0.0000 0.0000 42.3931 0.0000
# 6 0.0000 0.0000 0.0000 0.0000 0.0000 21.2057
#
#
#
# Elastic Compliance Matrix: (Units=1/GPa)
#
#
# Indices 1 2 3 4 5 6 
#
# 1 0.010196 -0.002010 -0.002793 0.000000 0.000000 0.000000
# 2 -0.002010 0.012595 -0.001561 0.000000 0.000000 0.000000
# 3 -0.002793 -0.001561 0.006742 0.000000 0.000000 0.000000
# 4 0.000000 0.000000 0.000000 0.036190 0.000000 0.000000
# 5 0.000000 0.000000 0.000000 0.000000 0.023589 0.000000
# 6 0.000000 0.000000 0.000000 0.000000 0.000000 0.047157
#
#
# Mechanical properties :
#
#
# Convention : Reuss Voigt Hill
#
# Bulk Modulus (GPa) = 59.51521 67.40252 63.45886
# Shear Modulus (GPa) = 32.29991 36.39892 34.34942
#
# Velocity S-wave (km/s) = 4.05630 4.30599 4.18301
# Velocity P-wave (km/s) = 7.22877 7.68485 7.46030
#
# Compressibility (1/GPa) = 0.01680243
#
# Stress axis : x y z
#
# Youngs Moduli (GPa) = 98.07894 79.39695 148.33413
#
# Poissons Ratio (x) = 0.15962 0.41431
# Poissons Ratio (y) = 0.19718 0.23161
# Poissons Ratio (z) = 0.27394 0.12397
#
# Static dielectric constant tensor:
#      x y z
#    x 1.711040 0.000000 0.000000 
#    y 0.000000 1.694910 0.000000 
#    z 0.000000 0.000000 1.674610 
# 
# From -- ./inp_files/8943.got.cif
#   From: 2010.05.17/outbox.cif.g08.bks.cpg/sg57_5_cif.got.tgz:8943.got - 2010.06.03 13:58:18.
