data_PCOD9437329
_publ_section_title
;
Structure prediction by ZEFSAII (Michael W. Deem and Ramdas Pophale) SiO2 
 PCOD9437329
Probable space group: P B C M
;
_chemical_formula_sum "Si O2"
_cell_formula_units_Z 40
_cell_length_a 18.264094
_cell_length_b 5.202511
_cell_length_c 20.223971
_cell_angle_alpha 90.000000
_cell_angle_beta 90.000000
_cell_angle_gamma 90.000000
_cell_volume 1921.664533
_symmetry_space_group_name_H-M "P B C M"
_symmetry_group_IT_number 57
_symmetry_cell_setting 'orthorhombic'
loop_
_space_group_symop_operation_xyz
x,y,z
-x,-y,1/2+z
x,1/2-y,-z
-x,1/2+y,1/2-z
-x,-y,-z
x,y,1/2-z
-x,1/2+y,z
x,1/2-y,1/2+z
loop_
_atom_site_type_symbol
_atom_site_label
_atom_site_fract_x
_atom_site_fract_y
_atom_site_fract_z
Si Si1 0.796665 0.185979 0.386900
Si Si2 0.340880 0.978457 0.675448
Si Si3 0.046252 0.809689 0.170745
Si Si4 0.275702 0.195859 0.430486
Si Si5 0.549030 0.228138 0.925180
O O1 0.740477 0.145259 0.325775
O O2 0.877677 0.253299 0.365175
O O3 0.759999 0.419110 0.426385
O O4 0.787394 0.915226 0.424400
O O5 0.366196 0.020355 0.750000
O O6 0.393122 0.800892 0.631149
O O7 0.327569 0.234917 0.631457
O O8 0.058836 0.800186 0.250000
O O9 0.988013 0.586142 0.154758
O O10 0.314268 0.250000 0.500000
O O11 0.486892 0.448556 0.919277
O O12 0.580116 0.250000 0.000000
#
# Coordination Sequence:
#
# PCOD9437329 Si02
#       5
#     8   8   8   8   8
#     4  10  22  39  63  93 130 158 220 269 318 376
#     4  10  25  40  67 100 128 165 213 276 330 370
#     4  10  20  35  59  89 127 171 209 257 324 386
#     4  10  23  39  65  91 123 169 212 259 319 388
#     4  10  24  43  65  92 127 172 212 252 309 385
#
# _framework density 20.815287000000001
#
# number of rings (size 3 to 8) (size 9 to 14) (size 15 to 20)
#    1.200    0.800    0.000    2.400    5.600    3.200 
#    0.000    0.000    0.000   12.000    0.000    0.000 
#    0.000    0.000    0.000    0.000    0.000    0.000 
#
# Total GULP energy -223114.169535 kJ/mol
# GULP energy per Si atom -5577.854238 kJ/mol
# Density = 2.076791 g / cm^3
# Si number density = 20.815287 Si / 1000 Ang^3
#
#
#
# Elastic Constant Matrix: (Units=GPa)
#
#
# Indices 1 2 3 4 5 6 
#
# 1 65.3145 -6.1767 24.7073 0.0000 0.0000 0.0000
# 2 -6.1767 76.0194 -12.9185 0.0000 0.0000 0.0000
# 3 24.7073 -12.9185 107.6657 0.0000 0.0000 0.0000
# 4 0.0000 0.0000 0.0000 17.1178 0.0000 0.0000
# 5 0.0000 0.0000 0.0000 0.0000 20.0227 0.0000
# 6 0.0000 0.0000 0.0000 0.0000 0.0000 31.1243
#
#
#
# Elastic Compliance Matrix: (Units=1/GPa)
#
#
# Indices 1 2 3 4 5 6 
#
# 1 0.016805 0.000725 -0.003769 0.000000 0.000000 0.000000
# 2 0.000725 0.013460 0.001449 0.000000 0.000000 0.000000
# 3 -0.003769 0.001449 0.010327 0.000000 0.000000 0.000000
# 4 0.000000 0.000000 0.000000 0.058419 0.000000 0.000000
# 5 0.000000 0.000000 0.000000 0.000000 0.049943 0.000000
# 6 0.000000 0.000000 0.000000 0.000000 0.000000 0.032129
#
#
# Mechanical properties :
#
#
# Convention : Reuss Voigt Hill
#
# Bulk Modulus (GPa) = 26.73832 28.91377 27.82605
# Shear Modulus (GPa) = 25.41408 29.87878 27.64643
#
# Velocity S-wave (km/s) = 3.49798 3.79281 3.64837
# Velocity P-wave (km/s) = 5.40258 5.75338 5.58073
#
# Compressibility (1/GPa) = 0.03739951
#
# Stress axis : x y z
#
# Youngs Moduli (GPa) = 59.50612 74.29640 96.83489
#
# Poissons Ratio (x) = -0.05385 0.36502
# Poissons Ratio (y) = -0.04313 -0.14028
# Poissons Ratio (z) = 0.22431 -0.10763
#
# Static dielectric constant tensor:
#      x y z
#    x 1.735570 0.000000 0.000000 
#    y 0.000000 1.758460 0.000000 
#    z 0.000000 0.000000 1.754600 
# 
# From -- ./inp_files/25529.got.cif
#   From: 2010.05.17/outbox.cif.g08.bks.cpg/sg57_13_cif.got.tgz:25529.got - 2010.06.03 13:58:18.
