data_PCOD9437658
_publ_section_title
;
Structure prediction by ZEFSAII (Michael W. Deem and Ramdas Pophale) SiO2 
 PCOD9437658
Probable space group: P B C M
;
_chemical_formula_sum "Si O2"
_cell_formula_units_Z 48
_cell_length_a 8.026112
_cell_length_b 18.562440
_cell_length_c 14.213785
_cell_angle_alpha 90.000000
_cell_angle_beta 90.000000
_cell_angle_gamma 90.000000
_cell_volume 2117.629706
_symmetry_space_group_name_H-M "P B C M"
_symmetry_group_IT_number 57
_symmetry_cell_setting 'orthorhombic'
loop_
_space_group_symop_operation_xyz
x,y,z
-x,-y,1/2+z
x,1/2-y,-z
-x,1/2+y,1/2-z
-x,-y,-z
x,y,1/2-z
-x,1/2+y,z
x,1/2-y,1/2+z
loop_
_atom_site_type_symbol
_atom_site_label
_atom_site_fract_x
_atom_site_fract_y
_atom_site_fract_z
Si Si1 0.434454 0.213491 0.602167
Si Si2 0.441988 0.554268 0.635536
Si Si3 0.249999 0.711977 0.102683
Si Si4 0.065548 0.213491 0.602167
Si Si5 0.250001 0.953425 0.635780
Si Si6 0.058011 0.945731 0.135536
O O1 0.417697 0.250000 0.500000
O O2 0.498902 0.131673 0.597713
O O3 0.581185 0.259312 0.648978
O O4 0.250001 0.214085 0.644719
O O5 0.445260 0.559407 0.750000
O O6 0.581859 0.495987 0.608360
O O7 0.249999 0.538377 0.608548
O O8 0.250000 0.626816 0.096851
O O9 0.081183 0.740688 0.148978
O O10 0.249999 0.750000 0.000000
O O11 0.082304 0.250000 0.500000
O O12 0.001099 0.131673 0.597713
O O13 0.250001 0.948683 0.750000
O O14 0.081861 0.995988 0.608360
O O15 0.054739 0.940593 0.250000
#
# Coordination Sequence:
#
# PCOD9437658 Si02
#       6
#     8   8   8   8   8   8
#     4  10  20  36  61  86 122 159 202 246 291 356
#     4  10  20  36  62  91 119 156 200 248 304 362
#     4  10  22  40  58  85 124 159 196 249 295 359
#     4  10  20  36  61  86 122 159 202 246 291 356
#     4  10  22  40  61  89 122 151 194 251 302 353
#     4  10  20  36  62  91 119 156 200 248 304 362
#
# _framework density 22.666851999999999
#
# number of rings (size 3 to 8) (size 9 to 14) (size 15 to 20)
#    0.000    2.000    3.333    0.000    0.000    2.667 
#    0.000    6.667    0.000    0.000    0.000    0.000 
#    0.000    0.000    0.000    0.000    0.000    0.000 
#
# Total GULP energy -268222.098682 kJ/mol
# GULP energy per Si atom -5587.960389 kJ/mol
# Density = 2.261526 g / cm^3
# Si number density = 22.666852 Si / 1000 Ang^3
#
#
#
# Elastic Constant Matrix: (Units=GPa)
#
#
# Indices 1 2 3 4 5 6 
#
# 1 297.3546 127.6243 36.1493 0.0000 0.0000 0.0000
# 2 127.6243 238.3193 34.1479 0.0000 0.0000 0.0000
# 3 36.1493 34.1479 93.2867 0.0000 0.0000 0.0000
# 4 0.0000 0.0000 0.0000 41.0759 0.0000 0.0000
# 5 0.0000 0.0000 0.0000 0.0000 548.7355 0.0000
# 6 0.0000 0.0000 0.0000 0.0000 0.0000 39.5932
#
#
#
# Elastic Compliance Matrix: (Units=1/GPa)
#
#
# Indices 1 2 3 4 5 6 
#
# 1 0.004437 -0.002247 -0.000897 0.000000 0.000000 0.000000
# 2 -0.002247 0.005567 -0.001167 0.000000 0.000000 0.000000
# 3 -0.000897 -0.001167 0.011494 0.000000 0.000000 0.000000
# 4 0.000000 0.000000 0.000000 0.024345 0.000000 0.000000
# 5 0.000000 0.000000 0.000000 0.000000 0.001822 0.000000
# 6 0.000000 0.000000 0.000000 0.000000 0.000000 0.025257
#
#
# Mechanical properties :
#
#
# Convention : Reuss Voigt Hill
#
# Bulk Modulus (GPa) = 77.66417 113.86707 95.76562
# Shear Modulus (GPa) = 58.25098 154.61686 106.43392
#
# Velocity S-wave (km/s) = 5.07489 8.26806 6.85986
# Velocity P-wave (km/s) = 8.28716 11.89504 10.25107
#
# Compressibility (1/GPa) = 0.01287595
#
# Stress axis : x y z
#
# Youngs Moduli (GPa) = 225.39984 179.63751 87.00053
#
# Poissons Ratio (x) = 0.40372 0.07800
# Poissons Ratio (y) = 0.50656 0.10152
# Poissons Ratio (z) = 0.20208 0.20961
#
# Static dielectric constant tensor:
#      x y z
#    x 1.917010 0.000000 0.000000 
#    y 0.000000 1.749310 0.000000 
#    z 0.000000 0.000000 1.997250 
# 
# From -- ./inp_files/20944.got.cif
#   From: 2010.05.17/outbox.cif.g08.bks.cpg/sg57_11_cif.got.tgz:20944.got - 2010.06.03 13:58:18.
