data_PCOD9437716
_publ_section_title
;
Structure prediction by ZEFSAII (Michael W. Deem and Ramdas Pophale) SiO2 
 PCOD9437716
Probable space group: P B C M
;
_chemical_formula_sum "Si O2"
_cell_formula_units_Z 48
_cell_length_a 8.497224
_cell_length_b 20.519946
_cell_length_c 13.765745
_cell_angle_alpha 90.000000
_cell_angle_beta 90.000000
_cell_angle_gamma 90.000000
_cell_volume 2400.230781
_symmetry_space_group_name_H-M "P B C M"
_symmetry_group_IT_number 57
_symmetry_cell_setting 'orthorhombic'
loop_
_space_group_symop_operation_xyz
x,y,z
-x,-y,1/2+z
x,1/2-y,-z
-x,1/2+y,1/2-z
-x,-y,-z
x,y,1/2-z
-x,1/2+y,z
x,1/2-y,1/2+z
loop_
_atom_site_type_symbol
_atom_site_label
_atom_site_fract_x
_atom_site_fract_y
_atom_site_fract_z
Si Si1 0.703323 0.540728 0.017675
Si Si2 0.496094 0.145071 0.136496
Si Si3 0.717375 0.173899 0.522817
Si Si4 0.776117 0.742423 0.136035
Si Si5 0.438436 0.931359 0.365940
Si Si6 0.075336 0.149562 0.512999
O O1 0.613416 0.589466 0.091470
O O2 0.693435 0.472923 0.074569
O O3 0.598369 0.543961 0.919166
O O4 0.868290 0.575708 0.998496
O O5 0.517335 0.136647 0.250000
O O6 0.396456 0.211550 0.119040
O O7 0.656867 0.142647 0.077695
O O8 0.705448 0.250000 0.500000
O O9 0.602453 0.143036 0.604136
O O10 0.897307 0.157786 0.545702
O O11 0.801989 0.746152 0.250000
O O12 0.808482 0.811608 0.086246
O O13 0.896149 0.691152 0.085690
O O14 0.438845 0.940378 0.250000
#
# Coordination Sequence:
#
# PCOD9437716 Si02
#       6
#     8   8   8   8   8   8
#     4   9  20  39  65  86 114 153 200 251 298 345
#     4   9  19  34  58  84 112 150 197 243 290 347
#     4  11  23  37  54  86 125 157 188 240 297 353
#     4   9  18  33  55  81 110 153 197 235 279 337
#     4  10  22  40  63  89 116 153 201 250 296 351
#     4  10  20  37  55  82 123 154 190 241 292 354
#
# _framework density 19.998076999999999
#
# number of rings (size 3 to 8) (size 9 to 14) (size 15 to 20)
#    0.000    2.333    1.667    0.500    7.000    4.000 
#    0.000    0.000    0.000    0.000    0.000    0.000 
#    0.000    0.000    0.000    0.000    0.000    0.000 
#
# Total GULP energy -267623.516904 kJ/mol
# GULP energy per Si atom -5575.489936 kJ/mol
# Density = 1.995256 g / cm^3
# Si number density = 19.998077 Si / 1000 Ang^3
#
#
#
# Elastic Constant Matrix: (Units=GPa)
#
#
# Indices 1 2 3 4 5 6 
#
# 1 27.0459 12.1623 23.2067 0.0000 0.0000 0.0000
# 2 12.1623 78.9364 23.2831 0.0000 0.0000 0.0000
# 3 23.2067 23.2831 140.9404 0.0000 0.0000 0.0000
# 4 0.0000 0.0000 0.0000 12.8320 0.0000 0.0000
# 5 0.0000 0.0000 0.0000 0.0000 11.5213 0.0000
# 6 0.0000 0.0000 0.0000 0.0000 0.0000 23.6465
#
#
#
# Elastic Compliance Matrix: (Units=1/GPa)
#
#
# Indices 1 2 3 4 5 6 
#
# 1 0.044841 -0.004974 -0.006562 0.000000 0.000000 0.000000
# 2 -0.004974 0.013869 -0.001472 0.000000 0.000000 0.000000
# 3 -0.006562 -0.001472 0.008419 0.000000 0.000000 0.000000
# 4 0.000000 0.000000 0.000000 0.077930 0.000000 0.000000
# 5 0.000000 0.000000 0.000000 0.000000 0.086795 0.000000
# 6 0.000000 0.000000 0.000000 0.000000 0.000000 0.042290
#
#
# Mechanical properties :
#
#
# Convention : Reuss Voigt Hill
#
# Bulk Modulus (GPa) = 24.32265 40.46964 32.39615
# Shear Modulus (GPa) = 15.93049 22.15135 19.04092
#
# Velocity S-wave (km/s) = 2.82547 3.33178 3.08902
# Velocity P-wave (km/s) = 4.77842 5.92298 5.38122
#
# Compressibility (1/GPa) = 0.04111394
#
# Stress axis : x y z
#
# Youngs Moduli (GPa) = 22.30098 72.10339 118.78133
#
# Poissons Ratio (x) = 0.35861 0.77941
# Poissons Ratio (y) = 0.11091 0.17487
# Poissons Ratio (z) = 0.14633 0.10615
#
# Static dielectric constant tensor:
#      x y z
#    x 1.704890 0.000000 0.000000 
#    y 0.000000 1.824600 0.000000 
#    z 0.000000 0.000000 1.671530 
# 
# From -- ./inp_files/16801.got.cif
#   From: 2010.05.17/outbox.cif.g08.bks.cpg/sg57_9_cif.got.tgz:16801.got - 2010.06.03 13:58:18.
