data_PCOD9437015
_publ_section_title
;
Structure prediction by ZEFSAII (Michael W. Deem and Ramdas Pophale) SiO2 
 PCOD9437015
Probable space group: P B C M
;
_chemical_formula_sum "Si O2"
_cell_formula_units_Z 56
_cell_length_a 11.732675
_cell_length_b 11.794930
_cell_length_c 20.766030
_cell_angle_alpha 90.000000
_cell_angle_beta 90.000000
_cell_angle_gamma 90.000000
_cell_volume 2873.729496
_symmetry_space_group_name_H-M "P B C M"
_symmetry_group_IT_number 57
_symmetry_cell_setting 'orthorhombic'
loop_
_space_group_symop_operation_xyz
x,y,z
-x,-y,1/2+z
x,1/2-y,-z
-x,1/2+y,1/2-z
-x,-y,-z
x,y,1/2-z
-x,1/2+y,z
x,1/2-y,1/2+z
loop_
_atom_site_type_symbol
_atom_site_label
_atom_site_fract_x
_atom_site_fract_y
_atom_site_fract_z
Si Si1 0.402303 0.347930 0.673511
Si Si2 0.987014 0.814488 0.933612
Si Si3 0.153707 0.501307 0.390267
Si Si4 0.671479 0.174064 0.173353
Si Si5 0.276068 0.927257 0.173228
Si Si6 0.971353 0.135354 0.822967
Si Si7 0.261864 0.229220 0.569120
O O1 0.377245 0.330685 0.750000
O O2 0.537926 0.351740 0.666306
O O3 0.348175 0.466637 0.650097
O O4 0.343130 0.253397 0.629325
O O5 0.026277 0.737965 0.873118
O O6 0.849484 0.811819 0.928304
O O7 0.057330 0.930418 0.929844
O O8 0.013913 0.750000 0.000000
O O9 0.247645 0.587295 0.363747
O O10 0.212146 0.397877 0.427768
O O11 0.083123 0.439548 0.333589
O O12 0.698706 0.169411 0.250000
O O13 0.691463 0.302542 0.149215
O O14 0.297762 0.923882 0.250000
O O15 0.140905 0.939459 0.164242
O O16 0.963932 0.178091 0.750000
O O17 0.318781 0.250000 0.500000
#
# Coordination Sequence:
#
# PCOD9437015 Si02
#       7
#     8   8   8   8   8   8   8
#     4  10  22  39  63  89 118 161 208 249 303 365
#     4  10  22  39  60  89 123 164 202 249 305 377
#     4  11  22  38  62  91 121 160 207 247 311 370
#     4  10  21  37  60  92 125 155 201 257 305 361
#     4   9  18  35  58  86 120 157 192 245 308 355
#     4  10  20  34  58  89 122 155 194 249 306 361
#     4  10  24  42  61  89 126 161 201 259 310 359
#
# _framework density 19.486872999999999
#
# number of rings (size 3 to 8) (size 9 to 14) (size 15 to 20)
#    0.000    2.000    1.429    1.286    2.000    9.714 
#    0.000    1.429    0.000    0.000    0.000    0.000 
#    0.000    0.000    0.000    0.000    0.000    0.000 
#
# Total GULP energy -312491.581592 kJ/mol
# GULP energy per Si atom -5580.206814 kJ/mol
# Density = 1.944252 g / cm^3
# Si number density = 19.486873 Si / 1000 Ang^3
#
#
#
# Elastic Constant Matrix: (Units=GPa)
#
#
# Indices 1 2 3 4 5 6 
#
# 1 60.2984 26.4157 34.9588 0.0000 0.0000 0.0000
# 2 26.4157 79.6049 24.5038 0.0000 0.0000 0.0000
# 3 34.9588 24.5038 83.6131 0.0000 0.0000 0.0000
# 4 0.0000 0.0000 0.0000 21.1753 0.0000 0.0000
# 5 0.0000 0.0000 0.0000 0.0000 10.2660 0.0000
# 6 0.0000 0.0000 0.0000 0.0000 0.0000 21.8178
#
#
#
# Elastic Compliance Matrix: (Units=1/GPa)
#
#
# Indices 1 2 3 4 5 6 
#
# 1 0.023769 -0.005307 -0.008383 0.000000 0.000000 0.000000
# 2 -0.005307 0.014993 -0.002175 0.000000 0.000000 0.000000
# 3 -0.008383 -0.002175 0.016102 0.000000 0.000000 0.000000
# 4 0.000000 0.000000 0.000000 0.047225 0.000000 0.000000
# 5 0.000000 0.000000 0.000000 0.000000 0.097409 0.000000
# 6 0.000000 0.000000 0.000000 0.000000 0.000000 0.045834
#
#
# Mechanical properties :
#
#
# Convention : Reuss Voigt Hill
#
# Bulk Modulus (GPa) = 43.22535 43.91922 43.57229
# Shear Modulus (GPa) = 17.55790 19.82770 18.69280
#
# Velocity S-wave (km/s) = 3.00494 3.19327 3.10054
# Velocity P-wave (km/s) = 5.85402 6.01521 5.93516
#
# Compressibility (1/GPa) = 0.02313457
#
# Stress axis : x y z
#
# Youngs Moduli (GPa) = 42.07154 66.69971 62.10418
#
# Poissons Ratio (x) = 0.35398 0.52059
# Poissons Ratio (y) = 0.22328 0.13507
# Poissons Ratio (z) = 0.35267 0.14506
#
# Static dielectric constant tensor:
#      x y z
#    x 1.676020 0.000000 0.000000 
#    y 0.000000 1.701970 0.000000 
#    z 0.000000 0.000000 1.676200 
# 
# From -- ./inp_files/24997.got.cif
#   From: 2010.05.17/outbox.cif.g08.bks.cpg/sg57_13_cif.got.tgz:24997.got - 2010.06.03 13:58:18.
