data_PCOD9437481
_publ_section_title
;
Structure prediction by ZEFSAII (Michael W. Deem and Ramdas Pophale) SiO2 
 PCOD9437481
Probable space group: P B C M
;
_chemical_formula_sum "Si O2"
_cell_formula_units_Z 40
_cell_length_a 13.038738
_cell_length_b 16.933911
_cell_length_c 8.755819
_cell_angle_alpha 90.000000
_cell_angle_beta 90.000000
_cell_angle_gamma 90.000000
_cell_volume 1933.257069
_symmetry_space_group_name_H-M "P B C M"
_symmetry_group_IT_number 57
_symmetry_cell_setting 'orthorhombic'
loop_
_space_group_symop_operation_xyz
x,y,z
-x,-y,1/2+z
x,1/2-y,-z
-x,1/2+y,1/2-z
-x,-y,-z
x,y,1/2-z
-x,1/2+y,z
x,1/2-y,1/2+z
loop_
_atom_site_type_symbol
_atom_site_label
_atom_site_fract_x
_atom_site_fract_y
_atom_site_fract_z
Si Si1 0.388416 0.587364 0.074271
Si Si2 0.803986 0.879785 0.571692
Si Si3 0.832791 0.448070 0.567040
Si Si4 0.595218 0.604966 0.575462
Si Si5 0.991612 0.331518 0.069801
O O1 0.406181 0.609318 0.250000
O O2 0.270149 0.602917 0.033978
O O3 0.396618 0.491216 0.066012
O O4 0.479584 0.623338 0.975250
O O5 0.823090 0.865789 0.750000
O O6 0.686494 0.861670 0.527973
O O7 0.888121 0.836635 0.469182
O O8 0.821606 0.971628 0.527694
O O9 0.833497 0.464845 0.750000
O O10 0.933092 0.401992 0.515474
O O11 0.613824 0.627409 0.750000
O O12 0.975135 0.336277 0.250000
O O13 0.951637 0.250000 0.000000
#
# Coordination Sequence:
#
# PCOD9437481 Si02
#       5
#     8   8   8   8   8
#     4   8  15  27  46  74 108 141 173 213 262 314
#     4  11  21  35  56  82 111 144 182 223 268 317
#     4  10  20  36  57  83 112 143 181 223 267 316
#     4   9  16  27  46  75 109 141 175 217 265 314
#     4  12  25  41  58  78 106 141 181 224 273 325
#
# _framework density 20.690472
#
# number of rings (size 3 to 8) (size 9 to 14) (size 15 to 20)
#    0.000    2.000    0.000    6.600    0.000    5.600 
#    0.000    0.000    0.000    1.200    0.000    2.800 
#    0.000    0.000    0.000    0.000    0.000    0.000 
#
# Total GULP energy -223346.199549 kJ/mol
# GULP energy per Si atom -5583.654989 kJ/mol
# Density = 2.064338 g / cm^3
# Si number density = 20.690472 Si / 1000 Ang^3
#
#
#
# Elastic Constant Matrix: (Units=GPa)
#
#
# Indices 1 2 3 4 5 6 
#
# 1 80.6204 -5.1158 8.1328 0.0000 0.0000 0.0000
# 2 -5.1158 13.3847 -10.0703 0.0000 0.0000 0.0000
# 3 8.1328 -10.0703 67.8179 0.0000 0.0000 0.0000
# 4 0.0000 0.0000 0.0000 14.6752 0.0000 0.0000
# 5 0.0000 0.0000 0.0000 0.0000 35.1951 0.0000
# 6 0.0000 0.0000 0.0000 0.0000 0.0000 -1.9684
#
#
#
# Elastic Compliance Matrix: (Units=1/GPa)
#
#
# Indices 1 2 3 4 5 6 
#
# 1 0.012762 0.004195 -0.000907 0.000000 0.000000 0.000000
# 2 0.004195 0.085488 0.012191 0.000000 0.000000 0.000000
# 3 -0.000907 0.012191 0.016664 0.000000 0.000000 0.000000
# 4 0.000000 0.000000 0.000000 0.068142 0.000000 0.000000
# 5 0.000000 0.000000 0.000000 0.000000 0.028413 0.000000
# 6 0.000000 0.000000 0.000000 0.000000 0.000000 -0.508037
#
#
# Mechanical properties :
#
#
# Convention : Reuss Voigt Hill
#
# Bulk Modulus (GPa) = 6.85538 16.41294 11.63416
# Shear Modulus (GPa) = -17.92749 20.83881 1.45566
#
# Velocity S-wave (km/s) = -2.94676 3.17704 0.83968
# Velocity P-wave (km/s) = 2.87357 4.62687 2.56422
#
# Compressibility (1/GPa) = 0.14587090
#
# Stress axis : x y z
#
# Youngs Moduli (GPa) = 78.36051 11.69755 60.00791
#
# Poissons Ratio (x) = -0.04907 0.05446
# Poissons Ratio (y) = -0.32871 -0.73156
# Poissons Ratio (z) = 0.07111 -0.14261
#
# Static dielectric constant tensor:
#      x y z
#    x 1.767140 0.000000 0.000000 
#    y 0.000000 1.802310 0.000000 
#    z 0.000000 0.000000 1.687880 
# 
# From -- ./inp_files/2653.got.cif
#   From: 2010.05.17/outbox.cif.g08.bks.cpg/sg57_2_cif.got.tgz:2653.got - 2010.06.03 13:58:18.
