data_PCOD9437897
_publ_section_title
;
Structure prediction by ZEFSAII (Michael W. Deem and Ramdas Pophale) SiO2 
 PCOD9437897
Probable space group: P B C M
;
_chemical_formula_sum "Si O2"
_cell_formula_units_Z 56
_cell_length_a 22.034209
_cell_length_b 13.829791
_cell_length_c 8.748293
_cell_angle_alpha 90.000000
_cell_angle_beta 90.000000
_cell_angle_gamma 90.000000
_cell_volume 2665.854250
_symmetry_space_group_name_H-M "P B C M"
_symmetry_group_IT_number 57
_symmetry_cell_setting 'orthorhombic'
loop_
_space_group_symop_operation_xyz
x,y,z
-x,-y,1/2+z
x,1/2-y,-z
-x,1/2+y,1/2-z
-x,-y,-z
x,y,1/2-z
-x,1/2+y,z
x,1/2-y,1/2+z
loop_
_atom_site_type_symbol
_atom_site_label
_atom_site_fract_x
_atom_site_fract_y
_atom_site_fract_z
Si Si1 0.663722 0.142190 0.566634
Si Si2 0.469811 0.859780 0.066453
Si Si3 0.218731 0.539283 0.432599
Si Si4 0.406721 0.141118 0.067211
Si Si5 0.084793 0.561331 0.065730
Si Si6 0.729842 0.642970 0.067148
Si Si7 0.965548 0.648591 0.932026
O O1 0.663999 0.250000 0.500000
O O2 0.667097 0.143612 0.750000
O O3 0.596937 0.099111 0.527503
O O4 0.723057 0.091408 0.502184
O O5 0.474774 0.856687 0.250000
O O6 0.468303 0.750000 0.000000
O O7 0.531796 0.903767 0.999900
O O8 0.222378 0.540997 0.250000
O O9 0.153933 0.583597 0.478232
O O10 0.223196 0.429546 0.491154
O O11 0.412720 0.143263 0.250000
O O12 0.338854 0.104874 0.032095
O O13 0.405379 0.250000 0.000000
O O14 0.078909 0.569050 0.250000
O O15 0.070529 0.449182 0.023794
O O16 0.034012 0.627498 0.989093
O O17 0.735982 0.644800 0.250000
O O18 0.735434 0.750000 0.000000
O O19 0.964409 0.655554 0.750000
O O20 0.943284 0.750000 0.000000
#
# Coordination Sequence:
#
# PCOD9437897 Si02
#       7
#     8   8   8   8   8   8   8
#     4  10  21  37  56  80 110 146 189 235 285 341
#     4   9  16  27  47  73 101 134 176 228 283 338
#     4  11  23  39  59  83 114 151 190 233 278 327
#     4   9  16  27  47  73 101 135 177 227 282 337
#     4   9  21  40  59  85 118 150 188 229 270 320
#     4  10  21  37  56  80 111 147 189 235 283 339
#     4  10  20  37  63  91 119 150 183 223 270 320
#
# _framework density 21.006398999999998
#
# number of rings (size 3 to 8) (size 9 to 14) (size 15 to 20)
#    0.000    2.286    0.000    3.429    0.000    6.286 
#    0.000    2.143    0.000    0.000    0.000    0.000 
#    0.000    0.000    0.000    0.000    0.000    0.000 
#
# Total GULP energy -312703.273962 kJ/mol
# GULP energy per Si atom -5583.987035 kJ/mol
# Density = 2.095859 g / cm^3
# Si number density = 21.006399 Si / 1000 Ang^3
#
#
#
# Elastic Constant Matrix: (Units=GPa)
#
#
# Indices 1 2 3 4 5 6 
#
# 1 85.5543 -5.1991 24.7726 0.0000 0.0000 0.0000
# 2 -5.1991 44.8631 0.3144 0.0000 0.0000 0.0000
# 3 24.7726 0.3144 43.4811 0.0000 0.0000 0.0000
# 4 0.0000 0.0000 0.0000 24.7614 0.0000 0.0000
# 5 0.0000 0.0000 0.0000 0.0000 43.4350 0.0000
# 6 0.0000 0.0000 0.0000 0.0000 0.0000 18.5176
#
#
#
# Elastic Compliance Matrix: (Units=1/GPa)
#
#
# Indices 1 2 3 4 5 6 
#
# 1 0.014125 0.001693 -0.008060 0.000000 0.000000 0.000000
# 2 0.001693 0.022494 -0.001127 0.000000 0.000000 0.000000
# 3 -0.008060 -0.001127 0.027599 0.000000 0.000000 0.000000
# 4 0.000000 0.000000 0.000000 0.040385 0.000000 0.000000
# 5 0.000000 0.000000 0.000000 0.000000 0.023023 0.000000
# 6 0.000000 0.000000 0.000000 0.000000 0.000000 0.054003
#
#
# Mechanical properties :
#
#
# Convention : Reuss Voigt Hill
#
# Bulk Modulus (GPa) = 20.31272 23.74160 22.02716
# Shear Modulus (GPa) = 23.47123 27.61016 25.54069
#
# Velocity S-wave (km/s) = 3.34629 3.62936 3.49069
# Velocity P-wave (km/s) = 4.96195 5.37490 5.17255
#
# Compressibility (1/GPa) = 0.04923025
#
# Stress axis : x y z
#
# Youngs Moduli (GPa) = 70.79576 44.45595 36.23378
#
# Poissons Ratio (x) = -0.07528 0.29204
# Poissons Ratio (y) = -0.11989 0.04085
# Poissons Ratio (z) = 0.57060 0.05012
#
# Static dielectric constant tensor:
#      x y z
#    x 1.775420 0.000000 0.000000 
#    y 0.000000 1.777250 0.000000 
#    z 0.000000 0.000000 1.693140 
# 
# From -- ./inp_files/8012.got.cif
#   From: 2010.05.17/outbox.cif.g08.bks.cpg/sg57_5_cif.got.tgz:8012.got - 2010.06.03 13:58:18.
