data_PCOD9437581
_publ_section_title
;
Structure prediction by ZEFSAII (Michael W. Deem and Ramdas Pophale) SiO2 
 PCOD9437581
Probable space group: P B C M
;
_chemical_formula_sum "Si O2"
_cell_formula_units_Z 40
_cell_length_a 7.751819
_cell_length_b 18.567923
_cell_length_c 13.333411
_cell_angle_alpha 90.000000
_cell_angle_beta 90.000000
_cell_angle_gamma 90.000000
_cell_volume 1919.146890
_symmetry_space_group_name_H-M "P B C M"
_symmetry_group_IT_number 57
_symmetry_cell_setting 'orthorhombic'
loop_
_space_group_symop_operation_xyz
x,y,z
-x,-y,1/2+z
x,1/2-y,-z
-x,1/2+y,1/2-z
-x,-y,-z
x,y,1/2-z
-x,1/2+y,z
x,1/2-y,1/2+z
loop_
_atom_site_type_symbol
_atom_site_label
_atom_site_fract_x
_atom_site_fract_y
_atom_site_fract_z
Si Si1 0.854753 0.310976 0.868564
Si Si2 0.305228 0.931446 0.510091
Si Si3 0.445243 0.807100 0.130950
Si Si4 0.234668 0.216565 0.129885
Si Si5 0.352019 0.445707 0.629814
O O1 0.856788 0.328433 0.750000
O O2 0.693417 0.257480 0.884707
O O3 0.034927 0.273396 0.894575
O O4 0.833774 0.383612 0.931705
O O5 0.392802 0.875927 0.432184
O O6 0.449563 0.953399 0.592455
O O7 0.250788 0.998512 0.441474
O O8 0.444436 0.823085 0.250000
O O9 0.631141 0.777390 0.098181
O O10 0.246350 0.219378 0.250000
O O11 0.295049 0.135706 0.106092
O O12 0.335438 0.457828 0.750000
#
# Coordination Sequence:
#
# PCOD9437581 Si02
#       5
#     8   8   8   8   8
#     4  10  20  36  59  85 114 150 192 236 287 342
#     4  11  21  35  58  89 114 150 196 236 288 341
#     4  10  20  38  59  84 118 150 189 241 290 339
#     4   9  19  37  61  82 113 155 189 232 288 341
#     4  10  21  38  58  82 116 154 192 236 288 343
#
# _framework density 20.842593000000001
#
# number of rings (size 3 to 8) (size 9 to 14) (size 15 to 20)
#    0.000    2.000    2.000    1.800    0.000    0.800 
#    7.200    0.000    0.000    0.000    0.000    0.000 
#    0.000    0.000    0.000    0.000    0.000    0.000 
#
# Total GULP energy -223416.203518 kJ/mol
# GULP energy per Si atom -5585.405088 kJ/mol
# Density = 2.079515 g / cm^3
# Si number density = 20.842593 Si / 1000 Ang^3
#
#
#
# Elastic Constant Matrix: (Units=GPa)
#
#
# Indices 1 2 3 4 5 6 
#
# 1 73.5971 -2.1155 3.5422 0.0000 0.0000 0.0000
# 2 -2.1155 55.5593 34.0277 0.0000 0.0000 0.0000
# 3 3.5422 34.0277 136.2074 0.0000 0.0000 0.0000
# 4 0.0000 0.0000 0.0000 44.5637 0.0000 0.0000
# 5 0.0000 0.0000 0.0000 0.0000 -18.2535 0.0000
# 6 0.0000 0.0000 0.0000 0.0000 0.0000 -20.2542
#
#
#
# Elastic Compliance Matrix: (Units=1/GPa)
#
#
# Indices 1 2 3 4 5 6 
#
# 1 0.013640 0.000870 -0.000572 0.000000 0.000000 0.000000
# 2 0.000870 0.021306 -0.005345 0.000000 0.000000 0.000000
# 3 -0.000572 -0.005345 0.008692 0.000000 0.000000 0.000000
# 4 0.000000 0.000000 0.000000 0.022440 0.000000 0.000000
# 5 0.000000 0.000000 0.000000 0.000000 -0.054784 0.000000
# 6 0.000000 0.000000 0.000000 0.000000 0.000000 -0.049373
#
#
# Mechanical properties :
#
#
# Convention : Reuss Voigt Hill
#
# Bulk Modulus (GPa) = 29.81289 37.36363 33.58826
# Shear Modulus (GPa) = -297.56111 16.53851 -140.51130
#
# Velocity S-wave (km/s) = -11.96143 2.81996 -8.21960
# Velocity P-wave (km/s) = 13.28280 5.34494 8.59839
#
# Compressibility (1/GPa) = 0.03354254
#
# Stress axis : x y z
#
# Youngs Moduli (GPa) = 73.31368 46.93588 115.04847
#
# Poissons Ratio (x) = -0.04082 0.06581
# Poissons Ratio (y) = -0.06376 0.61496
# Poissons Ratio (z) = 0.04193 0.25088
#
# Static dielectric constant tensor:
#      x y z
#    x 1.763440 0.000000 0.000000 
#    y 0.000000 1.755570 0.000000 
#    z 0.000000 0.000000 1.785910 
# 
# From -- ./inp_files/16113.got.cif
#   From: 2010.05.17/outbox.cif.g08.bks.cpg/sg57_9_cif.got.tgz:16113.got - 2010.06.03 13:58:18.
