data_PCOD9437350
_publ_section_title
;
Structure prediction by ZEFSAII (Michael W. Deem and Ramdas Pophale) SiO2 
 PCOD9437350
Probable space group: P B C M
;
_chemical_formula_sum "Si O2"
_cell_formula_units_Z 64
_cell_length_a 22.878421
_cell_length_b 9.192430
_cell_length_c 14.509875
_cell_angle_alpha 90.000000
_cell_angle_beta 90.000000
_cell_angle_gamma 90.000000
_cell_volume 3051.546906
_symmetry_space_group_name_H-M "P B C M"
_symmetry_group_IT_number 57
_symmetry_cell_setting 'orthorhombic'
loop_
_space_group_symop_operation_xyz
x,y,z
-x,-y,1/2+z
x,1/2-y,-z
-x,1/2+y,1/2-z
-x,-y,-z
x,y,1/2-z
-x,1/2+y,z
x,1/2-y,1/2+z
loop_
_atom_site_type_symbol
_atom_site_label
_atom_site_fract_x
_atom_site_fract_y
_atom_site_fract_z
Si Si1 0.647011 0.919646 0.479397
Si Si2 0.822243 0.604181 0.537500
Si Si3 0.738706 0.092523 0.355321
Si Si4 0.947273 0.246360 0.854362
Si Si5 0.462185 0.327960 0.142537
Si Si6 0.575858 0.005324 0.643533
Si Si7 0.175740 0.839631 0.408615
Si Si8 0.939357 0.924986 0.363271
O O1 0.665016 0.750000 0.500000
O O2 0.587603 0.900063 0.419788
O O3 0.630114 0.995550 0.575335
O O4 0.690008 0.026893 0.423909
O O5 0.794012 0.750000 0.500000
O O6 0.791600 0.517570 0.620826
O O7 0.817271 0.499485 0.448589
O O8 0.885511 0.640633 0.579916
O O9 0.719380 0.080974 0.250000
O O10 0.767540 0.253013 0.370660
O O11 0.966126 0.275421 0.750000
O O12 0.883739 0.172598 0.851928
O O13 0.940735 0.406751 0.894488
O O14 0.999514 0.148343 0.891066
O O15 0.454446 0.370999 0.250000
O O16 0.453935 0.154586 0.137450
O O17 0.526720 0.378975 0.115005
O O18 0.592299 0.030965 0.750000
O O19 0.160834 0.750000 0.500000
O O20 0.931000 0.917078 0.250000
#
# Coordination Sequence:
#
# PCOD9437350 Si02
#       8
#     8   8   8   8   8   8   8   8
#     4  10  20  35  60  92 122 163 221 278 326 381
#     4  11  24  41  61  90 122 157 202 257 318 388
#     4  11  22  42  67  85 115 166 217 272 333 387
#     4  10  20  36  57  87 122 158 199 244 300 375
#     4   9  17  32  54  87 127 170 211 254 317 383
#     4   9  18  33  56  87 131 171 206 259 320 380
#     4  10  21  39  61  85 116 155 194 252 317 379
#     4  10  21  37  59  86 122 163 200 243 306 384
#
# _framework density 20.972968999999999
#
# number of rings (size 3 to 8) (size 9 to 14) (size 15 to 20)
#    0.000    2.000    2.500    1.875    1.750    1.500 
#    0.000    5.625    0.000   15.000    0.000    0.000 
#    0.000    0.000    0.000    0.000    0.000    0.000 
#
# Total GULP energy -356725.286388 kJ/mol
# GULP energy per Si atom -5573.832600 kJ/mol
# Density = 2.092523 g / cm^3
# Si number density = 20.972969 Si / 1000 Ang^3
#
#
#
# Elastic Constant Matrix: (Units=GPa)
#
#
# Indices 1 2 3 4 5 6 
#
# 1 98.0318 20.6391 56.5876 0.0000 0.0000 0.0000
# 2 20.6391 31.0374 25.8358 0.0000 0.0000 0.0000
# 3 56.5876 25.8358 89.9373 0.0000 0.0000 0.0000
# 4 0.0000 0.0000 0.0000 16.5156 0.0000 0.0000
# 5 0.0000 0.0000 0.0000 0.0000 26.4940 0.0000
# 6 0.0000 0.0000 0.0000 0.0000 0.0000 20.4969
#
#
#
# Elastic Compliance Matrix: (Units=1/GPa)
#
#
# Indices 1 2 3 4 5 6 
#
# 1 0.016230 -0.003013 -0.009346 0.000000 0.000000 0.000000
# 2 -0.003013 0.042904 -0.010429 0.000000 0.000000 0.000000
# 3 -0.009346 -0.010429 0.019995 0.000000 0.000000 0.000000
# 4 0.000000 0.000000 0.000000 0.060549 0.000000 0.000000
# 5 0.000000 0.000000 0.000000 0.000000 0.037744 0.000000
# 6 0.000000 0.000000 0.000000 0.000000 0.000000 0.048788
#
#
# Mechanical properties :
#
#
# Convention : Reuss Voigt Hill
#
# Bulk Modulus (GPa) = 29.80364 47.23682 38.52023
# Shear Modulus (GPa) = 17.66963 20.43091 19.05027
#
# Velocity S-wave (km/s) = 2.90573 3.12453 3.01711
# Velocity P-wave (km/s) = 5.04965 5.96561 5.52664
#
# Compressibility (1/GPa) = 0.03355295
#
# Stress axis : x y z
#
# Youngs Moduli (GPa) = 61.61381 23.30791 50.01132
#
# Poissons Ratio (x) = 0.07022 0.46743
# Poissons Ratio (y) = 0.18562 0.52158
# Poissons Ratio (z) = 0.57587 0.24308
#
# Static dielectric constant tensor:
#      x y z
#    x 1.792700 0.000000 0.000000 
#    y 0.000000 1.571960 0.000000 
#    z 0.000000 0.000000 1.766940 
# 
# From -- ./inp_files/19531.got.cif
#   From: 2010.05.17/outbox.cif.g08.bks.cpg/sg57_10_cif.got.tgz:19531.got - 2010.06.03 13:58:18.
