data_PCOD9437808
_publ_section_title
;
Structure prediction by ZEFSAII (Michael W. Deem and Ramdas Pophale) SiO2 
 PCOD9437808
Probable space group: P B C M
;
_chemical_formula_sum "Si O2"
_cell_formula_units_Z 60
_cell_length_a 12.039039
_cell_length_b 24.949403
_cell_length_c 9.654227
_cell_angle_alpha 90.000000
_cell_angle_beta 90.000000
_cell_angle_gamma 90.000000
_cell_volume 2899.809616
_symmetry_space_group_name_H-M "P B C M"
_symmetry_group_IT_number 57
_symmetry_cell_setting 'orthorhombic'
loop_
_space_group_symop_operation_xyz
x,y,z
-x,-y,1/2+z
x,1/2-y,-z
-x,1/2+y,1/2-z
-x,-y,-z
x,y,1/2-z
-x,1/2+y,z
x,1/2-y,1/2+z
loop_
_atom_site_type_symbol
_atom_site_label
_atom_site_fract_x
_atom_site_fract_y
_atom_site_fract_z
Si Si1 0.145872 0.195395 0.585528
Si Si2 0.609735 0.375748 0.405391
Si Si3 0.403619 0.197650 0.910987
Si Si4 0.251185 0.698894 0.090636
Si Si5 0.512235 0.521991 0.250000
Si Si6 0.973886 0.358627 0.905502
Si Si7 0.351198 0.996030 0.012414
Si Si8 0.895940 0.479275 0.587686
O O1 0.123438 0.250000 0.500000
O O2 0.127510 0.202510 0.750000
O O3 0.275771 0.182587 0.562133
O O4 0.065920 0.150730 0.521107
O O5 0.644011 0.358204 0.250000
O O6 0.487879 0.351414 0.430640
O O7 0.686104 0.350981 0.523296
O O8 0.620635 0.439303 0.411338
O O9 0.410852 0.213453 0.750000
O O10 0.433445 0.250000 0.000000
O O11 0.282606 0.705931 0.250000
O O12 0.120337 0.686827 0.082719
O O13 0.280693 0.750000 0.000000
O O14 0.602349 0.537110 0.374600
O O15 0.420415 0.505900 0.371207
O O16 0.022610 0.356010 0.750000
O O17 0.909548 0.414806 0.917184
O O18 0.220996 0.997391 0.977572
O O19 0.901123 0.495158 0.750000
O O20 0.000000 0.500000 0.500000
#
# Coordination Sequence:
#
# PCOD9437808 Si02
#       8
#     8   8   8   8   4   8   8   8
#     4  10  20  37  60  86 122 166 210 259 309 371
#     4  11  22  38  63  92 128 164 209 260 321 388
#     4   9  20  38  56  84 123 163 204 251 308 367
#     4  11  23  38  60  91 128 166 208 259 317 387
#     4  10  24  42  72  96 128 168 214 268 340 398
#     4  10  22  41  61  89 121 161 206 258 315 379
#     4  11  22  46  67  99 130 170 219 278 338 405
#     4  11  25  46  69  95 132 172 217 278 343 405
#
# _framework density 20.691013999999999
#
# number of rings (size 3 to 8) (size 9 to 14) (size 15 to 20)
#    0.000    1.600    2.667    1.600    1.867    4.800 
#    4.800    0.000    0.000    0.000    0.000    0.000 
#    0.000    0.000    0.000    0.000    0.000    0.000 
#
# Total GULP energy -334097.818297 kJ/mol
# GULP energy per Si atom -5568.296972 kJ/mol
# Density = 2.064392 g / cm^3
# Si number density = 20.691014 Si / 1000 Ang^3
#
#
#
# Elastic Constant Matrix: (Units=GPa)
#
#
# Indices 1 2 3 4 5 6 
#
# 1 126.9361 -1.3995 71.6241 0.0000 0.0000 0.0000
# 2 -1.3995 8.2252 9.1791 0.0000 0.0000 0.0000
# 3 71.6241 9.1791 157.5280 0.0000 0.0000 0.0000
# 4 0.0000 0.0000 0.0000 59.7253 0.0000 0.0000
# 5 0.0000 0.0000 0.0000 0.0000 32.8957 0.0000
# 6 0.0000 0.0000 0.0000 0.0000 0.0000 45.2136
#
#
#
# Elastic Compliance Matrix: (Units=1/GPa)
#
#
# Indices 1 2 3 4 5 6 
#
# 1 0.011070 0.008022 -0.005501 0.000000 0.000000 0.000000
# 2 0.008022 0.135847 -0.011563 0.000000 0.000000 0.000000
# 3 -0.005501 -0.011563 0.009523 0.000000 0.000000 0.000000
# 4 0.000000 0.000000 0.000000 0.016743 0.000000 0.000000
# 5 0.000000 0.000000 0.000000 0.000000 0.030399 0.000000
# 6 0.000000 0.000000 0.000000 0.000000 0.000000 0.022117
#
#
# Mechanical properties :
#
#
# Convention : Reuss Voigt Hill
#
# Bulk Modulus (GPa) = 7.22770 50.16630 28.69700
# Shear Modulus (GPa) = 17.24718 41.78595 29.51656
#
# Velocity S-wave (km/s) = 2.89027 4.49878 3.78105
# Velocity P-wave (km/s) = 3.82609 7.16125 5.74119
#
# Compressibility (1/GPa) = 0.13835653
#
# Stress axis : x y z
#
# Youngs Moduli (GPa) = 90.33180 7.36123 105.00914
#
# Poissons Ratio (x) = -0.05905 0.57764
# Poissons Ratio (y) = -0.72468 1.21426
# Poissons Ratio (z) = 0.49690 0.08512
#
# Static dielectric constant tensor:
#      x y z
#    x 1.756410 0.000000 0.000000 
#    y 0.000000 2.237020 0.000000 
#    z 0.000000 0.000000 1.682340 
# 
# From -- ./inp_files/3469.got.cif
#   From: 2010.05.17/outbox.cif.g08.bks.cpg/sg57_2_cif.got.tgz:3469.got - 2010.06.03 13:58:18.
