data_PCOD9437548
_publ_section_title
;
Structure prediction by ZEFSAII (Michael W. Deem and Ramdas Pophale) SiO2 
 PCOD9437548
Probable space group: P B C M
;
_chemical_formula_sum "Si O2"
_cell_formula_units_Z 56
_cell_length_a 15.426301
_cell_length_b 13.485250
_cell_length_c 14.468893
_cell_angle_alpha 90.000000
_cell_angle_beta 90.000000
_cell_angle_gamma 90.000000
_cell_volume 3009.928008
_symmetry_space_group_name_H-M "P B C M"
_symmetry_group_IT_number 57
_symmetry_cell_setting 'orthorhombic'
loop_
_space_group_symop_operation_xyz
x,y,z
-x,-y,1/2+z
x,1/2-y,-z
-x,1/2+y,1/2-z
-x,-y,-z
x,y,1/2-z
-x,1/2+y,z
x,1/2-y,1/2+z
loop_
_atom_site_type_symbol
_atom_site_label
_atom_site_fract_x
_atom_site_fract_y
_atom_site_fract_z
Si Si1 0.267593 0.392452 0.856348
Si Si2 0.411982 0.868039 0.992137
Si Si3 0.767548 0.018088 0.023478
Si Si4 0.787213 0.674024 0.859311
Si Si5 0.049601 0.600418 0.021367
Si Si6 0.011542 0.226600 0.858986
Si Si7 0.461574 0.022026 0.143279
O O1 0.237808 0.398656 0.750000
O O2 0.254384 0.279116 0.887402
O O3 0.368223 0.423440 0.860628
O O4 0.218632 0.468824 0.922597
O O5 0.315160 0.910895 0.979966
O O6 0.468834 0.908613 0.907037
O O7 0.413409 0.750000 0.000000
O O8 0.451301 0.922012 0.083108
O O9 0.853501 0.075647 0.052773
O O10 0.753128 0.921984 0.087784
O O11 0.772596 0.661567 0.750000
O O12 0.890557 0.687294 0.874380
O O13 0.999182 0.663922 0.098565
O O14 0.049483 0.661955 0.925616
O O15 0.000000 0.500000 0.000000
O O16 0.993031 0.222733 0.750000
O O17 0.482738 0.002708 0.250000
#
# Coordination Sequence:
#
# PCOD9437548 Si02
#       7
#     8   8   8   8   8   8   8
#     4   9  19  35  60  89 115 149 193 242 294 348
#     4  10  23  39  60  89 123 158 192 240 293 344
#     4  11  22  36  59  84 120 152 195 240 293 357
#     4  10  20  36  58  86 116 145 191 248 297 345
#     4  11  22  37  61  83 113 156 198 243 295 355
#     4  10  23  39  56  82 114 150 196 247 293 345
#     4   9  20  41  63  87 118 156 200 237 285 349
#
# _framework density 18.605097000000001
#
# number of rings (size 3 to 8) (size 9 to 14) (size 15 to 20)
#    0.000    2.000    1.429    1.286    4.000    6.286 
#    0.000    1.429    0.000    0.000    0.000    0.000 
#    0.000    0.000    0.000    0.000    0.000    0.000 
#
# Total GULP energy -312613.845992 kJ/mol
# GULP energy per Si atom -5582.390107 kJ/mol
# Density = 1.856275 g / cm^3
# Si number density = 18.605097 Si / 1000 Ang^3
#
#
#
# Elastic Constant Matrix: (Units=GPa)
#
#
# Indices 1 2 3 4 5 6 
#
# 1 35.1944 29.0646 15.2507 0.0000 0.0000 0.0000
# 2 29.0646 126.2334 32.9984 0.0000 0.0000 0.0000
# 3 15.2507 32.9984 87.3134 0.0000 0.0000 0.0000
# 4 0.0000 0.0000 0.0000 16.3615 0.0000 0.0000
# 5 0.0000 0.0000 0.0000 0.0000 21.0186 0.0000
# 6 0.0000 0.0000 0.0000 0.0000 0.0000 26.4662
#
#
#
# Elastic Compliance Matrix: (Units=1/GPa)
#
#
# Indices 1 2 3 4 5 6 
#
# 1 0.036025 -0.007379 -0.003504 0.000000 0.000000 0.000000
# 2 -0.007379 0.010302 -0.002604 0.000000 0.000000 0.000000
# 3 -0.003504 -0.002604 0.013049 0.000000 0.000000 0.000000
# 4 0.000000 0.000000 0.000000 0.061119 0.000000 0.000000
# 5 0.000000 0.000000 0.000000 0.000000 0.047577 0.000000
# 6 0.000000 0.000000 0.000000 0.000000 0.000000 0.037784
#
#
# Mechanical properties :
#
#
# Convention : Reuss Voigt Hill
#
# Bulk Modulus (GPa) = 30.86194 44.81871 37.84033
# Shear Modulus (GPa) = 20.52281 24.19775 22.36028
#
# Velocity S-wave (km/s) = 3.32486 3.61029 3.47051
# Velocity P-wave (km/s) = 5.60031 6.44366 6.03673
#
# Compressibility (1/GPa) = 0.03240237
#
# Stress axis : x y z
#
# Youngs Moduli (GPa) = 27.75813 97.07247 76.63250
#
# Poissons Ratio (x) = 0.71627 0.26850
# Poissons Ratio (y) = 0.20482 0.19959
# Poissons Ratio (z) = 0.09726 0.25282
#
# Static dielectric constant tensor:
#      x y z
#    x 1.637550 0.000000 0.000000 
#    y 0.000000 1.564050 0.000000 
#    z 0.000000 0.000000 1.648090 
# 
# From -- ./inp_files/18531.got.cif
#   From: 2010.05.17/outbox.cif.g08.bks.cpg/sg57_10_cif.got.tgz:18531.got - 2010.06.03 13:58:18.
