data_PCOD9437052
_publ_section_title
;
Structure prediction by ZEFSAII (Michael W. Deem and Ramdas Pophale) SiO2 
 PCOD9437052
Probable space group: P B C M
;
_chemical_formula_sum "Si O2"
_cell_formula_units_Z 48
_cell_length_a 7.363680
_cell_length_b 31.675218
_cell_length_c 9.348732
_cell_angle_alpha 90.000000
_cell_angle_beta 90.000000
_cell_angle_gamma 90.000000
_cell_volume 2180.555927
_symmetry_space_group_name_H-M "P B C M"
_symmetry_group_IT_number 57
_symmetry_cell_setting 'orthorhombic'
loop_
_space_group_symop_operation_xyz
x,y,z
-x,-y,1/2+z
x,1/2-y,-z
-x,1/2+y,1/2-z
-x,-y,-z
x,y,1/2-z
-x,1/2+y,z
x,1/2-y,1/2+z
loop_
_atom_site_type_symbol
_atom_site_label
_atom_site_fract_x
_atom_site_fract_y
_atom_site_fract_z
Si Si1 0.716414 0.291590 0.084140
Si Si2 0.767679 0.976260 0.092829
Si Si3 0.160665 0.291212 0.086587
Si Si4 0.283489 0.625306 0.420261
Si Si5 0.097656 0.381757 0.078062
Si Si6 0.648735 0.045283 0.908403
O O1 0.662765 0.292070 0.250000
O O2 0.938481 0.291799 0.081542
O O3 0.658386 0.250000 0.000000
O O4 0.650828 0.332551 0.999266
O O5 0.842161 0.987849 0.250000
O O6 0.820250 0.928180 0.059058
O O7 0.548906 0.974996 0.107804
O O8 0.792639 0.012033 0.973143
O O9 0.216490 0.285369 0.250000
O O10 0.210616 0.339154 0.041560
O O11 0.219782 0.250000 0.000000
O O12 0.292939 0.628571 0.250000
O O13 0.376204 0.583659 0.482455
O O14 0.078014 0.619832 0.478055
O O15 0.057180 0.377432 0.250000
O O16 0.706460 0.060198 0.750000
#
# Coordination Sequence:
#
# PCOD9437052 Si02
#       6
#     8   8   8   8   8   8
#     4   9  16  28  46  70 100 132 165 203 246 291
#     4   9  19  36  56  74  94 126 166 206 252 305
#     4   8  14  24  41  65  94 125 154 188 231 280
#     4  11  21  32  49  75 104 134 168 205 245 290
#     4   9  18  33  51  73 100 128 162 205 250 294
#     4  10  20  35  54  74  97 128 165 206 252 302
#
# _framework density 22.012736
#
# number of rings (size 3 to 8) (size 9 to 14) (size 15 to 20)
#    0.000    2.667    0.000    3.500    0.000    6.000 
#    0.000    0.000    0.000    1.000    0.000    2.333 
#    0.000    0.000    0.000    0.000    0.000    0.000 
#
# Total GULP energy -267782.676328 kJ/mol
# GULP energy per Si atom -5578.805757 kJ/mol
# Density = 2.196263 g / cm^3
# Si number density = 22.012736 Si / 1000 Ang^3
#
#
#
# Elastic Constant Matrix: (Units=GPa)
#
#
# Indices 1 2 3 4 5 6 
#
# 1 37.9767 -10.1769 8.3491 0.0000 0.0000 0.0000
# 2 -10.1769 111.2694 67.3770 0.0000 0.0000 0.0000
# 3 8.3491 67.3770 150.6478 0.0000 0.0000 0.0000
# 4 0.0000 0.0000 0.0000 42.1755 0.0000 0.0000
# 5 0.0000 0.0000 0.0000 0.0000 6.6979 0.0000
# 6 0.0000 0.0000 0.0000 0.0000 0.0000 -23.2520
#
#
#
# Elastic Compliance Matrix: (Units=1/GPa)
#
#
# Indices 1 2 3 4 5 6 
#
# 1 0.028467 0.004881 -0.003761 0.000000 0.000000 0.000000
# 2 0.004881 0.013162 -0.006157 0.000000 0.000000 0.000000
# 3 -0.003761 -0.006157 0.009600 0.000000 0.000000 0.000000
# 4 0.000000 0.000000 0.000000 0.023710 0.000000 0.000000
# 5 0.000000 0.000000 0.000000 0.000000 0.149299 0.000000
# 6 0.000000 0.000000 0.000000 0.000000 0.000000 -0.043007
#
#
# Mechanical properties :
#
#
# Convention : Reuss Voigt Hill
#
# Bulk Modulus (GPa) = 24.29849 47.88804 36.09327
# Shear Modulus (GPa) = 24.38742 20.74727 22.56735
#
# Velocity S-wave (km/s) = 3.33209 3.07337 3.20534
# Velocity P-wave (km/s) = 5.08587 5.86481 5.48918
#
# Compressibility (1/GPa) = 0.04115482
#
# Stress axis : x y z
#
# Youngs Moduli (GPa) = 35.12884 75.97665 104.16461
#
# Poissons Ratio (x) = -0.37082 0.39172
# Poissons Ratio (y) = -0.17145 0.64136
# Poissons Ratio (z) = 0.13210 0.46780
#
# Static dielectric constant tensor:
#      x y z
#    x 1.854590 0.000000 0.000000 
#    y 0.000000 1.840440 0.000000 
#    z 0.000000 0.000000 1.801420 
# 
# From -- ./inp_files/3289.got.cif
#   From: 2010.05.17/outbox.cif.g08.bks.cpg/sg57_2_cif.got.tgz:3289.got - 2010.06.03 13:58:18.
