data_PCOD9437851
_publ_section_title
;
Structure prediction by ZEFSAII (Michael W. Deem and Ramdas Pophale) SiO2 
 PCOD9437851
Probable space group: P B C M
;
_chemical_formula_sum "Si O2"
_cell_formula_units_Z 40
_cell_length_a 13.081405
_cell_length_b 17.851073
_cell_length_c 8.030577
_cell_angle_alpha 90.000000
_cell_angle_beta 90.000000
_cell_angle_gamma 90.000000
_cell_volume 1875.277178
_symmetry_space_group_name_H-M "P B C M"
_symmetry_group_IT_number 57
_symmetry_cell_setting 'orthorhombic'
loop_
_space_group_symop_operation_xyz
x,y,z
-x,-y,1/2+z
x,1/2-y,-z
-x,1/2+y,1/2-z
-x,-y,-z
x,y,1/2-z
-x,1/2+y,z
x,1/2-y,1/2+z
loop_
_atom_site_type_symbol
_atom_site_label
_atom_site_fract_x
_atom_site_fract_y
_atom_site_fract_z
Si Si1 0.976658 0.914872 0.450180
Si Si2 0.179779 0.836205 0.450043
Si Si3 0.573868 0.933123 0.563060
Si Si4 0.763452 0.661714 0.052068
Si Si5 0.398521 0.835825 0.449918
O O1 0.973037 0.910178 0.250000
O O2 0.873268 0.875678 0.513820
O O3 0.076823 0.872006 0.515680
O O4 0.000000 0.000000 0.500000
O O5 0.178822 0.750000 0.500000
O O6 0.178447 0.840714 0.250000
O O7 0.288974 0.871875 0.499068
O O8 0.602397 0.955764 0.750000
O O9 0.675776 0.895806 0.482953
O O10 0.493235 0.866115 0.551282
O O11 0.500000 0.000000 0.500000
O O12 0.748343 0.663178 0.250000
O O13 0.757540 0.750000 0.000000
O O14 0.388686 0.750000 0.500000
O O15 0.413930 0.844109 0.250000
#
# Coordination Sequence:
#
# PCOD9437851 Si02
#       5
#     8   8   8   8   8
#     4  11  24  41  63  93 129 168 212 264 321 379
#     4   9  20  37  59  87 120 156 198 249 304 365
#     4  11  25  42  63  92 127 166 211 266 323 381
#     4  11  25  45  68  95 130 172 220 271 324 388
#     4  10  20  37  61  89 122 159 201 251 307 372
#
# _framework density 21.330179999999999
#
# number of rings (size 3 to 8) (size 9 to 14) (size 15 to 20)
#    0.000    1.600    0.000    3.600    2.800    8.800 
#    0.000    0.000    0.000    0.000    0.000    0.000 
#    0.000    0.000    0.000    0.000    0.000    0.000 
#
# Total GULP energy -222920.376852 kJ/mol
# GULP energy per Si atom -5573.009421 kJ/mol
# Density = 2.128163 g / cm^3
# Si number density = 21.330180 Si / 1000 Ang^3
#
#
#
# Elastic Constant Matrix: (Units=GPa)
#
#
# Indices 1 2 3 4 5 6 
#
# 1 112.4547 4.1850 -15.6242 0.0000 0.0000 0.0000
# 2 4.1850 55.7495 -9.4000 0.0000 0.0000 0.0000
# 3 -15.6242 -9.4000 32.6543 0.0000 0.0000 0.0000
# 4 0.0000 0.0000 0.0000 29.1932 0.0000 0.0000
# 5 0.0000 0.0000 0.0000 0.0000 14.0148 0.0000
# 6 0.0000 0.0000 0.0000 0.0000 0.0000 35.8377
#
#
#
# Elastic Compliance Matrix: (Units=1/GPa)
#
#
# Indices 1 2 3 4 5 6 
#
# 1 0.009526 0.000056 0.004574 0.000000 0.000000 0.000000
# 2 0.000056 0.018853 0.005454 0.000000 0.000000 0.000000
# 3 0.004574 0.005454 0.034382 0.000000 0.000000 0.000000
# 4 0.000000 0.000000 0.000000 0.034255 0.000000 0.000000
# 5 0.000000 0.000000 0.000000 0.000000 0.071353 0.000000
# 6 0.000000 0.000000 0.000000 0.000000 0.000000 0.027904
#
#
# Mechanical properties :
#
#
# Convention : Reuss Voigt Hill
#
# Bulk Modulus (GPa) = 12.05848 17.68669 14.87258
# Shear Modulus (GPa) = 24.54022 30.58899 27.56461
#
# Velocity S-wave (km/s) = 3.39557 3.79102 3.59873
# Velocity P-wave (km/s) = 4.58680 5.24140 4.92499
#
# Compressibility (1/GPa) = 0.08292917
#
# Stress axis : x y z
#
# Youngs Moduli (GPa) = 104.97713 53.04264 29.08468
#
# Poissons Ratio (x) = -0.00298 -0.13303
# Poissons Ratio (y) = -0.00589 -0.15863
# Poissons Ratio (z) = -0.48017 -0.28929
#
# Static dielectric constant tensor:
#      x y z
#    x 1.844080 0.000000 0.000000 
#    y 0.000000 1.894590 0.000000 
#    z 0.000000 0.000000 1.808490 
# 
# From -- ./inp_files/2611.got.cif
#   From: 2010.05.17/outbox.cif.g08.bks.cpg/sg57_2_cif.got.tgz:2611.got - 2010.06.03 13:58:18.
