data_PCOD9437811
_publ_section_title
;
Structure prediction by ZEFSAII (Michael W. Deem and Ramdas Pophale) SiO2 
 PCOD9437811
Probable space group: P B C M
;
_chemical_formula_sum "Si O2"
_cell_formula_units_Z 60
_cell_length_a 11.496168
_cell_length_b 28.091541
_cell_length_c 9.480207
_cell_angle_alpha 90.000000
_cell_angle_beta 90.000000
_cell_angle_gamma 90.000000
_cell_volume 3061.586158
_symmetry_space_group_name_H-M "P B C M"
_symmetry_group_IT_number 57
_symmetry_cell_setting 'orthorhombic'
loop_
_space_group_symop_operation_xyz
x,y,z
-x,-y,1/2+z
x,1/2-y,-z
-x,1/2+y,1/2-z
-x,-y,-z
x,y,1/2-z
-x,1/2+y,z
x,1/2-y,1/2+z
loop_
_atom_site_type_symbol
_atom_site_label
_atom_site_fract_x
_atom_site_fract_y
_atom_site_fract_z
Si Si1 0.072816 0.884708 0.581920
Si Si2 0.634490 0.963157 0.987758
Si Si3 0.522777 0.483188 0.750000
Si Si4 0.813926 0.202261 0.585724
Si Si5 0.628958 0.699893 0.417899
Si Si6 0.573058 0.349990 0.087976
Si Si7 0.200700 0.117031 0.416545
Si Si8 0.745057 0.437090 0.411521
O O1 0.092150 0.879835 0.750000
O O2 0.935710 0.888670 0.555941
O O3 0.119885 0.839683 0.495301
O O4 0.150857 0.927557 0.519982
O O5 0.724263 0.920550 0.004043
O O6 0.537556 0.950555 0.873417
O O7 0.699035 0.009467 0.921438
O O8 0.576763 0.981691 0.128614
O O9 0.834262 0.250000 0.500000
O O10 0.848202 0.205549 0.750000
O O11 0.677508 0.188492 0.582485
O O12 0.630066 0.750000 0.500000
O O13 0.611710 0.707180 0.250000
O O14 0.526588 0.667045 0.482975
O O15 0.747758 0.669750 0.438868
O O16 0.529409 0.352492 0.250000
O O17 0.640966 0.399578 0.058544
O O18 0.218708 0.105969 0.250000
O O19 0.782125 0.427012 0.250000
#
# Coordination Sequence:
#
# PCOD9437811 Si02
#       8
#     8   8   4   8   8   8   8   8
#     4  10  22  40  60  85 117 159 208 250 301 358
#     4  11  22  41  61  95 125 163 197 243 296 360
#     4  10  24  36  64  92 132 156 202 236 296 362
#     4  10  20  37  60  87 118 153 198 254 307 358
#     4  11  24  40  59  85 117 155 196 242 301 358
#     4   9  20  35  57  88 122 152 188 236 295 355
#     4  10  23  43  63  85 119 159 200 252 300 351
#     4  10  21  38  62  91 125 160 196 250 300 349
#
# _framework density 19.597684999999998
#
# number of rings (size 3 to 8) (size 9 to 14) (size 15 to 20)
#    0.000    1.867    1.333    2.400    4.667    4.800 
#    3.600    1.333    0.000    0.000    0.000    0.000 
#    0.000    0.000    0.000    0.000    0.000    0.000 
#
# Total GULP energy -334014.500675 kJ/mol
# GULP energy per Si atom -5566.908345 kJ/mol
# Density = 1.955308 g / cm^3
# Si number density = 19.597685 Si / 1000 Ang^3
#
#
#
# Elastic Constant Matrix: (Units=GPa)
#
#
# Indices 1 2 3 4 5 6 
#
# 1 67.0053 17.6960 59.1209 0.0000 0.0000 0.0000
# 2 17.6960 73.2739 23.7896 0.0000 0.0000 0.0000
# 3 59.1209 23.7896 134.9845 0.0000 0.0000 0.0000
# 4 0.0000 0.0000 0.0000 2.3064 0.0000 0.0000
# 5 0.0000 0.0000 0.0000 0.0000 398.5605 0.0000
# 6 0.0000 0.0000 0.0000 0.0000 0.0000 14.2951
#
#
#
# Elastic Compliance Matrix: (Units=1/GPa)
#
#
# Indices 1 2 3 4 5 6 
#
# 1 0.024786 -0.002611 -0.010396 0.000000 0.000000 0.000000
# 2 -0.002611 0.014751 -0.001456 0.000000 0.000000 0.000000
# 3 -0.010396 -0.001456 0.012218 0.000000 0.000000 0.000000
# 4 0.000000 0.000000 0.000000 0.433567 0.000000 0.000000
# 5 0.000000 0.000000 0.000000 0.000000 0.002509 0.000000
# 6 0.000000 0.000000 0.000000 0.000000 0.000000 0.069954
#
#
# Mechanical properties :
#
#
# Convention : Reuss Voigt Hill
#
# Bulk Modulus (GPa) = 43.80306 52.94184 48.37245
# Shear Modulus (GPa) = 8.41296 94.67622 51.54459
#
# Velocity S-wave (km/s) = 2.07416 6.95807 5.13405
# Velocity P-wave (km/s) = 5.30433 9.57215 7.73828
#
# Compressibility (1/GPa) = 0.02282946
#
# Stress axis : x y z
#
# Youngs Moduli (GPa) = 40.34486 67.79333 81.84577
#
# Poissons Ratio (x) = 0.17700 0.85086
# Poissons Ratio (y) = 0.10533 0.11918
# Poissons Ratio (z) = 0.41942 0.09872
#
# Static dielectric constant tensor:
#      x y z
#    x 1.698750 0.000000 0.000000 
#    y 0.000000 1.706260 0.000000 
#    z 0.000000 0.000000 1.662480 
# 
# From -- ./inp_files/3480.got.cif
#   From: 2010.05.17/outbox.cif.g08.bks.cpg/sg57_2_cif.got.tgz:3480.got - 2010.06.03 13:58:18.
