data_PCOD9437660
_publ_section_title
;
Structure prediction by ZEFSAII (Michael W. Deem and Ramdas Pophale) SiO2 
 PCOD9437660
Probable space group: P B C M
;
_chemical_formula_sum "Si O2"
_cell_formula_units_Z 48
_cell_length_a 8.325819
_cell_length_b 13.934970
_cell_length_c 19.149638
_cell_angle_alpha 90.000000
_cell_angle_beta 90.000000
_cell_angle_gamma 90.000000
_cell_volume 2221.741728
_symmetry_space_group_name_H-M "P B C M"
_symmetry_group_IT_number 57
_symmetry_cell_setting 'orthorhombic'
loop_
_space_group_symop_operation_xyz
x,y,z
-x,-y,1/2+z
x,1/2-y,-z
-x,1/2+y,1/2-z
-x,-y,-z
x,y,1/2-z
-x,1/2+y,z
x,1/2-y,1/2+z
loop_
_atom_site_type_symbol
_atom_site_label
_atom_site_fract_x
_atom_site_fract_y
_atom_site_fract_z
Si Si1 0.424775 0.127559 0.330508
Si Si2 0.765188 0.260011 0.669447
Si Si3 0.259782 0.218664 0.919670
Si Si4 0.911605 0.421182 0.917321
Si Si5 0.930747 0.115084 0.578302
Si Si6 0.568292 0.973233 0.424205
O O1 0.381377 0.116735 0.250000
O O2 0.590862 0.189643 0.334766
O O3 0.297768 0.189355 0.373509
O O4 0.461557 0.026316 0.366737
O O5 0.795625 0.234697 0.750000
O O6 0.888662 0.341058 0.641039
O O7 0.789762 0.169310 0.618563
O O8 0.094719 0.167409 0.898430
O O9 0.400319 0.139107 0.914428
O O10 0.250542 0.250000 0.000000
O O11 0.744830 0.479628 0.919751
O O12 0.048919 0.501373 0.907836
O O13 0.924659 0.375196 0.994329
O O14 0.500000 0.000000 0.500000
#
# Coordination Sequence:
#
# PCOD9437660 Si02
#       6
#     8   8   8   8   8   8
#     4  10  23  40  57  84 121 155 195 244 295 352
#     4  10  21  37  57  81 113 156 194 230 289 354
#     4  11  21  35  60  90 116 148 198 246 291 353
#     4   9  20  37  59  84 117 150 190 246 285 342
#     4  10  21  37  60  87 115 149 193 241 293 345
#     4  10  20  36  61  88 112 157 200 238 294 354
#
# _framework density 21.604671
#
# number of rings (size 3 to 8) (size 9 to 14) (size 15 to 20)
#    0.000    2.000    1.667    1.500    2.333    2.000 
#    0.000    3.333    0.000    0.000    0.000    0.000 
#    0.000    0.000    0.000    0.000    0.000    0.000 
#
# Total GULP energy -268371.360143 kJ/mol
# GULP energy per Si atom -5591.070003 kJ/mol
# Density = 2.155550 g / cm^3
# Si number density = 21.604671 Si / 1000 Ang^3
#
#
#
# Elastic Constant Matrix: (Units=GPa)
#
#
# Indices 1 2 3 4 5 6 
#
# 1 42.4926 14.7649 7.8169 0.0000 0.0000 0.0000
# 2 14.7649 84.4421 24.3333 0.0000 0.0000 0.0000
# 3 7.8169 24.3333 90.1291 0.0000 0.0000 0.0000
# 4 0.0000 0.0000 0.0000 31.5493 0.0000 0.0000
# 5 0.0000 0.0000 0.0000 0.0000 5.1240 0.0000
# 6 0.0000 0.0000 0.0000 0.0000 0.0000 35.9113
#
#
#
# Elastic Compliance Matrix: (Units=1/GPa)
#
#
# Indices 1 2 3 4 5 6 
#
# 1 0.025152 -0.004087 -0.001078 0.000000 0.000000 0.000000
# 2 -0.004087 0.013506 -0.003292 0.000000 0.000000 0.000000
# 3 -0.001078 -0.003292 0.012077 0.000000 0.000000 0.000000
# 4 0.000000 0.000000 0.000000 0.031696 0.000000 0.000000
# 5 0.000000 0.000000 0.000000 0.000000 0.195158 0.000000
# 6 0.000000 0.000000 0.000000 0.000000 0.000000 0.027846
#
#
# Mechanical properties :
#
#
# Convention : Reuss Voigt Hill
#
# Bulk Modulus (GPa) = 29.56740 34.54380 32.05560
# Shear Modulus (GPa) = 14.98694 25.86019 20.42356
#
# Velocity S-wave (km/s) = 2.63666 3.46348 3.07796
# Velocity P-wave (km/s) = 4.79423 5.65845 5.24417
#
# Compressibility (1/GPa) = 0.03382103
#
# Stress axis : x y z
#
# Youngs Moduli (GPa) = 39.75829 74.04281 82.79914
#
# Poissons Ratio (x) = 0.30263 0.08925
# Poissons Ratio (y) = 0.16250 0.27256
# Poissons Ratio (z) = 0.04286 0.24374
#
# Static dielectric constant tensor:
#      x y z
#    x 1.837160 0.000000 0.000000 
#    y 0.000000 1.809590 0.000000 
#    z 0.000000 0.000000 1.712130 
# 
# From -- ./inp_files/20908.got.cif
#   From: 2010.05.17/outbox.cif.g08.bks.cpg/sg57_11_cif.got.tgz:20908.got - 2010.06.03 13:58:18.
