data_PCOD9437539
_publ_section_title
;
Structure prediction by ZEFSAII (Michael W. Deem and Ramdas Pophale) SiO2 
 PCOD9437539
Probable space group: P B C M
;
_chemical_formula_sum "Si O2"
_cell_formula_units_Z 48
_cell_length_a 14.230750
_cell_length_b 14.357644
_cell_length_c 10.414371
_cell_angle_alpha 90.000000
_cell_angle_beta 90.000000
_cell_angle_gamma 90.000000
_cell_volume 2127.864724
_symmetry_space_group_name_H-M "P B C M"
_symmetry_group_IT_number 57
_symmetry_cell_setting 'orthorhombic'
loop_
_space_group_symop_operation_xyz
x,y,z
-x,-y,1/2+z
x,1/2-y,-z
-x,1/2+y,1/2-z
-x,-y,-z
x,y,1/2-z
-x,1/2+y,z
x,1/2-y,1/2+z
loop_
_atom_site_type_symbol
_atom_site_label
_atom_site_fract_x
_atom_site_fract_y
_atom_site_fract_z
Si Si1 0.807968 0.555942 0.397247
Si Si2 0.605259 0.070571 0.386138
Si Si3 0.683825 0.637401 0.612977
Si Si4 0.992573 0.829959 0.607169
Si Si5 0.199923 0.640532 0.464129
Si Si6 0.523288 0.176740 0.602717
O O1 0.777911 0.568155 0.250000
O O2 0.750515 0.625943 0.491070
O O3 0.915590 0.589388 0.409844
O O4 0.796693 0.446732 0.435165
O O5 0.554217 0.093904 0.250000
O O6 0.704496 0.124324 0.387667
O O7 0.552055 0.086875 0.520141
O O8 0.637355 0.964649 0.379692
O O9 0.733186 0.656706 0.750000
O O10 0.588199 0.695997 0.608465
O O11 0.982070 0.750000 0.500000
O O12 0.978616 0.789352 0.750000
O O13 0.098049 0.870122 0.600194
O O14 0.201018 0.750000 0.500000
O O15 0.563617 0.250000 0.500000
O O16 0.557628 0.175470 0.750000
#
# Coordination Sequence:
#
# PCOD9437539 Si02
#       6
#     8   8   8   8   8   8
#     4  10  22  39  62  91 121 156 200 247 297 352
#     4  10  20  36  58  84 113 147 188 236 290 347
#     4   9  21  40  60  83 113 150 191 237 292 347
#     4  10  22  40  61  88 121 159 202 248 297 351
#     4  10  21  37  59  87 120 155 192 238 292 353
#     4  11  23  38  57  83 115 151 190 236 289 346
#
# _framework density 22.557825999999999
#
# number of rings (size 3 to 8) (size 9 to 14) (size 15 to 20)
#    0.000    2.000    0.000    2.500    0.000    9.333 
#    0.000    3.333    0.000    0.000    0.000    0.000 
#    0.000    0.000    0.000    0.000    0.000    0.000 
#
# Total GULP energy -267272.456937 kJ/mol
# GULP energy per Si atom -5568.176186 kJ/mol
# Density = 2.250648 g / cm^3
# Si number density = 22.557826 Si / 1000 Ang^3
#
#
#
# Elastic Constant Matrix: (Units=GPa)
#
#
# Indices 1 2 3 4 5 6 
#
# 1 80.2983 -4.8596 45.8988 0.0000 0.0000 0.0000
# 2 -4.8596 36.2435 31.6693 0.0000 0.0000 0.0000
# 3 45.8988 31.6693 212.3712 0.0000 0.0000 0.0000
# 4 0.0000 0.0000 0.0000 3.2127 0.0000 0.0000
# 5 0.0000 0.0000 0.0000 0.0000 17.2006 0.0000
# 6 0.0000 0.0000 0.0000 0.0000 0.0000 20.4304
#
#
#
# Elastic Compliance Matrix: (Units=1/GPa)
#
#
# Indices 1 2 3 4 5 6 
#
# 1 0.015144 0.005623 -0.004112 0.000000 0.000000 0.000000
# 2 0.005623 0.033813 -0.006258 0.000000 0.000000 0.000000
# 3 -0.004112 -0.006258 0.006530 0.000000 0.000000 0.000000
# 4 0.000000 0.000000 0.000000 0.311263 0.000000 0.000000
# 5 0.000000 0.000000 0.000000 0.000000 0.058138 0.000000
# 6 0.000000 0.000000 0.000000 0.000000 0.000000 0.048947
#
#
# Mechanical properties :
#
#
# Convention : Reuss Voigt Hill
#
# Bulk Modulus (GPa) = 21.74120 52.70334 37.22227
# Shear Modulus (GPa) = 10.02689 25.24904 17.63797
#
# Velocity S-wave (km/s) = 2.11060 3.34923 2.79928
# Velocity P-wave (km/s) = 3.94948 6.19442 5.19467
#
# Compressibility (1/GPa) = 0.04599561
#
# Stress axis : x y z
#
# Youngs Moduli (GPa) = 66.03255 29.57446 153.12778
#
# Poissons Ratio (x) = -0.16630 0.62959
# Poissons Ratio (y) = -0.37131 0.95821
# Poissons Ratio (z) = 0.27150 0.18506
#
# Static dielectric constant tensor:
#      x y z
#    x 1.840700 0.000000 0.000000 
#    y 0.000000 2.093880 0.000000 
#    z 0.000000 0.000000 1.879210 
# 
# From -- ./inp_files/4549.got.cif
#   From: 2010.05.17/outbox.cif.g08.bks.cpg/sg57_3_cif.got.tgz:4549.got - 2010.06.03 13:58:18.
