data_PCOD9437781
_publ_section_title
;
Structure prediction by ZEFSAII (Michael W. Deem and Ramdas Pophale) SiO2 
 PCOD9437781
Probable space group: P B C M
;
_chemical_formula_sum "Si O2"
_cell_formula_units_Z 40
_cell_length_a 26.238046
_cell_length_b 9.327881
_cell_length_c 8.583845
_cell_angle_alpha 90.000000
_cell_angle_beta 90.000000
_cell_angle_gamma 90.000000
_cell_volume 2100.856327
_symmetry_space_group_name_H-M "P B C M"
_symmetry_group_IT_number 57
_symmetry_cell_setting 'orthorhombic'
loop_
_space_group_symop_operation_xyz
x,y,z
-x,-y,1/2+z
x,1/2-y,-z
-x,1/2+y,1/2-z
-x,-y,-z
x,y,1/2-z
-x,1/2+y,z
x,1/2-y,1/2+z
loop_
_atom_site_type_symbol
_atom_site_label
_atom_site_fract_x
_atom_site_fract_y
_atom_site_fract_z
Si Si1 0.852267 0.089575 0.562288
Si Si2 0.357372 0.088743 0.936497
Si Si3 0.246493 0.089683 0.437768
Si Si4 0.547930 0.410912 0.063596
Si Si5 0.048075 0.411496 0.937402
O O1 0.856649 0.250000 0.500000
O O2 0.852778 0.094404 0.750000
O O3 0.799407 0.014410 0.514702
O O4 0.900201 0.992654 0.512682
O O5 0.359111 0.090665 0.750000
O O6 0.365864 0.250000 0.000000
O O7 0.301094 0.044619 0.993836
O O8 0.400714 0.986345 0.003525
O O9 0.236177 0.250000 0.500000
O O10 0.249721 0.094279 0.250000
O O11 0.547010 0.410393 0.250000
O O12 0.545101 0.250000 0.000000
O O13 0.500000 0.500000 0.000000
O O14 0.046452 0.408550 0.750000
O O15 0.047182 0.250000 0.000000
O O16 0.000000 0.500000 0.000000
#
# Coordination Sequence:
#
# PCOD9437781 Si02
#       5
#     8   8   8   8   8
#     4  10  23  39  58  84 117 153 195 241 292 348
#     4  11  22  39  62  90 121 158 198 243 294 350
#     4  10  20  37  59  86 116 152 195 242 291 348
#     4  12  25  43  64  90 121 157 198 244 294 350
#     4  11  23  40  61  88 118 154 195 242 294 352
#
# _framework density 19.039854999999999
#
# number of rings (size 3 to 8) (size 9 to 14) (size 15 to 20)
#    0.000    1.200    0.000    7.800    0.000    5.600 
#    0.000    2.000    0.000    0.000    0.000    0.000 
#    0.000    0.000    0.000    0.000    0.000    0.000 
#
# Total GULP energy -223781.253330 kJ/mol
# GULP energy per Si atom -5594.531333 kJ/mol
# Density = 1.899652 g / cm^3
# Si number density = 19.039855 Si / 1000 Ang^3
#
#
#
# Elastic Constant Matrix: (Units=GPa)
#
#
# Indices 1 2 3 4 5 6 
#
# 1 192.0712 143.1867 72.4552 0.0000 0.0000 0.0000
# 2 143.1867 179.4671 63.9635 0.0000 0.0000 0.0000
# 3 72.4552 63.9635 133.6249 0.0000 0.0000 0.0000
# 4 0.0000 0.0000 0.0000 39.9259 0.0000 0.0000
# 5 0.0000 0.0000 0.0000 0.0000 33.7662 0.0000
# 6 0.0000 0.0000 0.0000 0.0000 0.0000 41.4858
#
#
#
# Elastic Compliance Matrix: (Units=1/GPa)
#
#
# Indices 1 2 3 4 5 6 
#
# 1 0.013570 -0.009892 -0.002623 0.000000 0.000000 0.000000
# 2 -0.009892 0.013929 -0.001304 0.000000 0.000000 0.000000
# 3 -0.002623 -0.001304 0.009530 0.000000 0.000000 0.000000
# 4 0.000000 0.000000 0.000000 0.025046 0.000000 0.000000
# 5 0.000000 0.000000 0.000000 0.000000 0.029615 0.000000
# 6 0.000000 0.000000 0.000000 0.000000 0.000000 0.024105
#
#
# Mechanical properties :
#
#
# Convention : Reuss Voigt Hill
#
# Bulk Modulus (GPa) = 106.47904 118.26378 112.37141
# Shear Modulus (GPa) = 34.11465 38.07275 36.09370
#
# Velocity S-wave (km/s) = 4.23750 4.47658 4.35868
# Velocity P-wave (km/s) = 8.94358 9.43230 9.19119
#
# Compressibility (1/GPa) = 0.00939152
#
# Stress axis : x y z
#
# Youngs Moduli (GPa) = 73.68986 71.79199 104.93144
#
# Poissons Ratio (x) = 0.71018 0.27524
# Poissons Ratio (y) = 0.72895 0.13681
# Poissons Ratio (z) = 0.19329 0.09360
#
# Static dielectric constant tensor:
#      x y z
#    x 1.648400 0.000000 0.000000 
#    y 0.000000 1.618490 0.000000 
#    z 0.000000 0.000000 1.642000 
# 
# From -- ./inp_files/8886.got.cif
#   From: 2010.05.17/outbox.cif.g08.bks.cpg/sg57_5_cif.got.tgz:8886.got - 2010.06.03 13:58:18.
