data_PCOD9437974
_publ_section_title
;
Structure prediction by ZEFSAII (Michael W. Deem and Ramdas Pophale) SiO2 
 PCOD9437974
Probable space group: P B C M
;
_chemical_formula_sum "Si O2"
_cell_formula_units_Z 40
_cell_length_a 14.836738
_cell_length_b 8.675376
_cell_length_c 16.008862
_cell_angle_alpha 90.000000
_cell_angle_beta 90.000000
_cell_angle_gamma 90.000000
_cell_volume 2060.569158
_symmetry_space_group_name_H-M "P B C M"
_symmetry_group_IT_number 57
_symmetry_cell_setting 'orthorhombic'
loop_
_space_group_symop_operation_xyz
x,y,z
-x,-y,1/2+z
x,1/2-y,-z
-x,1/2+y,1/2-z
-x,-y,-z
x,y,1/2-z
-x,1/2+y,z
x,1/2-y,1/2+z
loop_
_atom_site_type_symbol
_atom_site_label
_atom_site_fract_x
_atom_site_fract_y
_atom_site_fract_z
Si Si1 0.442758 0.012291 0.346182
Si Si2 0.267245 0.840589 0.412809
Si Si3 0.604756 0.833124 0.410349
Si Si4 0.900232 0.434430 0.502768
Si Si5 0.222412 0.517648 0.344962
O O1 0.459194 0.968175 0.250000
O O2 0.352470 0.933337 0.381098
O O3 0.526181 0.959769 0.403255
O O4 0.427258 0.194156 0.351589
O O5 0.287512 0.750000 0.500000
O O6 0.180536 0.949843 0.433488
O O7 0.246452 0.699931 0.350561
O O8 0.615386 0.750000 0.500000
O O9 0.695070 0.915548 0.379026
O O10 0.910459 0.250000 0.500000
O O11 0.857841 0.495890 0.588806
O O12 0.000000 0.500000 0.500000
O O13 0.201297 0.475692 0.250000
#
# Coordination Sequence:
#
# PCOD9437974 Si02
#       5
#     8   8   8   8   8
#     4  12  23  36  55  85 116 149 191 240 287 339
#     4   9  19  37  59  82 111 149 189 228 284 350
#     4  12  24  39  58  81 116 157 197 236 290 356
#     4   9  20  38  60  83 112 149 188 229 286 351
#     4  10  20  38  60  85 114 150 192 243 291 338
#
# _framework density 19.412112
#
# number of rings (size 3 to 8) (size 9 to 14) (size 15 to 20)
#    0.000    2.000    0.000    7.200    0.000    2.400 
#    0.000    5.000    0.000    0.000    0.000    0.000 
#    0.000    0.000    0.000    0.000    0.000    0.000 
#
# Total GULP energy -223128.900082 kJ/mol
# GULP energy per Si atom -5578.222502 kJ/mol
# Density = 1.936793 g / cm^3
# Si number density = 19.412112 Si / 1000 Ang^3
#
#
#
# Elastic Constant Matrix: (Units=GPa)
#
#
# Indices 1 2 3 4 5 6 
#
# 1 148.7119 58.4764 63.5870 0.0000 0.0000 0.0000
# 2 58.4764 56.7378 33.0537 0.0000 0.0000 0.0000
# 3 63.5870 33.0537 123.6059 0.0000 0.0000 0.0000
# 4 0.0000 0.0000 0.0000 24.2113 0.0000 0.0000
# 5 0.0000 0.0000 0.0000 0.0000 0.0843 0.0000
# 6 0.0000 0.0000 0.0000 0.0000 0.0000 44.8417
#
#
#
# Elastic Compliance Matrix: (Units=1/GPa)
#
#
# Indices 1 2 3 4 5 6 
#
# 1 0.012486 -0.010810 -0.003532 0.000000 0.000000 0.000000
# 2 -0.010810 0.030237 -0.002525 0.000000 0.000000 0.000000
# 3 -0.003532 -0.002525 0.010582 0.000000 0.000000 0.000000
# 4 0.000000 0.000000 0.000000 0.041303 0.000000 0.000000
# 5 0.000000 0.000000 0.000000 0.000000 11.865101 0.000000
# 6 0.000000 0.000000 0.000000 0.000000 0.000000 0.022301
#
#
# Mechanical properties :
#
#
# Convention : Reuss Voigt Hill
#
# Bulk Modulus (GPa) = 51.09606 71.03220 61.06413
# Shear Modulus (GPa) = 0.41589 25.42336 12.91963
#
# Velocity S-wave (km/s) = 0.46337 3.62285 2.58261
# Velocity P-wave (km/s) = 5.16383 7.36011 6.35753
#
# Compressibility (1/GPa) = 0.01957098
#
# Stress axis : x y z
#
# Youngs Moduli (GPa) = 80.09238 33.07162 94.49657
#
# Poissons Ratio (x) = 0.35752 0.33378
# Poissons Ratio (y) = 0.86583 0.23857
# Poissons Ratio (z) = 0.28290 0.08349
#
# Static dielectric constant tensor:
#      x y z
#    x 1.679260 0.000000 0.000000 
#    y 0.000000 1.699340 0.000000 
#    z 0.000000 0.000000 1.714340 
# 
# From -- ./inp_files/22301.got.cif
#   From: 2010.05.17/outbox.cif.g08.bks.cpg/sg57_12_cif.got.tgz:22301.got - 2010.06.03 13:58:18.
