data_PCOD9437866
_publ_section_title
;
Structure prediction by ZEFSAII (Michael W. Deem and Ramdas Pophale) SiO2 
 PCOD9437866
Probable space group: P B C M
;
_chemical_formula_sum "Si O2"
_cell_formula_units_Z 52
_cell_length_a 12.899408
_cell_length_b 9.495758
_cell_length_c 22.670993
_cell_angle_alpha 90.000000
_cell_angle_beta 90.000000
_cell_angle_gamma 90.000000
_cell_volume 2776.962150
_symmetry_space_group_name_H-M "P B C M"
_symmetry_group_IT_number 57
_symmetry_cell_setting 'orthorhombic'
loop_
_space_group_symop_operation_xyz
x,y,z
-x,-y,1/2+z
x,1/2-y,-z
-x,1/2+y,1/2-z
-x,-y,-z
x,y,1/2-z
-x,1/2+y,z
x,1/2-y,1/2+z
loop_
_atom_site_type_symbol
_atom_site_label
_atom_site_fract_x
_atom_site_fract_y
_atom_site_fract_z
Si Si1 0.985963 0.684015 0.371831
Si Si2 0.950689 0.077305 0.554900
Si Si3 0.392796 0.120762 0.321748
Si Si4 0.205070 0.321735 0.318650
Si Si5 0.590669 0.200012 0.820499
Si Si6 0.229208 0.876102 0.624264
Si Si7 0.771871 0.250000 0.500000
O O1 0.947916 0.529970 0.390610
O O2 0.910189 0.756686 0.325294
O O3 0.979946 0.789622 0.427289
O O4 0.110089 0.673329 0.362870
O O5 0.841396 0.135437 0.534215
O O6 0.000000 0.000000 0.500000
O O7 0.397029 0.115482 0.250000
O O8 0.286369 0.200279 0.336258
O O9 0.489450 0.215768 0.342226
O O10 0.400601 0.960078 0.343414
O O11 0.222978 0.360166 0.250000
O O12 0.225347 0.459258 0.358528
O O13 0.580510 0.190437 0.750000
O O14 0.691656 0.290334 0.835437
O O15 0.267210 0.838829 0.557197
#
# Coordination Sequence:
#
# PCOD9437866 Si02
#       7
#     8   8   8   8   8   8   4
#     4  11  22  34  53  84 115 153 193 231 288 347
#     4  11  17  35  55  76 110 149 201 240 273 327
#     4   9  20  37  60  87 111 149 198 240 288 354
#     4  11  23  38  56  84 122 155 192 239 297 365
#     4  10  20  37  62  87 113 148 194 245 299 354
#     4  11  22  37  58  86 117 158 196 244 297 344
#     4  10  22  34  60  86 112 158 206 252 278 346
#
# _framework density 18.7255
#
# number of rings (size 3 to 8) (size 9 to 14) (size 15 to 20)
#    0.000    1.538    4.615    1.385    4.308    3.692 
#    0.000    0.000    0.000    3.692    0.000    0.000 
#    0.000    0.000    0.000    0.000    0.000    0.000 
#
# Total GULP energy -289538.075309 kJ/mol
# GULP energy per Si atom -5568.039910 kJ/mol
# Density = 1.868288 g / cm^3
# Si number density = 18.725500 Si / 1000 Ang^3
#
#
#
# Elastic Constant Matrix: (Units=GPa)
#
#
# Indices 1 2 3 4 5 6 
#
# 1 82.5956 36.6209 0.0951 0.0000 0.0000 0.0000
# 2 36.6209 114.4850 4.1917 0.0000 0.0000 0.0000
# 3 0.0951 4.1917 22.1359 0.0000 0.0000 0.0000
# 4 0.0000 0.0000 0.0000 34.1583 0.0000 0.0000
# 5 0.0000 0.0000 0.0000 0.0000 9.7573 0.0000
# 6 0.0000 0.0000 0.0000 0.0000 0.0000 16.3869
#
#
#
# Elastic Compliance Matrix: (Units=1/GPa)
#
#
# Indices 1 2 3 4 5 6 
#
# 1 0.014122 -0.004547 0.000800 0.000000 0.000000 0.000000
# 2 -0.004547 0.010260 -0.001923 0.000000 0.000000 0.000000
# 3 0.000800 -0.001923 0.045536 0.000000 0.000000 0.000000
# 4 0.000000 0.000000 0.000000 0.029275 0.000000 0.000000
# 5 0.000000 0.000000 0.000000 0.000000 0.102487 0.000000
# 6 0.000000 0.000000 0.000000 0.000000 0.000000 0.061024
#
#
# Mechanical properties :
#
#
# Convention : Reuss Voigt Hill
#
# Bulk Modulus (GPa) = 17.07105 33.44799 25.25952
# Shear Modulus (GPa) = 17.03170 23.94776 20.48973
#
# Velocity S-wave (km/s) = 3.01914 3.58003 3.31148
# Velocity P-wave (km/s) = 4.61409 5.91522 5.30470
#
# Compressibility (1/GPa) = 0.05857871
#
# Stress axis : x y z
#
# Youngs Moduli (GPa) = 70.81086 97.47031 21.96057
#
# Poissons Ratio (x) = 0.44316 -0.01757
# Poissons Ratio (y) = 0.32195 0.04223
# Poissons Ratio (z) = -0.05667 0.18746
#
# Static dielectric constant tensor:
#      x y z
#    x 1.652630 0.000000 0.000000 
#    y 0.000000 1.650140 0.000000 
#    z 0.000000 0.000000 1.700630 
# 
# From -- ./inp_files/28575.got.cif
#   From: 2010.05.17/outbox.cif.g08.bks.cpg/sg57_15_cif.got.tgz:28575.got - 2010.06.03 13:58:18.
