data_PCOD9437875
_publ_section_title
;
Structure prediction by ZEFSAII (Michael W. Deem and Ramdas Pophale) SiO2 
 PCOD9437875
Probable space group: P B C M
;
_chemical_formula_sum "Si O2"
_cell_formula_units_Z 40
_cell_length_a 21.386976
_cell_length_b 8.963087
_cell_length_c 10.636562
_cell_angle_alpha 90.000000
_cell_angle_beta 90.000000
_cell_angle_gamma 90.000000
_cell_volume 2038.957953
_symmetry_space_group_name_H-M "P B C M"
_symmetry_group_IT_number 57
_symmetry_cell_setting 'orthorhombic'
loop_
_space_group_symop_operation_xyz
x,y,z
-x,-y,1/2+z
x,1/2-y,-z
-x,1/2+y,1/2-z
-x,-y,-z
x,y,1/2-z
-x,1/2+y,z
x,1/2-y,1/2+z
loop_
_atom_site_type_symbol
_atom_site_label
_atom_site_fract_x
_atom_site_fract_y
_atom_site_fract_z
Si Si1 0.361601 0.750000 0.500000
Si Si2 0.071400 0.438753 0.250000
Si Si3 0.726241 0.497812 0.392987
Si Si4 0.144510 0.430553 0.997538
Si Si5 0.361233 0.250000 0.000000
Si Si6 0.934511 0.920740 0.750000
Si Si7 0.551908 0.500652 0.891521
O O1 0.317395 0.643516 0.581515
O O2 0.405021 0.643916 0.415331
O O3 0.110044 0.477828 0.375220
O O4 0.062858 0.259427 0.250000
O O5 0.003948 0.514442 0.250000
O O6 0.748457 0.502893 0.250000
O O7 0.786744 0.501577 0.481617
O O8 0.683118 0.640979 0.420991
O O9 0.102588 0.467331 0.875698
O O10 0.151747 0.250000 0.000000
O O11 0.404968 0.145542 0.914426
O O12 0.526105 0.500379 0.750000
O O13 0.500000 0.500000 0.000000
#
# Coordination Sequence:
#
# PCOD9437875 Si02
#       7
#     4   4   8   8   4   4   8
#     4  10  25  42  60  94 131 168 202 262 316 368
#     4  10  22  38  60  86 124 158 205 256 306 366
#     4  11  21  41  64  89 128 164 212 260 314 369
#     4  10  20  37  62  89 119 163 209 255 308 371
#     4  10  23  38  66  96 117 166 214 256 302 370
#     4  10  20  40  60  86 118 162 207 254 306 368
#     4  11  24  43  66  95 128 164 209 255 310 373
#
# _framework density 19.617864000000001
#
# number of rings (size 3 to 8) (size 9 to 14) (size 15 to 20)
#    0.000    1.600    2.000    2.400    0.000    6.400 
#   12.600    0.000    0.000    0.000    0.000    0.000 
#    0.000    0.000    0.000    0.000    0.000    0.000 
#
# Total GULP energy -223584.626315 kJ/mol
# GULP energy per Si atom -5589.615658 kJ/mol
# Density = 1.957321 g / cm^3
# Si number density = 19.617864 Si / 1000 Ang^3
#
#
#
# Elastic Constant Matrix: (Units=GPa)
#
#
# Indices 1 2 3 4 5 6 
#
# 1 152.9865 46.9115 75.0314 0.0000 0.0000 0.0000
# 2 46.9115 79.4090 33.5696 0.0000 0.0000 0.0000
# 3 75.0314 33.5696 156.8930 0.0000 0.0000 0.0000
# 4 0.0000 0.0000 0.0000 0.2268 0.0000 0.0000
# 5 0.0000 0.0000 0.0000 0.0000 35.1763 0.0000
# 6 0.0000 0.0000 0.0000 0.0000 0.0000 7.2008
#
#
#
# Elastic Compliance Matrix: (Units=1/GPa)
#
#
# Indices 1 2 3 4 5 6 
#
# 1 0.009623 -0.004111 -0.003722 0.000000 0.000000 0.000000
# 2 -0.004111 0.015602 -0.001372 0.000000 0.000000 0.000000
# 3 -0.003722 -0.001372 0.008447 0.000000 0.000000 0.000000
# 4 0.000000 0.000000 0.000000 4.409866 0.000000 0.000000
# 5 0.000000 0.000000 0.000000 0.000000 0.028428 0.000000
# 6 0.000000 0.000000 0.000000 0.000000 0.000000 0.138873
#
#
# Mechanical properties :
#
#
# Convention : Reuss Voigt Hill
#
# Bulk Modulus (GPa) = 65.52706 77.81260 71.66983
# Shear Modulus (GPa) = 1.07890 24.10584 12.59237
#
# Velocity S-wave (km/s) = 0.74240 3.50918 2.53629
# Velocity P-wave (km/s) = 5.84886 7.49463 6.72230
#
# Compressibility (1/GPa) = 0.01526087
#
# Stress axis : x y z
#
# Youngs Moduli (GPa) = 103.92070 64.09521 118.37858
#
# Poissons Ratio (x) = 0.26350 0.44064
# Poissons Ratio (y) = 0.42723 0.16243
# Poissons Ratio (z) = 0.38682 0.08795
#
# Static dielectric constant tensor:
#      x y z
#    x 1.652570 0.000000 0.000000 
#    y 0.000000 1.675730 0.000000 
#    z 0.000000 0.000000 1.676110 
# 
# From -- ./inp_files/9012.got.cif
#   From: 2010.05.17/outbox.cif.g08.bks.cpg/sg57_5_cif.got.tgz:9012.got - 2010.06.03 13:58:18.
