data_PCOD9437869
_publ_section_title
;
Structure prediction by ZEFSAII (Michael W. Deem and Ramdas Pophale) SiO2 
 PCOD9437869
Probable space group: P B C M
;
_chemical_formula_sum "Si O2"
_cell_formula_units_Z 48
_cell_length_a 15.148673
_cell_length_b 19.231124
_cell_length_c 8.853239
_cell_angle_alpha 90.000000
_cell_angle_beta 90.000000
_cell_angle_gamma 90.000000
_cell_volume 2579.178784
_symmetry_space_group_name_H-M "P B C M"
_symmetry_group_IT_number 57
_symmetry_cell_setting 'orthorhombic'
loop_
_space_group_symop_operation_xyz
x,y,z
-x,-y,1/2+z
x,1/2-y,-z
-x,1/2+y,1/2-z
-x,-y,-z
x,y,1/2-z
-x,1/2+y,z
x,1/2-y,1/2+z
loop_
_atom_site_type_symbol
_atom_site_label
_atom_site_fract_x
_atom_site_fract_y
_atom_site_fract_z
Si Si1 0.108971 0.924603 0.929557
Si Si2 0.596094 0.083136 0.070750
Si Si3 0.256484 0.825779 0.429799
Si Si4 0.250878 0.326190 0.430832
Si Si5 0.388689 0.433424 0.929706
Si Si6 0.919828 0.915303 0.430298
O O1 0.119796 0.916056 0.750000
O O2 0.115662 0.006966 0.965401
O O3 0.180986 0.878727 0.014211
O O4 0.010406 0.903925 0.980764
O O5 0.612426 0.085887 0.250000
O O6 0.491018 0.087359 0.044309
O O7 0.651377 0.142677 0.989184
O O8 0.625567 0.008211 0.006963
O O9 0.241412 0.750000 0.500000
O O10 0.256495 0.821515 0.250000
O O11 0.258360 0.250000 0.500000
O O12 0.260571 0.323944 0.250000
O O13 0.324184 0.376811 0.500310
O O14 0.155425 0.359730 0.465406
O O15 0.375274 0.439667 0.750000
O O16 0.938142 0.913850 0.250000
#
# Coordination Sequence:
#
# PCOD9437869 Si02
#       6
#     8   8   8   8   8   8
#     4  10  20  37  62  88 114 147 190 239 287 339
#     4  10  21  39  62  88 117 149 190 238 285 337
#     4  12  25  40  59  84 117 155 194 237 288 345
#     4  11  23  38  57  82 117 156 194 239 288 341
#     4  10  21  38  62  89 116 150 192 236 284 340
#     4   9  20  38  59  84 114 151 193 236 283 336
#
# _framework density 18.610575999999998
#
# number of rings (size 3 to 8) (size 9 to 14) (size 15 to 20)
#    0.000    1.667    0.000    4.500    0.000    6.667 
#    0.000    1.667    0.000    0.000    0.000    0.000 
#    0.000    0.000    0.000    0.000    0.000    0.000 
#
# Total GULP energy -268373.513150 kJ/mol
# GULP energy per Si atom -5591.114857 kJ/mol
# Density = 1.856822 g / cm^3
# Si number density = 18.610576 Si / 1000 Ang^3
#
#
#
# Elastic Constant Matrix: (Units=GPa)
#
#
# Indices 1 2 3 4 5 6 
#
# 1 30.3968 5.6816 24.9035 0.0000 0.0000 0.0000
# 2 5.6816 25.7858 12.5300 0.0000 0.0000 0.0000
# 3 24.9035 12.5300 74.1781 0.0000 0.0000 0.0000
# 4 0.0000 0.0000 0.0000 34.5803 0.0000 0.0000
# 5 0.0000 0.0000 0.0000 0.0000 36.3307 0.0000
# 6 0.0000 0.0000 0.0000 0.0000 0.0000 -6.1189
#
#
#
# Elastic Compliance Matrix: (Units=1/GPa)
#
#
# Indices 1 2 3 4 5 6 
#
# 1 0.045570 -0.002840 -0.014819 0.000000 0.000000 0.000000
# 2 -0.002840 0.042426 -0.006213 0.000000 0.000000 0.000000
# 3 -0.014819 -0.006213 0.019506 0.000000 0.000000 0.000000
# 4 0.000000 0.000000 0.000000 0.028918 0.000000 0.000000
# 5 0.000000 0.000000 0.000000 0.000000 0.027525 0.000000
# 6 0.000000 0.000000 0.000000 0.000000 0.000000 -0.163429
#
#
# Mechanical properties :
#
#
# Convention : Reuss Voigt Hill
#
# Bulk Modulus (GPa) = 16.73431 24.06564 20.39998
# Shear Modulus (GPa) = 73.33510 18.77481 46.05495
#
# Velocity S-wave (km/s) = 6.28416 3.17965 4.98000
# Velocity P-wave (km/s) = 7.85274 5.14193 6.63720
#
# Compressibility (1/GPa) = 0.05975748
#
# Stress axis : x y z
#
# Youngs Moduli (GPa) = 21.94413 23.57052 51.26667
#
# Poissons Ratio (x) = 0.06693 0.75974
# Poissons Ratio (y) = 0.06231 0.31853
# Poissons Ratio (z) = 0.32520 0.14645
#
# Static dielectric constant tensor:
#      x y z
#    x 1.629430 0.000000 0.000000 
#    y 0.000000 1.609220 0.000000 
#    z 0.000000 0.000000 1.619170 
# 
# From -- ./inp_files/4700.got.cif
#   From: 2010.05.17/outbox.cif.g08.bks.cpg/sg57_3_cif.got.tgz:4700.got - 2010.06.03 13:58:18.
