data_PCOD9437206
_publ_section_title
;
Structure prediction by ZEFSAII (Michael W. Deem and Ramdas Pophale) SiO2 
 PCOD9437206
Probable space group: P B C M
;
_chemical_formula_sum "Si O2"
_cell_formula_units_Z 48
_cell_length_a 9.868518
_cell_length_b 31.290200
_cell_length_c 8.742047
_cell_angle_alpha 90.000000
_cell_angle_beta 90.000000
_cell_angle_gamma 90.000000
_cell_volume 2699.438352
_symmetry_space_group_name_H-M "P B C M"
_symmetry_group_IT_number 57
_symmetry_cell_setting 'orthorhombic'
loop_
_space_group_symop_operation_xyz
x,y,z
-x,-y,1/2+z
x,1/2-y,-z
-x,1/2+y,1/2-z
-x,-y,-z
x,y,1/2-z
-x,1/2+y,z
x,1/2-y,1/2+z
loop_
_atom_site_type_symbol
_atom_site_label
_atom_site_fract_x
_atom_site_fract_y
_atom_site_fract_z
Si Si1 0.357796 0.983239 0.933288
Si Si2 0.011793 0.871998 0.566177
Si Si3 0.787293 0.930682 0.067104
Si Si4 0.807219 0.703071 0.433408
Si Si5 0.420935 0.362254 0.566075
Si Si6 0.698043 0.110108 0.567550
O O1 0.369887 0.978201 0.750000
O O2 0.246916 0.020031 0.964696
O O3 0.320286 0.938346 0.007963
O O4 0.500000 0.000000 0.000000
O O5 0.018715 0.873706 0.750000
O O6 0.160047 0.872692 0.495400
O O7 0.923479 0.912082 0.506666
O O8 0.926409 0.829786 0.520809
O O9 0.791470 0.924829 0.250000
O O10 0.664680 0.902249 0.999134
O O11 0.820657 0.750000 0.500000
O O12 0.810157 0.705697 0.250000
O O13 0.666683 0.679515 0.476297
O O14 0.425186 0.365625 0.750000
O O15 0.570305 0.363890 0.498084
O O16 0.695757 0.110715 0.750000
#
# Coordination Sequence:
#
# PCOD9437206 Si02
#       6
#     8   8   8   8   8   8
#     4  11  22  35  55  82 115 153 197 242 286 333
#     4  10  22  40  59  82 115 154 190 232 290 344
#     4  10  20  35  56  83 111 148 196 238 278 330
#     4   9  20  38  63  90 112 142 182 227 281 344
#     4  10  20  36  58  83 114 149 186 230 282 334
#     4  12  24  37  56  84 115 152 195 239 289 336
#
# _framework density 17.781476000000001
#
# number of rings (size 3 to 8) (size 9 to 14) (size 15 to 20)
#    0.000    1.667    1.667    4.500    0.000    6.667 
#    0.000    0.833    0.000    0.000    0.000    0.000 
#    0.000    0.000    0.000    0.000    0.000    0.000 
#
# Total GULP energy -268149.623493 kJ/mol
# GULP energy per Si atom -5586.450489 kJ/mol
# Density = 1.774100 g / cm^3
# Si number density = 17.781476 Si / 1000 Ang^3
#
#
#
# Elastic Constant Matrix: (Units=GPa)
#
#
# Indices 1 2 3 4 5 6 
#
# 1 161.6708 65.9280 52.3601 0.0000 0.0000 0.0000
# 2 65.9280 116.6061 47.8768 0.0000 0.0000 0.0000
# 3 52.3601 47.8768 83.7070 0.0000 0.0000 0.0000
# 4 0.0000 0.0000 0.0000 33.3703 0.0000 0.0000
# 5 0.0000 0.0000 0.0000 0.0000 34.6759 0.0000
# 6 0.0000 0.0000 0.0000 0.0000 0.0000 14.9027
#
#
#
# Elastic Compliance Matrix: (Units=1/GPa)
#
#
# Indices 1 2 3 4 5 6 
#
# 1 0.008741 -0.003525 -0.003451 0.000000 0.000000 0.000000
# 2 -0.003525 0.012629 -0.005019 0.000000 0.000000 0.000000
# 3 -0.003451 -0.005019 0.016976 0.000000 0.000000 0.000000
# 4 0.000000 0.000000 0.000000 0.029967 0.000000 0.000000
# 5 0.000000 0.000000 0.000000 0.000000 0.028838 0.000000
# 6 0.000000 0.000000 0.000000 0.000000 0.000000 0.067102
#
#
# Mechanical properties :
#
#
# Convention : Reuss Voigt Hill
#
# Bulk Modulus (GPa) = 69.65660 77.14600 73.40130
# Shear Modulus (GPa) = 25.90299 29.64436 27.77368
#
# Velocity S-wave (km/s) = 3.82087 4.08750 3.95643
# Velocity P-wave (km/s) = 7.66317 8.10905 7.88926
#
# Compressibility (1/GPa) = 0.01435614
#
# Stress axis : x y z
#
# Youngs Moduli (GPa) = 114.40908 79.18075 58.90746
#
# Poissons Ratio (x) = 0.27909 0.20331
# Poissons Ratio (y) = 0.40326 0.29564
# Poissons Ratio (z) = 0.39487 0.39738
#
# Static dielectric constant tensor:
#      x y z
#    x 1.600120 0.000000 0.000000 
#    y 0.000000 1.590060 0.000000 
#    z 0.000000 0.000000 1.593400 
# 
# From -- ./inp_files/2059.got.cif
#   From: 2010.05.17/outbox.cif.g08.bks.cpg/sg57_2_cif.got.tgz:2059.got - 2010.06.03 13:58:18.
