data_PCOD9437920
_publ_section_title
;
Structure prediction by ZEFSAII (Michael W. Deem and Ramdas Pophale) SiO2 
 PCOD9437920
Probable space group: P B C M
;
_chemical_formula_sum "Si O2"
_cell_formula_units_Z 52
_cell_length_a 22.011014
_cell_length_b 8.546699
_cell_length_c 14.039436
_cell_angle_alpha 90.000000
_cell_angle_beta 90.000000
_cell_angle_gamma 90.000000
_cell_volume 2641.119919
_symmetry_space_group_name_H-M "P B C M"
_symmetry_group_IT_number 57
_symmetry_cell_setting 'orthorhombic'
loop_
_space_group_symop_operation_xyz
x,y,z
-x,-y,1/2+z
x,1/2-y,-z
-x,1/2+y,1/2-z
-x,-y,-z
x,y,1/2-z
-x,1/2+y,z
x,1/2-y,1/2+z
loop_
_atom_site_type_symbol
_atom_site_label
_atom_site_fract_x
_atom_site_fract_y
_atom_site_fract_z
Si Si1 0.158003 0.250000 0.000000
Si Si2 0.459393 0.934212 0.362104
Si Si3 0.647904 0.929759 0.973279
Si Si4 0.125781 0.704192 0.638747
Si Si5 0.928256 0.014992 0.012848
Si Si6 0.768357 0.986553 0.636147
Si Si7 0.586882 0.416548 0.638160
O O1 0.110425 0.368289 0.048957
O O2 0.198802 0.149642 0.073414
O O3 0.450735 0.962411 0.250000
O O4 0.438045 0.757481 0.382519
O O5 0.415814 0.049459 0.419038
O O6 0.529960 0.967652 0.380527
O O7 0.700572 0.992378 0.904471
O O8 0.658950 0.750000 0.000000
O O9 0.640714 0.031769 0.069113
O O10 0.116816 0.726412 0.750000
O O11 0.092215 0.553771 0.595078
O O12 0.195595 0.651161 0.621304
O O13 0.096530 0.846302 0.580307
O O14 0.000000 0.000000 0.000000
O O15 0.770055 0.954418 0.750000
O O16 0.602627 0.424610 0.750000
#
# Coordination Sequence:
#
# PCOD9437920 Si02
#       7
#     4   8   8   8   8   8   8
#     4  10  20  40  60  90 126 162 202 248 310 358
#     4  10  21  40  63  89 123 161 202 264 322 380
#     4  12  23  38  60  89 122 165 210 259 318 376
#     4   9  20  39  61  87 123 166 205 248 304 360
#     4  10  20  37  64  95 129 159 200 253 305 365
#     4  10  22  42  61  84 121 168 215 259 306 366
#     4  10  22  40  62  90 122 158 208 261 324 385
#
# _framework density 19.688617000000001
#
# number of rings (size 3 to 8) (size 9 to 14) (size 15 to 20)
#    0.000    1.846    0.769    3.231    0.000    3.692 
#   11.077    3.077    0.000    0.000    0.000    0.000 
#    0.000    0.000    0.000    0.000    0.000    0.000 
#
# Total GULP energy -289895.506109 kJ/mol
# GULP energy per Si atom -5574.913579 kJ/mol
# Density = 1.964380 g / cm^3
# Si number density = 19.688617 Si / 1000 Ang^3
#
#
#
# Elastic Constant Matrix: (Units=GPa)
#
#
# Indices 1 2 3 4 5 6 
#
# 1 52.4187 22.6781 60.8754 0.0000 0.0000 0.0000
# 2 22.6781 56.4746 30.1580 0.0000 0.0000 0.0000
# 3 60.8754 30.1580 114.4350 0.0000 0.0000 0.0000
# 4 0.0000 0.0000 0.0000 24.8193 0.0000 0.0000
# 5 0.0000 0.0000 0.0000 0.0000 23.7499 0.0000
# 6 0.0000 0.0000 0.0000 0.0000 0.0000 -157.9789
#
#
#
# Elastic Compliance Matrix: (Units=1/GPa)
#
#
# Indices 1 2 3 4 5 6 
#
# 1 0.052280 -0.007148 -0.025927 0.000000 0.000000 0.000000
# 2 -0.007148 0.021585 -0.001886 0.000000 0.000000 0.000000
# 3 -0.025927 -0.001886 0.023028 0.000000 0.000000 0.000000
# 4 0.000000 0.000000 0.000000 0.040291 0.000000 0.000000
# 5 0.000000 0.000000 0.000000 0.000000 0.042105 0.000000
# 6 0.000000 0.000000 0.000000 0.000000 0.000000 -0.006330
#
#
# Mechanical properties :
#
#
# Convention : Reuss Voigt Hill
#
# Bulk Modulus (GPa) = 37.07842 50.08349 43.58096
# Shear Modulus (GPa) = 19.85145 -14.57416 2.63864
#
# Velocity S-wave (km/s) = 3.17877 -2.72367 1.15892
# Velocity P-wave (km/s) = 5.68736 3.94991 4.89632
#
# Compressibility (1/GPa) = 0.02696986
#
# Stress axis : x y z
#
# Youngs Moduli (GPa) = 19.12793 46.32943 43.42571
#
# Poissons Ratio (x) = 0.33117 1.12590
# Poissons Ratio (y) = 0.13673 0.08189
# Poissons Ratio (z) = 0.49593 0.08737
#
# Static dielectric constant tensor:
#      x y z
#    x 1.721860 0.000000 0.000000 
#    y 0.000000 1.738080 0.000000 
#    z 0.000000 0.000000 1.697890 
# 
# From -- ./inp_files/19282.got.cif
#   From: 2010.05.17/outbox.cif.g08.bks.cpg/sg57_10_cif.got.tgz:19282.got - 2010.06.03 13:58:18.
