data_PCOD9437559
_publ_section_title
;
Structure prediction by ZEFSAII (Michael W. Deem and Ramdas Pophale) SiO2 
 PCOD9437559
Probable space group: P B C M
;
_chemical_formula_sum "Si O2"
_cell_formula_units_Z 60
_cell_length_a 17.373602
_cell_length_b 18.029997
_cell_length_c 9.233971
_cell_angle_alpha 90.000000
_cell_angle_beta 90.000000
_cell_angle_gamma 90.000000
_cell_volume 2892.504405
_symmetry_space_group_name_H-M "P B C M"
_symmetry_group_IT_number 57
_symmetry_cell_setting 'orthorhombic'
loop_
_space_group_symop_operation_xyz
x,y,z
-x,-y,1/2+z
x,1/2-y,-z
-x,1/2+y,1/2-z
-x,-y,-z
x,y,1/2-z
-x,1/2+y,z
x,1/2-y,1/2+z
loop_
_atom_site_type_symbol
_atom_site_label
_atom_site_fract_x
_atom_site_fract_y
_atom_site_fract_z
Si Si1 0.804552 0.672473 0.073694
Si Si2 0.214226 0.672561 0.921567
Si Si3 0.913953 0.060097 0.517894
Si Si4 0.668435 0.567717 0.075588
Si Si5 0.376765 0.902837 0.421877
Si Si6 0.034842 0.318133 0.413405
Si Si7 0.976620 0.973623 0.750000
Si Si8 0.478289 0.170259 0.075972
O O1 0.806468 0.677695 0.250000
O O2 0.747132 0.606963 0.027468
O O3 0.776923 0.750000 0.000000
O O4 0.889756 0.663576 0.006724
O O5 0.195034 0.676613 0.750000
O O6 0.163773 0.606422 0.989967
O O7 0.303611 0.651264 0.934759
O O8 0.198412 0.750000 0.000000
O O9 0.975416 0.115333 0.595033
O O10 0.956919 0.039963 0.372878
O O11 0.911713 0.990849 0.624042
O O12 0.673893 0.563202 0.250000
O O13 0.649936 0.484474 0.026738
O O14 0.597354 0.621822 0.041718
O O15 0.397067 0.907069 0.250000
O O16 0.447802 0.872369 0.512959
O O17 0.996979 0.250000 0.500000
O O18 0.056258 0.296247 0.250000
O O19 0.483859 0.178355 0.250000
O O20 0.473481 0.250000 0.000000
#
# Coordination Sequence:
#
# PCOD9437559 Si02
#       8
#     8   8   8   8   8   8   4   8
#     4  10  20  36  58  87 122 161 205 251 308 372
#     4  11  24  42  66  91 124 168 218 266 317 376
#     4  11  23  43  61  92 120 162 207 257 310 380
#     4   9  20  38  62  92 122 165 205 252 311 381
#     4  10  22  42  63  92 126 163 208 261 315 372
#     4  11  22  37  58  85 117 154 203 255 305 363
#     4  10  24  40  62  86 122 154 196 254 314 368
#     4  11  22  39  64  93 126 163 207 254 309 375
#
# _framework density 20.743269000000002
#
# number of rings (size 3 to 8) (size 9 to 14) (size 15 to 20)
#    0.000    1.600    1.333    3.600    2.800    3.733 
#    2.400    4.000    0.000    0.000    0.000    0.000 
#    0.000    0.000    0.000    0.000    0.000    0.000 
#
# Total GULP energy -334207.670183 kJ/mol
# GULP energy per Si atom -5570.127836 kJ/mol
# Density = 2.069606 g / cm^3
# Si number density = 20.743269 Si / 1000 Ang^3
#
#
#
# Elastic Constant Matrix: (Units=GPa)
#
#
# Indices 1 2 3 4 5 6 
#
# 1 65.2013 5.4530 15.0178 0.0000 0.0000 0.0000
# 2 5.4530 75.4145 26.2055 0.0000 0.0000 0.0000
# 3 15.0178 26.2055 98.4107 0.0000 0.0000 0.0000
# 4 0.0000 0.0000 0.0000 35.5329 0.0000 0.0000
# 5 0.0000 0.0000 0.0000 0.0000 18.0900 0.0000
# 6 0.0000 0.0000 0.0000 0.0000 0.0000 34.2302
#
#
#
# Elastic Compliance Matrix: (Units=1/GPa)
#
#
# Indices 1 2 3 4 5 6 
#
# 1 0.015904 -0.000338 -0.002337 0.000000 0.000000 0.000000
# 2 -0.000338 0.014619 -0.003841 0.000000 0.000000 0.000000
# 3 -0.002337 -0.003841 0.011541 0.000000 0.000000 0.000000
# 4 0.000000 0.000000 0.000000 0.028143 0.000000 0.000000
# 5 0.000000 0.000000 0.000000 0.000000 0.055279 0.000000
# 6 0.000000 0.000000 0.000000 0.000000 0.000000 0.029214
#
#
# Mechanical properties :
#
#
# Convention : Reuss Voigt Hill
#
# Bulk Modulus (GPa) = 34.44529 36.93100 35.68814
# Shear Modulus (GPa) = 28.18336 30.39396 29.28866
#
# Velocity S-wave (km/s) = 3.69002 3.83200 3.76168
# Velocity P-wave (km/s) = 5.89886 6.11731 6.00908
#
# Compressibility (1/GPa) = 0.02903155
#
# Stress axis : x y z
#
# Youngs Moduli (GPa) = 62.87867 68.40267 86.64737
#
# Poissons Ratio (x) = 0.02311 0.20249
# Poissons Ratio (y) = 0.02125 0.33284
# Poissons Ratio (z) = 0.14695 0.26276
#
# Static dielectric constant tensor:
#      x y z
#    x 1.712730 0.000000 0.000000 
#    y 0.000000 1.858300 0.000000 
#    z 0.000000 0.000000 1.709350 
# 
# From -- ./inp_files/6897.got.cif
#   From: 2010.05.17/outbox.cif.g08.bks.cpg/sg57_4_cif.got.tgz:6897.got - 2010.06.03 13:58:18.
