data_PCOD9437499
_publ_section_title
;
Structure prediction by ZEFSAII (Michael W. Deem and Ramdas Pophale) SiO2 
 PCOD9437499
Probable space group: P B C M
;
_chemical_formula_sum "Si O2"
_cell_formula_units_Z 60
_cell_length_a 18.801365
_cell_length_b 18.316366
_cell_length_c 9.336640
_cell_angle_alpha 90.000000
_cell_angle_beta 90.000000
_cell_angle_gamma 90.000000
_cell_volume 3215.283764
_symmetry_space_group_name_H-M "P B C M"
_symmetry_group_IT_number 57
_symmetry_cell_setting 'orthorhombic'
loop_
_space_group_symop_operation_xyz
x,y,z
-x,-y,1/2+z
x,1/2-y,-z
-x,1/2+y,1/2-z
-x,-y,-z
x,y,1/2-z
-x,1/2+y,z
x,1/2-y,1/2+z
loop_
_atom_site_type_symbol
_atom_site_label
_atom_site_fract_x
_atom_site_fract_y
_atom_site_fract_z
Si Si1 0.444398 0.587019 0.476393
Si Si2 0.304279 0.674676 0.078916
Si Si3 0.071373 0.022523 0.080725
Si Si4 0.203948 0.960688 0.917405
Si Si5 0.585024 0.824701 0.585938
Si Si6 0.855066 0.677413 0.421425
Si Si7 0.478442 0.477412 0.250000
Si Si8 0.281647 0.111786 0.579287
O O1 0.377673 0.640178 0.478087
O O2 0.512707 0.629143 0.411213
O O3 0.430742 0.518517 0.374010
O O4 0.470658 0.558380 0.626984
O O5 0.311519 0.685050 0.250000
O O6 0.242998 0.615034 0.053952
O O7 0.289499 0.750000 0.000000
O O8 0.064174 0.010598 0.250000
O O9 0.093692 0.107449 0.058816
O O10 0.136753 0.976404 0.016569
O O11 0.000000 0.000000 0.000000
O O12 0.182115 0.963285 0.750000
O O13 0.258942 0.027649 0.938483
O O14 0.572482 0.750000 0.500000
O O15 0.607514 0.810575 0.750000
O O16 0.645501 0.867752 0.499109
O O17 0.882542 0.750000 0.500000
O O18 0.844555 0.687980 0.250000
O O19 0.781040 0.657251 0.501199
O O20 0.285859 0.127696 0.750000
#
# Coordination Sequence:
#
# PCOD9437499 Si02
#       8
#     8   8   8   8   8   8   4   8
#     4  11  24  41  61  85 115 149 200 254 314 364
#     4  11  24  42  62  87 121 161 207 258 311 370
#     4  10  21  39  64  94 125 156 194 241 288 348
#     4   9  21  39  63  89 116 153 195 240 289 350
#     4  12  25  38  54  79 114 152 192 241 296 353
#     4  10  20  36  57  87 122 156 194 235 286 350
#     4  10  24  40  62  88 110 146 196 262 310 366
#     4  10  21  36  59  83 114 153 193 241 294 350
#
# _framework density 18.660872000000001
#
# number of rings (size 3 to 8) (size 9 to 14) (size 15 to 20)
#    0.000    1.600    1.333    2.400    6.533    2.667 
#    0.000    0.667    0.000    0.000    0.000    0.000 
#    0.000    0.000    0.000    0.000    0.000    0.000 
#
# Total GULP energy -334238.366699 kJ/mol
# GULP energy per Si atom -5570.639445 kJ/mol
# Density = 1.861840 g / cm^3
# Si number density = 18.660872 Si / 1000 Ang^3
#
#
#
# Elastic Constant Matrix: (Units=GPa)
#
#
# Indices 1 2 3 4 5 6 
#
# 1 92.6755 30.1692 37.9750 0.0000 0.0000 0.0000
# 2 30.1692 86.0345 52.6988 0.0000 0.0000 0.0000
# 3 37.9750 52.6988 120.0439 0.0000 0.0000 0.0000
# 4 0.0000 0.0000 0.0000 111.9929 0.0000 0.0000
# 5 0.0000 0.0000 0.0000 0.0000 187.8556 0.0000
# 6 0.0000 0.0000 0.0000 0.0000 0.0000 17.0371
#
#
#
# Elastic Compliance Matrix: (Units=1/GPa)
#
#
# Indices 1 2 3 4 5 6 
#
# 1 0.012859 -0.002760 -0.002856 0.000000 0.000000 0.000000
# 2 -0.002760 0.016490 -0.006366 0.000000 0.000000 0.000000
# 3 -0.002856 -0.006366 0.012029 0.000000 0.000000 0.000000
# 4 0.000000 0.000000 0.000000 0.008929 0.000000 0.000000
# 5 0.000000 0.000000 0.000000 0.000000 0.005323 0.000000
# 6 0.000000 0.000000 0.000000 0.000000 0.000000 0.058696
#
#
# Mechanical properties :
#
#
# Convention : Reuss Voigt Hill
#
# Bulk Modulus (GPa) = 57.42611 60.04886 58.73749
# Shear Modulus (GPa) = 34.69925 75.23783 54.96854
#
# Velocity S-wave (km/s) = 4.31683 6.35657 5.43328
# Velocity P-wave (km/s) = 7.46238 9.28028 8.42053
#
# Compressibility (1/GPa) = 0.01741368
#
# Stress axis : x y z
#
# Youngs Moduli (GPa) = 77.76562 60.64116 83.13476
#
# Poissons Ratio (x) = 0.16734 0.23747
# Poissons Ratio (y) = 0.21460 0.52926
# Poissons Ratio (z) = 0.22213 0.38606
#
# Static dielectric constant tensor:
#      x y z
#    x 1.623640 0.000000 0.000000 
#    y 0.000000 1.674990 0.000000 
#    z 0.000000 0.000000 1.632270 
# 
# From -- ./inp_files/6948.got.cif
#   From: 2010.05.17/outbox.cif.g08.bks.cpg/sg57_4_cif.got.tgz:6948.got - 2010.06.03 13:58:18.
