data_PCOD9437997
_publ_section_title
;
Structure prediction by ZEFSAII (Michael W. Deem and Ramdas Pophale) SiO2 
 PCOD9437997
Probable space group: P B C M
;
_chemical_formula_sum "Si O2"
_cell_formula_units_Z 48
_cell_length_a 31.071455
_cell_length_b 9.619768
_cell_length_c 8.589950
_cell_angle_alpha 90.000000
_cell_angle_beta 90.000000
_cell_angle_gamma 90.000000
_cell_volume 2567.537674
_symmetry_space_group_name_H-M "P B C M"
_symmetry_group_IT_number 57
_symmetry_cell_setting 'orthorhombic'
loop_
_space_group_symop_operation_xyz
x,y,z
-x,-y,1/2+z
x,1/2-y,-z
-x,1/2+y,1/2-z
-x,-y,-z
x,y,1/2-z
-x,1/2+y,z
x,1/2-y,1/2+z
loop_
_atom_site_type_symbol
_atom_site_label
_atom_site_fract_x
_atom_site_fract_y
_atom_site_fract_z
Si Si1 0.616954 0.098126 0.437204
Si Si2 0.461186 0.405966 0.437227
Si Si3 0.131547 0.906282 0.563536
Si Si4 0.283781 0.903418 0.937468
Si Si5 0.791267 0.593949 0.436024
Si Si6 0.038371 0.905958 0.436530
O O1 0.604352 0.250000 0.500000
O O2 0.616110 0.104698 0.250000
O O3 0.666418 0.070711 0.483674
O O4 0.583266 0.981034 0.487035
O O5 0.464089 0.250000 0.500000
O O6 0.500000 0.500000 0.500000
O O7 0.462782 0.403347 0.250000
O O8 0.138986 0.750000 0.500000
O O9 0.130845 0.902191 0.750000
O O10 0.084952 0.952760 0.499986
O O11 0.168769 0.006865 0.503757
O O12 0.280685 0.904357 0.750000
O O13 0.272176 0.750000 0.000000
O O14 0.251802 0.015881 0.008061
O O15 0.792132 0.750000 0.500000
O O16 0.793351 0.594641 0.250000
O O17 0.032313 0.750000 0.500000
O O18 0.038922 0.905311 0.250000
O O19 0.000000 0.000000 0.500000
#
# Coordination Sequence:
#
# PCOD9437997 Si02
#       6
#     8   8   8   8   8   8
#     4   9  20  37  59  85 115 148 189 234 283 337
#     4  11  23  39  58  84 115 152 192 237 287 342
#     4  11  22  40  63  88 116 153 195 238 285 342
#     4  10  20  38  61  87 116 152 192 234 281 339
#     4  12  25  41  59  85 117 152 191 239 291 343
#     4  11  22  39  61  89 120 155 195 240 289 343
#
# _framework density 18.694953999999999
#
# number of rings (size 3 to 8) (size 9 to 14) (size 15 to 20)
#    0.000    1.333    0.000    7.500    0.000    4.667 
#    0.000    5.000    0.000    0.000    0.000    0.000 
#    0.000    0.000    0.000    0.000    0.000    0.000 
#
# Total GULP energy -268426.316623 kJ/mol
# GULP energy per Si atom -5592.214930 kJ/mol
# Density = 1.865240 g / cm^3
# Si number density = 18.694954 Si / 1000 Ang^3
#
#
#
# Elastic Constant Matrix: (Units=GPa)
#
#
# Indices 1 2 3 4 5 6 
#
# 1 137.3581 114.1406 60.2974 0.0000 0.0000 0.0000
# 2 114.1406 151.6080 60.2565 0.0000 0.0000 0.0000
# 3 60.2974 60.2565 147.3950 0.0000 0.0000 0.0000
# 4 0.0000 0.0000 0.0000 37.9436 0.0000 0.0000
# 5 0.0000 0.0000 0.0000 0.0000 30.6427 0.0000
# 6 0.0000 0.0000 0.0000 0.0000 0.0000 40.3376
#
#
#
# Elastic Compliance Matrix: (Units=1/GPa)
#
#
# Indices 1 2 3 4 5 6 
#
# 1 0.020153 -0.014204 -0.002438 0.000000 0.000000 0.000000
# 2 -0.014204 0.017886 -0.001501 0.000000 0.000000 0.000000
# 3 -0.002438 -0.001501 0.008396 0.000000 0.000000 0.000000
# 4 0.000000 0.000000 0.000000 0.026355 0.000000 0.000000
# 5 0.000000 0.000000 0.000000 0.000000 0.032634 0.000000
# 6 0.000000 0.000000 0.000000 0.000000 0.000000 0.024791
#
#
# Mechanical properties :
#
#
# Convention : Reuss Voigt Hill
#
# Bulk Modulus (GPa) = 98.53224 100.63890 99.58557
# Shear Modulus (GPa) = 29.43167 35.22921 32.33044
#
# Velocity S-wave (km/s) = 3.97206 4.34570 4.16308
# Velocity P-wave (km/s) = 8.59395 8.89546 8.74601
#
# Compressibility (1/GPa) = 0.01014896
#
# Stress axis : x y z
#
# Youngs Moduli (GPa) = 49.61918 55.90826 119.11029
#
# Poissons Ratio (x) = 0.79412 0.29037
# Poissons Ratio (y) = 0.70479 0.17884
# Poissons Ratio (z) = 0.12096 0.08395
#
# Static dielectric constant tensor:
#      x y z
#    x 1.646740 0.000000 0.000000 
#    y 0.000000 1.577610 0.000000 
#    z 0.000000 0.000000 1.626230 
# 
# From -- ./inp_files/9986.got.cif
#   From: 2010.05.17/outbox.cif.g08.bks.cpg/sg57_5_cif.got.tgz:9986.got - 2010.06.03 13:58:18.
