data_PCOD9437698
_publ_section_title
;
Structure prediction by ZEFSAII (Michael W. Deem and Ramdas Pophale) SiO2 
 PCOD9437698
Probable space group: P B C M
;
_chemical_formula_sum "Si O2"
_cell_formula_units_Z 32
_cell_length_a 19.490500
_cell_length_b 8.564058
_cell_length_c 9.314782
_cell_angle_alpha 90.000000
_cell_angle_beta 90.000000
_cell_angle_gamma 90.000000
_cell_volume 1554.802662
_symmetry_space_group_name_H-M "P B C M"
_symmetry_group_IT_number 57
_symmetry_cell_setting 'orthorhombic'
loop_
_space_group_symop_operation_xyz
x,y,z
-x,-y,1/2+z
x,1/2-y,-z
-x,1/2+y,1/2-z
-x,-y,-z
x,y,1/2-z
-x,1/2+y,z
x,1/2-y,1/2+z
loop_
_atom_site_type_symbol
_atom_site_label
_atom_site_fract_x
_atom_site_fract_y
_atom_site_fract_z
Si Si1 0.804965 0.085593 0.083842
Si Si2 0.403064 0.076547 0.250000
Si Si3 0.934463 0.421408 0.074113
Si Si4 0.549463 0.567712 0.750000
Si Si5 0.347289 0.563698 0.025323
O O1 0.827547 0.105980 0.250000
O O2 0.796129 0.250000 0.000000
O O3 0.863934 0.002861 0.989058
O O4 0.727509 0.021892 0.087185
O O5 0.432229 0.250395 0.250000
O O6 0.468971 0.962512 0.250000
O O7 0.356442 0.035313 0.116589
O O8 0.936621 0.419699 0.250000
O O9 0.933967 0.250000 0.000000
O O10 0.000000 0.500000 0.000000
O O11 0.587536 0.485723 0.618225
O O12 0.350859 0.750000 0.000000
#
# Coordination Sequence:
#
# PCOD9437698 Si02
#       5
#     8   4   8   4   8
#     4  10  20  36  63  93 125 162 214 264 317 384
#     4  12  26  40  68  86 131 164 211 266 327 390
#     4  11  22  39  65  96 133 172 220 266 321 382
#     4  12  24  46  60  96 123 168 209 264 327 390
#     4  11  23  40  66  94 124 163 215 265 322 387
#
# _framework density 20.581389999999999
#
# number of rings (size 3 to 8) (size 9 to 14) (size 15 to 20)
#    0.000    1.000    1.250    8.250    7.000    0.000 
#    0.000    2.500    0.000    0.000    0.000    0.000 
#    0.000    0.000    0.000    0.000    0.000    0.000 
#
# Total GULP energy -178435.961584 kJ/mol
# GULP energy per Si atom -5576.123799 kJ/mol
# Density = 2.053455 g / cm^3
# Si number density = 20.581390 Si / 1000 Ang^3
#
#
#
# Elastic Constant Matrix: (Units=GPa)
#
#
# Indices 1 2 3 4 5 6 
#
# 1 112.5873 14.8780 41.3983 0.0000 0.0000 0.0000
# 2 14.8780 72.7790 10.9897 0.0000 0.0000 0.0000
# 3 41.3983 10.9897 186.4351 0.0000 0.0000 0.0000
# 4 0.0000 0.0000 0.0000 25.8370 0.0000 0.0000
# 5 0.0000 0.0000 0.0000 0.0000 43.7114 0.0000
# 6 0.0000 0.0000 0.0000 0.0000 0.0000 -40.2276
#
#
#
# Elastic Compliance Matrix: (Units=1/GPa)
#
#
# Indices 1 2 3 4 5 6 
#
# 1 0.009877 -0.001703 -0.002093 0.000000 0.000000 0.000000
# 2 -0.001703 0.014157 -0.000456 0.000000 0.000000 0.000000
# 3 -0.002093 -0.000456 0.005855 0.000000 0.000000 0.000000
# 4 0.000000 0.000000 0.000000 0.038704 0.000000 0.000000
# 5 0.000000 0.000000 0.000000 0.000000 0.022877 0.000000
# 6 0.000000 0.000000 0.000000 0.000000 0.000000 -0.024859
#
#
# Mechanical properties :
#
#
# Convention : Reuss Voigt Hill
#
# Bulk Modulus (GPa) = 46.76175 56.25926 51.51051
# Shear Modulus (GPa) = 60.79417 26.16653 43.48035
#
# Velocity S-wave (km/s) = 5.44082 3.56949 4.60129
# Velocity P-wave (km/s) = 7.88922 6.66204 7.30146
#
# Compressibility (1/GPa) = 0.02138500
#
# Stress axis : x y z
#
# Youngs Moduli (GPa) = 101.25011 70.63498 170.78288
#
# Poissons Ratio (x) = 0.12029 0.35740
# Poissons Ratio (y) = 0.17243 0.07794
# Poissons Ratio (z) = 0.21189 0.03223
#
# Static dielectric constant tensor:
#      x y z
#    x 1.788280 0.000000 0.000000 
#    y 0.000000 1.753090 0.000000 
#    z 0.000000 0.000000 2.083410 
# 
# From -- ./inp_files/7554.got.cif
#   From: 2010.05.17/outbox.cif.g08.bks.cpg/sg57_4_cif.got.tgz:7554.got - 2010.06.03 13:58:18.
