data_PCOD9437401
_publ_section_title
;
Structure prediction by ZEFSAII (Michael W. Deem and Ramdas Pophale) SiO2 
 PCOD9437401
Probable space group: P B C M
;
_chemical_formula_sum "Si O2"
_cell_formula_units_Z 48
_cell_length_a 31.747214
_cell_length_b 9.385251
_cell_length_c 8.569932
_cell_angle_alpha 90.000000
_cell_angle_beta 90.000000
_cell_angle_gamma 90.000000
_cell_volume 2553.458991
_symmetry_space_group_name_H-M "P B C M"
_symmetry_group_IT_number 57
_symmetry_cell_setting 'orthorhombic'
loop_
_space_group_symop_operation_xyz
x,y,z
-x,-y,1/2+z
x,1/2-y,-z
-x,1/2+y,1/2-z
-x,-y,-z
x,y,1/2-z
-x,1/2+y,z
x,1/2-y,1/2+z
loop_
_atom_site_type_symbol
_atom_site_label
_atom_site_fract_x
_atom_site_fract_y
_atom_site_fract_z
Si Si1 0.460227 0.588609 0.936892
Si Si2 0.960832 0.911216 0.436405
Si Si3 0.791772 0.408621 0.437737
Si Si4 0.128034 0.089665 0.062182
Si Si5 0.618880 0.589270 0.936582
Si Si6 0.696549 0.411257 0.061862
O O1 0.461124 0.591528 0.750000
O O2 0.461142 0.750000 0.000000
O O3 0.500000 0.500000 0.000000
O O4 0.418545 0.507503 0.994896
O O5 0.963988 0.750000 0.500000
O O6 0.960887 0.909174 0.250000
O O7 0.915978 0.970446 0.496903
O O8 0.000000 0.000000 0.500000
O O9 0.797793 0.250000 0.500000
O O10 0.792527 0.405794 0.250000
O O11 0.830454 0.505614 0.490327
O O12 0.744405 0.454315 0.482926
O O13 0.126053 0.090378 0.250000
O O14 0.131143 0.250000 0.000000
O O15 0.616065 0.590858 0.750000
O O16 0.615544 0.750000 0.000000
O O17 0.662421 0.516925 0.990325
O O18 0.692997 0.410721 0.250000
O O19 0.689725 0.250000 0.000000
#
# Coordination Sequence:
#
# PCOD9437401 Si02
#       6
#     8   8   8   8   8   8
#     4  12  25  44  67  94 125 161 200 244 293 348
#     4  11  22  38  58  82 110 145 185 231 281 337
#     4   9  20  36  57  83 114 148 189 234 282 337
#     4  10  20  36  55  80 111 146 185 230 280 338
#     4  12  25  42  62  89 121 158 199 245 294 347
#     4  10  20  38  60  86 117 154 195 240 289 343
#
# _framework density 18.798031999999999
#
# number of rings (size 3 to 8) (size 9 to 14) (size 15 to 20)
#    0.000    1.333    0.000    7.500    0.000    3.333 
#    0.000    3.333    0.000    0.000    0.000    0.000 
#    0.000    0.000    0.000    0.000    0.000    0.000 
#
# Total GULP energy -268334.724465 kJ/mol
# GULP energy per Si atom -5590.306760 kJ/mol
# Density = 1.875525 g / cm^3
# Si number density = 18.798032 Si / 1000 Ang^3
#
#
#
# Elastic Constant Matrix: (Units=GPa)
#
#
# Indices 1 2 3 4 5 6 
#
# 1 199.0116 110.5057 71.9604 0.0000 0.0000 0.0000
# 2 110.5057 124.2464 57.1270 0.0000 0.0000 0.0000
# 3 71.9604 57.1270 148.0036 0.0000 0.0000 0.0000
# 4 0.0000 0.0000 0.0000 36.1470 0.0000 0.0000
# 5 0.0000 0.0000 0.0000 0.0000 32.9681 0.0000
# 6 0.0000 0.0000 0.0000 0.0000 0.0000 37.4409
#
#
#
# Elastic Compliance Matrix: (Units=1/GPa)
#
#
# Indices 1 2 3 4 5 6 
#
# 1 0.010304 -0.008341 -0.001790 0.000000 0.000000 0.000000
# 2 -0.008341 0.016537 -0.002328 0.000000 0.000000 0.000000
# 3 -0.001790 -0.002328 0.008525 0.000000 0.000000 0.000000
# 4 0.000000 0.000000 0.000000 0.027665 0.000000 0.000000
# 5 0.000000 0.000000 0.000000 0.000000 0.030332 0.000000
# 6 0.000000 0.000000 0.000000 0.000000 0.000000 0.026709
#
#
# Mechanical properties :
#
#
# Convention : Reuss Voigt Hill
#
# Bulk Modulus (GPa) = 95.70649 105.60530 100.65590
# Shear Modulus (GPa) = 33.67609 36.75579 35.21594
#
# Velocity S-wave (km/s) = 4.23717 4.42667 4.33296
# Velocity P-wave (km/s) = 8.65804 9.07899 8.87101
#
# Compressibility (1/GPa) = 0.01044861
#
# Stress axis : x y z
#
# Youngs Moduli (GPa) = 97.05215 60.46906 117.29592
#
# Poissons Ratio (x) = 0.50438 0.20999
# Poissons Ratio (y) = 0.80952 0.27302
# Poissons Ratio (z) = 0.17374 0.14075
#
# Static dielectric constant tensor:
#      x y z
#    x 1.662030 0.000000 0.000000 
#    y 0.000000 1.600830 0.000000 
#    z 0.000000 0.000000 1.631510 
# 
# From -- ./inp_files/10000.got.cif
#   From: 2010.05.17/outbox.cif.g08.bks.cpg/sg57_5_cif.got.tgz:10000.got - 2010.06.03 13:58:18.
