data_PCOD9437665
_publ_section_title
;
Structure prediction by ZEFSAII (Michael W. Deem and Ramdas Pophale) SiO2 
 PCOD9437665
Probable space group: P B C M
;
_chemical_formula_sum "Si O2"
_cell_formula_units_Z 56
_cell_length_a 14.994417
_cell_length_b 22.932320
_cell_length_c 8.962978
_cell_angle_alpha 90.000000
_cell_angle_beta 90.000000
_cell_angle_gamma 90.000000
_cell_volume 3081.980654
_symmetry_space_group_name_H-M "P B C M"
_symmetry_group_IT_number 57
_symmetry_cell_setting 'orthorhombic'
loop_
_space_group_symop_operation_xyz
x,y,z
-x,-y,1/2+z
x,1/2-y,-z
-x,1/2+y,1/2-z
-x,-y,-z
x,y,1/2-z
-x,1/2+y,z
x,1/2-y,1/2+z
loop_
_atom_site_type_symbol
_atom_site_label
_atom_site_fract_x
_atom_site_fract_y
_atom_site_fract_z
Si Si1 0.617553 0.448444 0.573221
Si Si2 0.589197 0.927599 0.571818
Si Si3 0.878748 0.652675 0.927540
Si Si4 0.905121 0.984643 0.072888
Si Si5 0.304764 0.189537 0.071488
Si Si6 0.791318 0.084272 0.928551
Si Si7 0.922262 0.310508 0.429541
O O1 0.633198 0.448431 0.750000
O O2 0.623038 0.514760 0.512360
O O3 0.517189 0.425977 0.544806
O O4 0.692026 0.410502 0.491250
O O5 0.602811 0.935974 0.750000
O O6 0.638307 0.867883 0.527632
O O7 0.867421 0.663870 0.750000
O O8 0.882441 0.583063 0.949843
O O9 0.975519 0.676545 0.974744
O O10 0.796195 0.679190 0.015792
O O11 0.909536 0.995170 0.250000
O O12 0.832542 0.025786 0.997577
O O13 0.000000 0.000000 0.000000
O O14 0.306982 0.194183 0.250000
O O15 0.337675 0.250000 0.000000
O O16 0.790624 0.080344 0.750000
O O17 0.857066 0.136829 0.972746
O O18 0.892926 0.250000 0.500000
O O19 0.921414 0.307094 0.250000
#
# Coordination Sequence:
#
# PCOD9437665 Si02
#       7
#     8   8   8   8   8   8   8
#     4  10  20  36  61  90 114 143 185 233 284 341
#     4   9  20  39  60  84 116 148 182 228 286 345
#     4  10  21  38  56  80 113 148 187 231 277 332
#     4  11  21  35  56  84 116 149 186 231 281 333
#     4  11  23  38  57  83 113 151 191 234 283 338
#     4  11  22  38  56  81 116 150 186 231 279 333
#     4  10  22  39  55  74 105 146 189 232 274 323
#
# _framework density 18.170134000000001
#
# number of rings (size 3 to 8) (size 9 to 14) (size 15 to 20)
#    0.000    1.714    1.429    3.000    0.000    8.000 
#    0.000    0.714    0.000    3.429    0.000    0.000 
#    0.000    0.000    0.000    0.000    0.000    0.000 
#
# Total GULP energy -312889.204376 kJ/mol
# GULP energy per Si atom -5587.307221 kJ/mol
# Density = 1.812878 g / cm^3
# Si number density = 18.170134 Si / 1000 Ang^3
#
#
#
# Elastic Constant Matrix: (Units=GPa)
#
#
# Indices 1 2 3 4 5 6 
#
# 1 91.4189 49.9246 37.5781 0.0000 0.0000 0.0000
# 2 49.9246 90.3999 42.2681 0.0000 0.0000 0.0000
# 3 37.5781 42.2681 44.1045 0.0000 0.0000 0.0000
# 4 0.0000 0.0000 0.0000 30.1689 0.0000 0.0000
# 5 0.0000 0.0000 0.0000 0.0000 31.9782 0.0000
# 6 0.0000 0.0000 0.0000 0.0000 0.0000 11.8931
#
#
#
# Elastic Compliance Matrix: (Units=1/GPa)
#
#
# Indices 1 2 3 4 5 6 
#
# 1 0.018011 -0.005022 -0.010533 0.000000 0.000000 0.000000
# 2 -0.005022 0.021444 -0.016272 0.000000 0.000000 0.000000
# 3 -0.010533 -0.016272 0.047242 0.000000 0.000000 0.000000
# 4 0.000000 0.000000 0.000000 0.033147 0.000000 0.000000
# 5 0.000000 0.000000 0.000000 0.000000 0.031271 0.000000
# 6 0.000000 0.000000 0.000000 0.000000 0.000000 0.084083
#
#
# Mechanical properties :
#
#
# Convention : Reuss Voigt Hill
#
# Bulk Modulus (GPa) = 43.39699 53.94056 48.66878
# Shear Modulus (GPa) = 16.31155 21.21820 18.76487
#
# Velocity S-wave (km/s) = 2.99943 3.42095 3.21710
# Velocity P-wave (km/s) = 5.99425 6.73459 6.37517
#
# Compressibility (1/GPa) = 0.02304307
#
# Stress axis : x y z
#
# Youngs Moduli (GPa) = 55.52269 46.63390 21.16758
#
# Poissons Ratio (x) = 0.23419 0.22295
# Poissons Ratio (y) = 0.27883 0.34444
# Poissons Ratio (z) = 0.58481 0.75883
#
# Static dielectric constant tensor:
#      x y z
#    x 1.635720 0.000000 0.000000 
#    y 0.000000 1.589860 0.000000 
#    z 0.000000 0.000000 1.604190 
# 
# From -- ./inp_files/5134.got.cif
#   From: 2010.05.17/outbox.cif.g08.bks.cpg/sg57_3_cif.got.tgz:5134.got - 2010.06.03 13:58:18.
