data_PCOD9437970
_publ_section_title
;
Structure prediction by ZEFSAII (Michael W. Deem and Ramdas Pophale) SiO2 
 PCOD9437970
Probable space group: P B C M
;
_chemical_formula_sum "Si O2"
_cell_formula_units_Z 48
_cell_length_a 9.475465
_cell_length_b 16.827930
_cell_length_c 15.730935
_cell_angle_alpha 90.000000
_cell_angle_beta 90.000000
_cell_angle_gamma 90.000000
_cell_volume 2508.336311
_symmetry_space_group_name_H-M "P B C M"
_symmetry_group_IT_number 57
_symmetry_cell_setting 'orthorhombic'
loop_
_space_group_symop_operation_xyz
x,y,z
-x,-y,1/2+z
x,1/2-y,-z
-x,1/2+y,1/2-z
-x,-y,-z
x,y,1/2-z
-x,1/2+y,z
x,1/2-y,1/2+z
loop_
_atom_site_type_symbol
_atom_site_label
_atom_site_fract_x
_atom_site_fract_y
_atom_site_fract_z
Si Si1 0.275737 0.343814 0.999306
Si Si2 0.530014 0.898644 0.849752
Si Si3 0.541627 0.584717 0.849071
Si Si4 0.740774 0.304070 0.585402
Si Si5 0.227441 0.643614 0.843943
Si Si6 0.036028 0.592281 0.995636
O O1 0.348692 0.383638 0.081720
O O2 0.109175 0.359400 0.001797
O O3 0.305655 0.250000 0.000000
O O4 0.341809 0.382001 0.913996
O O5 0.560936 0.882959 0.750000
O O6 0.402354 0.843684 0.882714
O O7 0.481356 0.990221 0.857088
O O8 0.578689 0.602277 0.750000
O O9 0.389580 0.624553 0.867462
O O10 0.721435 0.250000 0.500000
O O11 0.791697 0.238259 0.651805
O O12 0.856278 0.371333 0.565084
O O13 0.206203 0.611632 0.750000
O O14 0.119583 0.605574 0.908509
O O15 0.000000 0.500000 0.000000
#
# Coordination Sequence:
#
# PCOD9437970 Si02
#       6
#     8   8   8   8   8   8
#     4  12  23  37  58  87 122 152 187 241 296 341
#     4  11  22  38  61  89 117 152 195 239 285 340
#     4  10  22  39  62  89 118 152 193 237 286 340
#     4  10  20  38  61  84 113 153 197 233 279 342
#     4  10  20  38  60  83 113 152 194 236 281 340
#     4  11  23  40  60  82 114 155 193 234 288 345
#
# _framework density 19.136191
#
# number of rings (size 3 to 8) (size 9 to 14) (size 15 to 20)
#    0.000    1.333    0.000    8.000    0.000    2.667 
#    0.000    5.000    0.000    0.000    0.000    0.000 
#    0.000    0.000    0.000    0.000    0.000    0.000 
#
# Total GULP energy -268185.495326 kJ/mol
# GULP energy per Si atom -5587.197819 kJ/mol
# Density = 1.909264 g / cm^3
# Si number density = 19.136191 Si / 1000 Ang^3
#
#
#
# Elastic Constant Matrix: (Units=GPa)
#
#
# Indices 1 2 3 4 5 6 
#
# 1 54.8780 -17.7752 31.7551 0.0000 0.0000 0.0000
# 2 -17.7752 70.7101 2.0359 0.0000 0.0000 0.0000
# 3 31.7551 2.0359 85.1804 0.0000 0.0000 0.0000
# 4 0.0000 0.0000 0.0000 12.5127 0.0000 0.0000
# 5 0.0000 0.0000 0.0000 0.0000 7.2288 0.0000
# 6 0.0000 0.0000 0.0000 0.0000 0.0000 32.0248
#
#
#
# Elastic Compliance Matrix: (Units=1/GPa)
#
#
# Indices 1 2 3 4 5 6 
#
# 1 0.026193 0.006870 -0.009929 0.000000 0.000000 0.000000
# 2 0.006870 0.015954 -0.002943 0.000000 0.000000 0.000000
# 3 -0.009929 -0.002943 0.015512 0.000000 0.000000 0.000000
# 4 0.000000 0.000000 0.000000 0.079919 0.000000 0.000000
# 5 0.000000 0.000000 0.000000 0.000000 0.138336 0.000000
# 6 0.000000 0.000000 0.000000 0.000000 0.000000 0.031226
#
#
# Mechanical properties :
#
#
# Convention : Reuss Voigt Hill
#
# Bulk Modulus (GPa) = 21.90283 26.97781 24.44032
# Shear Modulus (GPa) = 14.95390 23.33676 19.14533
#
# Velocity S-wave (km/s) = 2.79847 3.49594 3.16646
# Velocity P-wave (km/s) = 4.68108 5.51578 5.11548
#
# Compressibility (1/GPa) = 0.04565619
#
# Stress axis : x y z
#
# Youngs Moduli (GPa) = 38.17830 62.68008 64.46790
#
# Poissons Ratio (x) = -0.43063 0.64009
# Poissons Ratio (y) = -0.26230 0.18970
# Poissons Ratio (z) = 0.37907 0.18444
#
# Static dielectric constant tensor:
#      x y z
#    x 1.634070 0.000000 0.000000 
#    y 0.000000 1.677560 0.000000 
#    z 0.000000 0.000000 1.690260 
# 
# From -- ./inp_files/16368.got.cif
#   From: 2010.05.17/outbox.cif.g08.bks.cpg/sg57_9_cif.got.tgz:16368.got - 2010.06.03 13:58:18.
