data_PCOD9437161
_publ_section_title
;
Structure prediction by ZEFSAII (Michael W. Deem and Ramdas Pophale) SiO2 
 PCOD9437161
Probable space group: P B C M
;
_chemical_formula_sum "Si O2"
_cell_formula_units_Z 48
_cell_length_a 14.621446
_cell_length_b 8.398942
_cell_length_c 18.332261
_cell_angle_alpha 90.000000
_cell_angle_beta 90.000000
_cell_angle_gamma 90.000000
_cell_volume 2251.287389
_symmetry_space_group_name_H-M "P B C M"
_symmetry_group_IT_number 57
_symmetry_cell_setting 'orthorhombic'
loop_
_space_group_symop_operation_xyz
x,y,z
-x,-y,1/2+z
x,1/2-y,-z
-x,1/2+y,1/2-z
-x,-y,-z
x,y,1/2-z
-x,1/2+y,z
x,1/2-y,1/2+z
loop_
_atom_site_type_symbol
_atom_site_label
_atom_site_fract_x
_atom_site_fract_y
_atom_site_fract_z
Si Si1 0.305377 0.466433 0.164065
Si Si2 0.593815 0.069355 0.029328
Si Si3 0.114838 0.926890 0.604053
Si Si4 0.990084 0.794356 0.332387
Si Si5 0.214578 0.565135 0.972336
Si Si6 0.208815 0.130971 0.333015
O O1 0.322655 0.479791 0.250000
O O2 0.387645 0.535385 0.114881
O O3 0.213588 0.565073 0.142709
O O4 0.275846 0.281446 0.149258
O O5 0.594017 0.250000 0.000000
O O6 0.687246 0.995631 0.997067
O O7 0.500000 0.000000 0.000000
O O8 0.133655 0.999621 0.524200
O O9 0.064774 0.758436 0.608585
O O10 0.044140 0.029386 0.650689
O O11 0.027203 0.783318 0.250000
O O12 0.893769 0.701139 0.336283
O O13 0.211586 0.512916 0.889467
O O14 0.215128 0.750000 0.000000
O O15 0.227761 0.081819 0.250000
#
# Coordination Sequence:
#
# PCOD9437161 Si02
#       6
#     8   8   8   8   8   8
#     4   9  19  40  67  93 127 169 213 264 325 385
#     4  10  23  41  66  96 125 165 207 256 321 388
#     4  10  21  36  59  87 124 171 210 262 320 375
#     4  10  20  35  55  88 121 160 217 259 310 373
#     4  10  23  42  59  91 127 164 215 258 329 398
#     4   9  20  39  64  91 121 165 218 269 318 376
#
# _framework density 21.321134000000001
#
# number of rings (size 3 to 8) (size 9 to 14) (size 15 to 20)
#    0.000    2.333    0.000    2.500    4.667    6.000 
#    0.000   10.000    0.000    0.000    0.000    0.000 
#    0.000    0.000    0.000    0.000    0.000    0.000 
#
# Total GULP energy -267616.074938 kJ/mol
# GULP energy per Si atom -5575.334895 kJ/mol
# Density = 2.127261 g / cm^3
# Si number density = 21.321134 Si / 1000 Ang^3
#
#
#
# Elastic Constant Matrix: (Units=GPa)
#
#
# Indices 1 2 3 4 5 6 
#
# 1 80.4052 33.3871 41.5564 0.0000 0.0000 0.0000
# 2 33.3871 55.0055 63.6640 0.0000 0.0000 0.0000
# 3 41.5564 63.6640 157.4353 0.0000 0.0000 0.0000
# 4 0.0000 0.0000 0.0000 35.2654 0.0000 0.0000
# 5 0.0000 0.0000 0.0000 0.0000 25.7783 0.0000
# 6 0.0000 0.0000 0.0000 0.0000 0.0000 7.2116
#
#
#
# Elastic Compliance Matrix: (Units=1/GPa)
#
#
# Indices 1 2 3 4 5 6 
#
# 1 0.016656 -0.009439 -0.000579 0.000000 0.000000 0.000000
# 2 -0.009439 0.039524 -0.013491 0.000000 0.000000 0.000000
# 3 -0.000579 -0.013491 0.011960 0.000000 0.000000 0.000000
# 4 0.000000 0.000000 0.000000 0.028356 0.000000 0.000000
# 5 0.000000 0.000000 0.000000 0.000000 0.038792 0.000000
# 6 0.000000 0.000000 0.000000 0.000000 0.000000 0.138666
#
#
# Mechanical properties :
#
#
# Convention : Reuss Voigt Hill
#
# Bulk Modulus (GPa) = 47.34655 63.34008 55.34332
# Shear Modulus (GPa) = 15.24315 23.93361 19.58838
#
# Velocity S-wave (km/s) = 2.67672 3.35405 3.03435
# Velocity P-wave (km/s) = 5.63983 6.69117 6.18787
#
# Compressibility (1/GPa) = 0.02112086
#
# Stress axis : x y z
#
# Youngs Moduli (GPa) = 60.03858 25.30078 83.60872
#
# Poissons Ratio (x) = 0.23882 0.04845
# Poissons Ratio (y) = 0.56671 1.12800
# Poissons Ratio (z) = 0.03479 0.34134
#
# Static dielectric constant tensor:
#      x y z
#    x 1.749980 0.000000 0.000000 
#    y 0.000000 1.932210 0.000000 
#    z 0.000000 0.000000 1.915040 
# 
# From -- ./inp_files/22450.got.cif
#   From: 2010.05.17/outbox.cif.g08.bks.cpg/sg57_12_cif.got.tgz:22450.got - 2010.06.03 13:58:18.
