data_PCOD9437910
_publ_section_title
;
Structure prediction by ZEFSAII (Michael W. Deem and Ramdas Pophale) SiO2 
 PCOD9437910
Probable space group: P B C M
;
_chemical_formula_sum "Si O2"
_cell_formula_units_Z 40
_cell_length_a 24.055250
_cell_length_b 8.888373
_cell_length_c 8.900760
_cell_angle_alpha 90.000000
_cell_angle_beta 90.000000
_cell_angle_gamma 90.000000
_cell_volume 1903.089605
_symmetry_space_group_name_H-M "P B C M"
_symmetry_group_IT_number 57
_symmetry_cell_setting 'orthorhombic'
loop_
_space_group_symop_operation_xyz
x,y,z
-x,-y,1/2+z
x,1/2-y,-z
-x,1/2+y,1/2-z
-x,-y,-z
x,y,1/2-z
-x,1/2+y,z
x,1/2-y,1/2+z
loop_
_atom_site_type_symbol
_atom_site_label
_atom_site_fract_x
_atom_site_fract_y
_atom_site_fract_z
Si Si1 0.369119 0.250000 0.000000
Si Si2 0.564444 0.216754 0.250000
Si Si3 0.355286 0.750000 0.500000
Si Si4 0.947003 0.082689 0.431017
Si Si5 0.286951 0.029699 0.421339
Si Si6 0.833294 0.416864 0.069427
Si Si7 0.558437 0.916159 0.750000
O O1 0.323509 0.122286 0.960019
O O2 0.409326 0.160109 0.111376
O O3 0.601738 0.169196 0.110198
O O4 0.504827 0.140286 0.250000
O O5 0.560587 0.401228 0.250000
O O6 0.315518 0.633404 0.581717
O O7 0.948108 0.250000 0.500000
O O8 0.948328 0.084633 0.250000
O O9 0.888458 0.017650 0.491674
O O10 0.000000 0.000000 0.500000
O O11 0.292265 0.091236 0.250000
O O12 0.222480 0.011433 0.458560
O O13 0.840963 0.404160 0.250000
O O14 0.824851 0.250000 0.000000
#
# Coordination Sequence:
#
# PCOD9437910 Si02
#       7
#     4   4   4   8   8   8   4
#     4  12  23  48  64  88 129 164 202 268 320 380
#     4  12  28  44  64  96 124 158 211 258 317 387
#     4  12  21  44  66  90 127 158 206 258 314 384
#     4  11  22  41  66  98 136 179 226 275 327 384
#     4  11  23  43  64  96 127 163 212 263 317 384
#     4  10  20  37  63  95 132 167 215 271 315 382
#     4  12  28  46  64  92 126 158 211 262 315 389
#
# _framework density 21.018454999999999
#
# number of rings (size 3 to 8) (size 9 to 14) (size 15 to 20)
#    0.000    0.800    5.000    4.200    2.800    1.600 
#    7.200    0.000    0.000    0.000    0.000    0.000 
#    0.000    0.000    0.000    0.000    0.000    0.000 
#
# Total GULP energy -223199.960934 kJ/mol
# GULP energy per Si atom -5579.999023 kJ/mol
# Density = 2.097062 g / cm^3
# Si number density = 21.018455 Si / 1000 Ang^3
#
#
#
# Elastic Constant Matrix: (Units=GPa)
#
#
# Indices 1 2 3 4 5 6 
#
# 1 207.7152 38.4374 58.0801 0.0000 0.0000 0.0000
# 2 38.4374 63.7247 17.0622 0.0000 0.0000 0.0000
# 3 58.0801 17.0622 115.4160 0.0000 0.0000 0.0000
# 4 0.0000 0.0000 0.0000 21.2690 0.0000 0.0000
# 5 0.0000 0.0000 0.0000 0.0000 27.8098 0.0000
# 6 0.0000 0.0000 0.0000 0.0000 0.0000 35.9495
#
#
#
# Elastic Compliance Matrix: (Units=1/GPa)
#
#
# Indices 1 2 3 4 5 6 
#
# 1 0.006100 -0.002975 -0.002630 0.000000 0.000000 0.000000
# 2 -0.002975 0.017790 -0.001133 0.000000 0.000000 0.000000
# 3 -0.002630 -0.001133 0.010155 0.000000 0.000000 0.000000
# 4 0.000000 0.000000 0.000000 0.047017 0.000000 0.000000
# 5 0.000000 0.000000 0.000000 0.000000 0.035959 0.000000
# 6 0.000000 0.000000 0.000000 0.000000 0.000000 0.027817
#
#
# Mechanical properties :
#
#
# Convention : Reuss Voigt Hill
#
# Bulk Modulus (GPa) = 48.61483 68.22392 58.41937
# Shear Modulus (GPa) = 30.27171 35.22408 32.74790
#
# Velocity S-wave (km/s) = 3.79917 4.09817 3.95150
# Velocity P-wave (km/s) = 6.51343 7.41100 6.97666
#
# Compressibility (1/GPa) = 0.02056986
#
# Stress axis : x y z
#
# Youngs Moduli (GPa) = 163.92799 56.20984 98.47163
#
# Poissons Ratio (x) = 0.16725 0.25897
# Poissons Ratio (y) = 0.48775 0.11154
# Poissons Ratio (z) = 0.43112 0.06367
#
# Static dielectric constant tensor:
#      x y z
#    x 1.755630 0.000000 0.000000 
#    y 0.000000 1.798160 0.000000 
#    z 0.000000 0.000000 2.249310 
# 
# From -- ./inp_files/9041.got.cif
#   From: 2010.05.17/outbox.cif.g08.bks.cpg/sg57_5_cif.got.tgz:9041.got - 2010.06.03 13:58:18.
