data_PCOD9437105
_publ_section_title
;
Structure prediction by ZEFSAII (Michael W. Deem and Ramdas Pophale) SiO2 
 PCOD9437105
Probable space group: P B C M
;
_chemical_formula_sum "Si O2"
_cell_formula_units_Z 56
_cell_length_a 22.666645
_cell_length_b 13.934169
_cell_length_c 7.530119
_cell_angle_alpha 90.000000
_cell_angle_beta 90.000000
_cell_angle_gamma 90.000000
_cell_volume 2378.319277
_symmetry_space_group_name_H-M "P B C M"
_symmetry_group_IT_number 57
_symmetry_cell_setting 'orthorhombic'
loop_
_space_group_symop_operation_xyz
x,y,z
-x,-y,1/2+z
x,1/2-y,-z
-x,1/2+y,1/2-z
-x,-y,-z
x,y,1/2-z
-x,1/2+y,z
x,1/2-y,1/2+z
loop_
_atom_site_type_symbol
_atom_site_label
_atom_site_fract_x
_atom_site_fract_y
_atom_site_fract_z
Si Si1 0.158286 0.137686 0.461569
Si Si2 0.345529 0.953623 0.544207
Si Si3 0.464773 0.637100 0.462587
Si Si4 0.902074 0.363600 0.963221
Si Si5 0.404909 0.137859 0.461400
Si Si6 0.782122 0.452906 0.543827
Si Si7 0.028969 0.135338 0.462516
O O1 0.166468 0.250000 0.500000
O O2 0.158348 0.126658 0.250000
O O3 0.093284 0.105297 0.531888
O O4 0.207034 0.066893 0.536881
O O5 0.344222 0.922627 0.750000
O O6 0.356188 0.067578 0.538525
O O7 0.405431 0.910402 0.463638
O O8 0.281796 0.928581 0.465264
O O9 0.460859 0.750000 0.500000
O O10 0.466088 0.621914 0.250000
O O11 0.529685 0.607535 0.530525
O O12 0.902968 0.377363 0.750000
O O13 0.841722 0.408239 0.036102
O O14 0.965749 0.401717 0.032029
O O15 0.900348 0.250000 0.000000
O O16 0.396636 0.250000 0.500000
O O17 0.404216 0.126322 0.250000
O O18 0.780669 0.422831 0.750000
O O19 0.027935 0.250000 0.500000
O O20 0.029531 0.122807 0.250000
#
# Coordination Sequence:
#
# PCOD9437105 Si02
#       7
#     8   8   8   8   8   8   8
#     4  10  20  35  55  77 102 133 172 218 264 310
#     4  10  21  37  54  75 107 143 176 211 252 301
#     4   9  19  35  56  82 109 136 169 211 258 305
#     4   9  18  34  54  76 104 136 171 213 260 308
#     4  10  20  35  57  83 107 134 170 213 260 306
#     4  10  22  37  52  74 106 143 177 209 253 307
#     4   8  15  29  50  75 100 128 165 211 262 309
#
# _framework density 23.546039
#
# number of rings (size 3 to 8) (size 9 to 14) (size 15 to 20)
#    0.000    2.571    0.000    1.286    0.000    4.571 
#    0.000    0.000    0.000    0.000    0.000    0.000 
#    0.000    0.000    0.000    0.000    0.000    0.000 
#
# Total GULP energy -312671.613342 kJ/mol
# GULP energy per Si atom -5583.421667 kJ/mol
# Density = 2.349245 g / cm^3
# Si number density = 23.546039 Si / 1000 Ang^3
#
#
#
# Elastic Constant Matrix: (Units=GPa)
#
#
# Indices 1 2 3 4 5 6 
#
# 1 133.5468 14.6513 4.4992 0.0000 0.0000 0.0000
# 2 14.6513 35.4033 -12.2988 0.0000 0.0000 0.0000
# 3 4.4992 -12.2988 81.4128 0.0000 0.0000 0.0000
# 4 0.0000 0.0000 0.0000 19.1856 0.0000 0.0000
# 5 0.0000 0.0000 0.0000 0.0000 -0.3169 0.0000
# 6 0.0000 0.0000 0.0000 0.0000 0.0000 13.3867
#
#
#
# Elastic Compliance Matrix: (Units=1/GPa)
#
#
# Indices 1 2 3 4 5 6 
#
# 1 0.007918 -0.003619 -0.000984 0.000000 0.000000 0.000000
# 2 -0.003619 0.031464 0.004953 0.000000 0.000000 0.000000
# 3 -0.000984 0.004953 0.013086 0.000000 0.000000 0.000000
# 4 0.000000 0.000000 0.000000 0.052122 0.000000 0.000000
# 5 0.000000 0.000000 0.000000 0.000000 -3.155727 0.000000
# 6 0.000000 0.000000 0.000000 0.000000 0.000000 0.074701
#
#
# Mechanical properties :
#
#
# Convention : Reuss Voigt Hill
#
# Bulk Modulus (GPa) = 18.80812 29.34068 24.07440
# Shear Modulus (GPa) = -1.68952 22.68517 10.49782
#
# Velocity S-wave (km/s) = -0.84800 3.10730 2.11379
# Velocity P-wave (km/s) = 2.65450 5.03605 4.02543
#
# Compressibility (1/GPa) = 0.05316852
#
# Stress axis : x y z
#
# Youngs Moduli (GPa) = 126.29157 31.78207 76.41905
#
# Poissons Ratio (x) = 0.11501 0.07522
# Poissons Ratio (y) = 0.45702 -0.37852
# Poissons Ratio (z) = 0.12430 -0.15742
#
# Static dielectric constant tensor:
#      x y z
#    x 1.942290 0.000000 0.000000 
#    y 0.000000 1.849390 0.000000 
#    z 0.000000 0.000000 1.860850 
# 
# From -- ./inp_files/8007.got.cif
#   From: 2010.05.17/outbox.cif.g08.bks.cpg/sg57_5_cif.got.tgz:8007.got - 2010.06.03 13:58:18.
