data_PCOD9437817
_publ_section_title
;
Structure prediction by ZEFSAII (Michael W. Deem and Ramdas Pophale) SiO2 
 PCOD9437817
Probable space group: P B C M
;
_chemical_formula_sum "Si O2"
_cell_formula_units_Z 48
_cell_length_a 7.479362
_cell_length_b 12.678221
_cell_length_c 23.135719
_cell_angle_alpha 90.000000
_cell_angle_beta 90.000000
_cell_angle_gamma 90.000000
_cell_volume 2193.844655
_symmetry_space_group_name_H-M "P B C M"
_symmetry_group_IT_number 57
_symmetry_cell_setting 'orthorhombic'
loop_
_space_group_symop_operation_xyz
x,y,z
-x,-y,1/2+z
x,1/2-y,-z
-x,1/2+y,1/2-z
-x,-y,-z
x,y,1/2-z
-x,1/2+y,z
x,1/2-y,1/2+z
loop_
_atom_site_type_symbol
_atom_site_label
_atom_site_fract_x
_atom_site_fract_y
_atom_site_fract_z
Si Si1 0.193509 0.272247 0.941768
Si Si2 0.522346 0.134041 0.585353
Si Si3 0.651696 0.991763 0.313504
Si Si4 0.848519 0.011446 0.950023
Si Si5 0.681835 0.236337 0.187656
Si Si6 0.017157 0.140960 0.653357
O O1 0.356117 0.188323 0.946380
O O2 0.230479 0.395401 0.939348
O O3 0.090995 0.237008 0.885038
O O4 0.080707 0.250000 0.000000
O O5 0.461573 0.041904 0.630149
O O6 0.679177 0.090982 0.543973
O O7 0.582977 0.223802 0.630655
O O8 0.560625 0.983275 0.250000
O O9 0.820258 0.913530 0.314308
O O10 0.716241 0.112155 0.318703
O O11 0.944294 0.055598 0.892688
O O12 0.000000 0.000000 0.000000
O O13 0.586262 0.249126 0.250000
O O14 0.856490 0.309449 0.188660
#
# Coordination Sequence:
#
# PCOD9437817 Si02
#       6
#     8   8   8   8   8   8
#     4  11  22  40  58  86 121 158 207 247 307 361
#     4  10  23  39  59  90 122 160 200 258 300 366
#     4  10  20  37  61  89 124 163 201 249 307 363
#     4  11  22  41  62  87 121 164 206 253 305 361
#     4  10  20  37  60  88 118 157 200 246 305 361
#     4  10  21  38  59  89 121 159 203 257 294 362
#
# _framework density 21.8794
#
# number of rings (size 3 to 8) (size 9 to 14) (size 15 to 20)
#    0.000    1.667    1.667    3.000    0.000    0.667 
#    9.000    0.000    0.000   16.000    0.000    0.000 
#    0.000    0.000    0.000    0.000    0.000    0.000 
#
# Total GULP energy -267739.797637 kJ/mol
# GULP energy per Si atom -5577.912451 kJ/mol
# Density = 2.182960 g / cm^3
# Si number density = 21.879400 Si / 1000 Ang^3
#
#
#
# Elastic Constant Matrix: (Units=GPa)
#
#
# Indices 1 2 3 4 5 6 
#
# 1 54.7602 12.5122 21.6382 0.0000 0.0000 0.0000
# 2 12.5122 112.0983 41.8336 0.0000 0.0000 0.0000
# 3 21.6382 41.8336 93.6255 0.0000 0.0000 0.0000
# 4 0.0000 0.0000 0.0000 25.9499 0.0000 0.0000
# 5 0.0000 0.0000 0.0000 0.0000 13.2310 0.0000
# 6 0.0000 0.0000 0.0000 0.0000 0.0000 2.1955
#
#
#
# Elastic Compliance Matrix: (Units=1/GPa)
#
#
# Indices 1 2 3 4 5 6 
#
# 1 0.020132 -0.000613 -0.004379 0.000000 0.000000 0.000000
# 2 -0.000613 0.010725 -0.004650 0.000000 0.000000 0.000000
# 3 -0.004379 -0.004650 0.013771 0.000000 0.000000 0.000000
# 4 0.000000 0.000000 0.000000 0.038536 0.000000 0.000000
# 5 0.000000 0.000000 0.000000 0.000000 0.075580 0.000000
# 6 0.000000 0.000000 0.000000 0.000000 0.000000 0.455473
#
#
# Mechanical properties :
#
#
# Convention : Reuss Voigt Hill
#
# Bulk Modulus (GPa) = 39.45882 45.82800 42.64341
# Shear Modulus (GPa) = 7.78879 20.57528 14.18204
#
# Velocity S-wave (km/s) = 1.88881 3.06991 2.54872
# Velocity P-wave (km/s) = 4.77814 5.79284 5.30979
#
# Compressibility (1/GPa) = 0.02534288
#
# Stress axis : x y z
#
# Youngs Moduli (GPa) = 49.67276 93.24367 72.61792
#
# Poissons Ratio (x) = 0.05715 0.31798
# Poissons Ratio (y) = 0.03045 0.33769
# Poissons Ratio (z) = 0.21751 0.43361
#
# Static dielectric constant tensor:
#      x y z
#    x 1.827350 0.000000 0.000000 
#    y 0.000000 1.785730 0.000000 
#    z 0.000000 0.000000 1.662520 
# 
# From -- ./inp_files/26686.got.cif
#   From: 2010.05.17/outbox.cif.g08.bks.cpg/sg57_14_cif.got.tgz:26686.got - 2010.06.03 13:58:18.
