data_PCOD9437693
_publ_section_title
;
Structure prediction by ZEFSAII (Michael W. Deem and Ramdas Pophale) SiO2 
 PCOD9437693
Probable space group: P B C M
;
_chemical_formula_sum "Si O2"
_cell_formula_units_Z 64
_cell_length_a 18.556435
_cell_length_b 10.246841
_cell_length_c 16.593317
_cell_angle_alpha 90.000000
_cell_angle_beta 90.000000
_cell_angle_gamma 90.000000
_cell_volume 3155.133589
_symmetry_space_group_name_H-M "P B C M"
_symmetry_group_IT_number 57
_symmetry_cell_setting 'orthorhombic'
loop_
_space_group_symop_operation_xyz
x,y,z
-x,-y,1/2+z
x,1/2-y,-z
-x,1/2+y,1/2-z
-x,-y,-z
x,y,1/2-z
-x,1/2+y,z
x,1/2-y,1/2+z
loop_
_atom_site_type_symbol
_atom_site_label
_atom_site_fract_x
_atom_site_fract_y
_atom_site_fract_z
Si Si1 0.703491 0.240301 0.654900
Si Si2 0.929085 0.724489 0.847091
Si Si3 0.963073 0.493773 0.151809
Si Si4 0.765299 0.764665 0.152781
Si Si5 0.440486 0.103191 0.024864
Si Si6 0.650786 0.543332 0.345377
Si Si7 0.168882 0.866083 0.441482
Si Si8 0.706999 0.494222 0.552599
O O1 0.697510 0.265606 0.750000
O O2 0.784687 0.201624 0.629674
O O3 0.683942 0.364558 0.601312
O O4 0.659942 0.109026 0.632783
O O5 0.924416 0.715832 0.750000
O O6 0.974389 0.853921 0.865275
O O7 0.847770 0.745870 0.875801
O O8 0.969421 0.594537 0.873431
O O9 0.951265 0.480048 0.250000
O O10 0.894038 0.445731 0.101641
O O11 0.764509 0.774360 0.250000
O O12 0.716907 0.639248 0.130702
O O13 0.734175 0.894809 0.113403
O O14 0.422950 0.098446 0.119353
O O15 0.457521 0.250000 0.000000
O O16 0.500000 0.000000 0.000000
O O17 0.363253 0.055705 0.989488
O O18 0.650935 0.546049 0.250000
O O19 0.142042 0.750000 0.500000
O O20 0.226762 0.949120 0.494716
#
# Coordination Sequence:
#
# PCOD9437693 Si02
#       8
#     8   8   8   8   8   8   8   8
#     4  10  20  36  62  93 122 161 206 266 317 363
#     4   9  20  36  60  87 118 160 212 265 317 377
#     4  10  20  38  59  84 117 162 209 261 323 381
#     4  10  20  39  65  94 123 165 221 274 314 369
#     4  12  27  45  70  98 133 176 210 257 329 383
#     4  10  21  41  68  97 128 165 218 264 310 380
#     4  10  21  35  58  88 126 161 209 260 311 381
#     4  11  23  40  63  94 128 161 217 262 315 386
#
# _framework density 20.284402
#
# number of rings (size 3 to 8) (size 9 to 14) (size 15 to 20)
#    0.000    1.750    2.500    1.500    1.750    4.000 
#    0.000    8.125    0.000    0.000    0.000    0.000 
#    0.000    0.000    0.000    0.000    0.000    0.000 
#
# Total GULP energy -357256.609528 kJ/mol
# GULP energy per Si atom -5582.134524 kJ/mol
# Density = 2.023823 g / cm^3
# Si number density = 20.284402 Si / 1000 Ang^3
#
#
#
# Elastic Constant Matrix: (Units=GPa)
#
#
# Indices 1 2 3 4 5 6 
#
# 1 80.2984 50.3192 16.0482 0.0000 0.0000 0.0000
# 2 50.3192 157.8966 37.0769 0.0000 0.0000 0.0000
# 3 16.0482 37.0769 42.2552 0.0000 0.0000 0.0000
# 4 0.0000 0.0000 0.0000 26.1429 0.0000 0.0000
# 5 0.0000 0.0000 0.0000 0.0000 22.0789 0.0000
# 6 0.0000 0.0000 0.0000 0.0000 0.0000 26.8420
#
#
#
# Elastic Compliance Matrix: (Units=1/GPa)
#
#
# Indices 1 2 3 4 5 6 
#
# 1 0.015692 -0.004536 -0.001980 0.000000 0.000000 0.000000
# 2 -0.004536 0.009288 -0.006427 0.000000 0.000000 0.000000
# 3 -0.001980 -0.006427 0.030057 0.000000 0.000000 0.000000
# 4 0.000000 0.000000 0.000000 0.038251 0.000000 0.000000
# 5 0.000000 0.000000 0.000000 0.000000 0.045292 0.000000
# 6 0.000000 0.000000 0.000000 0.000000 0.000000 0.037255
#
#
# Mechanical properties :
#
#
# Convention : Reuss Voigt Hill
#
# Bulk Modulus (GPa) = 34.30342 54.14876 44.22609
# Shear Modulus (GPa) = 23.64771 26.81316 25.23043
#
# Velocity S-wave (km/s) = 3.41810 3.63968 3.53063
# Velocity P-wave (km/s) = 5.70314 6.66452 6.20248
#
# Compressibility (1/GPa) = 0.02915161
#
# Stress axis : x y z
#
# Youngs Moduli (GPa) = 63.72857 107.66643 33.27014
#
# Poissons Ratio (x) = 0.48836 0.06586
# Poissons Ratio (y) = 0.28906 0.21383
# Poissons Ratio (z) = 0.12615 0.69198
#
# Static dielectric constant tensor:
#      x y z
#    x 1.697930 0.000000 0.000000 
#    y 0.000000 1.715420 0.000000 
#    z 0.000000 0.000000 1.774150 
# 
# From -- ./inp_files/23043.got.cif
#   From: 2010.05.17/outbox.cif.g08.bks.cpg/sg57_12_cif.got.tgz:23043.got - 2010.06.03 13:58:18.
