data_PCOD9437132
_publ_section_title
;
Structure prediction by ZEFSAII (Michael W. Deem and Ramdas Pophale) SiO2 
 PCOD9437132
Probable space group: P B C M
;
_chemical_formula_sum "Si O2"
_cell_formula_units_Z 40
_cell_length_a 8.262851
_cell_length_b 7.671963
_cell_length_c 26.701616
_cell_angle_alpha 90.000000
_cell_angle_beta 90.000000
_cell_angle_gamma 90.000000
_cell_volume 1692.676509
_symmetry_space_group_name_H-M "P B C M"
_symmetry_group_IT_number 57
_symmetry_cell_setting 'orthorhombic'
loop_
_space_group_symop_operation_xyz
x,y,z
-x,-y,1/2+z
x,1/2-y,-z
-x,1/2+y,1/2-z
-x,-y,-z
x,y,1/2-z
-x,1/2+y,z
x,1/2-y,1/2+z
loop_
_atom_site_type_symbol
_atom_site_label
_atom_site_fract_x
_atom_site_fract_y
_atom_site_fract_z
Si Si1 0.735763 0.288187 0.250000
Si Si2 0.436424 0.602633 0.848288
Si Si3 0.735757 0.213310 0.946196
Si Si4 0.762780 0.758926 0.347853
Si Si5 0.074310 0.153890 0.052561
Si Si6 0.937616 0.648482 0.250000
O O1 0.626814 0.297223 0.299188
O O2 0.846237 0.463688 0.250000
O O3 0.869007 0.137653 0.250000
O O4 0.383616 0.697354 0.899724
O O5 0.345446 0.417889 0.847578
O O6 0.629400 0.591229 0.845633
O O7 0.880105 0.353561 0.940817
O O8 0.835421 0.031060 0.948311
O O9 0.654680 0.250000 0.000000
O O10 0.860647 0.755755 0.399160
O O11 0.879361 0.745838 0.300318
O O12 0.105529 0.250000 0.000000
#
# Coordination Sequence:
#
# PCOD9437132 Si02
#       6
#     4   8   8   8   8   4
#     4  10  21  38  58  82 108 138 177 220 264 316
#     4  10  22  37  55  80 110 141 177 218 265 317
#     4  10  20  35  55  80 107 140 180 221 263 313
#     4  10  22  37  55  80 110 141 177 218 265 317
#     4  10  20  35  55  80 107 140 180 221 263 313
#     4  10  21  38  58  82 108 138 177 220 264 316
#
# _framework density 23.631212000000001
#
# number of rings (size 3 to 8) (size 9 to 14) (size 15 to 20)
#    0.000    2.000    0.000    4.200    0.000    5.600 
#    0.000    4.000    0.000    0.000    0.000    0.000 
#    0.000    0.000    0.000    0.000    0.000    0.000 
#
# Total GULP energy -223913.241053 kJ/mol
# GULP energy per Si atom -5597.831026 kJ/mol
# Density = 2.357743 g / cm^3
# Si number density = 23.631212 Si / 1000 Ang^3
#
#
#
# Elastic Constant Matrix: (Units=GPa)
#
#
# Indices 1 2 3 4 5 6 
#
# 1 45.2349 -11.2698 37.3067 0.0000 0.0000 0.0000
# 2 -11.2698 59.0821 28.4708 0.0000 0.0000 0.0000
# 3 37.3067 28.4708 169.7174 0.0000 0.0000 0.0000
# 4 0.0000 0.0000 0.0000 27.0206 0.0000 0.0000
# 5 0.0000 0.0000 0.0000 0.0000 15.3617 0.0000
# 6 0.0000 0.0000 0.0000 0.0000 0.0000 33.2892
#
#
#
# Elastic Compliance Matrix: (Units=1/GPa)
#
#
# Indices 1 2 3 4 5 6 
#
# 1 0.031871 0.010287 -0.008731 0.000000 0.000000 0.000000
# 2 0.010287 0.021734 -0.005907 0.000000 0.000000 0.000000
# 3 -0.008731 -0.005907 0.008802 0.000000 0.000000 0.000000
# 4 0.000000 0.000000 0.000000 0.037009 0.000000 0.000000
# 5 0.000000 0.000000 0.000000 0.000000 0.065097 0.000000
# 6 0.000000 0.000000 0.000000 0.000000 0.000000 0.030040
#
#
# Mechanical properties :
#
#
# Convention : Reuss Voigt Hill
#
# Bulk Modulus (GPa) = 18.62066 42.56110 30.59088
# Shear Modulus (GPa) = 22.60828 29.76941 26.18884
#
# Velocity S-wave (km/s) = 3.09643 3.55315 3.33262
# Velocity P-wave (km/s) = 4.54760 5.90616 5.27084
#
# Compressibility (1/GPa) = 0.05370378
#
# Stress axis : x y z
#
# Youngs Moduli (GPa) = 31.37683 46.01009 113.60541
#
# Poissons Ratio (x) = -0.47329 0.99193
# Poissons Ratio (y) = -0.32277 0.67109
# Poissons Ratio (z) = 0.27396 0.27179
#
# Static dielectric constant tensor:
#      x y z
#    x 1.835770 0.000000 0.000000 
#    y 0.000000 1.969620 0.000000 
#    z 0.000000 0.000000 1.840780 
# 
# From -- ./inp_files/26539.got.cif
#   From: 2010.05.17/outbox.cif.g08.bks.cpg/sg57_14_cif.got.tgz:26539.got - 2010.06.03 13:58:18.
