data_PCOD9437813
_publ_section_title
;
Structure prediction by ZEFSAII (Michael W. Deem and Ramdas Pophale) SiO2 
 PCOD9437813
Probable space group: P B C M
;
_chemical_formula_sum "Si O2"
_cell_formula_units_Z 48
_cell_length_a 31.431915
_cell_length_b 9.305327
_cell_length_c 8.607384
_cell_angle_alpha 90.000000
_cell_angle_beta 90.000000
_cell_angle_gamma 90.000000
_cell_volume 2517.524231
_symmetry_space_group_name_H-M "P B C M"
_symmetry_group_IT_number 57
_symmetry_cell_setting 'orthorhombic'
loop_
_space_group_symop_operation_xyz
x,y,z
-x,-y,1/2+z
x,1/2-y,-z
-x,1/2+y,1/2-z
-x,-y,-z
x,y,1/2-z
-x,1/2+y,z
x,1/2-y,1/2+z
loop_
_atom_site_type_symbol
_atom_site_label
_atom_site_fract_x
_atom_site_fract_y
_atom_site_fract_z
Si Si1 0.379231 0.088084 0.562885
Si Si2 0.214857 0.090217 0.937297
Si Si3 0.295471 0.590111 0.437247
Si Si4 0.117935 0.410755 0.436882
Si Si5 0.039729 0.910368 0.064652
Si Si6 0.540375 0.412321 0.436171
O O1 0.381107 0.250000 0.500000
O O2 0.382460 0.090081 0.750000
O O3 0.334789 0.012205 0.518526
O O4 0.417565 0.994195 0.494276
O O5 0.216312 0.096163 0.750000
O O6 0.166530 0.049807 0.981237
O O7 0.251147 0.980813 0.991154
O O8 0.223379 0.250000 0.000000
O O9 0.301191 0.750000 0.500000
O O10 0.294702 0.596565 0.250000
O O11 0.110280 0.250000 0.500000
O O12 0.114646 0.410516 0.250000
O O13 0.083122 0.515714 0.507516
O O14 0.038216 0.909193 0.250000
O O15 0.037238 0.750000 0.000000
O O16 0.000000 0.000000 0.000000
O O17 0.539744 0.250000 0.500000
O O18 0.500000 0.500000 0.500000
O O19 0.539250 0.409480 0.250000
#
# Coordination Sequence:
#
# PCOD9437813 Si02
#       6
#     8   8   8   8   8   8
#     4  11  23  40  62  89 120 156 199 245 296 351
#     4   9  19  36  58  85 116 152 194 238 285 341
#     4  10  22  38  57  84 118 155 196 242 292 346
#     4  10  20  37  60  87 119 154 194 239 289 344
#     4  12  25  42  62  86 116 151 192 237 289 345
#     4  12  25  43  65  91 123 158 198 243 294 349
#
# _framework density 19.066351999999998
#
# number of rings (size 3 to 8) (size 9 to 14) (size 15 to 20)
#    0.000    1.333    0.000    6.000    0.000    4.667 
#    0.000    1.667    0.000    0.000    0.000    0.000 
#    0.000    0.000    0.000    0.000    0.000    0.000 
#
# Total GULP energy -268466.126927 kJ/mol
# GULP energy per Si atom -5593.044311 kJ/mol
# Density = 1.902296 g / cm^3
# Si number density = 19.066352 Si / 1000 Ang^3
#
#
#
# Elastic Constant Matrix: (Units=GPa)
#
#
# Indices 1 2 3 4 5 6 
#
# 1 162.1375 124.7229 66.3331 0.0000 0.0000 0.0000
# 2 124.7229 192.3843 67.0718 0.0000 0.0000 0.0000
# 3 66.3331 67.0718 108.2770 0.0000 0.0000 0.0000
# 4 0.0000 0.0000 0.0000 40.0317 0.0000 0.0000
# 5 0.0000 0.0000 0.0000 0.0000 28.2891 0.0000
# 6 0.0000 0.0000 0.0000 0.0000 0.0000 54.8034
#
#
#
# Elastic Compliance Matrix: (Units=1/GPa)
#
#
# Indices 1 2 3 4 5 6 
#
# 1 0.013310 -0.007380 -0.003583 0.000000 0.000000 0.000000
# 2 -0.007380 0.010722 -0.002120 0.000000 0.000000 0.000000
# 3 -0.003583 -0.002120 0.012744 0.000000 0.000000 0.000000
# 4 0.000000 0.000000 0.000000 0.024980 0.000000 0.000000
# 5 0.000000 0.000000 0.000000 0.000000 0.035349 0.000000
# 6 0.000000 0.000000 0.000000 0.000000 0.000000 0.018247
#
#
# Mechanical properties :
#
#
# Convention : Reuss Voigt Hill
#
# Bulk Modulus (GPa) = 94.25297 108.78383 101.51840
# Shear Modulus (GPa) = 34.46962 38.26957 36.36959
#
# Velocity S-wave (km/s) = 4.25653 4.48501 4.37226
# Velocity P-wave (km/s) = 8.58480 9.16514 8.87971
#
# Compressibility (1/GPa) = 0.01060975
#
# Stress axis : x y z
#
# Youngs Moduli (GPa) = 75.12893 93.26906 78.46946
#
# Poissons Ratio (x) = 0.68834 0.28113
# Poissons Ratio (y) = 0.55446 0.16638
# Poissons Ratio (z) = 0.26917 0.19775
#
# Static dielectric constant tensor:
#      x y z
#    x 1.658670 0.000000 0.000000 
#    y 0.000000 1.615470 0.000000 
#    z 0.000000 0.000000 1.644150 
# 
# From -- ./inp_files/9984.got.cif
#   From: 2010.05.17/outbox.cif.g08.bks.cpg/sg57_5_cif.got.tgz:9984.got - 2010.06.03 13:58:18.
