data_PCOD9437841
_publ_section_title
;
Structure prediction by ZEFSAII (Michael W. Deem and Ramdas Pophale) SiO2 
 PCOD9437841
Probable space group: P B C M
;
_chemical_formula_sum "Si O2"
_cell_formula_units_Z 48
_cell_length_a 15.227708
_cell_length_b 18.962333
_cell_length_c 8.822760
_cell_angle_alpha 90.000000
_cell_angle_beta 90.000000
_cell_angle_gamma 90.000000
_cell_volume 2547.597271
_symmetry_space_group_name_H-M "P B C M"
_symmetry_group_IT_number 57
_symmetry_cell_setting 'orthorhombic'
loop_
_space_group_symop_operation_xyz
x,y,z
-x,-y,1/2+z
x,1/2-y,-z
-x,1/2+y,1/2-z
-x,-y,-z
x,y,1/2-z
-x,1/2+y,z
x,1/2-y,1/2+z
loop_
_atom_site_type_symbol
_atom_site_label
_atom_site_fract_x
_atom_site_fract_y
_atom_site_fract_z
Si Si1 0.610989 0.438700 0.430951
Si Si2 0.743425 0.673500 0.069841
Si Si3 0.590519 0.910327 0.070498
Si Si4 0.890293 0.572536 0.931158
Si Si5 0.080363 0.590623 0.431283
Si Si6 0.760883 0.325825 0.431495
O O1 0.615099 0.453569 0.250000
O O2 0.513521 0.408796 0.462805
O O3 0.621396 0.511739 0.519842
O O4 0.685258 0.382383 0.469409
O O5 0.748674 0.676584 0.250000
O O6 0.761656 0.750000 0.000000
O O7 0.647845 0.646609 0.017472
O O8 0.813134 0.616957 0.006678
O O9 0.603500 0.901396 0.250000
O O10 0.887327 0.581070 0.750000
O O11 0.885328 0.488844 0.965424
O O12 0.984453 0.597021 0.995015
O O13 0.073847 0.597726 0.250000
O O14 0.148439 0.645776 0.499433
O O15 0.739488 0.250000 0.500000
O O16 0.767448 0.321446 0.250000
#
# Coordination Sequence:
#
# PCOD9437841 Si02
#       6
#     8   8   8   8   8   8
#     4   9  20  38  60  86 115 150 192 237 283 335
#     4  12  25  40  58  83 117 154 192 235 286 342
#     4  10  20  37  61  88 116 148 190 237 285 338
#     4  10  21  39  63  89 115 146 187 234 282 335
#     4  10  21  38  61  88 116 148 187 231 280 335
#     4  11  23  38  56  81 115 152 191 234 282 335
#
# _framework density 18.841283000000001
#
# number of rings (size 3 to 8) (size 9 to 14) (size 15 to 20)
#    0.000    1.667    0.000    4.500    0.000    8.000 
#    0.000    5.000    0.000    0.000    0.000    0.000 
#    0.000    0.000    0.000    0.000    0.000    0.000 
#
# Total GULP energy -268375.995881 kJ/mol
# GULP energy per Si atom -5591.166581 kJ/mol
# Density = 1.879840 g / cm^3
# Si number density = 18.841283 Si / 1000 Ang^3
#
#
#
# Elastic Constant Matrix: (Units=GPa)
#
#
# Indices 1 2 3 4 5 6 
#
# 1 40.1314 10.7171 18.5600 0.0000 0.0000 0.0000
# 2 10.7171 23.4096 18.2683 0.0000 0.0000 0.0000
# 3 18.5600 18.2683 67.6173 0.0000 0.0000 0.0000
# 4 0.0000 0.0000 0.0000 34.6424 0.0000 0.0000
# 5 0.0000 0.0000 0.0000 0.0000 30.7255 0.0000
# 6 0.0000 0.0000 0.0000 0.0000 0.0000 2.6710
#
#
#
# Elastic Compliance Matrix: (Units=1/GPa)
#
#
# Indices 1 2 3 4 5 6 
#
# 1 0.030051 -0.009277 -0.005742 0.000000 0.000000 0.000000
# 2 -0.009277 0.056994 -0.012852 0.000000 0.000000 0.000000
# 3 -0.005742 -0.012852 0.019838 0.000000 0.000000 0.000000
# 4 0.000000 0.000000 0.000000 0.028866 0.000000 0.000000
# 5 0.000000 0.000000 0.000000 0.000000 0.032546 0.000000
# 6 0.000000 0.000000 0.000000 0.000000 0.000000 0.374394
#
#
# Mechanical properties :
#
#
# Convention : Reuss Voigt Hill
#
# Bulk Modulus (GPa) = 19.55381 25.13878 22.34629
# Shear Modulus (GPa) = 8.12377 19.18197 13.65287
#
# Velocity S-wave (km/s) = 2.07871 3.19420 2.69481
# Velocity P-wave (km/s) = 4.02021 5.19377 4.64421
#
# Compressibility (1/GPa) = 0.05114094
#
# Stress axis : x y z
#
# Youngs Moduli (GPa) = 33.27659 17.54584 50.40956
#
# Poissons Ratio (x) = 0.16276 0.28947
# Poissons Ratio (y) = 0.30869 0.64785
# Poissons Ratio (z) = 0.19109 0.22550
#
# Static dielectric constant tensor:
#      x y z
#    x 1.636280 0.000000 0.000000 
#    y 0.000000 1.625720 0.000000 
#    z 0.000000 0.000000 1.624270 
# 
# From -- ./inp_files/4532.got.cif
#   From: 2010.05.17/outbox.cif.g08.bks.cpg/sg57_3_cif.got.tgz:4532.got - 2010.06.03 13:58:18.
