data_PCOD9437066
_publ_section_title
;
Structure prediction by ZEFSAII (Michael W. Deem and Ramdas Pophale) SiO2 
 PCOD9437066
Probable space group: P B C M
;
_chemical_formula_sum "Si O2"
_cell_formula_units_Z 56
_cell_length_a 20.774362
_cell_length_b 14.974503
_cell_length_c 9.365141
_cell_angle_alpha 90.000000
_cell_angle_beta 90.000000
_cell_angle_gamma 90.000000
_cell_volume 2913.361875
_symmetry_space_group_name_H-M "P B C M"
_symmetry_group_IT_number 57
_symmetry_cell_setting 'orthorhombic'
loop_
_space_group_symop_operation_xyz
x,y,z
-x,-y,1/2+z
x,1/2-y,-z
-x,1/2+y,1/2-z
-x,-y,-z
x,y,1/2-z
-x,1/2+y,z
x,1/2-y,1/2+z
loop_
_atom_site_type_symbol
_atom_site_label
_atom_site_fract_x
_atom_site_fract_y
_atom_site_fract_z
Si Si1 0.854611 0.533959 0.920921
Si Si2 0.289305 0.040685 0.920948
Si Si3 0.105582 0.660741 0.417928
Si Si4 0.450607 0.599883 0.085087
Si Si5 0.953662 0.657755 0.079914
Si Si6 0.311661 0.664784 0.085884
Si Si7 0.588330 0.923166 0.918095
O O1 0.866869 0.542295 0.750000
O O2 0.783292 0.570754 0.951276
O O3 0.856285 0.428603 0.955000
O O4 0.909235 0.582873 0.010146
O O5 0.299382 0.042406 0.750000
O O6 0.294317 0.935498 0.964306
O O7 0.346147 0.094862 0.996959
O O8 0.123772 0.750000 0.500000
O O9 0.112928 0.677119 0.250000
O O10 0.029713 0.641226 0.444732
O O11 0.451969 0.564093 0.250000
O O12 0.389907 0.665131 0.082362
O O13 0.522974 0.633535 0.056282
O O14 0.433500 0.520881 0.975493
O O15 0.943606 0.664527 0.250000
O O16 0.937992 0.750000 0.000000
O O17 0.290249 0.671411 0.250000
O O18 0.287334 0.750000 0.000000
O O19 0.601666 0.924098 0.750000
#
# Coordination Sequence:
#
# PCOD9437066 Si02
#       7
#     8   8   8   8   8   8   8
#     4  10  20  35  54  76 105 142 180 216 259 312
#     4   9  19  33  46  64  96 133 163 197 247 300
#     4   9  19  34  53  79 110 142 175 214 262 313
#     4   8  15  27  42  61  86 114 144 187 242 287
#     4  10  20  35  56  81 106 133 170 219 270 317
#     4   9  17  29  43  62  91 125 159 196 240 290
#     4   9  15  25  44  66  85 109 149 196 236 283
#
# _framework density 19.221779000000002
#
# number of rings (size 3 to 8) (size 9 to 14) (size 15 to 20)
#    0.000    2.857    0.000    2.143    0.000    5.143 
#    0.000    0.000    0.000    0.857    0.000    4.000 
#    0.000    0.000    0.000    0.000    0.000    0.000 
#
# Total GULP energy -312011.422147 kJ/mol
# GULP energy per Si atom -5571.632538 kJ/mol
# Density = 1.917803 g / cm^3
# Si number density = 19.221779 Si / 1000 Ang^3
#
#
#
# Elastic Constant Matrix: (Units=GPa)
#
#
# Indices 1 2 3 4 5 6 
#
# 1 98.7207 17.9708 35.8979 0.0000 0.0000 0.0000
# 2 17.9708 16.9102 11.2597 0.0000 0.0000 0.0000
# 3 35.8979 11.2597 36.1590 0.0000 0.0000 0.0000
# 4 0.0000 0.0000 0.0000 25.4981 0.0000 0.0000
# 5 0.0000 0.0000 0.0000 0.0000 8.6216 0.0000
# 6 0.0000 0.0000 0.0000 0.0000 0.0000 1.4828
#
#
#
# Elastic Compliance Matrix: (Units=1/GPa)
#
#
# Indices 1 2 3 4 5 6 
#
# 1 0.016767 -0.008497 -0.014000 0.000000 0.000000 0.000000
# 2 -0.008497 0.078911 -0.016137 0.000000 0.000000 0.000000
# 3 -0.014000 -0.016137 0.046580 0.000000 0.000000 0.000000
# 4 0.000000 0.000000 0.000000 0.039219 0.000000 0.000000
# 5 0.000000 0.000000 0.000000 0.000000 0.115988 0.000000
# 6 0.000000 0.000000 0.000000 0.000000 0.000000 0.674398
#
#
# Mechanical properties :
#
#
# Convention : Reuss Voigt Hill
#
# Bulk Modulus (GPa) = 15.38706 31.33850 23.36278
# Shear Modulus (GPa) = 4.66943 12.89792 8.78368
#
# Velocity S-wave (km/s) = 1.56029 2.59319 2.13999
# Velocity P-wave (km/s) = 3.35685 5.03043 4.27631
#
# Compressibility (1/GPa) = 0.06498965
#
# Stress axis : x y z
#
# Youngs Moduli (GPa) = 59.64000 12.67257 21.46849
#
# Poissons Ratio (x) = 0.10768 0.30057
# Poissons Ratio (y) = 0.50674 0.34644
# Poissons Ratio (z) = 0.83498 0.20450
#
# Static dielectric constant tensor:
#      x y z
#    x 1.733330 0.000000 0.000000 
#    y 0.000000 1.664020 0.000000 
#    z 0.000000 0.000000 1.648490 
# 
# From -- ./inp_files/8018.got.cif
#   From: 2010.05.17/outbox.cif.g08.bks.cpg/sg57_5_cif.got.tgz:8018.got - 2010.06.03 13:58:18.
