data_PCOD9437602
_publ_section_title
;
Structure prediction by ZEFSAII (Michael W. Deem and Ramdas Pophale) SiO2 
 PCOD9437602
Probable space group: P B C M
;
_chemical_formula_sum "Si O2"
_cell_formula_units_Z 40
_cell_length_a 13.039958
_cell_length_b 17.913243
_cell_length_c 8.082134
_cell_angle_alpha 90.000000
_cell_angle_beta 90.000000
_cell_angle_gamma 90.000000
_cell_volume 1887.889002
_symmetry_space_group_name_H-M "P B C M"
_symmetry_group_IT_number 57
_symmetry_cell_setting 'orthorhombic'
loop_
_space_group_symop_operation_xyz
x,y,z
-x,-y,1/2+z
x,1/2-y,-z
-x,1/2+y,1/2-z
-x,-y,-z
x,y,1/2-z
-x,1/2+y,z
x,1/2-y,1/2+z
loop_
_atom_site_type_symbol
_atom_site_label
_atom_site_fract_x
_atom_site_fract_y
_atom_site_fract_z
Si Si1 0.103350 0.334632 0.443069
Si Si2 0.263796 0.662007 0.048956
Si Si3 0.476702 0.584577 0.050586
Si Si4 0.682593 0.664131 0.448346
Si Si5 0.930187 0.068342 0.435266
O O1 0.115527 0.250000 0.500000
O O2 0.076924 0.340537 0.250000
O O3 0.214428 0.371231 0.475245
O O4 0.013982 0.366719 0.554566
O O5 0.259946 0.661602 0.250000
O O6 0.371607 0.624544 0.993682
O O7 0.171547 0.607006 0.988112
O O8 0.254579 0.750000 0.000000
O O9 0.473375 0.587584 0.250000
O O10 0.577242 0.628535 0.993303
O O11 0.500000 0.500000 0.000000
O O12 0.677607 0.750000 0.500000
O O13 0.691203 0.658550 0.250000
O O14 0.900926 0.046600 0.250000
O O15 0.000000 0.000000 0.500000
#
# Coordination Sequence:
#
# PCOD9437602 Si02
#       5
#     8   8   8   8   8
#     4  11  22  38  61  88 120 159 202 252 306 366
#     4  10  23  43  66  93 126 165 211 259 311 376
#     4  10  23  40  60  90 125 160 203 253 308 368
#     4  10  20  36  59  88 119 155 200 248 300 366
#     4  11  24  41  62  91 127 163 207 259 312 374
#
# _framework density 21.187685999999999
#
# number of rings (size 3 to 8) (size 9 to 14) (size 15 to 20)
#    0.000    1.600    0.000    5.400    2.800    5.600 
#    0.000    0.000    0.000    0.000    0.000    0.000 
#    0.000    0.000    0.000    0.000    0.000    0.000 
#
# Total GULP energy -223047.647773 kJ/mol
# GULP energy per Si atom -5576.191194 kJ/mol
# Density = 2.113946 g / cm^3
# Si number density = 21.187686 Si / 1000 Ang^3
#
#
#
# Elastic Constant Matrix: (Units=GPa)
#
#
# Indices 1 2 3 4 5 6 
#
# 1 124.5132 18.4074 -13.8560 0.0000 0.0000 0.0000
# 2 18.4074 61.9906 -11.7569 0.0000 0.0000 0.0000
# 3 -13.8560 -11.7569 34.5104 0.0000 0.0000 0.0000
# 4 0.0000 0.0000 0.0000 34.1762 0.0000 0.0000
# 5 0.0000 0.0000 0.0000 0.0000 13.1630 0.0000
# 6 0.0000 0.0000 0.0000 0.0000 0.0000 47.0031
#
#
#
# Elastic Compliance Matrix: (Units=1/GPa)
#
#
# Indices 1 2 3 4 5 6 
#
# 1 0.008642 -0.002040 0.002775 0.000000 0.000000 0.000000
# 2 -0.002040 0.017727 0.005220 0.000000 0.000000 0.000000
# 3 0.002775 0.005220 0.031869 0.000000 0.000000 0.000000
# 4 0.000000 0.000000 0.000000 0.029260 0.000000 0.000000
# 5 0.000000 0.000000 0.000000 0.000000 0.075971 0.000000
# 6 0.000000 0.000000 0.000000 0.000000 0.000000 0.021275
#
#
# Mechanical properties :
#
#
# Convention : Reuss Voigt Hill
#
# Bulk Modulus (GPa) = 14.25545 22.95591 18.60568
# Shear Modulus (GPa) = 25.48205 34.08310 29.78257
#
# Velocity S-wave (km/s) = 3.47173 4.01512 3.75327
# Velocity P-wave (km/s) = 4.77633 5.68797 5.25197
#
# Compressibility (1/GPa) = 0.07014862
#
# Stress axis : x y z
#
# Youngs Moduli (GPa) = 115.71931 56.41032 31.37816
#
# Poissons Ratio (x) = 0.11507 -0.08707
# Poissons Ratio (y) = 0.23604 -0.16380
# Poissons Ratio (z) = -0.32109 -0.29448
#
# Static dielectric constant tensor:
#      x y z
#    x 1.831310 0.000000 0.000000 
#    y 0.000000 1.734770 0.000000 
#    z 0.000000 0.000000 1.769460 
# 
# From -- ./inp_files/2694.got.cif
#   From: 2010.05.17/outbox.cif.g08.bks.cpg/sg57_2_cif.got.tgz:2694.got - 2010.06.03 13:58:18.
