data_PCOD9437304
_publ_section_title
;
Structure prediction by ZEFSAII (Michael W. Deem and Ramdas Pophale) SiO2 
 PCOD9437304
Probable space group: P B C M
;
_chemical_formula_sum "Si O2"
_cell_formula_units_Z 56
_cell_length_a 5.694713
_cell_length_b 31.501560
_cell_length_c 15.274026
_cell_angle_alpha 90.000000
_cell_angle_beta 90.000000
_cell_angle_gamma 90.000000
_cell_volume 2740.043315
_symmetry_space_group_name_H-M "P B C M"
_symmetry_group_IT_number 57
_symmetry_cell_setting 'orthorhombic'
loop_
_space_group_symop_operation_xyz
x,y,z
-x,-y,1/2+z
x,1/2-y,-z
-x,1/2+y,1/2-z
-x,-y,-z
x,y,1/2-z
-x,1/2+y,z
x,1/2-y,1/2+z
loop_
_atom_site_type_symbol
_atom_site_label
_atom_site_fract_x
_atom_site_fract_y
_atom_site_fract_z
Si Si1 0.734487 0.955690 0.482818
Si Si2 0.337027 0.156577 0.351283
Si Si3 0.917422 0.776327 0.412153
Si Si4 0.022471 0.136061 0.505952
Si Si5 0.356597 0.913628 0.575417
Si Si6 0.963435 0.017707 0.352461
Si Si7 0.574829 0.258422 0.648734
O O1 0.466674 0.947942 0.509342
O O2 0.841045 0.907911 0.474987
O O3 0.839703 0.976869 0.571821
O O4 0.800383 0.980999 0.395362
O O5 0.278098 0.163805 0.250000
O O6 0.458363 0.111100 0.365212
O O7 0.508676 0.194196 0.383568
O O8 0.114666 0.155253 0.414112
O O9 0.868862 0.750000 0.500000
O O10 0.938821 0.826737 0.425771
O O11 0.181968 0.760802 0.387280
O O12 0.674556 0.766638 0.360074
O O13 0.760747 0.121044 0.487291
O O14 0.175315 0.937889 0.637233
O O15 0.025872 0.010810 0.250000
O O16 0.626704 0.263389 0.750000
#
# Coordination Sequence:
#
# PCOD9437304 Si02
#       7
#     8   8   8   8   8   8   8
#     4   9  21  38  58  87 123 159 200 262 314 381
#     4  10  21  36  55  88 124 157 198 258 327 383
#     4  12  23  40  67  92 123 166 222 262 323 389
#     4  10  22  37  59  86 119 162 206 259 315 382
#     4  10  20  35  58  87 120 156 200 254 319 379
#     4  10  20  37  60  88 119 160 204 251 315 391
#     4  11  25  42  62  90 128 167 214 271 325 384
#
# _framework density 20.437631
#
# number of rings (size 3 to 8) (size 9 to 14) (size 15 to 20)
#    0.000    1.714    1.429    2.571    4.000    6.286 
#    0.000    1.429    0.000    0.000    0.000    0.000 
#    0.000    0.000    0.000    0.000    0.000    0.000 
#
# Total GULP energy -311961.365852 kJ/mol
# GULP energy per Si atom -5570.738676 kJ/mol
# Density = 2.039111 g / cm^3
# Si number density = 20.437631 Si / 1000 Ang^3
#
#
#
# Elastic Constant Matrix: (Units=GPa)
#
#
# Indices 1 2 3 4 5 6 
#
# 1 59.5557 7.2101 8.7420 0.0000 0.0000 0.0000
# 2 7.2101 86.4919 25.6790 0.0000 0.0000 0.0000
# 3 8.7420 25.6790 58.4991 0.0000 0.0000 0.0000
# 4 0.0000 0.0000 0.0000 25.8231 0.0000 0.0000
# 5 0.0000 0.0000 0.0000 0.0000 2.7237 0.0000
# 6 0.0000 0.0000 0.0000 0.0000 0.0000 36.7330
#
#
#
# Elastic Compliance Matrix: (Units=1/GPa)
#
#
# Indices 1 2 3 4 5 6 
#
# 1 0.017212 -0.000772 -0.002233 0.000000 0.000000 0.000000
# 2 -0.000772 0.013329 -0.005736 0.000000 0.000000 0.000000
# 3 -0.002233 -0.005736 0.019946 0.000000 0.000000 0.000000
# 4 0.000000 0.000000 0.000000 0.038725 0.000000 0.000000
# 5 0.000000 0.000000 0.000000 0.000000 0.367150 0.000000
# 6 0.000000 0.000000 0.000000 0.000000 0.000000 0.027224
#
#
# Mechanical properties :
#
#
# Convention : Reuss Voigt Hill
#
# Bulk Modulus (GPa) = 30.29799 31.97876 31.13838
# Shear Modulus (GPa) = 9.76432 23.91700 16.84066
#
# Velocity S-wave (km/s) = 2.18815 3.42459 2.87366
# Velocity P-wave (km/s) = 4.60877 5.59626 5.12635
#
# Compressibility (1/GPa) = 0.03300549
#
# Stress axis : x y z
#
# Youngs Moduli (GPa) = 58.09811 75.02446 50.13597
#
# Poissons Ratio (x) = 0.05790 0.11197
# Poissons Ratio (y) = 0.04484 0.28756
# Poissons Ratio (z) = 0.12976 0.43031
#
# Static dielectric constant tensor:
#      x y z
#    x 1.836220 0.000000 0.000000 
#    y 0.000000 1.781140 0.000000 
#    z 0.000000 0.000000 1.702900 
# 
# From -- ./inp_files/15253.got.cif
#   From: 2010.05.17/outbox.cif.g08.bks.cpg/sg57_8_cif.got.tgz:15253.got - 2010.06.03 13:58:18.
