data_PCOD9437263
_publ_section_title
;
Structure prediction by ZEFSAII (Michael W. Deem and Ramdas Pophale) SiO2 
 PCOD9437263
Probable space group: P B C M
;
_chemical_formula_sum "Si O2"
_cell_formula_units_Z 64
_cell_length_a 9.405144
_cell_length_b 22.544562
_cell_length_c 14.906913
_cell_angle_alpha 90.000000
_cell_angle_beta 90.000000
_cell_angle_gamma 90.000000
_cell_volume 3160.785092
_symmetry_space_group_name_H-M "P B C M"
_symmetry_group_IT_number 57
_symmetry_cell_setting 'orthorhombic'
loop_
_space_group_symop_operation_xyz
x,y,z
-x,-y,1/2+z
x,1/2-y,-z
-x,1/2+y,1/2-z
-x,-y,-z
x,y,1/2-z
-x,1/2+y,z
x,1/2-y,1/2+z
loop_
_atom_site_type_symbol
_atom_site_label
_atom_site_fract_x
_atom_site_fract_y
_atom_site_fract_z
Si Si1 0.830923 0.726281 0.404617
Si Si2 0.280599 0.585609 0.994599
Si Si3 0.530248 0.069425 0.349401
Si Si4 0.519505 0.791299 0.850852
Si Si5 0.966519 0.608806 0.455739
Si Si6 0.727997 0.207751 0.579742
Si Si7 0.976420 0.839500 0.347789
Si Si8 0.217406 0.486417 0.645125
O O1 0.880316 0.750000 0.500000
O O2 0.662542 0.715712 0.407405
O O3 0.909929 0.663565 0.395364
O O4 0.877389 0.781143 0.344331
O O5 0.342274 0.648433 0.961292
O O6 0.242255 0.547789 0.906855
O O7 0.379707 0.550640 0.064126
O O8 0.135630 0.601933 0.046372
O O9 0.583631 0.051169 0.250000
O O10 0.531788 0.140904 0.353337
O O11 0.368571 0.047643 0.356116
O O12 0.568678 0.779311 0.750000
O O13 0.392454 0.746821 0.873480
O O14 0.936627 0.622923 0.562169
O O15 0.891843 0.551188 0.415030
O O16 0.783474 0.250000 0.500000
O O17 0.863090 0.185171 0.635866
O O18 0.968945 0.869879 0.250000
O O19 0.175736 0.492509 0.750000
#
# Coordination Sequence:
#
# PCOD9437263 Si02
#       8
#     8   8   8   8   8   8   8   8
#     4  10  20  35  57  85 121 159 203 251 308 363
#     4  11  23  40  65  90 125 163 209 259 317 366
#     4  10  22  40  60  88 120 157 205 255 306 370
#     4  11  21  34  57  87 118 157 204 249 300 367
#     4  10  22  41  61  89 124 165 208 258 309 373
#     4  11  21  38  58  88 123 159 200 251 307 371
#     4  10  21  36  57  88 126 162 200 254 313 366
#     4  11  24  43  66  91 122 164 213 260 313 371
#
# _framework density 20.248135000000001
#
# number of rings (size 3 to 8) (size 9 to 14) (size 15 to 20)
#    0.000    1.500    2.500    3.750    0.000    3.500 
#    0.000    0.625    0.000    2.250    0.000    0.000 
#    0.000    0.000    0.000    0.000    0.000    0.000 
#
# Total GULP energy -356955.195210 kJ/mol
# GULP energy per Si atom -5577.424925 kJ/mol
# Density = 2.020205 g / cm^3
# Si number density = 20.248135 Si / 1000 Ang^3
#
#
#
# Elastic Constant Matrix: (Units=GPa)
#
#
# Indices 1 2 3 4 5 6 
#
# 1 37.2755 5.7265 9.4521 0.0000 0.0000 0.0000
# 2 5.7265 69.0031 13.6980 0.0000 0.0000 0.0000
# 3 9.4521 13.6980 83.5153 0.0000 0.0000 0.0000
# 4 0.0000 0.0000 0.0000 22.3843 0.0000 0.0000
# 5 0.0000 0.0000 0.0000 0.0000 24.1656 0.0000
# 6 0.0000 0.0000 0.0000 0.0000 0.0000 21.3418
#
#
#
# Elastic Compliance Matrix: (Units=1/GPa)
#
#
# Indices 1 2 3 4 5 6 
#
# 1 0.027821 -0.001740 -0.002863 0.000000 0.000000 0.000000
# 2 -0.001740 0.015089 -0.002278 0.000000 0.000000 0.000000
# 3 -0.002863 -0.002278 0.012672 0.000000 0.000000 0.000000
# 4 0.000000 0.000000 0.000000 0.044674 0.000000 0.000000
# 5 0.000000 0.000000 0.000000 0.000000 0.041381 0.000000
# 6 0.000000 0.000000 0.000000 0.000000 0.000000 0.046856
#
#
# Mechanical properties :
#
#
# Convention : Reuss Voigt Hill
#
# Bulk Modulus (GPa) = 23.91318 27.50523 25.70920
# Shear Modulus (GPa) = 23.12727 24.30616 23.71671
#
# Velocity S-wave (km/s) = 3.38330 3.46846 3.42614
# Velocity P-wave (km/s) = 5.20557 5.44553 5.32691
#
# Compressibility (1/GPa) = 0.04181795
#
# Stress axis : x y z
#
# Youngs Moduli (GPa) = 35.94445 66.27470 78.91710
#
# Poissons Ratio (x) = 0.11535 0.22596
# Poissons Ratio (y) = 0.06256 0.17976
# Poissons Ratio (z) = 0.10292 0.15096
#
# Static dielectric constant tensor:
#      x y z
#    x 1.701280 0.000000 0.000000 
#    y 0.000000 1.742140 0.000000 
#    z 0.000000 0.000000 1.777000 
# 
# From -- ./inp_files/16992.got.cif
#   From: 2010.05.17/outbox.cif.g08.bks.cpg/sg57_9_cif.got.tgz:16992.got - 2010.06.03 13:58:18.
