data_PCOD9437060
_publ_section_title
;
Structure prediction by ZEFSAII (Michael W. Deem and Ramdas Pophale) SiO2 
 PCOD9437060
Probable space group: P B C M
;
_chemical_formula_sum "Si O2"
_cell_formula_units_Z 48
_cell_length_a 31.829553
_cell_length_b 9.467823
_cell_length_c 8.686334
_cell_angle_alpha 90.000000
_cell_angle_beta 90.000000
_cell_angle_gamma 90.000000
_cell_volume 2617.683855
_symmetry_space_group_name_H-M "P B C M"
_symmetry_group_IT_number 57
_symmetry_cell_setting 'orthorhombic'
loop_
_space_group_symop_operation_xyz
x,y,z
-x,-y,1/2+z
x,1/2-y,-z
-x,1/2+y,1/2-z
-x,-y,-z
x,y,1/2-z
-x,1/2+y,z
x,1/2-y,1/2+z
loop_
_atom_site_type_symbol
_atom_site_label
_atom_site_fract_x
_atom_site_fract_y
_atom_site_fract_z
Si Si1 0.696077 0.591643 0.435015
Si Si2 0.620794 0.407705 0.565437
Si Si3 0.791198 0.906133 0.564459
Si Si4 0.869055 0.407227 0.435654
Si Si5 0.538612 0.909024 0.434909
Si Si6 0.962289 0.408104 0.434548
O O1 0.688960 0.750000 0.500000
O O2 0.692930 0.596663 0.250000
O O3 0.662270 0.483563 0.501140
O O4 0.743836 0.548154 0.478132
O O5 0.615859 0.250000 0.500000
O O6 0.622963 0.399964 0.750000
O O7 0.581186 0.506885 0.523670
O O8 0.796963 0.750000 0.500000
O O9 0.792597 0.901691 0.750000
O O10 0.829381 0.002926 0.509229
O O11 0.865943 0.250000 0.500000
O O12 0.867578 0.401927 0.250000
O O13 0.915541 0.463406 0.478049
O O14 0.538663 0.750000 0.500000
O O15 0.535671 0.902218 0.250000
O O16 0.500000 0.000000 0.500000
O O17 0.965400 0.250000 0.500000
O O18 0.964818 0.404079 0.250000
O O19 0.000000 0.500000 0.500000
#
# Coordination Sequence:
#
# PCOD9437060 Si02
#       6
#     8   8   8   8   8   8
#     4  10  20  36  58  82 111 146 184 227 273 323
#     4  11  24  40  59  85 116 150 188 230 276 327
#     4   9  19  35  54  79 108 139 178 221 266 318
#     4   9  19  35  53  75 104 137 174 216 264 318
#     4  11  24  41  63  89 118 152 189 231 278 328
#     4  10  20  35  54  76 104 138 176 219 267 320
#
# _framework density 18.336821
#
# number of rings (size 3 to 8) (size 9 to 14) (size 15 to 20)
#    0.000    2.000    0.000    3.000    0.000    8.667 
#    0.000    3.333    0.000    0.000    0.000    0.000 
#    0.000    0.000    0.000    0.000    0.000    0.000 
#
# Total GULP energy -267995.384585 kJ/mol
# GULP energy per Si atom -5583.237179 kJ/mol
# Density = 1.829509 g / cm^3
# Si number density = 18.336821 Si / 1000 Ang^3
#
#
#
# Elastic Constant Matrix: (Units=GPa)
#
#
# Indices 1 2 3 4 5 6 
#
# 1 202.0228 118.7284 58.3803 0.0000 0.0000 0.0000
# 2 118.7284 131.0342 42.4667 0.0000 0.0000 0.0000
# 3 58.3803 42.4667 41.0082 0.0000 0.0000 0.0000
# 4 0.0000 0.0000 0.0000 36.2665 0.0000 0.0000
# 5 0.0000 0.0000 0.0000 0.0000 26.5142 0.0000
# 6 0.0000 0.0000 0.0000 0.0000 0.0000 42.7914
#
#
#
# Elastic Compliance Matrix: (Units=1/GPa)
#
#
# Indices 1 2 3 4 5 6 
#
# 1 0.012515 -0.008377 -0.009142 0.000000 0.000000 0.000000
# 2 -0.008377 0.017094 -0.005776 0.000000 0.000000 0.000000
# 3 -0.009142 -0.005776 0.043381 0.000000 0.000000 0.000000
# 4 0.000000 0.000000 0.000000 0.027574 0.000000 0.000000
# 5 0.000000 0.000000 0.000000 0.000000 0.037716 0.000000
# 6 0.000000 0.000000 0.000000 0.000000 0.000000 0.023369
#
#
# Mechanical properties :
#
#
# Convention : Reuss Voigt Hill
#
# Bulk Modulus (GPa) = 37.87819 90.35734 64.11777
# Shear Modulus (GPa) = 23.03753 31.41372 27.22563
#
# Velocity S-wave (km/s) = 3.54835 4.14351 3.85743
# Velocity P-wave (km/s) = 6.12287 8.50147 7.40826
#
# Compressibility (1/GPa) = 0.02640041
#
# Stress axis : x y z
#
# Youngs Moduli (GPa) = 79.90676 58.50134 23.05144
#
# Poissons Ratio (x) = 0.49005 0.21073
# Poissons Ratio (y) = 0.66935 0.13315
# Poissons Ratio (z) = 0.73047 0.33792
#
# Static dielectric constant tensor:
#      x y z
#    x 1.650250 0.000000 0.000000 
#    y 0.000000 1.579270 0.000000 
#    z 0.000000 0.000000 1.620320 
# 
# From -- ./inp_files/9905.got.cif
#   From: 2010.05.17/outbox.cif.g08.bks.cpg/sg57_5_cif.got.tgz:9905.got - 2010.06.03 13:58:18.
