data_PCOD9437162
_publ_section_title
;
Structure prediction by ZEFSAII (Michael W. Deem and Ramdas Pophale) SiO2 
 PCOD9437162
Probable space group: P B C M
;
_chemical_formula_sum "Si O2"
_cell_formula_units_Z 44
_cell_length_a 6.699612
_cell_length_b 7.915114
_cell_length_c 35.339655
_cell_angle_alpha 90.000000
_cell_angle_beta 90.000000
_cell_angle_gamma 90.000000
_cell_volume 1873.998037
_symmetry_space_group_name_H-M "P B C M"
_symmetry_group_IT_number 57
_symmetry_cell_setting 'orthorhombic'
loop_
_space_group_symop_operation_xyz
x,y,z
-x,-y,1/2+z
x,1/2-y,-z
-x,1/2+y,1/2-z
-x,-y,-z
x,y,1/2-z
-x,1/2+y,z
x,1/2-y,1/2+z
loop_
_atom_site_type_symbol
_atom_site_label
_atom_site_fract_x
_atom_site_fract_y
_atom_site_fract_z
Si Si1 0.387916 0.737303 0.750000
Si Si2 0.580551 0.042209 0.671403
Si Si3 0.869054 0.750000 0.000000
Si Si4 0.111463 0.991251 0.944383
Si Si5 0.178046 0.304650 0.328799
Si Si6 0.185957 0.109057 0.750000
Si Si7 0.835697 0.207534 0.608987
O O1 0.360934 0.636630 0.789448
O O2 0.630621 0.743032 0.750000
O O3 0.279471 0.919564 0.750000
O O4 0.340067 0.044211 0.667973
O O5 0.660366 0.134363 0.634102
O O6 0.684558 0.861139 0.672262
O O7 0.765655 0.628058 0.969085
O O8 0.010195 0.866266 0.974313
O O9 0.219855 0.878031 0.913144
O O10 0.929475 0.081583 0.922170
O O11 0.075240 0.348286 0.288738
O O12 0.019364 0.275112 0.361450
#
# Coordination Sequence:
#
# PCOD9437162 Si02
#       7
#     4   8   4   8   8   4   8
#     4  10  20  35  56  77 111 159 207 244 284 345
#     4  11  23  38  58  83 118 160 199 246 293 338
#     4   8  16  34  60  88 118 148 192 226 280 350
#     4   9  18  34  58  91 118 148 190 235 280 356
#     4  11  23  38  58  83 118 160 199 246 293 338
#     4  10  20  35  56  77 111 159 207 244 284 345
#     4  11  22  36  58  91 124 146 196 243 292 344
#
# _framework density 23.479213999999999
#
# number of rings (size 3 to 8) (size 9 to 14) (size 15 to 20)
#    0.000    1.818    1.818    4.909    5.091    0.727 
#    0.000    0.000    0.000    0.000    0.000   89.091 
#    0.000    0.000    0.000    0.000    0.000    0.000 
#
# Total GULP energy -245704.015523 kJ/mol
# GULP energy per Si atom -5584.182171 kJ/mol
# Density = 2.342577 g / cm^3
# Si number density = 23.479214 Si / 1000 Ang^3
#
#
#
# Elastic Constant Matrix: (Units=GPa)
#
#
# Indices 1 2 3 4 5 6 
#
# 1 58.2544 -12.0181 16.9246 0.0000 0.0000 0.0000
# 2 -12.0181 76.3811 46.0959 0.0000 0.0000 0.0000
# 3 16.9246 46.0959 161.0278 0.0000 0.0000 0.0000
# 4 0.0000 0.0000 0.0000 61.8208 0.0000 0.0000
# 5 0.0000 0.0000 0.0000 0.0000 5.4381 0.0000
# 6 0.0000 0.0000 0.0000 0.0000 0.0000 7.3088
#
#
#
# Elastic Compliance Matrix: (Units=1/GPa)
#
#
# Indices 1 2 3 4 5 6 
#
# 1 0.019240 0.005135 -0.003492 0.000000 0.000000 0.000000
# 2 0.005135 0.017197 -0.005462 0.000000 0.000000 0.000000
# 3 -0.003492 -0.005462 0.008141 0.000000 0.000000 0.000000
# 4 0.000000 0.000000 0.000000 0.016176 0.000000 0.000000
# 5 0.000000 0.000000 0.000000 0.000000 0.183886 0.000000
# 6 0.000000 0.000000 0.000000 0.000000 0.000000 0.136821
#
#
# Mechanical properties :
#
#
# Convention : Reuss Voigt Hill
#
# Bulk Modulus (GPa) = 27.07239 44.18535 35.62887
# Shear Modulus (GPa) = 12.45599 31.22426 21.84013
#
# Velocity S-wave (km/s) = 2.30578 3.65069 3.05321
# Velocity P-wave (km/s) = 4.31790 6.05226 5.25709
#
# Compressibility (1/GPa) = 0.03693801
#
# Stress axis : x y z
#
# Youngs Moduli (GPa) = 51.97517 58.15057 122.83776
#
# Poissons Ratio (x) = -0.29859 0.42896
# Poissons Ratio (y) = -0.26688 0.67099
# Poissons Ratio (z) = 0.18150 0.31764
#
# Static dielectric constant tensor:
#      x y z
#    x 1.840940 0.000000 0.000000 
#    y 0.000000 1.991470 0.000000 
#    z 0.000000 0.000000 1.924070 
# 
# From -- ./inp_files/29427.got.cif
#   From: 2010.05.17/outbox.cif.g08.bks.cpg/sg57_15_cif.got.tgz:29427.got - 2010.06.03 13:58:18.
