data_PCOD9437097
_publ_section_title
;
Structure prediction by ZEFSAII (Michael W. Deem and Ramdas Pophale) SiO2 
 PCOD9437097
Probable space group: P B C M
;
_chemical_formula_sum "Si O2"
_cell_formula_units_Z 40
_cell_length_a 14.062739
_cell_length_b 18.539797
_cell_length_c 8.634556
_cell_angle_alpha 90.000000
_cell_angle_beta 90.000000
_cell_angle_gamma 90.000000
_cell_volume 2251.204258
_symmetry_space_group_name_H-M "P B C M"
_symmetry_group_IT_number 57
_symmetry_cell_setting 'orthorhombic'
loop_
_space_group_symop_operation_xyz
x,y,z
-x,-y,1/2+z
x,1/2-y,-z
-x,1/2+y,1/2-z
-x,-y,-z
x,y,1/2-z
-x,1/2+y,z
x,1/2-y,1/2+z
loop_
_atom_site_type_symbol
_atom_site_label
_atom_site_fract_x
_atom_site_fract_y
_atom_site_fract_z
Si Si1 0.798381 0.543179 0.563456
Si Si2 0.301435 0.827345 0.563675
Si Si3 0.599657 0.026320 0.435667
Si Si4 0.081637 0.169384 0.435030
Si Si5 0.887828 0.101122 0.564532
O O1 0.804262 0.544270 0.750000
O O2 0.690717 0.521993 0.517345
O O3 0.833979 0.617974 0.494254
O O4 0.864980 0.478353 0.501432
O O5 0.330915 0.750000 0.500000
O O6 0.292640 0.826036 0.750000
O O7 0.373222 0.891766 0.519865
O O8 0.199766 0.849266 0.491865
O O9 0.595615 0.024000 0.250000
O O10 0.500000 0.000000 0.500000
O O11 0.089941 0.250000 0.500000
O O12 0.079068 0.170924 0.250000
O O13 0.984823 0.133470 0.498577
O O14 0.891502 0.098809 0.750000
#
# Coordination Sequence:
#
# PCOD9437097 Si02
#       5
#     8   8   8   8   8
#     4  10  21  39  58  81 110 143 182 226 270 322
#     4  10  20  35  54  82 113 142 177 225 275 324
#     4   9  20  37  59  82 108 139 178 224 272 324
#     4  12  24  38  55  79 111 149 186 225 268 319
#     4  11  21  35  56  82 111 147 183 222 268 321
#
# _framework density 17.768267999999999
#
# number of rings (size 3 to 8) (size 9 to 14) (size 15 to 20)
#    0.000    1.600    0.000    7.200    0.000    4.800 
#    0.000    1.000    0.000    2.400    0.000    0.000 
#    0.000    0.000    0.000    0.000    0.000    0.000 
#
# Total GULP energy -223544.706665 kJ/mol
# GULP energy per Si atom -5588.617667 kJ/mol
# Density = 1.772783 g / cm^3
# Si number density = 17.768268 Si / 1000 Ang^3
#
#
#
# Elastic Constant Matrix: (Units=GPa)
#
#
# Indices 1 2 3 4 5 6 
#
# 1 123.3984 95.5757 47.8571 0.0000 0.0000 0.0000
# 2 95.5757 135.4965 52.9316 0.0000 0.0000 0.0000
# 3 47.8571 52.9316 118.1722 0.0000 0.0000 0.0000
# 4 0.0000 0.0000 0.0000 35.1202 0.0000 0.0000
# 5 0.0000 0.0000 0.0000 0.0000 32.9956 0.0000
# 6 0.0000 0.0000 0.0000 0.0000 0.0000 16.3254
#
#
#
# Elastic Compliance Matrix: (Units=1/GPa)
#
#
# Indices 1 2 3 4 5 6 
#
# 1 0.018233 -0.012092 -0.001967 0.000000 0.000000 0.000000
# 2 -0.012092 0.016965 -0.002702 0.000000 0.000000 0.000000
# 3 -0.001967 -0.002702 0.010469 0.000000 0.000000 0.000000
# 4 0.000000 0.000000 0.000000 0.028474 0.000000 0.000000
# 5 0.000000 0.000000 0.000000 0.000000 0.030307 0.000000
# 6 0.000000 0.000000 0.000000 0.000000 0.000000 0.061254
#
#
# Mechanical properties :
#
#
# Convention : Reuss Voigt Hill
#
# Bulk Modulus (GPa) = 82.34627 85.53287 83.93957
# Shear Modulus (GPa) = 24.59733 28.93507 26.76620
#
# Velocity S-wave (km/s) = 3.72471 4.03981 3.88545
# Velocity P-wave (km/s) = 8.05873 8.36675 8.21419
#
# Compressibility (1/GPa) = 0.01214384
#
# Stress axis : x y z
#
# Youngs Moduli (GPa) = 54.84648 58.94348 95.51739
#
# Poissons Ratio (x) = 0.71276 0.18793
# Poissons Ratio (y) = 0.66322 0.25809
# Poissons Ratio (z) = 0.10791 0.15927
#
# Static dielectric constant tensor:
#      x y z
#    x 1.585390 0.000000 0.000000 
#    y 0.000000 1.604650 0.000000 
#    z 0.000000 0.000000 1.595820 
# 
# From -- ./inp_files/2899.got.cif
#   From: 2010.05.17/outbox.cif.g08.bks.cpg/sg57_2_cif.got.tgz:2899.got - 2010.06.03 13:58:18.
