data_PCOD9437278
_publ_section_title
;
Structure prediction by ZEFSAII (Michael W. Deem and Ramdas Pophale) SiO2 
 PCOD9437278
Probable space group: P B C M
;
_chemical_formula_sum "Si O2"
_cell_formula_units_Z 64
_cell_length_a 24.885866
_cell_length_b 15.014460
_cell_length_c 8.399643
_cell_angle_alpha 90.000000
_cell_angle_beta 90.000000
_cell_angle_gamma 90.000000
_cell_volume 3138.508461
_symmetry_space_group_name_H-M "P B C M"
_symmetry_group_IT_number 57
_symmetry_cell_setting 'orthorhombic'
loop_
_space_group_symop_operation_xyz
x,y,z
-x,-y,1/2+z
x,1/2-y,-z
-x,1/2+y,1/2-z
-x,-y,-z
x,y,1/2-z
-x,1/2+y,z
x,1/2-y,1/2+z
loop_
_atom_site_type_symbol
_atom_site_label
_atom_site_fract_x
_atom_site_fract_y
_atom_site_fract_z
Si Si1 0.623479 0.161800 0.938643
Si Si2 0.247794 0.041654 0.438149
Si Si3 0.867567 0.969343 0.557822
Si Si4 0.648880 0.850956 0.060768
Si Si5 0.035923 0.349117 0.059449
Si Si6 0.560898 0.508873 0.942303
Si Si7 0.087328 0.848133 0.441765
Si Si8 0.257460 0.844979 0.935308
O O1 0.635063 0.166505 0.750000
O O2 0.593244 0.250000 0.000000
O O3 0.678181 0.160428 0.040338
O O4 0.591940 0.073453 0.979898
O O5 0.252354 0.056412 0.250000
O O6 0.299008 0.089875 0.513900
O O7 0.188871 0.072769 0.497011
O O8 0.245137 0.935553 0.470663
O O9 0.865507 0.971402 0.750000
O O10 0.875781 0.071073 0.500873
O O11 0.919890 0.915459 0.507447
O O12 0.647548 0.847262 0.250000
O O13 0.594675 0.903070 0.008400
O O14 0.652603 0.750000 0.000000
O O15 0.037126 0.351901 0.250000
O O16 0.974422 0.367884 0.007774
O O17 0.048502 0.250000 0.000000
O O18 0.562734 0.503040 0.750000
O O19 0.500000 0.500000 0.000000
O O20 0.101809 0.750000 0.500000
O O21 0.088400 0.846870 0.250000
O O22 0.244051 0.854503 0.750000
O O23 0.235937 0.750000 0.000000
#
# Coordination Sequence:
#
# PCOD9437278 Si02
#       8
#     8   8   8   8   8   8   8   8
#     4  11  21  36  61  90 122 158 196 242 296 354
#     4  11  23  40  62  88 121 162 205 252 307 362
#     4  10  22  38  57  85 120 155 198 252 303 359
#     4  11  25  45  69  93 123 163 209 255 304 361
#     4  10  20  35  58  84 113 153 198 248 305 363
#     4  11  24  42  65  95 129 164 204 251 305 362
#     4   9  19  36  57  84 118 155 197 245 302 364
#     4  11  21  36  59  87 118 154 196 242 295 357
#
# _framework density 20.391853000000001
#
# number of rings (size 3 to 8) (size 9 to 14) (size 15 to 20)
#    0.000    1.500    1.250    4.875    0.000    5.000 
#    0.000    2.500    0.000    0.000    0.000    0.000 
#    0.000    0.000    0.000    0.000    0.000    0.000 
#
# Total GULP energy -357433.070396 kJ/mol
# GULP energy per Si atom -5584.891725 kJ/mol
# Density = 2.034544 g / cm^3
# Si number density = 20.391853 Si / 1000 Ang^3
#
#
#
# Elastic Constant Matrix: (Units=GPa)
#
#
# Indices 1 2 3 4 5 6 
#
# 1 118.2040 58.2905 13.2672 0.0000 0.0000 0.0000
# 2 58.2905 110.1976 6.6862 0.0000 0.0000 0.0000
# 3 13.2672 6.6862 37.9594 0.0000 0.0000 0.0000
# 4 0.0000 0.0000 0.0000 36.7691 0.0000 0.0000
# 5 0.0000 0.0000 0.0000 0.0000 13.1203 0.0000
# 6 0.0000 0.0000 0.0000 0.0000 0.0000 1.2592
#
#
#
# Elastic Compliance Matrix: (Units=1/GPa)
#
#
# Indices 1 2 3 4 5 6 
#
# 1 0.011786 -0.006049 -0.003054 0.000000 0.000000 0.000000
# 2 -0.006049 0.012277 -0.000048 0.000000 0.000000 0.000000
# 3 -0.003054 -0.000048 0.027420 0.000000 0.000000 0.000000
# 4 0.000000 0.000000 0.000000 0.027197 0.000000 0.000000
# 5 0.000000 0.000000 0.000000 0.000000 0.076218 0.000000
# 6 0.000000 0.000000 0.000000 0.000000 0.000000 0.794179
#
#
# Mechanical properties :
#
#
# Convention : Reuss Voigt Hill
#
# Bulk Modulus (GPa) = 30.13807 46.98319 38.56063
# Shear Modulus (GPa) = 5.11018 22.77086 13.94052
#
# Velocity S-wave (km/s) = 1.58475 3.34528 2.61747
# Velocity P-wave (km/s) = 4.26147 6.16534 5.29960
#
# Compressibility (1/GPa) = 0.03318063
#
# Stress axis : x y z
#
# Youngs Moduli (GPa) = 84.84915 81.45193 36.47001
#
# Poissons Ratio (x) = 0.49269 0.11137
# Poissons Ratio (y) = 0.51324 0.00176
# Poissons Ratio (z) = 0.25911 0.00394
#
# Static dielectric constant tensor:
#      x y z
#    x 1.757800 0.000000 0.000000 
#    y 0.000000 1.921070 0.000000 
#    z 0.000000 0.000000 1.707050 
# 
# From -- ./inp_files/9289.got.cif
#   From: 2010.05.17/outbox.cif.g08.bks.cpg/sg57_5_cif.got.tgz:9289.got - 2010.06.03 13:58:18.
