data_PCOD9437938
_publ_section_title
;
Structure prediction by ZEFSAII (Michael W. Deem and Ramdas Pophale) SiO2 
 PCOD9437938
Probable space group: P B C M
;
_chemical_formula_sum "Si O2"
_cell_formula_units_Z 64
_cell_length_a 15.055918
_cell_length_b 9.080451
_cell_length_c 27.219988
_cell_angle_alpha 90.000000
_cell_angle_beta 90.000000
_cell_angle_gamma 90.000000
_cell_volume 3721.367748
_symmetry_space_group_name_H-M "P B C M"
_symmetry_group_IT_number 57
_symmetry_cell_setting 'orthorhombic'
loop_
_space_group_symop_operation_xyz
x,y,z
-x,-y,1/2+z
x,1/2-y,-z
-x,1/2+y,1/2-z
-x,-y,-z
x,y,1/2-z
-x,1/2+y,z
x,1/2-y,1/2+z
loop_
_atom_site_type_symbol
_atom_site_label
_atom_site_fract_x
_atom_site_fract_y
_atom_site_fract_z
Si Si1 0.255130 0.827200 0.446339
Si Si2 0.372001 0.430287 0.303455
Si Si3 0.569922 0.092805 0.897573
Si Si4 0.092749 0.453369 0.945866
Si Si5 0.270628 0.520524 0.402878
Si Si6 0.495793 0.171285 0.164993
Si Si7 0.575782 0.599167 0.971945
Si Si8 0.087144 0.387098 0.436980
O O1 0.246716 0.750000 0.500000
O O2 0.349934 0.902527 0.435959
O O3 0.253696 0.694196 0.407611
O O4 0.179060 0.946646 0.437590
O O5 0.326718 0.433692 0.250000
O O6 0.313245 0.466530 0.351693
O O7 0.450082 0.552324 0.303897
O O8 0.422016 0.274365 0.310620
O O9 0.571565 0.217980 0.856011
O O10 0.480631 0.143051 0.924519
O O11 0.552266 0.933141 0.875281
O O12 0.089181 0.286778 0.927068
O O13 0.007513 0.539916 0.924956
O O14 0.092220 0.427173 0.004912
O O15 0.338571 0.481064 0.448321
O O16 0.175107 0.449667 0.412229
O O17 0.599275 0.750000 0.000000
O O18 0.500000 0.500000 0.000000
#
# Coordination Sequence:
#
# PCOD9437938 Si02
#       8
#     8   8   8   8   8   8   8   8
#     4  12  22  34  53  85 119 162 191 233 277 347
#     4  11  23  40  61  82 109 153 205 258 299 338
#     4  11  20  35  51  76 114 153 194 231 280 334
#     4  10  22  37  59  80 121 152 197 228 282 344
#     4  12  23  37  56  83 121 153 200 241 292 345
#     4  10  20  38  57  75 111 148 194 247 292 337
#     4  12  24  33  50  77 119 164 195 228 277 344
#     4  10  22  38  56  85 112 156 191 240 279 341
#
# _framework density 17.197977000000002
#
# number of rings (size 3 to 8) (size 9 to 14) (size 15 to 20)
#    0.000    1.000    5.000    3.750    5.250    0.000 
#    0.000    0.000    0.000    0.000    0.000    3.500 
#    0.000    0.000    0.000    0.000    0.000    0.000 
#
# Total GULP energy -356640.682272 kJ/mol
# GULP energy per Si atom -5572.510661 kJ/mol
# Density = 1.715883 g / cm^3
# Si number density = 17.197977 Si / 1000 Ang^3
#
#
#
# Elastic Constant Matrix: (Units=GPa)
#
#
# Indices 1 2 3 4 5 6 
#
# 1 120.7362 59.5380 24.2887 0.0000 0.0000 0.0000
# 2 59.5380 134.1709 34.2885 0.0000 0.0000 0.0000
# 3 24.2887 34.2885 65.1765 0.0000 0.0000 0.0000
# 4 0.0000 0.0000 0.0000 0.0466 0.0000 0.0000
# 5 0.0000 0.0000 0.0000 0.0000 -5.5708 0.0000
# 6 0.0000 0.0000 0.0000 0.0000 0.0000 24.2635
#
#
#
# Elastic Compliance Matrix: (Units=1/GPa)
#
#
# Indices 1 2 3 4 5 6 
#
# 1 0.010769 -0.004336 -0.001732 0.000000 0.000000 0.000000
# 2 -0.004336 0.010357 -0.003833 0.000000 0.000000 0.000000
# 3 -0.001732 -0.003833 0.018005 0.000000 0.000000 0.000000
# 4 0.000000 0.000000 0.000000 21.472847 0.000000 0.000000
# 5 0.000000 0.000000 0.000000 0.000000 -0.179506 0.000000
# 6 0.000000 0.000000 0.000000 0.000000 0.000000 0.041214
#
#
# Mechanical properties :
#
#
# Convention : Reuss Voigt Hill
#
# Bulk Modulus (GPa) = 51.73577 61.81267 56.77422
# Shear Modulus (GPa) = 0.23365 17.21240 8.72302
#
# Velocity S-wave (km/s) = 0.36899 3.16704 2.25458
# Velocity P-wave (km/s) = 5.50721 7.02804 6.31358
#
# Compressibility (1/GPa) = 0.01932899
#
# Stress axis : x y z
#
# Youngs Moduli (GPa) = 92.85703 96.55463 55.54092
#
# Poissons Ratio (x) = 0.41868 0.09620
# Poissons Ratio (y) = 0.40265 0.21287
# Poissons Ratio (z) = 0.16083 0.37006
#
# Static dielectric constant tensor:
#      x y z
#    x 1.581250 0.000000 0.000000 
#    y 0.000000 1.380250 0.000000 
#    z 0.000000 0.000000 1.646520 
# 
# From -- ./inp_files/29894.got.cif
#   From: 2010.05.17/outbox.cif.g08.bks.cpg/sg57_15_cif.got.tgz:29894.got - 2010.06.03 13:58:18.
