data_PCOD9437493
_publ_section_title
;
Structure prediction by ZEFSAII (Michael W. Deem and Ramdas Pophale) SiO2 
 PCOD9437493
Probable space group: P B C M
;
_chemical_formula_sum "Si O2"
_cell_formula_units_Z 52
_cell_length_a 10.917717
_cell_length_b 17.854880
_cell_length_c 15.346339
_cell_angle_alpha 90.000000
_cell_angle_beta 90.000000
_cell_angle_gamma 90.000000
_cell_volume 2991.531333
_symmetry_space_group_name_H-M "P B C M"
_symmetry_group_IT_number 57
_symmetry_cell_setting 'orthorhombic'
loop_
_space_group_symop_operation_xyz
x,y,z
-x,-y,1/2+z
x,1/2-y,-z
-x,1/2+y,1/2-z
-x,-y,-z
x,y,1/2-z
-x,1/2+y,z
x,1/2-y,1/2+z
loop_
_atom_site_type_symbol
_atom_site_label
_atom_site_fract_x
_atom_site_fract_y
_atom_site_fract_z
Si Si1 0.150433 0.157842 0.750000
Si Si2 0.182435 0.329527 0.750000
Si Si3 0.259072 0.773179 0.594416
Si Si4 0.308365 0.409665 0.102774
Si Si5 0.607289 0.424816 0.855048
Si Si6 0.348194 0.135166 0.092049
Si Si7 0.930334 0.240918 0.250000
Si Si8 0.485836 0.219186 0.851360
O O1 0.215698 0.240143 0.750000
O O2 0.195715 0.114694 0.835607
O O3 0.009357 0.182385 0.750000
O O4 0.243422 0.365787 0.834663
O O5 0.035341 0.323687 0.750000
O O6 0.212129 0.750000 0.500000
O O7 0.316408 0.856331 0.603288
O O8 0.155068 0.764603 0.666296
O O9 0.376470 0.720655 0.613778
O O10 0.338680 0.496344 0.114889
O O11 0.422181 0.360432 0.138338
O O12 0.297149 0.386469 0.002110
O O13 0.614365 0.418563 0.750000
O O14 0.465469 0.415800 0.883395
O O15 0.406318 0.218764 0.097437
O O16 0.491654 0.242509 0.750000
#
# Coordination Sequence:
#
# PCOD9437493 Si02
#       8
#     4   4   8   8   8   8   4   8
#     4  10  22  35  56  91 110 152 193 242 292 327
#     4  10  20  36  57  85 112 149 200 238 292 316
#     4  11  22  38  62  83 110 152 204 246 279 339
#     4  12  21  34  59  92 124 149 183 237 300 363
#     4  11  21  38  61  85 123 161 182 228 302 362
#     4  11  19  33  56  87 120 146 190 234 284 348
#     4  10  22  39  61  84 106 149 205 252 278 319
#     4  11  17  33  56  84 117 151 185 237 295 346
#
# _framework density 17.382401999999999
#
# number of rings (size 3 to 8) (size 9 to 14) (size 15 to 20)
#    0.462    0.615    6.154    3.692    0.000    1.231 
#    0.000    0.000    0.000    9.231    0.000    0.000 
#    0.000    0.000    0.000    0.000    0.000    0.000 
#
# Total GULP energy -290125.417120 kJ/mol
# GULP energy per Si atom -5579.334945 kJ/mol
# Density = 1.734284 g / cm^3
# Si number density = 17.382402 Si / 1000 Ang^3
#
#
#
# Elastic Constant Matrix: (Units=GPa)
#
#
# Indices 1 2 3 4 5 6 
#
# 1 106.8533 23.3175 48.4784 0.0000 0.0000 0.0000
# 2 23.3175 69.4394 28.9653 0.0000 0.0000 0.0000
# 3 48.4784 28.9653 172.5588 0.0000 0.0000 0.0000
# 4 0.0000 0.0000 0.0000 18.5944 0.0000 0.0000
# 5 0.0000 0.0000 0.0000 0.0000 1.2862 0.0000
# 6 0.0000 0.0000 0.0000 0.0000 0.0000 16.6655
#
#
#
# Elastic Compliance Matrix: (Units=1/GPa)
#
#
# Indices 1 2 3 4 5 6 
#
# 1 0.011153 -0.002622 -0.002693 0.000000 0.000000 0.000000
# 2 -0.002622 0.016102 -0.001966 0.000000 0.000000 0.000000
# 3 -0.002693 -0.001966 0.006882 0.000000 0.000000 0.000000
# 4 0.000000 0.000000 0.000000 0.053780 0.000000 0.000000
# 5 0.000000 0.000000 0.000000 0.000000 0.777495 0.000000
# 6 0.000000 0.000000 0.000000 0.000000 0.000000 0.060004
#
#
# Mechanical properties :
#
#
# Convention : Reuss Voigt Hill
#
# Bulk Modulus (GPa) = 51.08839 61.15265 56.12052
# Shear Modulus (GPa) = 5.28261 23.84857 14.56559
#
# Velocity S-wave (km/s) = 1.74518 3.70806 2.89788
# Velocity P-wave (km/s) = 5.78926 7.32053 6.59946
#
# Compressibility (1/GPa) = 0.01957392
#
# Stress axis : x y z
#
# Youngs Moduli (GPa) = 89.66558 62.10579 145.31128
#
# Poissons Ratio (x) = 0.16282 0.39134
# Poissons Ratio (y) = 0.23507 0.28572
# Poissons Ratio (z) = 0.24148 0.12212
#
# Static dielectric constant tensor:
#      x y z
#    x 1.582150 0.000000 0.000000 
#    y 0.000000 1.585810 0.000000 
#    z 0.000000 0.000000 1.610620 
# 
# From -- ./inp_files/17888.got.cif
#   From: 2010.05.17/outbox.cif.g08.bks.cpg/sg57_9_cif.got.tgz:17888.got - 2010.06.03 13:58:18.
