data_PCOD9437677
_publ_section_title
;
Structure prediction by ZEFSAII (Michael W. Deem and Ramdas Pophale) SiO2 
 PCOD9437677
Probable space group: P B C M
;
_chemical_formula_sum "Si O2"
_cell_formula_units_Z 64
_cell_length_a 24.746022
_cell_length_b 14.938262
_cell_length_c 9.217485
_cell_angle_alpha 90.000000
_cell_angle_beta 90.000000
_cell_angle_gamma 90.000000
_cell_volume 3407.359103
_symmetry_space_group_name_H-M "P B C M"
_symmetry_group_IT_number 57
_symmetry_cell_setting 'orthorhombic'
loop_
_space_group_symop_operation_xyz
x,y,z
-x,-y,1/2+z
x,1/2-y,-z
-x,1/2+y,1/2-z
-x,-y,-z
x,y,1/2-z
-x,1/2+y,z
x,1/2-y,1/2+z
loop_
_atom_site_type_symbol
_atom_site_label
_atom_site_fract_x
_atom_site_fract_y
_atom_site_fract_z
Si Si1 0.115648 0.391763 0.918315
Si Si2 0.294897 0.510644 0.419088
Si Si3 0.422029 0.991587 0.922390
Si Si4 0.777151 0.835424 0.418492
Si Si5 0.891263 0.108456 0.919259
Si Si6 0.496740 0.652018 0.924562
Si Si7 0.997127 0.402747 0.923924
Si Si8 0.229356 0.661205 0.922730
O O1 0.125896 0.369129 0.750000
O O2 0.113944 0.500209 0.928606
O O3 0.055278 0.359264 0.957959
O O4 0.164236 0.357424 0.015108
O O5 0.288834 0.538926 0.250000
O O6 0.358293 0.501710 0.449468
O O7 0.262898 0.418275 0.435981
O O8 0.265676 0.580342 0.522759
O O9 0.430605 0.974609 0.750000
O O10 0.451946 0.086090 0.954827
O O11 0.448214 0.909631 0.011808
O O12 0.754432 0.750000 0.500000
O O13 0.783504 0.816141 0.250000
O O14 0.900817 0.130336 0.750000
O O15 0.833296 0.145481 0.966211
O O16 0.942287 0.138902 0.013955
O O17 0.492011 0.662836 0.750000
O O18 0.499558 0.750000 0.000000
O O19 0.994181 0.412748 0.750000
O O20 0.000000 0.500000 0.000000
O O21 0.230710 0.668536 0.750000
O O22 0.249390 0.750000 0.000000
#
# Coordination Sequence:
#
# PCOD9437677 Si02
#       8
#     8   8   8   8   8   8   8   8
#     4   9  17  33  53  76 107 141 182 230 283 342
#     4  10  22  41  62  86 116 153 197 242 287 335
#     4   9  20  39  61  87 121 157 198 243 282 333
#     4  11  23  37  57  83 111 147 190 235 287 345
#     4   9  18  33  53  77 107 142 181 229 286 345
#     4  10  20  36  61  92 125 161 197 236 285 335
#     4   9  17  28  48  77 106 138 178 226 283 347
#     4  11  23  39  59  84 114 150 192 240 292 348
#
# _framework density 18.782874
#
# number of rings (size 3 to 8) (size 9 to 14) (size 15 to 20)
#    0.000    2.250    1.250    2.250    0.000    6.000 
#    0.000    0.625    0.000    1.500    0.000    0.000 
#    0.000    0.000    0.000    0.000    0.000    0.000 
#
# Total GULP energy -357143.938884 kJ/mol
# GULP energy per Si atom -5580.374045 kJ/mol
# Density = 1.874012 g / cm^3
# Si number density = 18.782874 Si / 1000 Ang^3
#
#
#
# Elastic Constant Matrix: (Units=GPa)
#
#
# Indices 1 2 3 4 5 6 
#
# 1 115.6355 35.6440 64.8040 0.0000 0.0000 0.0000
# 2 35.6440 90.9239 58.5287 0.0000 0.0000 0.0000
# 3 64.8040 58.5287 81.2802 0.0000 0.0000 0.0000
# 4 0.0000 0.0000 0.0000 24.2762 0.0000 0.0000
# 5 0.0000 0.0000 0.0000 0.0000 23.8846 0.0000
# 6 0.0000 0.0000 0.0000 0.0000 0.0000 7.0264
#
#
#
# Elastic Compliance Matrix: (Units=1/GPa)
#
#
# Indices 1 2 3 4 5 6 
#
# 1 0.016266 0.003675 -0.015615 0.000000 0.000000 0.000000
# 2 0.003675 0.021331 -0.018290 0.000000 0.000000 0.000000
# 3 -0.015615 -0.018290 0.037923 0.000000 0.000000 0.000000
# 4 0.000000 0.000000 0.000000 0.041193 0.000000 0.000000
# 5 0.000000 0.000000 0.000000 0.000000 0.041868 0.000000
# 6 0.000000 0.000000 0.000000 0.000000 0.000000 0.142319
#
#
# Mechanical properties :
#
#
# Convention : Reuss Voigt Hill
#
# Bulk Modulus (GPa) = 66.40153 67.31032 66.85593
# Shear Modulus (GPa) = 13.64699 19.62832 16.63766
#
# Velocity S-wave (km/s) = 2.69841 3.23617 2.97945
# Velocity P-wave (km/s) = 6.71844 7.06240 6.89257
#
# Compressibility (1/GPa) = 0.01505989
#
# Stress axis : x y z
#
# Youngs Moduli (GPa) = 61.47812 46.87966 26.36899
#
# Poissons Ratio (x) = -0.17228 0.41175
# Poissons Ratio (y) = -0.22593 0.48230
# Poissons Ratio (z) = 0.95998 0.85744
#
# Static dielectric constant tensor:
#      x y z
#    x 1.647940 0.000000 0.000000 
#    y 0.000000 1.660770 0.000000 
#    z 0.000000 0.000000 1.610630 
# 
# From -- ./inp_files/9333.got.cif
#   From: 2010.05.17/outbox.cif.g08.bks.cpg/sg57_5_cif.got.tgz:9333.got - 2010.06.03 13:58:18.
