data_PCOD9437234
_publ_section_title
;
Structure prediction by ZEFSAII (Michael W. Deem and Ramdas Pophale) SiO2 
 PCOD9437234
Probable space group: P B C M
;
_chemical_formula_sum "Si O2"
_cell_formula_units_Z 48
_cell_length_a 9.948480
_cell_length_b 11.259327
_cell_length_c 21.535747
_cell_angle_alpha 90.000000
_cell_angle_beta 90.000000
_cell_angle_gamma 90.000000
_cell_volume 2412.287709
_symmetry_space_group_name_H-M "P B C M"
_symmetry_group_IT_number 57
_symmetry_cell_setting 'orthorhombic'
loop_
_space_group_symop_operation_xyz
x,y,z
-x,-y,1/2+z
x,1/2-y,-z
-x,1/2+y,1/2-z
-x,-y,-z
x,y,1/2-z
-x,1/2+y,z
x,1/2-y,1/2+z
loop_
_atom_site_type_symbol
_atom_site_label
_atom_site_fract_x
_atom_site_fract_y
_atom_site_fract_z
Si Si1 0.663844 0.551985 0.250000
Si Si2 0.032972 0.595840 0.143812
Si Si3 0.285475 0.780401 0.612802
Si Si4 0.614320 0.337182 0.750000
Si Si5 0.534540 0.875768 0.535694
Si Si6 0.192135 0.463398 0.250000
Si Si7 0.257602 0.990462 0.116659
Si Si8 0.907347 0.717458 0.250000
O O1 0.546123 0.650614 0.250000
O O2 0.666212 0.487264 0.316191
O O3 0.814649 0.602976 0.250000
O O4 0.148399 0.646952 0.099839
O O5 0.108281 0.506430 0.190519
O O6 0.897035 0.534660 0.120409
O O7 0.994118 0.707958 0.188122
O O8 0.321670 0.785098 0.686892
O O9 0.407876 0.844132 0.578801
O O10 0.268839 0.644013 0.592419
O O11 0.665283 0.473972 0.750000
O O12 0.559946 0.750000 0.500000
O O13 0.500000 0.000000 0.500000
O O14 0.662595 0.913256 0.576431
O O15 0.193546 0.324570 0.250000
#
# Coordination Sequence:
#
# PCOD9437234 Si02
#       8
#     4   8   8   4   8   4   8   4
#     4  10  20  35  57 101 130 163 208 256 327 389
#     4   9  20  36  58  93 124 168 212 251 323 382
#     4  11  22  42  68  95 136 168 212 271 322 395
#     4  10  20  35  57 101 130 165 206 254 329 387
#     4  12  26  49  70  91 127 175 224 275 333 377
#     4   9  17  31  53  84 134 169 198 246 311 391
#     4  11  22  42  68  95 135 168 212 270 323 396
#     4   9  17  31  53  84 136 167 198 250 307 393
#
# _framework density 19.898125
#
# number of rings (size 3 to 8) (size 9 to 14) (size 15 to 20)
#    0.000    1.667    3.333    2.500    0.000    1.333 
#   15.000    1.667    0.000    0.000    0.000    0.000 
#    0.000    0.000    0.000    0.000    0.000    0.000 
#
# Total GULP energy -267406.780479 kJ/mol
# GULP energy per Si atom -5570.974593 kJ/mol
# Density = 1.985284 g / cm^3
# Si number density = 19.898125 Si / 1000 Ang^3
#
#
#
# Elastic Constant Matrix: (Units=GPa)
#
#
# Indices 1 2 3 4 5 6 
#
# 1 126.6552 25.5519 26.9983 0.0000 0.0000 0.0000
# 2 25.5519 103.9517 34.3823 0.0000 0.0000 0.0000
# 3 26.9983 34.3823 50.9465 0.0000 0.0000 0.0000
# 4 0.0000 0.0000 0.0000 25.1435 0.0000 0.0000
# 5 0.0000 0.0000 0.0000 0.0000 4.4825 0.0000
# 6 0.0000 0.0000 0.0000 0.0000 0.0000 27.9387
#
#
#
# Elastic Compliance Matrix: (Units=1/GPa)
#
#
# Indices 1 2 3 4 5 6 
#
# 1 0.008954 -0.000813 -0.004196 0.000000 0.000000 0.000000
# 2 -0.000813 0.012458 -0.007977 0.000000 0.000000 0.000000
# 3 -0.004196 -0.007977 0.027236 0.000000 0.000000 0.000000
# 4 0.000000 0.000000 0.000000 0.039772 0.000000 0.000000
# 5 0.000000 0.000000 0.000000 0.000000 0.223089 0.000000
# 6 0.000000 0.000000 0.000000 0.000000 0.000000 0.035793
#
#
# Mechanical properties :
#
#
# Convention : Reuss Voigt Hill
#
# Bulk Modulus (GPa) = 44.10079 50.60206 47.35142
# Shear Modulus (GPa) = 13.12916 24.48766 18.80841
#
# Velocity S-wave (km/s) = 2.57148 3.51187 3.07780
# Velocity P-wave (km/s) = 5.57029 6.47534 6.03979
#
# Compressibility (1/GPa) = 0.02267533
#
# Stress axis : x y z
#
# Youngs Moduli (GPa) = 111.68213 80.26956 36.71677
#
# Poissons Ratio (x) = 0.06526 0.15408
# Poissons Ratio (y) = 0.09079 0.29288
# Poissons Ratio (z) = 0.46866 0.64029
#
# Static dielectric constant tensor:
#      x y z
#    x 1.671410 0.000000 0.000000 
#    y 0.000000 1.706610 0.000000 
#    z 0.000000 0.000000 1.766260 
# 
# From -- ./inp_files/26749.got.cif
#   From: 2010.05.17/outbox.cif.g08.bks.cpg/sg57_14_cif.got.tgz:26749.got - 2010.06.03 13:58:18.
