data_PCOD9437111
_publ_section_title
;
Structure prediction by ZEFSAII (Michael W. Deem and Ramdas Pophale) SiO2 
 PCOD9437111
Probable space group: P B C M
;
_chemical_formula_sum "Si O2"
_cell_formula_units_Z 48
_cell_length_a 18.650216
_cell_length_b 13.507506
_cell_length_c 7.922328
_cell_angle_alpha 90.000000
_cell_angle_beta 90.000000
_cell_angle_gamma 90.000000
_cell_volume 1995.776269
_symmetry_space_group_name_H-M "P B C M"
_symmetry_group_IT_number 57
_symmetry_cell_setting 'orthorhombic'
loop_
_space_group_symop_operation_xyz
x,y,z
-x,-y,1/2+z
x,1/2-y,-z
-x,1/2+y,1/2-z
-x,-y,-z
x,y,1/2-z
-x,1/2+y,z
x,1/2-y,1/2+z
loop_
_atom_site_type_symbol
_atom_site_label
_atom_site_fract_x
_atom_site_fract_y
_atom_site_fract_z
Si Si1 0.561777 0.142658 0.941366
Si Si2 0.116890 0.134642 0.047306
Si Si3 0.962120 0.133063 0.046448
Si Si4 0.584950 0.577222 0.052802
Si Si5 0.804132 0.363566 0.546238
Si Si6 0.731601 0.550063 0.553296
O O1 0.584762 0.134652 0.750000
O O2 0.582540 0.036064 0.019444
O O3 0.587468 0.250000 0.000000
O O4 0.475071 0.139407 0.957438
O O5 0.120525 0.123361 0.250000
O O6 0.039348 0.093186 0.984691
O O7 0.115051 0.250000 0.000000
O O8 0.189369 0.094338 0.967545
O O9 0.962281 0.124370 0.250000
O O10 0.883259 0.102213 0.982686
O O11 0.962753 0.250000 0.000000
O O12 0.564348 0.577786 0.250000
O O13 0.667490 0.607184 0.036301
O O14 0.792630 0.250000 0.500000
O O15 0.805454 0.370523 0.750000
O O16 0.743394 0.438359 0.484690
O O17 0.713337 0.548057 0.750000
#
# Coordination Sequence:
#
# PCOD9437111 Si02
#       6
#     8   8   8   8   8   8
#     4  10  21  39  65  92 116 145 180 219 266 320
#     4  10  20  35  55  78 106 142 186 234 283 334
#     4   8  15  30  51  74 101 136 181 232 281 327
#     4  10  22  40  60  85 117 148 183 225 265 315
#     4   9  19  35  54  77 107 144 186 232 280 329
#     4  11  23  37  54  80 115 150 184 225 274 327
#
# _framework density 24.050791
#
# number of rings (size 3 to 8) (size 9 to 14) (size 15 to 20)
#    0.000    2.333    0.000    2.000    0.000    6.000 
#    0.000    6.667    0.000    0.000    0.000    0.000 
#    0.000    0.000    0.000    0.000    0.000    0.000 
#
# Total GULP energy -267997.021144 kJ/mol
# GULP energy per Si atom -5583.271274 kJ/mol
# Density = 2.399605 g / cm^3
# Si number density = 24.050791 Si / 1000 Ang^3
#
#
#
# Elastic Constant Matrix: (Units=GPa)
#
#
# Indices 1 2 3 4 5 6 
#
# 1 95.0546 -12.5503 -6.1012 0.0000 0.0000 0.0000
# 2 -12.5503 52.7977 -7.7272 0.0000 0.0000 0.0000
# 3 -6.1012 -7.7272 56.8177 0.0000 0.0000 0.0000
# 4 0.0000 0.0000 0.0000 24.8574 0.0000 0.0000
# 5 0.0000 0.0000 0.0000 0.0000 16.7429 0.0000
# 6 0.0000 0.0000 0.0000 0.0000 0.0000 14.9431
#
#
#
# Elastic Compliance Matrix: (Units=1/GPa)
#
#
# Indices 1 2 3 4 5 6 
#
# 1 0.010996 0.002843 0.001567 0.000000 0.000000 0.000000
# 2 0.002843 0.020060 0.003033 0.000000 0.000000 0.000000
# 3 0.001567 0.003033 0.018181 0.000000 0.000000 0.000000
# 4 0.000000 0.000000 0.000000 0.040230 0.000000 0.000000
# 5 0.000000 0.000000 0.000000 0.000000 0.059727 0.000000
# 6 0.000000 0.000000 0.000000 0.000000 0.000000 0.066921
#
#
# Mechanical properties :
#
#
# Convention : Reuss Voigt Hill
#
# Bulk Modulus (GPa) = 15.59433 16.87918 16.23676
# Shear Modulus (GPa) = 22.46170 26.71191 24.58681
#
# Velocity S-wave (km/s) = 3.05934 3.33625 3.20079
# Velocity P-wave (km/s) = 4.35631 4.67698 4.51949
#
# Compressibility (1/GPa) = 0.06412585
#
# Stress axis : x y z
#
# Youngs Moduli (GPa) = 90.93976 49.85035 55.00244
#
# Poissons Ratio (x) = -0.14174 -0.08622
# Poissons Ratio (y) = -0.25857 -0.16685
# Poissons Ratio (z) = -0.14255 -0.15122
#
# Static dielectric constant tensor:
#      x y z
#    x 1.955110 0.000000 0.000000 
#    y 0.000000 2.019180 0.000000 
#    z 0.000000 0.000000 1.829130 
# 
# From -- ./inp_files/6515.got.cif
#   From: 2010.05.17/outbox.cif.g08.bks.cpg/sg57_4_cif.got.tgz:6515.got - 2010.06.03 13:58:18.
