data_PCOD9437676
_publ_section_title
;
Structure prediction by ZEFSAII (Michael W. Deem and Ramdas Pophale) SiO2 
 PCOD9437676
Probable space group: P B C M
;
_chemical_formula_sum "Si O2"
_cell_formula_units_Z 28
_cell_length_a 7.523928
_cell_length_b 11.626619
_cell_length_c 14.261752
_cell_angle_alpha 90.000000
_cell_angle_beta 90.000000
_cell_angle_gamma 90.000000
_cell_volume 1247.587320
_symmetry_space_group_name_H-M "P B C M"
_symmetry_group_IT_number 57
_symmetry_cell_setting 'orthorhombic'
loop_
_space_group_symop_operation_xyz
x,y,z
-x,-y,1/2+z
x,1/2-y,-z
-x,1/2+y,1/2-z
-x,-y,-z
x,y,1/2-z
-x,1/2+y,z
x,1/2-y,1/2+z
loop_
_atom_site_type_symbol
_atom_site_label
_atom_site_fract_x
_atom_site_fract_y
_atom_site_fract_z
Si Si1 0.088955 0.804964 0.913070
Si Si2 0.537757 0.125444 0.455764
Si Si3 0.481297 0.951257 0.750000
Si Si4 0.051179 0.543731 0.250000
Si Si5 0.225863 0.646755 0.750000
O O1 0.247609 0.873401 0.961866
O O2 0.988979 0.886888 0.841721
O O3 0.200484 0.722377 0.842911
O O4 0.985187 0.750000 0.000000
O O5 0.480280 0.250000 0.500000
O O6 0.480484 0.116030 0.346516
O O7 0.500000 0.000000 0.500000
O O8 0.265691 0.969438 0.750000
O O9 0.600274 0.067076 0.750000
O O10 0.953795 0.425561 0.250000
#
# Coordination Sequence:
#
# PCOD9437676 Si02
#       5
#     8   8   4   4   4
#     4   9  19  38  59  83 124 162 197 259 313 356
#     4  10  20  36  61  92 124 163 210 254 308 374
#     4  10  20  38  63  87 124 163 202 262 314 358
#     4   9  21  37  56  87 115 153 207 246 299 382
#     4  11  21  39  63  88 123 162 203 256 317 364
#
# _framework density 22.443317
#
# number of rings (size 3 to 8) (size 9 to 14) (size 15 to 20)
#    0.000    2.286    0.000    4.286    0.000    2.286 
#    0.000   24.286    0.000    1.714    0.000    0.000 
#    0.000    0.000    0.000    0.000    0.000    0.000 
#
# Total GULP energy -155946.541689 kJ/mol
# GULP energy per Si atom -5569.519346 kJ/mol
# Density = 2.239224 g / cm^3
# Si number density = 22.443317 Si / 1000 Ang^3
#
#
#
# Elastic Constant Matrix: (Units=GPa)
#
#
# Indices 1 2 3 4 5 6 
#
# 1 50.4259 26.2578 7.8970 0.0000 0.0000 0.0000
# 2 26.2578 135.7619 57.5753 0.0000 0.0000 0.0000
# 3 7.8970 57.5753 144.2405 0.0000 0.0000 0.0000
# 4 0.0000 0.0000 0.0000 -64.8877 0.0000 0.0000
# 5 0.0000 0.0000 0.0000 0.0000 -37.6921 0.0000
# 6 0.0000 0.0000 0.0000 0.0000 0.0000 -32.6628
#
#
#
# Elastic Compliance Matrix: (Units=1/GPa)
#
#
# Indices 1 2 3 4 5 6 
#
# 1 0.022095 -0.004527 0.000597 0.000000 0.000000 0.000000
# 2 -0.004527 0.009794 -0.003662 0.000000 0.000000 0.000000
# 3 0.000597 -0.003662 0.008362 0.000000 0.000000 0.000000
# 4 0.000000 0.000000 0.000000 -0.015411 0.000000 0.000000
# 5 0.000000 0.000000 0.000000 0.000000 -0.026531 0.000000
# 6 0.000000 0.000000 0.000000 0.000000 0.000000 -0.030616
#
#
# Mechanical properties :
#
#
# Convention : Reuss Voigt Hill
#
# Bulk Modulus (GPa) = 39.89074 57.09874 48.49474
# Shear Modulus (GPa) = -570.19509 -11.13533 -290.66521
#
# Velocity S-wave (km/s) = -15.95655 -2.22987 -11.39263
# Velocity P-wave (km/s) = 17.93515 4.34359 12.30453
#
# Compressibility (1/GPa) = 0.02506848
#
# Stress axis : x y z
#
# Youngs Moduli (GPa) = 45.25984 102.10123 119.59208
#
# Poissons Ratio (x) = 0.46217 -0.07142
# Poissons Ratio (y) = 0.20487 0.43790
# Poissons Ratio (z) = -0.02703 0.37386
#
# Static dielectric constant tensor:
#      x y z
#    x 1.790380 0.000000 0.000000 
#    y 0.000000 1.850020 0.000000 
#    z 0.000000 0.000000 1.918020 
# 
# From -- ./inp_files/15453.got.cif
#   From: 2010.05.17/outbox.cif.g08.bks.cpg/sg57_8_cif.got.tgz:15453.got - 2010.06.03 13:58:18.
