data_PCOD9437099
_publ_section_title
;
Structure prediction by ZEFSAII (Michael W. Deem and Ramdas Pophale) SiO2 
 PCOD9437099
Probable space group: P B C M
;
_chemical_formula_sum "Si O2"
_cell_formula_units_Z 56
_cell_length_a 19.217350
_cell_length_b 9.288445
_cell_length_c 16.631593
_cell_angle_alpha 90.000000
_cell_angle_beta 90.000000
_cell_angle_gamma 90.000000
_cell_volume 2968.727684
_symmetry_space_group_name_H-M "P B C M"
_symmetry_group_IT_number 57
_symmetry_cell_setting 'orthorhombic'
loop_
_space_group_symop_operation_xyz
x,y,z
-x,-y,1/2+z
x,1/2-y,-z
-x,1/2+y,1/2-z
-x,-y,-z
x,y,1/2-z
-x,1/2+y,z
x,1/2-y,1/2+z
loop_
_atom_site_type_symbol
_atom_site_label
_atom_site_fract_x
_atom_site_fract_y
_atom_site_fract_z
Si Si1 0.383433 0.201654 0.653940
Si Si2 0.344890 0.508201 0.612192
Si Si3 0.767534 0.226169 0.658794
Si Si4 0.456255 0.718721 0.657254
Si Si5 0.073004 0.852227 0.153890
Si Si6 0.971213 0.627620 0.058804
Si Si7 0.658020 0.086086 0.426346
O O1 0.382247 0.204555 0.750000
O O2 0.345141 0.339374 0.619420
O O3 0.464833 0.205025 0.629167
O O4 0.347393 0.061123 0.621080
O O5 0.279259 0.582587 0.653816
O O6 0.415741 0.567186 0.652734
O O7 0.345628 0.557877 0.520253
O O8 0.762136 0.283109 0.750000
O O9 0.847125 0.194311 0.640228
O O10 0.728292 0.332865 0.598635
O O11 0.455291 0.769622 0.750000
O O12 0.408135 0.821772 0.604054
O O13 0.058392 0.846976 0.250000
O O14 0.025708 0.732457 0.106774
O O15 0.065095 0.018348 0.122662
O O16 0.935473 0.750000 0.000000
O O17 0.000000 0.500000 0.000000
#
# Coordination Sequence:
#
# PCOD9437099 Si02
#       7
#     8   8   8   8   8   8   8
#     4  11  22  36  53  74 104 140 181 231 282 334
#     4  11  22  35  53  78 107 138 177 229 280 329
#     4  10  21  39  60  79 107 149 186 220 269 329
#     4  10  20  35  55  75 100 140 182 223 279 341
#     4  10  20  37  63  90 118 154 195 234 273 328
#     4   9  19  35  58  90 124 154 184 227 280 329
#     4  11  22  35  54  80 107 139 182 231 278 333
#
# _framework density 18.863299999999999
#
# number of rings (size 3 to 8) (size 9 to 14) (size 15 to 20)
#    0.000    1.714    0.000    6.857    0.000    9.143 
#    0.000    4.286    0.000    8.571    0.000    0.000 
#    0.000    0.000    0.000    0.000    0.000    0.000 
#
# Total GULP energy -312273.958500 kJ/mol
# GULP energy per Si atom -5576.320688 kJ/mol
# Density = 1.882037 g / cm^3
# Si number density = 18.863300 Si / 1000 Ang^3
#
#
#
# Elastic Constant Matrix: (Units=GPa)
#
#
# Indices 1 2 3 4 5 6 
#
# 1 78.4771 34.9792 38.5833 0.0000 0.0000 0.0000
# 2 34.9792 140.1730 37.9216 0.0000 0.0000 0.0000
# 3 38.5833 37.9216 100.1085 0.0000 0.0000 0.0000
# 4 0.0000 0.0000 0.0000 40.2244 0.0000 0.0000
# 5 0.0000 0.0000 0.0000 0.0000 -40.9974 0.0000
# 6 0.0000 0.0000 0.0000 0.0000 0.0000 -0.3191
#
#
#
# Elastic Compliance Matrix: (Units=1/GPa)
#
#
# Indices 1 2 3 4 5 6 
#
# 1 0.016581 -0.002684 -0.005374 0.000000 0.000000 0.000000
# 2 -0.002684 0.008383 -0.002141 0.000000 0.000000 0.000000
# 3 -0.005374 -0.002141 0.012871 0.000000 0.000000 0.000000
# 4 0.000000 0.000000 0.000000 0.024861 0.000000 0.000000
# 5 0.000000 0.000000 0.000000 0.000000 -0.024392 0.000000
# 6 0.000000 0.000000 0.000000 0.000000 0.000000 -3.133572
#
#
# Mechanical properties :
#
#
# Convention : Reuss Voigt Hill
#
# Bulk Modulus (GPa) = 57.34725 60.19187 58.76956
# Shear Modulus (GPa) = -1.62916 13.59988 5.98536
#
# Velocity S-wave (km/s) = -0.93035 2.68800 1.78323
# Velocity P-wave (km/s) = 5.41419 6.45078 5.95508
#
# Compressibility (1/GPa) = 0.01743763
#
# Stress axis : x y z
#
# Youngs Moduli (GPa) = 60.31038 119.28875 77.69158
#
# Poissons Ratio (x) = 0.32015 0.41751
# Poissons Ratio (y) = 0.16186 0.16635
# Poissons Ratio (z) = 0.32410 0.25541
#
# Static dielectric constant tensor:
#      x y z
#    x 1.621780 0.000000 0.000000 
#    y 0.000000 1.680440 0.000000 
#    z 0.000000 0.000000 1.686280 
# 
# From -- ./inp_files/19343.got.cif
#   From: 2010.05.17/outbox.cif.g08.bks.cpg/sg57_10_cif.got.tgz:19343.got - 2010.06.03 13:58:18.
