data_PCOD9437475
_publ_section_title
;
Structure prediction by ZEFSAII (Michael W. Deem and Ramdas Pophale) SiO2 
 PCOD9437475
Probable space group: P B C M
;
_chemical_formula_sum "Si O2"
_cell_formula_units_Z 48
_cell_length_a 18.351476
_cell_length_b 15.102401
_cell_length_c 8.816316
_cell_angle_alpha 90.000000
_cell_angle_beta 90.000000
_cell_angle_gamma 90.000000
_cell_volume 2443.453877
_symmetry_space_group_name_H-M "P B C M"
_symmetry_group_IT_number 57
_symmetry_cell_setting 'orthorhombic'
loop_
_space_group_symop_operation_xyz
x,y,z
-x,-y,1/2+z
x,1/2-y,-z
-x,1/2+y,1/2-z
-x,-y,-z
x,y,1/2-z
-x,1/2+y,z
x,1/2-y,1/2+z
loop_
_atom_site_type_symbol
_atom_site_label
_atom_site_fract_x
_atom_site_fract_y
_atom_site_fract_z
Si Si1 0.173057 0.460719 0.067852
Si Si2 0.029345 0.091619 0.431079
Si Si3 0.620549 0.345281 0.931939
Si Si4 0.548629 0.844919 0.567924
Si Si5 0.675667 0.977494 0.932056
Si Si6 0.125477 0.840303 0.930507
O O1 0.173650 0.458650 0.250000
O O2 0.156584 0.563701 0.019863
O O3 0.108077 0.398600 0.006759
O O4 0.250670 0.436496 0.998643
O O5 0.037378 0.084925 0.250000
O O6 0.961565 0.155857 0.462591
O O7 0.000000 0.000000 0.500000
O O8 0.626855 0.343771 0.750000
O O9 0.535496 0.362538 0.974698
O O10 0.640246 0.250000 0.000000
O O11 0.666852 0.424555 0.000668
O O12 0.569143 0.750000 0.500000
O O13 0.550710 0.839173 0.750000
O O14 0.605236 0.920138 0.520355
O O15 0.678599 0.980596 0.750000
O O16 0.135356 0.836680 0.750000
O O17 0.156433 0.750000 0.000000
#
# Coordination Sequence:
#
# PCOD9437475 Si02
#       6
#     8   8   8   8   8   8
#     4  10  21  36  52  75 105 140 178 217 263 319
#     4   9  17  32  52  74  98 128 166 208 250 301
#     4  10  20  36  57  82 111 145 184 229 276 330
#     4   9  20  37  58  82 108 140 184 233 281 331
#     4  11  22  36  55  82 113 147 184 227 279 335
#     4   9  19  33  52  77 103 130 168 212 257 310
#
# _framework density 19.644324000000001
#
# number of rings (size 3 to 8) (size 9 to 14) (size 15 to 20)
#    0.000    2.333    0.000    3.500    0.000    6.667 
#    0.000    2.500    0.000    0.000    0.000    0.000 
#    0.000    0.000    0.000    0.000    0.000    0.000 
#
# Total GULP energy -267824.095145 kJ/mol
# GULP energy per Si atom -5579.668649 kJ/mol
# Density = 1.959961 g / cm^3
# Si number density = 19.644324 Si / 1000 Ang^3
#
#
#
# Elastic Constant Matrix: (Units=GPa)
#
#
# Indices 1 2 3 4 5 6 
#
# 1 65.8672 -0.0031 21.1928 0.0000 0.0000 0.0000
# 2 -0.0031 24.3563 12.5531 0.0000 0.0000 0.0000
# 3 21.1928 12.5531 33.7370 0.0000 0.0000 0.0000
# 4 0.0000 0.0000 0.0000 27.0613 0.0000 0.0000
# 5 0.0000 0.0000 0.0000 0.0000 28.7489 0.0000
# 6 0.0000 0.0000 0.0000 0.0000 0.0000 10.4664
#
#
#
# Elastic Compliance Matrix: (Units=1/GPa)
#
#
# Indices 1 2 3 4 5 6 
#
# 1 0.020246 0.008113 -0.015737 0.000000 0.000000 0.000000
# 2 0.008113 0.054050 -0.025208 0.000000 0.000000 0.000000
# 3 -0.015737 -0.025208 0.048906 0.000000 0.000000 0.000000
# 4 0.000000 0.000000 0.000000 0.036953 0.000000 0.000000
# 5 0.000000 0.000000 0.000000 0.000000 0.034784 0.000000
# 6 0.000000 0.000000 0.000000 0.000000 0.000000 0.095544
#
#
# Mechanical properties :
#
#
# Convention : Reuss Voigt Hill
#
# Bulk Modulus (GPa) = 17.37948 21.27178 19.32563
# Shear Modulus (GPa) = 13.32178 19.26982 16.29580
#
# Velocity S-wave (km/s) = 2.60695 3.13539 2.88330
# Velocity P-wave (km/s) = 4.23414 4.89485 4.57643
#
# Compressibility (1/GPa) = 0.05753911
#
# Stress axis : x y z
#
# Youngs Moduli (GPa) = 49.39315 18.50135 20.44740
#
# Poissons Ratio (x) = -0.15010 0.32177
# Poissons Ratio (y) = -0.40073 0.51543
# Poissons Ratio (z) = 0.77728 0.46638
#
# Static dielectric constant tensor:
#      x y z
#    x 1.732160 0.000000 0.000000 
#    y 0.000000 1.674720 0.000000 
#    z 0.000000 0.000000 1.648770 
# 
# From -- ./inp_files/6508.got.cif
#   From: 2010.05.17/outbox.cif.g08.bks.cpg/sg57_4_cif.got.tgz:6508.got - 2010.06.03 13:58:18.
