data_PCOD9437619
_publ_section_title
;
Structure prediction by ZEFSAII (Michael W. Deem and Ramdas Pophale) SiO2 
 PCOD9437619
Probable space group: P B C M
;
_chemical_formula_sum "Si O2"
_cell_formula_units_Z 48
_cell_length_a 8.900449
_cell_length_b 17.635531
_cell_length_c 14.040970
_cell_angle_alpha 90.000000
_cell_angle_beta 90.000000
_cell_angle_gamma 90.000000
_cell_volume 2203.928841
_symmetry_space_group_name_H-M "P B C M"
_symmetry_group_IT_number 57
_symmetry_cell_setting 'orthorhombic'
loop_
_space_group_symop_operation_xyz
x,y,z
-x,-y,1/2+z
x,1/2-y,-z
-x,1/2+y,1/2-z
-x,-y,-z
x,y,1/2-z
-x,1/2+y,z
x,1/2-y,1/2+z
loop_
_atom_site_type_symbol
_atom_site_label
_atom_site_fract_x
_atom_site_fract_y
_atom_site_fract_z
Si Si1 0.960565 0.778195 0.364521
Si Si2 0.185593 0.115543 0.135203
Si Si3 0.547814 0.666877 0.479845
Si Si4 0.255348 0.706072 0.140106
Si Si5 0.287923 0.402997 0.136064
Si Si6 0.100921 0.542127 0.359394
O O1 0.967966 0.780931 0.250000
O O2 0.135549 0.770134 0.393673
O O3 0.882633 0.698428 0.388528
O O4 0.851656 0.847069 0.391303
O O5 0.194230 0.110553 0.250000
O O6 0.348904 0.116964 0.089837
O O7 0.066575 0.052479 0.099681
O O8 0.615038 0.750000 0.500000
O O9 0.393703 0.687805 0.427946
O O10 0.563907 0.623868 0.580269
O O11 0.303272 0.722947 0.250000
O O12 0.165010 0.626912 0.143794
O O13 0.311577 0.399009 0.250000
O O14 0.227162 0.485026 0.104533
O O15 0.077858 0.515760 0.250000
#
# Coordination Sequence:
#
# PCOD9437619 Si02
#       6
#     8   8   8   8   8   8
#     4   8  15  33  59  80 105 143 184 237 282 322
#     4   9  17  34  58  82 110 144 193 237 276 338
#     4  12  23  33  53  90 114 155 192 231 292 338
#     4   9  19  37  59  84 115 151 191 231 283 350
#     4  10  20  36  60  87 117 148 193 244 290 336
#     4   8  17  36  61  84 111 154 192 234 287 338
#
# _framework density 21.779287
#
# number of rings (size 3 to 8) (size 9 to 14) (size 15 to 20)
#    0.000    2.667    1.667    2.500    0.000    2.000 
#    6.000    0.000    3.667    0.000    0.000    0.000 
#    0.000    0.000    0.000    0.000    0.000    0.000 
#
# Total GULP energy -267397.322220 kJ/mol
# GULP energy per Si atom -5570.777546 kJ/mol
# Density = 2.172972 g / cm^3
# Si number density = 21.779287 Si / 1000 Ang^3
#
#
#
# Elastic Constant Matrix: (Units=GPa)
#
#
# Indices 1 2 3 4 5 6 
#
# 1 90.6922 -21.9337 35.9253 0.0000 0.0000 0.0000
# 2 -21.9337 17.2246 -12.3407 0.0000 0.0000 0.0000
# 3 35.9253 -12.3407 74.4167 0.0000 0.0000 0.0000
# 4 0.0000 0.0000 0.0000 16.8814 0.0000 0.0000
# 5 0.0000 0.0000 0.0000 0.0000 27.6106 0.0000
# 6 0.0000 0.0000 0.0000 0.0000 0.0000 6.7593
#
#
#
# Elastic Compliance Matrix: (Units=1/GPa)
#
#
# Indices 1 2 3 4 5 6 
#
# 1 0.017689 0.018619 -0.005452 0.000000 0.000000 0.000000
# 2 0.018619 0.085482 0.005187 0.000000 0.000000 0.000000
# 3 -0.005452 0.005187 0.016930 0.000000 0.000000 0.000000
# 4 0.000000 0.000000 0.000000 0.059237 0.000000 0.000000
# 5 0.000000 0.000000 0.000000 0.000000 0.036218 0.000000
# 6 0.000000 0.000000 0.000000 0.000000 0.000000 0.147944
#
#
# Mechanical properties :
#
#
# Convention : Reuss Voigt Hill
#
# Bulk Modulus (GPa) = 6.37718 20.62615 13.50166
# Shear Modulus (GPa) = 13.19050 22.29577 17.74314
#
# Velocity S-wave (km/s) = 2.46365 3.20302 2.85736
# Velocity P-wave (km/s) = 3.32073 4.81355 4.13506
#
# Compressibility (1/GPa) = 0.15680913
#
# Stress axis : x y z
#
# Youngs Moduli (GPa) = 56.53285 11.69839 59.06682
#
# Poissons Ratio (x) = -0.21781 0.32202
# Poissons Ratio (y) = -1.05257 -0.30640
# Poissons Ratio (z) = 0.30821 -0.06068
#
# Static dielectric constant tensor:
#      x y z
#    x 1.850810 0.000000 0.000000 
#    y 0.000000 1.777600 0.000000 
#    z 0.000000 0.000000 1.872110 
# 
# From -- ./inp_files/16328.got.cif
#   From: 2010.05.17/outbox.cif.g08.bks.cpg/sg57_9_cif.got.tgz:16328.got - 2010.06.03 13:58:18.
