data_PCOD9437061
_publ_section_title
;
Structure prediction by ZEFSAII (Michael W. Deem and Ramdas Pophale) SiO2 
 PCOD9437061
Probable space group: P B C M
;
_chemical_formula_sum "Si O2"
_cell_formula_units_Z 64
_cell_length_a 16.565219
_cell_length_b 23.836283
_cell_length_c 8.516312
_cell_angle_alpha 90.000000
_cell_angle_beta 90.000000
_cell_angle_gamma 90.000000
_cell_volume 3362.693455
_symmetry_space_group_name_H-M "P B C M"
_symmetry_group_IT_number 57
_symmetry_cell_setting 'orthorhombic'
loop_
_space_group_symop_operation_xyz
x,y,z
-x,-y,1/2+z
x,1/2-y,-z
-x,1/2+y,1/2-z
-x,-y,-z
x,y,1/2-z
-x,1/2+y,z
x,1/2-y,1/2+z
loop_
_atom_site_type_symbol
_atom_site_label
_atom_site_fract_x
_atom_site_fract_y
_atom_site_fract_z
Si Si1 0.890194 0.032901 0.560204
Si Si2 0.656037 0.188025 0.063806
Si Si3 0.527745 0.812999 0.938757
Si Si4 0.408510 0.496563 0.938233
Si Si5 0.827789 0.814878 0.939194
Si Si6 0.952288 0.910729 0.560552
Si Si7 0.326872 0.384788 0.064847
Si Si8 0.277548 0.918436 0.061718
O O1 0.892507 0.033454 0.750000
O O2 0.802603 0.051322 0.503873
O O3 0.957891 0.076406 0.500814
O O4 0.907212 0.968598 0.510885
O O5 0.662379 0.188140 0.250000
O O6 0.564097 0.170195 0.023594
O O7 0.667445 0.250000 0.000000
O O8 0.718144 0.145192 0.990248
O O9 0.539557 0.816316 0.750000
O O10 0.536749 0.750000 0.000000
O O11 0.593389 0.848826 0.028528
O O12 0.413407 0.495223 0.750000
O O13 0.357951 0.550304 0.994089
O O14 0.500000 0.500000 0.000000
O O15 0.352382 0.444276 0.990251
O O16 0.826914 0.812225 0.750000
O O17 0.904211 0.854461 0.989112
O O18 0.828471 0.750000 0.000000
O O19 0.748802 0.850371 0.993314
O O20 0.954047 0.909672 0.750000
O O21 0.313600 0.391199 0.250000
O O22 0.277220 0.921670 0.250000
#
# Coordination Sequence:
#
# PCOD9437061 Si02
#       8
#     8   8   8   8   8   8   8   8
#     4   9  18  35  60  87 112 142 181 226 279 337
#     4  10  21  36  56  79 105 139 180 225 271 321
#     4  10  20  35  54  76 104 141 186 234 281 328
#     4  11  23  39  58  83 118 157 196 241 293 344
#     4  11  23  40  60  84 118 156 195 239 292 353
#     4   9  19  37  60  85 113 145 181 226 282 340
#     4  12  24  37  55  81 113 151 195 238 285 341
#     4  10  21  37  57  81 112 147 182 224 275 330
#
# _framework density 19.032361999999999
#
# number of rings (size 3 to 8) (size 9 to 14) (size 15 to 20)
#    0.000    1.750    0.000    4.500    0.000    8.000 
#    0.000    3.125    0.000    1.500    0.000    0.000 
#    0.000    0.000    0.000    0.000    0.000    0.000 
#
# Total GULP energy -357141.487545 kJ/mol
# GULP energy per Si atom -5580.335743 kJ/mol
# Density = 1.898904 g / cm^3
# Si number density = 19.032362 Si / 1000 Ang^3
#
#
#
# Elastic Constant Matrix: (Units=GPa)
#
#
# Indices 1 2 3 4 5 6 
#
# 1 99.0826 69.0131 27.2445 0.0000 0.0000 0.0000
# 2 69.0131 119.2104 20.3675 0.0000 0.0000 0.0000
# 3 27.2445 20.3675 34.5623 0.0000 0.0000 0.0000
# 4 0.0000 0.0000 0.0000 31.8926 0.0000 0.0000
# 5 0.0000 0.0000 0.0000 0.0000 25.5595 0.0000
# 6 0.0000 0.0000 0.0000 0.0000 0.0000 37.9587
#
#
#
# Elastic Compliance Matrix: (Units=1/GPa)
#
#
# Indices 1 2 3 4 5 6 
#
# 1 0.019438 -0.009602 -0.009664 0.000000 0.000000 0.000000
# 2 -0.009602 0.014071 -0.000723 0.000000 0.000000 0.000000
# 3 -0.009664 -0.000723 0.036977 0.000000 0.000000 0.000000
# 4 0.000000 0.000000 0.000000 0.031355 0.000000 0.000000
# 5 0.000000 0.000000 0.000000 0.000000 0.039124 0.000000
# 6 0.000000 0.000000 0.000000 0.000000 0.000000 0.026344
#
#
# Mechanical properties :
#
#
# Convention : Reuss Voigt Hill
#
# Bulk Modulus (GPa) = 32.77818 54.01174 43.39496
# Shear Modulus (GPa) = 22.99314 28.16417 25.57866
#
# Velocity S-wave (km/s) = 3.47956 3.85100 3.66998
# Velocity P-wave (km/s) = 5.77952 6.94363 6.38815
#
# Compressibility (1/GPa) = 0.03050810
#
# Stress axis : x y z
#
# Youngs Moduli (GPa) = 51.44657 71.06974 27.04378
#
# Poissons Ratio (x) = 0.68239 0.26135
# Poissons Ratio (y) = 0.49398 0.01955
# Poissons Ratio (z) = 0.49717 0.05139
#
# Static dielectric constant tensor:
#      x y z
#    x 1.659850 0.000000 0.000000 
#    y 0.000000 1.735390 0.000000 
#    z 0.000000 0.000000 1.645970 
# 
# From -- ./inp_files/5639.got.cif
#   From: 2010.05.17/outbox.cif.g08.bks.cpg/sg57_3_cif.got.tgz:5639.got - 2010.06.03 13:58:18.
