data_PCOD9437860
_publ_section_title
;
Structure prediction by ZEFSAII (Michael W. Deem and Ramdas Pophale) SiO2 
 PCOD9437860
Probable space group: P B C M
;
_chemical_formula_sum "Si O2"
_cell_formula_units_Z 64
_cell_length_a 6.657721
_cell_length_b 19.563647
_cell_length_c 23.313988
_cell_angle_alpha 90.000000
_cell_angle_beta 90.000000
_cell_angle_gamma 90.000000
_cell_volume 3036.630698
_symmetry_space_group_name_H-M "P B C M"
_symmetry_group_IT_number 57
_symmetry_cell_setting 'orthorhombic'
loop_
_space_group_symop_operation_xyz
x,y,z
-x,-y,1/2+z
x,1/2-y,-z
-x,1/2+y,1/2-z
-x,-y,-z
x,y,1/2-z
-x,1/2+y,z
x,1/2-y,1/2+z
loop_
_atom_site_type_symbol
_atom_site_label
_atom_site_fract_x
_atom_site_fract_y
_atom_site_fract_z
Si Si1 0.286908 0.872910 0.534886
Si Si2 0.508270 0.528980 0.388128
Si Si3 0.632982 0.814287 0.469398
Si Si4 0.782105 0.588656 0.626892
Si Si5 0.113641 0.963806 0.052993
Si Si6 0.609413 0.662735 0.318460
Si Si7 0.707806 0.245851 0.110177
Si Si8 0.927764 0.781198 0.183414
O O1 0.325004 0.936425 0.576500
O O2 0.513962 0.851022 0.520133
O O3 0.180393 0.893078 0.476627
O O4 0.192036 0.809348 0.567457
O O5 0.401760 0.462469 0.360574
O O6 0.683209 0.502985 0.430059
O O7 0.600323 0.587872 0.347427
O O8 0.739130 0.750000 0.500000
O O9 0.746607 0.869633 0.432405
O O10 0.458468 0.785834 0.426759
O O11 0.806962 0.648548 0.673127
O O12 0.982905 0.547137 0.610191
O O13 0.000000 0.000000 0.000000
O O14 0.602580 0.656384 0.250000
O O15 0.415411 0.702230 0.342943
O O16 0.795568 0.713965 0.332478
O O17 0.878930 0.286486 0.142775
O O18 0.982757 0.774615 0.250000
#
# Coordination Sequence:
#
# PCOD9437860 Si02
#       8
#     8   8   8   8   8   8   8   8
#     4  10  20  38  60  90 125 166 207 244 305 379
#     4  11  24  41  62  92 130 168 213 259 310 386
#     4  10  20  37  61  91 128 164 202 250 308 379
#     4  12  24  40  62  92 131 170 210 262 315 383
#     4  12  23  36  61  90 127 170 202 249 316 378
#     4  10  23  44  68  90 117 161 214 269 323 371
#     4  10  21  40  65  91 123 159 203 265 315 366
#     4  11  25  42  65  94 121 161 219 273 324 376
#
# _framework density 21.075990000000001
#
# number of rings (size 3 to 8) (size 9 to 14) (size 15 to 20)
#    0.000    1.250    3.750    2.250    1.750    1.500 
#    0.000    0.625    0.000    0.000    0.000    0.000 
#    0.000    0.000    0.000    0.000    0.000    0.000 
#
# Total GULP energy -357168.444997 kJ/mol
# GULP energy per Si atom -5580.756953 kJ/mol
# Density = 2.102802 g / cm^3
# Si number density = 21.075990 Si / 1000 Ang^3
#
#
#
# Elastic Constant Matrix: (Units=GPa)
#
#
# Indices 1 2 3 4 5 6 
#
# 1 48.5752 30.2302 14.1506 0.0000 0.0000 0.0000
# 2 30.2302 76.7625 21.8630 0.0000 0.0000 0.0000
# 3 14.1506 21.8630 61.6390 0.0000 0.0000 0.0000
# 4 0.0000 0.0000 0.0000 29.3106 0.0000 0.0000
# 5 0.0000 0.0000 0.0000 0.0000 25.4004 0.0000
# 6 0.0000 0.0000 0.0000 0.0000 0.0000 21.8182
#
#
#
# Elastic Compliance Matrix: (Units=1/GPa)
#
#
# Indices 1 2 3 4 5 6 
#
# 1 0.027689 -0.010116 -0.002769 0.000000 0.000000 0.000000
# 2 -0.010116 0.018187 -0.004128 0.000000 0.000000 0.000000
# 3 -0.002769 -0.004128 0.018323 0.000000 0.000000 0.000000
# 4 0.000000 0.000000 0.000000 0.034117 0.000000 0.000000
# 5 0.000000 0.000000 0.000000 0.000000 0.039369 0.000000
# 6 0.000000 0.000000 0.000000 0.000000 0.000000 0.045833
#
#
# Mechanical properties :
#
#
# Convention : Reuss Voigt Hill
#
# Bulk Modulus (GPa) = 33.14183 35.49604 34.31893
# Shear Modulus (GPa) = 21.96818 23.35469 22.66144
#
# Velocity S-wave (km/s) = 3.23202 3.33245 3.28262
# Velocity P-wave (km/s) = 5.44858 5.62899 5.53952
#
# Compressibility (1/GPa) = 0.03017335
#
# Stress axis : x y z
#
# Youngs Moduli (GPa) = 36.11605 54.98513 54.57501
#
# Poissons Ratio (x) = 0.55621 0.15109
# Poissons Ratio (y) = 0.36534 0.22531
# Poissons Ratio (z) = 0.09999 0.22700
#
# Static dielectric constant tensor:
#      x y z
#    x 1.805220 0.000000 0.000000 
#    y 0.000000 1.841710 0.000000 
#    z 0.000000 0.000000 1.740040 
# 
# From -- ./inp_files/28134.got.cif
#   From: 2010.05.17/outbox.cif.g08.bks.cpg/sg57_15_cif.got.tgz:28134.got - 2010.06.03 13:58:18.
