data_PCOD9437208
_publ_section_title
;
Structure prediction by ZEFSAII (Michael W. Deem and Ramdas Pophale) SiO2 
 PCOD9437208
Probable space group: P B C M
;
_chemical_formula_sum "Si O2"
_cell_formula_units_Z 40
_cell_length_a 6.929673
_cell_length_b 21.665416
_cell_length_c 13.699745
_cell_angle_alpha 90.000000
_cell_angle_beta 90.000000
_cell_angle_gamma 90.000000
_cell_volume 2056.800917
_symmetry_space_group_name_H-M "P B C M"
_symmetry_group_IT_number 57
_symmetry_cell_setting 'orthorhombic'
loop_
_space_group_symop_operation_xyz
x,y,z
-x,-y,1/2+z
x,1/2-y,-z
-x,1/2+y,1/2-z
-x,-y,-z
x,y,1/2-z
-x,1/2+y,z
x,1/2-y,1/2+z
loop_
_atom_site_type_symbol
_atom_site_label
_atom_site_fract_x
_atom_site_fract_y
_atom_site_fract_z
Si Si1 0.470563 0.309171 0.862960
Si Si2 0.802319 0.968131 0.028902
Si Si3 0.492640 0.953726 0.640854
Si Si4 0.881852 0.830040 0.492740
Si Si5 0.886141 0.230954 0.135302
O O1 0.401294 0.297303 0.750000
O O2 0.542141 0.380214 0.863562
O O3 0.655860 0.265740 0.881200
O O4 0.308657 0.307584 0.947199
O O5 0.838718 0.896308 0.052150
O O6 0.692754 0.006588 0.111488
O O7 0.660491 0.968349 0.935693
O O8 0.000000 0.000000 0.000000
O O9 0.555456 0.968858 0.750000
O O10 0.037434 0.830251 0.580705
O O11 0.986081 0.785271 0.414058
O O12 0.917481 0.228447 0.250000
#
# Coordination Sequence:
#
# PCOD9437208 Si02
#       5
#     8   8   8   8   8
#     4   9  18  36  59  81 110 148 187 227 271 326
#     4  10  20  35  56  83 114 144 179 227 279 329
#     4   9  19  35  56  82 111 147 188 225 269 328
#     4  10  21  35  56  82 111 143 182 229 279 326
#     4  10  21  36  55  79 106 142 187 226 269 328
#
# _framework density 19.447676000000001
#
# number of rings (size 3 to 8) (size 9 to 14) (size 15 to 20)
#    0.000    2.400    0.000    1.800    0.000    5.600 
#    0.000    0.000    0.000    6.000    0.000    0.000 
#    0.000    0.000    0.000    0.000    0.000    0.000 
#
# Total GULP energy -222833.369854 kJ/mol
# GULP energy per Si atom -5570.834246 kJ/mol
# Density = 1.940341 g / cm^3
# Si number density = 19.447676 Si / 1000 Ang^3
#
#
#
# Elastic Constant Matrix: (Units=GPa)
#
#
# Indices 1 2 3 4 5 6 
#
# 1 82.0154 24.1222 -3.6222 0.0000 0.0000 0.0000
# 2 24.1222 62.0791 12.2224 0.0000 0.0000 0.0000
# 3 -3.6222 12.2224 67.1683 0.0000 0.0000 0.0000
# 4 0.0000 0.0000 0.0000 25.8433 0.0000 0.0000
# 5 0.0000 0.0000 0.0000 0.0000 -57.4334 0.0000
# 6 0.0000 0.0000 0.0000 0.0000 0.0000 28.3199
#
#
#
# Elastic Compliance Matrix: (Units=1/GPa)
#
#
# Indices 1 2 3 4 5 6 
#
# 1 0.013974 -0.005786 0.001806 0.000000 0.000000 0.000000
# 2 -0.005786 0.019102 -0.003788 0.000000 0.000000 0.000000
# 3 0.001806 -0.003788 0.015675 0.000000 0.000000 0.000000
# 4 0.000000 0.000000 0.000000 0.038695 0.000000 0.000000
# 5 0.000000 0.000000 0.000000 0.000000 -0.017411 0.000000
# 6 0.000000 0.000000 0.000000 0.000000 0.000000 0.035311
#
#
# Mechanical properties :
#
#
# Convention : Reuss Voigt Hill
#
# Bulk Modulus (GPa) = 30.10523 30.74529 30.42526
# Shear Modulus (GPa) = 37.89249 11.24867 24.57058
#
# Velocity S-wave (km/s) = 4.41889 2.40762 3.55832
# Velocity P-wave (km/s) = 6.44587 4.85514 5.70621
#
# Compressibility (1/GPa) = 0.03321682
#
# Stress axis : x y z
#
# Youngs Moduli (GPa) = 71.56005 52.34934 63.79712
#
# Poissons Ratio (x) = 0.30288 -0.11524
# Poissons Ratio (y) = 0.41402 0.24167
# Poissons Ratio (z) = -0.12927 0.19830
#
# Static dielectric constant tensor:
#      x y z
#    x 1.705440 0.000000 0.000000 
#    y 0.000000 1.720920 0.000000 
#    z 0.000000 0.000000 1.660070 
# 
# From -- ./inp_files/14948.got.cif
#   From: 2010.05.17/outbox.cif.g08.bks.cpg/sg57_8_cif.got.tgz:14948.got - 2010.06.03 13:58:18.
