data_PCOD9437228
_publ_section_title
;
Structure prediction by ZEFSAII (Michael W. Deem and Ramdas Pophale) SiO2 
 PCOD9437228
Probable space group: P B C M
;
_chemical_formula_sum "Si O2"
_cell_formula_units_Z 56
_cell_length_a 14.797661
_cell_length_b 21.648822
_cell_length_c 9.033944
_cell_angle_alpha 90.000000
_cell_angle_beta 90.000000
_cell_angle_gamma 90.000000
_cell_volume 2894.041387
_symmetry_space_group_name_H-M "P B C M"
_symmetry_group_IT_number 57
_symmetry_cell_setting 'orthorhombic'
loop_
_space_group_symop_operation_xyz
x,y,z
-x,-y,1/2+z
x,1/2-y,-z
-x,1/2+y,1/2-z
-x,-y,-z
x,y,1/2-z
-x,1/2+y,z
x,1/2-y,1/2+z
loop_
_atom_site_type_symbol
_atom_site_label
_atom_site_fract_x
_atom_site_fract_y
_atom_site_fract_z
Si Si1 0.130214 0.185521 0.428058
Si Si2 0.558636 0.943891 0.429281
Si Si3 0.907842 0.487720 0.584754
Si Si4 0.453946 0.818715 0.428088
Si Si5 0.755704 0.562862 0.428148
Si Si6 0.075719 0.657829 0.085261
Si Si7 0.740782 0.313973 0.424685
O O1 0.158449 0.250000 0.500000
O O2 0.130406 0.190522 0.250000
O O3 0.195223 0.128215 0.465865
O O4 0.025261 0.172024 0.471114
O O5 0.557534 0.949782 0.250000
O O6 0.520949 0.874898 0.467204
O O7 0.659927 0.945747 0.493579
O O8 0.500000 0.000000 0.500000
O O9 0.905527 0.515862 0.750000
O O10 0.824597 0.511426 0.488698
O O11 0.910987 0.414772 0.601210
O O12 0.000000 0.500000 0.500000
O O13 0.470309 0.750000 0.500000
O O14 0.457699 0.809125 0.250000
O O15 0.353553 0.848081 0.461981
O O16 0.747330 0.559168 0.250000
O O17 0.084994 0.686687 0.250000
O O18 0.159721 0.673801 0.983818
O O19 0.717591 0.250000 0.500000
O O20 0.746180 0.311451 0.250000
#
# Coordination Sequence:
#
# PCOD9437228 Si02
#       7
#     8   8   8   8   8   8   8
#     4  10  22  40  60  86 123 163 206 255 306 361
#     4  11  25  45  67  97 129 164 211 266 325 389
#     4  11  22  39  62  90 123 160 203 249 301 363
#     4   9  21  41  64  90 124 161 209 262 318 385
#     4  11  24  44  64  89 125 164 207 258 312 373
#     4  10  21  37  56  85 122 160 201 248 298 357
#     4  10  20  35  56  86 119 158 198 245 300 359
#
# _framework density 19.350104000000002
#
# number of rings (size 3 to 8) (size 9 to 14) (size 15 to 20)
#    0.000    1.714    1.429    2.143    2.000    6.286 
#    0.000    2.857    0.000    0.000    0.000    0.000 
#    0.000    0.000    0.000    0.000    0.000    0.000 
#
# Total GULP energy -311958.003604 kJ/mol
# GULP energy per Si atom -5570.678636 kJ/mol
# Density = 1.930606 g / cm^3
# Si number density = 19.350104 Si / 1000 Ang^3
#
#
#
# Elastic Constant Matrix: (Units=GPa)
#
#
# Indices 1 2 3 4 5 6 
#
# 1 150.1336 34.0296 47.4136 0.0000 0.0000 0.0000
# 2 34.0296 74.2231 22.3492 0.0000 0.0000 0.0000
# 3 47.4136 22.3492 62.9350 0.0000 0.0000 0.0000
# 4 0.0000 0.0000 0.0000 26.1300 0.0000 0.0000
# 5 0.0000 0.0000 0.0000 0.0000 26.2740 0.0000
# 6 0.0000 0.0000 0.0000 0.0000 0.0000 31.6532
#
#
#
# Elastic Compliance Matrix: (Units=1/GPa)
#
#
# Indices 1 2 3 4 5 6 
#
# 1 0.009095 -0.002359 -0.006014 0.000000 0.000000 0.000000
# 2 -0.002359 0.015698 -0.003797 0.000000 0.000000 0.000000
# 3 -0.006014 -0.003797 0.021769 0.000000 0.000000 0.000000
# 4 0.000000 0.000000 0.000000 0.038270 0.000000 0.000000
# 5 0.000000 0.000000 0.000000 0.000000 0.038060 0.000000
# 6 0.000000 0.000000 0.000000 0.000000 0.000000 0.031592
#
#
# Mechanical properties :
#
#
# Convention : Reuss Voigt Hill
#
# Bulk Modulus (GPa) = 45.00328 54.98626 49.99477
# Shear Modulus (GPa) = 26.84827 29.04473 27.94650
#
# Velocity S-wave (km/s) = 3.72896 3.87849 3.80446
# Velocity P-wave (km/s) = 6.46901 6.96672 6.72247
#
# Compressibility (1/GPa) = 0.02222060
#
# Stress axis : x y z
#
# Youngs Moduli (GPa) = 109.95442 63.70314 45.93743
#
# Poissons Ratio (x) = 0.15026 0.27627
# Poissons Ratio (y) = 0.25936 0.17445
# Poissons Ratio (z) = 0.66127 0.24191
#
# Static dielectric constant tensor:
#      x y z
#    x 1.336340 0.000000 0.000000 
#    y 0.000000 1.583680 0.000000 
#    z 0.000000 0.000000 1.698730 
# 
# From -- ./inp_files/5149.got.cif
#   From: 2010.05.17/outbox.cif.g08.bks.cpg/sg57_3_cif.got.tgz:5149.got - 2010.06.03 13:58:18.
