data_PCOD9437582
_publ_section_title
;
Structure prediction by ZEFSAII (Michael W. Deem and Ramdas Pophale) SiO2 
 PCOD9437582
Probable space group: P B C M
;
_chemical_formula_sum "Si O2"
_cell_formula_units_Z 48
_cell_length_a 9.093852
_cell_length_b 18.828257
_cell_length_c 15.769804
_cell_angle_alpha 90.000000
_cell_angle_beta 90.000000
_cell_angle_gamma 90.000000
_cell_volume 2700.127644
_symmetry_space_group_name_H-M "P B C M"
_symmetry_group_IT_number 57
_symmetry_cell_setting 'orthorhombic'
loop_
_space_group_symop_operation_xyz
x,y,z
-x,-y,1/2+z
x,1/2-y,-z
-x,1/2+y,1/2-z
-x,-y,-z
x,y,1/2-z
-x,1/2+y,z
x,1/2-y,1/2+z
loop_
_atom_site_type_symbol
_atom_site_label
_atom_site_fract_x
_atom_site_fract_y
_atom_site_fract_z
Si Si1 0.907742 0.544463 0.928112
Si Si2 0.652837 0.567092 0.346186
Si Si3 0.797593 0.078755 0.651094
Si Si4 0.298368 0.165909 0.493630
Si Si5 0.641498 0.166785 0.509689
Si Si6 0.693951 0.427873 0.848204
O O1 0.796970 0.491089 0.880825
O O2 0.029291 0.573217 0.863154
O O3 0.816213 0.611871 0.963214
O O4 0.000000 0.500000 0.000000
O O5 0.700638 0.576251 0.250000
O O6 0.731252 0.496756 0.379834
O O7 0.692290 0.637234 0.397617
O O8 0.478851 0.552317 0.348399
O O9 0.760122 0.088604 0.750000
O O10 0.729691 0.136776 0.589222
O O11 0.265220 0.250000 0.500000
O O12 0.466834 0.153083 0.524377
O O13 0.659372 0.250000 0.500000
O O14 0.698357 0.131183 0.422316
O O15 0.729922 0.407801 0.750000
#
# Coordination Sequence:
#
# PCOD9437582 Si02
#       6
#     8   8   8   8   8   8
#     4  12  21  36  57  85 117 155 190 237 284 345
#     4   9  18  35  59  85 110 143 193 243 285 337
#     4  11  22  37  58  85 115 152 195 241 287 340
#     4  10  21  38  60  83 115 153 190 236 297 352
#     4  10  21  38  60  86 115 152 194 244 294 343
#     4  10  20  36  59  85 114 150 193 237 285 343
#
# _framework density 17.776937
#
# number of rings (size 3 to 8) (size 9 to 14) (size 15 to 20)
#    0.000    1.667    3.333    1.500    0.000    4.000 
#    0.000    5.000    0.000    0.000    0.000    0.000 
#    0.000    0.000    0.000    0.000    0.000    0.000 
#
# Total GULP energy -267557.843990 kJ/mol
# GULP energy per Si atom -5574.121750 kJ/mol
# Density = 1.773648 g / cm^3
# Si number density = 17.776937 Si / 1000 Ang^3
#
#
#
# Elastic Constant Matrix: (Units=GPa)
#
#
# Indices 1 2 3 4 5 6 
#
# 1 51.5877 62.2555 39.0840 0.0000 0.0000 0.0000
# 2 62.2555 111.1470 49.1811 0.0000 0.0000 0.0000
# 3 39.0840 49.1811 87.4883 0.0000 0.0000 0.0000
# 4 0.0000 0.0000 0.0000 12.6973 0.0000 0.0000
# 5 0.0000 0.0000 0.0000 0.0000 28.5141 0.0000
# 6 0.0000 0.0000 0.0000 0.0000 0.0000 1.4526
#
#
#
# Elastic Compliance Matrix: (Units=1/GPa)
#
#
# Indices 1 2 3 4 5 6 
#
# 1 0.068063 -0.032837 -0.011947 0.000000 0.000000 0.000000
# 2 -0.032837 0.027818 -0.000968 0.000000 0.000000 0.000000
# 3 -0.011947 -0.000968 0.017312 0.000000 0.000000 0.000000
# 4 0.000000 0.000000 0.000000 0.078757 0.000000 0.000000
# 5 0.000000 0.000000 0.000000 0.000000 0.035070 0.000000
# 6 0.000000 0.000000 0.000000 0.000000 0.000000 0.688437
#
#
# Mechanical properties :
#
#
# Convention : Reuss Voigt Hill
#
# Bulk Modulus (GPa) = 46.10823 61.25158 53.67990
# Shear Modulus (GPa) = 4.93003 15.17961 10.05482
#
# Velocity S-wave (km/s) = 1.66712 2.92532 2.38084
# Velocity P-wave (km/s) = 5.44969 6.77794 6.14978
#
# Compressibility (1/GPa) = 0.02168810
#
# Stress axis : x y z
#
# Youngs Moduli (GPa) = 14.69225 35.94764 57.76463
#
# Poissons Ratio (x) = 1.18041 0.69011
# Poissons Ratio (y) = 0.48245 0.05594
# Poissons Ratio (z) = 0.17553 0.03481
#
# Static dielectric constant tensor:
#      x y z
#    x 1.619080 0.000000 0.000000 
#    y 0.000000 1.356120 0.000000 
#    z 0.000000 0.000000 1.626050 
# 
# From -- ./inp_files/16319.got.cif
#   From: 2010.05.17/outbox.cif.g08.bks.cpg/sg57_9_cif.got.tgz:16319.got - 2010.06.03 13:58:18.
