data_PCOD9437178
_publ_section_title
;
Structure prediction by ZEFSAII (Michael W. Deem and Ramdas Pophale) SiO2 
 PCOD9437178
Probable space group: P B C M
;
_chemical_formula_sum "Si O2"
_cell_formula_units_Z 60
_cell_length_a 17.527180
_cell_length_b 17.034003
_cell_length_c 9.866859
_cell_angle_alpha 90.000000
_cell_angle_beta 90.000000
_cell_angle_gamma 90.000000
_cell_volume 2945.830051
_symmetry_space_group_name_H-M "P B C M"
_symmetry_group_IT_number 57
_symmetry_cell_setting 'orthorhombic'
loop_
_space_group_symop_operation_xyz
x,y,z
-x,-y,1/2+z
x,1/2-y,-z
-x,1/2+y,1/2-z
-x,-y,-z
x,y,1/2-z
-x,1/2+y,z
x,1/2-y,1/2+z
loop_
_atom_site_type_symbol
_atom_site_label
_atom_site_fract_x
_atom_site_fract_y
_atom_site_fract_z
Si Si1 0.785689 0.673896 0.910217
Si Si2 0.204515 0.676271 0.908389
Si Si3 0.915764 0.050077 0.526528
Si Si4 0.662018 0.546876 0.909327
Si Si5 0.366831 0.895754 0.091480
Si Si6 0.036161 0.317876 0.400302
Si Si7 0.995271 0.969893 0.750000
Si Si8 0.469583 0.176000 0.909016
O O1 0.771240 0.689756 0.750000
O O2 0.736458 0.597962 0.947211
O O3 0.876191 0.659630 0.926186
O O4 0.766113 0.750000 0.000000
O O5 0.185029 0.689298 0.750000
O O6 0.162428 0.596990 0.956804
O O7 0.294797 0.662047 0.920020
O O8 0.181029 0.750000 0.000000
O O9 0.939513 0.036600 0.371837
O O10 0.978941 0.110288 0.590156
O O11 0.928968 0.978187 0.628957
O O12 0.668081 0.525783 0.750000
O O13 0.590738 0.605944 0.925324
O O14 0.649245 0.470983 0.999676
O O15 0.372847 0.919033 0.250000
O O16 0.446126 0.854488 0.053543
O O17 0.011851 0.250000 0.500000
O O18 0.033424 0.284036 0.250000
O O19 0.470126 0.198042 0.750000
O O20 0.448325 0.250000 0.000000
#
# Coordination Sequence:
#
# PCOD9437178 Si02
#       8
#     8   8   8   8   8   8   4   8
#     4   9  19  35  53  82 116 150 194 240 290 353
#     4  11  24  42  64  89 120 160 212 260 305 364
#     4  11  22  42  58  88 116 155 199 247 299 365
#     4  10  21  37  59  89 119 158 197 245 298 368
#     4  10  23  41  58  88 124 158 200 254 303 358
#     4  10  20  35  56  80 110 146 190 242 290 346
#     4  10  24  38  60  82 118 152 188 244 304 356
#     4  10  21  38  62  90 122 157 200 247 299 360
#
# _framework density 20.367773
#
# number of rings (size 3 to 8) (size 9 to 14) (size 15 to 20)
#    0.000    1.867    1.333    1.600    1.867    4.267 
#    2.400    0.000    0.000    0.000    0.000    0.000 
#    0.000    0.000    0.000    0.000    0.000    0.000 
#
# Total GULP energy -334192.093269 kJ/mol
# GULP energy per Si atom -5569.868221 kJ/mol
# Density = 2.032142 g / cm^3
# Si number density = 20.367773 Si / 1000 Ang^3
#
#
#
# Elastic Constant Matrix: (Units=GPa)
#
#
# Indices 1 2 3 4 5 6 
#
# 1 51.0575 -6.5596 4.0426 0.0000 0.0000 0.0000
# 2 -6.5596 38.8132 37.0901 0.0000 0.0000 0.0000
# 3 4.0426 37.0901 119.4283 0.0000 0.0000 0.0000
# 4 0.0000 0.0000 0.0000 17.2164 0.0000 0.0000
# 5 0.0000 0.0000 0.0000 0.0000 25.5445 0.0000
# 6 0.0000 0.0000 0.0000 0.0000 0.0000 20.8200
#
#
#
# Elastic Compliance Matrix: (Units=1/GPa)
#
#
# Indices 1 2 3 4 5 6 
#
# 1 0.020541 0.005881 -0.002522 0.000000 0.000000 0.000000
# 2 0.005881 0.038322 -0.012100 0.000000 0.000000 0.000000
# 3 -0.002522 -0.012100 0.012217 0.000000 0.000000 0.000000
# 4 0.000000 0.000000 0.000000 0.058084 0.000000 0.000000
# 5 0.000000 0.000000 0.000000 0.000000 0.039147 0.000000
# 6 0.000000 0.000000 0.000000 0.000000 0.000000 0.048031
#
#
# Mechanical properties :
#
#
# Convention : Reuss Voigt Hill
#
# Bulk Modulus (GPa) = 18.65755 30.93834 24.79795
# Shear Modulus (GPa) = 19.86579 24.36458 22.11519
#
# Velocity S-wave (km/s) = 3.12645 3.46241 3.29871
# Velocity P-wave (km/s) = 4.71309 5.58634 5.16819
#
# Compressibility (1/GPa) = 0.05359760
#
# Stress axis : x y z
#
# Youngs Moduli (GPa) = 48.68303 26.09491 81.85635
#
# Poissons Ratio (x) = -0.15348 0.20643
# Poissons Ratio (y) = -0.28633 0.99049
# Poissons Ratio (z) = 0.12277 0.31576
#
# Static dielectric constant tensor:
#      x y z
#    x 1.743190 0.000000 0.000000 
#    y 0.000000 1.772810 0.000000 
#    z 0.000000 0.000000 1.702920 
# 
# From -- ./inp_files/6898.got.cif
#   From: 2010.05.17/outbox.cif.g08.bks.cpg/sg57_4_cif.got.tgz:6898.got - 2010.06.03 13:58:18.
