data_PCOD9437507
_publ_section_title
;
Structure prediction by ZEFSAII (Michael W. Deem and Ramdas Pophale) SiO2 
 PCOD9437507
Probable space group: P B C M
;
_chemical_formula_sum "Si O2"
_cell_formula_units_Z 48
_cell_length_a 7.681002
_cell_length_b 19.502286
_cell_length_c 14.767381
_cell_angle_alpha 90.000000
_cell_angle_beta 90.000000
_cell_angle_gamma 90.000000
_cell_volume 2212.110815
_symmetry_space_group_name_H-M "P B C M"
_symmetry_group_IT_number 57
_symmetry_cell_setting 'orthorhombic'
loop_
_space_group_symop_operation_xyz
x,y,z
-x,-y,1/2+z
x,1/2-y,-z
-x,1/2+y,1/2-z
-x,-y,-z
x,y,1/2-z
-x,1/2+y,z
x,1/2-y,1/2+z
loop_
_atom_site_type_symbol
_atom_site_label
_atom_site_fract_x
_atom_site_fract_y
_atom_site_fract_z
Si Si1 0.021454 0.417387 0.250000
Si Si2 0.496033 0.495690 0.109277
Si Si3 0.523271 0.257908 0.606017
Si Si4 0.209383 0.797077 0.250000
Si Si5 0.292706 0.133167 0.605028
Si Si6 0.780204 0.449638 0.750000
Si Si7 0.981854 0.673070 0.250000
Si Si8 0.712400 0.617946 0.108845
O O1 0.130008 0.390308 0.336616
O O2 0.052721 0.499036 0.250000
O O3 0.839880 0.377214 0.250000
O O4 0.457117 0.416313 0.129535
O O5 0.335421 0.531523 0.162017
O O6 0.663882 0.540201 0.136219
O O7 0.500000 0.500000 0.000000
O O8 0.564613 0.250000 0.500000
O O9 0.679066 0.228524 0.664731
O O10 0.355650 0.209615 0.623318
O O11 0.457796 0.334442 0.626331
O O12 0.032882 0.752225 0.250000
O O13 0.255843 0.123279 0.498661
O O14 0.843504 0.372305 0.750000
O O15 0.869814 0.649420 0.164112
#
# Coordination Sequence:
#
# PCOD9437507 Si02
#       8
#     4   8   8   4   8   4   4   8
#     4  10  21  37  55  79 112 145 173 215 277 326
#     4   9  18  36  60  81 105 142 186 226 261 314
#     4  10  21  37  58  80 104 140 189 230 260 311
#     4  12  24  35  52  81 112 143 176 221 274 322
#     4   9  19  37  59  79 102 139 184 225 263 316
#     4  10  21  37  55  83 116 141 177 225 273 324
#     4  12  24  35  54  83 118 147 170 219 282 334
#     4  10  20  36  58  81 105 143 184 219 268 324
#
# _framework density 21.698730000000001
#
# number of rings (size 3 to 8) (size 9 to 14) (size 15 to 20)
#    0.000    2.000    0.000    3.500    0.000    2.667 
#    0.000    7.500    0.000    0.000    0.000    0.000 
#    0.000    0.000    0.000    0.000    0.000    0.000 
#
# Total GULP energy -267954.495080 kJ/mol
# GULP energy per Si atom -5582.385314 kJ/mol
# Density = 2.164934 g / cm^3
# Si number density = 21.698730 Si / 1000 Ang^3
#
#
#
# Elastic Constant Matrix: (Units=GPa)
#
#
# Indices 1 2 3 4 5 6 
#
# 1 46.1643 -10.2041 32.6002 0.0000 0.0000 0.0000
# 2 -10.2041 61.9287 12.9022 0.0000 0.0000 0.0000
# 3 32.6002 12.9022 70.1139 0.0000 0.0000 0.0000
# 4 0.0000 0.0000 0.0000 12.9181 0.0000 0.0000
# 5 0.0000 0.0000 0.0000 0.0000 45.4723 0.0000
# 6 0.0000 0.0000 0.0000 0.0000 0.0000 32.6247
#
#
#
# Elastic Compliance Matrix: (Units=1/GPa)
#
#
# Indices 1 2 3 4 5 6 
#
# 1 0.037597 0.010229 -0.019363 0.000000 0.000000 0.000000
# 2 0.010229 0.019574 -0.008358 0.000000 0.000000 0.000000
# 3 -0.019363 -0.008358 0.024804 0.000000 0.000000 0.000000
# 4 0.000000 0.000000 0.000000 0.077411 0.000000 0.000000
# 5 0.000000 0.000000 0.000000 0.000000 0.021991 0.000000
# 6 0.000000 0.000000 0.000000 0.000000 0.000000 0.030652
#
#
# Mechanical properties :
#
#
# Convention : Reuss Voigt Hill
#
# Bulk Modulus (GPa) = 21.28116 27.64483 24.46299
# Shear Modulus (GPa) = 19.03482 27.73027 23.38254
#
# Velocity S-wave (km/s) = 2.96502 3.57874 3.28624
# Velocity P-wave (km/s) = 4.64227 5.46301 5.06928
#
# Compressibility (1/GPa) = 0.04698992
#
# Stress axis : x y z
#
# Youngs Moduli (GPa) = 26.59812 51.08726 40.31654
#
# Poissons Ratio (x) = -0.52257 0.78066
# Poissons Ratio (y) = -0.27207 0.33697
# Poissons Ratio (z) = 0.51503 0.42699
#
# Static dielectric constant tensor:
#      x y z
#    x 1.778850 0.000000 0.000000 
#    y 0.000000 1.784640 0.000000 
#    z 0.000000 0.000000 1.757000 
# 
# From -- ./inp_files/16453.got.cif
#   From: 2010.05.17/outbox.cif.g08.bks.cpg/sg57_9_cif.got.tgz:16453.got - 2010.06.03 13:58:18.
