data_PCOD9437824
_publ_section_title
;
Structure prediction by ZEFSAII (Michael W. Deem and Ramdas Pophale) SiO2 
 PCOD9437824
Probable space group: P B C M
;
_chemical_formula_sum "Si O2"
_cell_formula_units_Z 48
_cell_length_a 14.313804
_cell_length_b 8.356052
_cell_length_c 21.054318
_cell_angle_alpha 90.000000
_cell_angle_beta 90.000000
_cell_angle_gamma 90.000000
_cell_volume 2518.241508
_symmetry_space_group_name_H-M "P B C M"
_symmetry_group_IT_number 57
_symmetry_cell_setting 'orthorhombic'
loop_
_space_group_symop_operation_xyz
x,y,z
-x,-y,1/2+z
x,1/2-y,-z
-x,1/2+y,1/2-z
-x,-y,-z
x,y,1/2-z
-x,1/2+y,z
x,1/2-y,1/2+z
loop_
_atom_site_type_symbol
_atom_site_label
_atom_site_fract_x
_atom_site_fract_y
_atom_site_fract_z
Si Si1 0.654052 0.490957 0.750000
Si Si2 0.743862 0.355439 0.443728
Si Si3 0.462844 0.846720 0.250000
Si Si4 0.234135 0.970944 0.619012
Si Si5 0.102629 0.063341 0.982933
Si Si6 0.577313 0.970332 0.879609
Si Si7 0.591890 0.649158 0.935180
O O1 0.589026 0.327361 0.750000
O O2 0.575864 0.631009 0.750000
O O3 0.721743 0.496239 0.811426
O O4 0.698006 0.250000 0.500000
O O5 0.828576 0.451999 0.474885
O O6 0.671315 0.474028 0.413153
O O7 0.771160 0.219127 0.393384
O O8 0.430328 0.943200 0.312473
O O9 0.136974 0.038380 0.590252
O O10 0.311234 0.057944 0.574199
O O11 0.111216 0.250000 0.000000
O O12 0.000000 0.000000 0.000000
O O13 0.491004 0.025574 0.923406
O O14 0.577700 0.780297 0.879781
O O15 0.588866 0.750000 0.000000
#
# Coordination Sequence:
#
# PCOD9437824 Si02
#       7
#     4   8   4   8   8   8   8
#     4  12  24  42  60  89 137 182 236 260 312 378
#     4  10  20  37  60  90 123 161 211 263 327 379
#     4  12  24  40  58  83 129 186 228 262 302 380
#     4  11  22  39  62  93 127 173 214 270 320 391
#     4  11  23  44  72 101 126 161 208 275 347 405
#     4  12  22  36  55  82 124 172 218 262 317 378
#     4  12  23  36  55  85 124 170 215 272 323 380
#
# _framework density 19.060919999999999
#
# number of rings (size 3 to 8) (size 9 to 14) (size 15 to 20)
#    0.000    0.667    3.333    8.000    0.000    0.000 
#    0.000    0.000    0.000    5.000    0.000    0.000 
#    0.000    0.000    0.000    0.000    0.000    0.000 
#
# Total GULP energy -268045.839097 kJ/mol
# GULP energy per Si atom -5584.288315 kJ/mol
# Density = 1.901754 g / cm^3
# Si number density = 19.060920 Si / 1000 Ang^3
#
#
#
# Elastic Constant Matrix: (Units=GPa)
#
#
# Indices 1 2 3 4 5 6 
#
# 1 109.9656 32.8644 53.0468 0.0000 0.0000 0.0000
# 2 32.8644 108.6595 25.2897 0.0000 0.0000 0.0000
# 3 53.0468 25.2897 125.5015 0.0000 0.0000 0.0000
# 4 0.0000 0.0000 0.0000 32.1569 0.0000 0.0000
# 5 0.0000 0.0000 0.0000 0.0000 20.8340 0.0000
# 6 0.0000 0.0000 0.0000 0.0000 0.0000 35.7016
#
#
#
# Elastic Compliance Matrix: (Units=1/GPa)
#
#
# Indices 1 2 3 4 5 6 
#
# 1 0.012078 -0.002586 -0.004584 0.000000 0.000000 0.000000
# 2 -0.002586 0.010210 -0.000964 0.000000 0.000000 0.000000
# 3 -0.004584 -0.000964 0.010100 0.000000 0.000000 0.000000
# 4 0.000000 0.000000 0.000000 0.031097 0.000000 0.000000
# 5 0.000000 0.000000 0.000000 0.000000 0.047999 0.000000
# 6 0.000000 0.000000 0.000000 0.000000 0.000000 0.028010
#
#
# Mechanical properties :
#
#
# Convention : Reuss Voigt Hill
#
# Bulk Modulus (GPa) = 62.03929 62.94762 62.49346
# Shear Modulus (GPa) = 31.02989 33.26688 32.14838
#
# Velocity S-wave (km/s) = 4.03914 4.18220 4.11129
# Velocity P-wave (km/s) = 7.37370 7.51114 7.44274
#
# Compressibility (1/GPa) = 0.01611882
#
# Stress axis : x y z
#
# Youngs Moduli (GPa) = 82.79578 97.94640 99.01118
#
# Poissons Ratio (x) = 0.25330 0.45386
# Poissons Ratio (y) = 0.21412 0.09547
# Poissons Ratio (z) = 0.37953 0.09444
#
# Static dielectric constant tensor:
#      x y z
#    x 1.645210 0.000000 0.000000 
#    y 0.000000 1.672270 0.000000 
#    z 0.000000 0.000000 1.720000 
# 
# From -- ./inp_files/25283.got.cif
#   From: 2010.05.17/outbox.cif.g08.bks.cpg/sg57_13_cif.got.tgz:25283.got - 2010.06.03 13:58:18.
