data_PCOD9437016
_publ_section_title
;
Structure prediction by ZEFSAII (Michael W. Deem and Ramdas Pophale) SiO2 
 PCOD9437016
Probable space group: P B C M
;
_chemical_formula_sum "Si O2"
_cell_formula_units_Z 64
_cell_length_a 15.832723
_cell_length_b 24.302861
_cell_length_c 8.749845
_cell_angle_alpha 90.000000
_cell_angle_beta 90.000000
_cell_angle_gamma 90.000000
_cell_volume 3366.769439
_symmetry_space_group_name_H-M "P B C M"
_symmetry_group_IT_number 57
_symmetry_cell_setting 'orthorhombic'
loop_
_space_group_symop_operation_xyz
x,y,z
-x,-y,1/2+z
x,1/2-y,-z
-x,1/2+y,1/2-z
-x,-y,-z
x,y,1/2-z
-x,1/2+y,z
x,1/2-y,1/2+z
loop_
_atom_site_type_symbol
_atom_site_label
_atom_site_fract_x
_atom_site_fract_y
_atom_site_fract_z
Si Si1 0.855506 0.502941 0.432885
Si Si2 0.595892 0.121610 0.565205
Si Si3 0.249721 0.311051 0.065357
Si Si4 0.406269 0.113620 0.934134
Si Si5 0.655522 0.999853 0.567152
Si Si6 0.091115 0.886715 0.566844
Si Si7 0.249834 0.689379 0.066984
Si Si8 0.085637 0.381467 0.066756
O O1 0.866279 0.504487 0.250000
O O2 0.755339 0.501838 0.468162
O O3 0.895704 0.447493 0.498648
O O4 0.894542 0.557347 0.506544
O O5 0.602058 0.124906 0.750000
O O6 0.499447 0.133128 0.518860
O O7 0.664383 0.161935 0.493726
O O8 0.618611 0.058872 0.520118
O O9 0.251812 0.308722 0.250000
O O10 0.330359 0.346972 0.013229
O O11 0.163802 0.342602 0.020982
O O12 0.252345 0.250000 0.000000
O O13 0.404674 0.112754 0.750000
O O14 0.389338 0.051933 0.990885
O O15 0.646151 0.995314 0.750000
O O16 0.087933 0.890050 0.750000
O O17 0.171003 0.849349 0.521659
O O18 0.003323 0.863395 0.503449
O O19 0.252100 0.691924 0.250000
O O20 0.239561 0.750000 0.000000
O O21 0.080341 0.382281 0.250000
#
# Coordination Sequence:
#
# PCOD9437016 Si02
#       8
#     8   8   8   8   8   8   8   8
#     4  11  21  36  61  91 123 158 195 242 295 350
#     4  10  21  39  62  90 124 158 198 245 296 352
#     4  10  23  41  60  84 114 154 199 243 294 344
#     4  10  21  38  61  89 123 159 196 244 296 353
#     4  10  20  34  58  91 123 158 196 241 295 351
#     4  11  24  41  62  90 120 155 197 242 297 357
#     4  11  25  43  64  87 117 157 201 250 300 353
#     4  11  23  40  62  88 120 157 196 243 297 356
#
# _framework density 19.009319999999999
#
# number of rings (size 3 to 8) (size 9 to 14) (size 15 to 20)
#    0.000    1.500    2.500    2.250    0.000    5.500 
#    0.000    3.750    0.000    0.000    0.000    0.000 
#    0.000    0.000    0.000    0.000    0.000    0.000 
#
# Total GULP energy -357796.199949 kJ/mol
# GULP energy per Si atom -5590.565624 kJ/mol
# Density = 1.896605 g / cm^3
# Si number density = 19.009320 Si / 1000 Ang^3
#
#
#
# Elastic Constant Matrix: (Units=GPa)
#
#
# Indices 1 2 3 4 5 6 
#
# 1 109.8156 17.0107 22.2479 0.0000 0.0000 0.0000
# 2 17.0107 86.2584 8.9173 0.0000 0.0000 0.0000
# 3 22.2479 8.9173 18.9047 0.0000 0.0000 0.0000
# 4 0.0000 0.0000 0.0000 33.8862 0.0000 0.0000
# 5 0.0000 0.0000 0.0000 0.0000 -1.9550 0.0000
# 6 0.0000 0.0000 0.0000 0.0000 0.0000 -0.9176
#
#
#
# Elastic Compliance Matrix: (Units=1/GPa)
#
#
# Indices 1 2 3 4 5 6 
#
# 1 0.012031 -0.000956 -0.013708 0.000000 0.000000 0.000000
# 2 -0.000956 0.012263 -0.004660 0.000000 0.000000 0.000000
# 3 -0.013708 -0.004660 0.071228 0.000000 0.000000 0.000000
# 4 0.000000 0.000000 0.000000 0.029511 0.000000 0.000000
# 5 0.000000 0.000000 0.000000 0.000000 -0.511504 0.000000
# 6 0.000000 0.000000 0.000000 0.000000 0.000000 -1.089844
#
#
# Mechanical properties :
#
#
# Convention : Reuss Voigt Hill
#
# Bulk Modulus (GPa) = 17.58259 34.59227 26.08743
# Shear Modulus (GPa) = -3.52433 17.32291 6.89929
#
# Velocity S-wave (km/s) = -1.36309 3.02202 1.90717
# Velocity P-wave (km/s) = 2.60618 5.51488 4.31312
#
# Compressibility (1/GPa) = 0.05687446
#
# Stress axis : x y z
#
# Youngs Moduli (GPa) = 83.11584 81.54444 14.03949
#
# Poissons Ratio (x) = 0.07792 0.19246
# Poissons Ratio (y) = 0.07942 0.06542
# Poissons Ratio (z) = 1.13938 0.38000
#
# Static dielectric constant tensor:
#      x y z
#    x 1.671860 0.000000 0.000000 
#    y 0.000000 1.614550 0.000000 
#    z 0.000000 0.000000 1.637360 
# 
# From -- ./inp_files/5635.got.cif
#   From: 2010.05.17/outbox.cif.g08.bks.cpg/sg57_3_cif.got.tgz:5635.got - 2010.06.03 13:58:18.
