data_PCOD9437176
_publ_section_title
;
Structure prediction by ZEFSAII (Michael W. Deem and Ramdas Pophale) SiO2 
 PCOD9437176
Probable space group: P B C M
;
_chemical_formula_sum "Si O2"
_cell_formula_units_Z 56
_cell_length_a 21.055397
_cell_length_b 15.475912
_cell_length_c 8.620758
_cell_angle_alpha 90.000000
_cell_angle_beta 90.000000
_cell_angle_gamma 90.000000
_cell_volume 2809.086676
_symmetry_space_group_name_H-M "P B C M"
_symmetry_group_IT_number 57
_symmetry_cell_setting 'orthorhombic'
loop_
_space_group_symop_operation_xyz
x,y,z
-x,-y,1/2+z
x,1/2-y,-z
-x,1/2+y,1/2-z
-x,-y,-z
x,y,1/2-z
-x,1/2+y,z
x,1/2-y,1/2+z
loop_
_atom_site_type_symbol
_atom_site_label
_atom_site_fract_x
_atom_site_fract_y
_atom_site_fract_z
Si Si1 0.801036 0.653250 0.938041
Si Si2 0.066195 0.897529 0.923168
Si Si3 0.571175 0.004444 0.062951
Si Si4 0.795789 0.152753 0.062377
Si Si5 0.338404 0.347649 0.062708
Si Si6 0.662012 0.151784 0.935557
Si Si7 0.937781 0.896126 0.423654
O O1 0.802836 0.647258 0.750000
O O2 0.731935 0.617552 0.984559
O O3 0.868688 0.618870 0.997888
O O4 0.798702 0.750000 0.000000
O O5 0.069083 0.860690 0.750000
O O6 0.136340 0.884384 0.991929
O O7 0.057066 0.000430 0.913826
O O8 0.002388 0.862531 0.000669
O O9 0.571343 0.008766 0.250000
O O10 0.609229 0.917452 0.015314
O O11 0.607920 0.087805 0.996963
O O12 0.500000 0.000000 0.000000
O O13 0.792419 0.147575 0.250000
O O14 0.796362 0.250000 0.000000
O O15 0.730266 0.116026 0.995260
O O16 0.339024 0.341749 0.250000
O O17 0.347612 0.250000 0.000000
O O18 0.662156 0.155694 0.750000
O O19 0.654486 0.250000 0.000000
O O20 0.935854 0.859787 0.250000
#
# Coordination Sequence:
#
# PCOD9437176 Si02
#       7
#     8   8   8   8   8   8   8
#     4   9  18  33  53  77 104 139 182 227 278 335
#     4   9  19  33  50  72 102 142 185 230 282 339
#     4  11  24  42  65  94 126 163 201 243 294 357
#     4  10  20  35  56  80 109 146 188 236 290 349
#     4   9  20  38  62  88 120 158 196 241 294 347
#     4  11  23  41  64  92 124 159 201 251 303 360
#     4   9  18  32  50  71 101 140 183 230 279 335
#
# _framework density 19.935305
#
# number of rings (size 3 to 8) (size 9 to 14) (size 15 to 20)
#    0.000    2.286    0.000    3.000    2.000    4.000 
#    0.000    4.286    0.000    0.000    0.000    0.000 
#    0.000    0.000    0.000    0.000    0.000    0.000 
#
# Total GULP energy -312034.868241 kJ/mol
# GULP energy per Si atom -5572.051219 kJ/mol
# Density = 1.988993 g / cm^3
# Si number density = 19.935305 Si / 1000 Ang^3
#
#
#
# Elastic Constant Matrix: (Units=GPa)
#
#
# Indices 1 2 3 4 5 6 
#
# 1 237.4771 69.0840 58.9250 0.0000 0.0000 0.0000
# 2 69.0840 65.2396 23.7113 0.0000 0.0000 0.0000
# 3 58.9250 23.7113 59.1286 0.0000 0.0000 0.0000
# 4 0.0000 0.0000 0.0000 21.4204 0.0000 0.0000
# 5 0.0000 0.0000 0.0000 0.0000 36.1189 0.0000
# 6 0.0000 0.0000 0.0000 0.0000 0.0000 60.9837
#
#
#
# Elastic Compliance Matrix: (Units=1/GPa)
#
#
# Indices 1 2 3 4 5 6 
#
# 1 0.007058 -0.005757 -0.004725 0.000000 0.000000 0.000000
# 2 -0.005757 0.022638 -0.003342 0.000000 0.000000 0.000000
# 3 -0.004725 -0.003342 0.022961 0.000000 0.000000 0.000000
# 4 0.000000 0.000000 0.000000 0.046684 0.000000 0.000000
# 5 0.000000 0.000000 0.000000 0.000000 0.027686 0.000000
# 6 0.000000 0.000000 0.000000 0.000000 0.000000 0.016398
#
#
# Mechanical properties :
#
#
# Convention : Reuss Voigt Hill
#
# Bulk Modulus (GPa) = 39.98249 73.92065 56.95157
# Shear Modulus (GPa) = 27.86911 37.71293 32.79102
#
# Velocity S-wave (km/s) = 3.74301 4.35416 4.06010
# Velocity P-wave (km/s) = 6.22735 7.90184 7.11403
#
# Compressibility (1/GPa) = 0.02501095
#
# Stress axis : x y z
#
# Youngs Moduli (GPa) = 141.68244 44.17279 43.55156
#
# Poissons Ratio (x) = 0.25428 0.20579
# Poissons Ratio (y) = 0.81560 0.14553
# Poissons Ratio (z) = 0.66949 0.14761
#
# Static dielectric constant tensor:
#      x y z
#    x 1.758940 0.000000 0.000000 
#    y 0.000000 1.674470 0.000000 
#    z 0.000000 0.000000 1.718560 
# 
# From -- ./inp_files/8052.got.cif
#   From: 2010.05.17/outbox.cif.g08.bks.cpg/sg57_5_cif.got.tgz:8052.got - 2010.06.03 13:58:18.
