data_PCOD9437164
_publ_section_title
;
Structure prediction by ZEFSAII (Michael W. Deem and Ramdas Pophale) SiO2 
 PCOD9437164
Probable space group: P B C M
;
_chemical_formula_sum "Si O2"
_cell_formula_units_Z 40
_cell_length_a 15.203535
_cell_length_b 12.642756
_cell_length_c 9.696968
_cell_angle_alpha 90.000000
_cell_angle_beta 90.000000
_cell_angle_gamma 90.000000
_cell_volume 1863.898664
_symmetry_space_group_name_H-M "P B C M"
_symmetry_group_IT_number 57
_symmetry_cell_setting 'orthorhombic'
loop_
_space_group_symop_operation_xyz
x,y,z
-x,-y,1/2+z
x,1/2-y,-z
-x,1/2+y,1/2-z
-x,-y,-z
x,y,1/2-z
-x,1/2+y,z
x,1/2-y,1/2+z
loop_
_atom_site_type_symbol
_atom_site_label
_atom_site_fract_x
_atom_site_fract_y
_atom_site_fract_z
Si Si1 0.312247 0.090760 0.411336
Si Si2 0.927423 0.354421 0.912534
Si Si3 0.529883 0.901257 0.092559
Si Si4 0.665753 0.159294 0.902601
Si Si5 0.878700 0.944693 0.909983
O O1 0.337145 0.108177 0.250000
O O2 0.383171 0.137761 0.515598
O O3 0.210991 0.120009 0.433134
O O4 0.314113 0.962834 0.435125
O O5 0.905139 0.346174 0.750000
O O6 0.032605 0.377149 0.922531
O O7 0.907356 0.250000 0.000000
O O8 0.884874 0.456920 0.985648
O O9 0.550617 0.931912 0.250000
O O10 0.441158 0.832785 0.099405
O O11 0.500000 0.000000 0.000000
O O12 0.699430 0.178878 0.750000
O O13 0.700600 0.250000 0.000000
O O14 0.874600 0.983256 0.750000
#
# Coordination Sequence:
#
# PCOD9437164 Si02
#       5
#     8   8   8   8   8
#     4   9  18  33  51  72  98 127 162 207 255 301
#     4  10  20  35  56  79 105 139 175 214 263 317
#     4   9  17  30  47  67  91 124 163 198 237 287
#     4   9  18  30  45  67  95 126 161 201 244 292
#     4   9  19  36  56  78 105 137 174 216 264 318
#
# _framework density 21.460393
#
# number of rings (size 3 to 8) (size 9 to 14) (size 15 to 20)
#    0.000    2.800    0.000    2.400    0.000    6.400 
#    0.000    3.000    0.000    4.800    0.000    0.000 
#    0.000    0.000    0.000    0.000    0.000    0.000 
#
# Total GULP energy -223150.121401 kJ/mol
# GULP energy per Si atom -5578.753035 kJ/mol
# Density = 2.141155 g / cm^3
# Si number density = 21.460393 Si / 1000 Ang^3
#
#
#
# Elastic Constant Matrix: (Units=GPa)
#
#
# Indices 1 2 3 4 5 6 
#
# 1 119.2301 -11.1298 42.4940 0.0000 0.0000 0.0000
# 2 -11.1298 63.9313 60.4473 0.0000 0.0000 0.0000
# 3 42.4940 60.4473 129.7289 0.0000 0.0000 0.0000
# 4 0.0000 0.0000 0.0000 21.6969 0.0000 0.0000
# 5 0.0000 0.0000 0.0000 0.0000 24.5481 0.0000
# 6 0.0000 0.0000 0.0000 0.0000 0.0000 -3.5956
#
#
#
# Elastic Compliance Matrix: (Units=1/GPa)
#
#
# Indices 1 2 3 4 5 6 
#
# 1 0.012729 0.011008 -0.009298 0.000000 0.000000 0.000000
# 2 0.011008 0.037479 -0.021069 0.000000 0.000000 0.000000
# 3 -0.009298 -0.021069 0.020571 0.000000 0.000000 0.000000
# 4 0.000000 0.000000 0.000000 0.046090 0.000000 0.000000
# 5 0.000000 0.000000 0.000000 0.000000 0.040736 0.000000
# 6 0.000000 0.000000 0.000000 0.000000 0.000000 -0.278120
#
#
# Mechanical properties :
#
#
# Convention : Reuss Voigt Hill
#
# Bulk Modulus (GPa) = 31.19224 55.16816 43.18020
# Shear Modulus (GPa) = -70.31401 23.26847 -23.52277
#
# Velocity S-wave (km/s) = -5.73024 3.29637 -3.31433
# Velocity P-wave (km/s) = 5.40505 6.34436 2.34907
#
# Compressibility (1/GPa) = 0.03205926
#
# Stress axis : x y z
#
# Youngs Moduli (GPa) = 78.56298 26.68170 48.61154
#
# Poissons Ratio (x) = -0.29370 0.45201
# Poissons Ratio (y) = -0.86479 1.02419
# Poissons Ratio (z) = 0.73051 0.56216
#
# Static dielectric constant tensor:
#      x y z
#    x 1.854050 0.000000 0.000000 
#    y 0.000000 1.795330 0.000000 
#    z 0.000000 0.000000 1.752270 
# 
# From -- ./inp_files/6365.got.cif
#   From: 2010.05.17/outbox.cif.g08.bks.cpg/sg57_4_cif.got.tgz:6365.got - 2010.06.03 13:58:18.
