data_PCOD9437115
_publ_section_title
;
Structure prediction by ZEFSAII (Michael W. Deem and Ramdas Pophale) SiO2 
 PCOD9437115
Probable space group: P B C M
;
_chemical_formula_sum "Si O2"
_cell_formula_units_Z 64
_cell_length_a 15.864087
_cell_length_b 25.328092
_cell_length_c 8.010910
_cell_angle_alpha 90.000000
_cell_angle_beta 90.000000
_cell_angle_gamma 90.000000
_cell_volume 3218.840155
_symmetry_space_group_name_H-M "P B C M"
_symmetry_group_IT_number 57
_symmetry_cell_setting 'orthorhombic'
loop_
_space_group_symop_operation_xyz
x,y,z
-x,-y,1/2+z
x,1/2-y,-z
-x,1/2+y,1/2-z
-x,-y,-z
x,y,1/2-z
-x,1/2+y,z
x,1/2-y,1/2+z
loop_
_atom_site_type_symbol
_atom_site_label
_atom_site_fract_x
_atom_site_fract_y
_atom_site_fract_z
Si Si1 0.425463 0.807136 0.551941
Si Si2 0.217877 0.381634 0.953499
Si Si3 0.125698 0.810606 0.950046
Si Si4 0.722401 0.115405 0.945683
Si Si5 0.265258 0.004592 0.046808
Si Si6 0.598519 0.844868 0.939756
Si Si7 0.936229 0.689445 0.048696
Si Si8 0.558324 0.546322 0.560685
O O1 0.389716 0.750000 0.500000
O O2 0.435005 0.807172 0.750000
O O3 0.361306 0.854866 0.511834
O O4 0.521185 0.812559 0.479185
O O5 0.221961 0.378847 0.750000
O O6 0.207712 0.444088 0.992814
O O7 0.307612 0.355960 0.012952
O O8 0.138521 0.347939 0.012943
O O9 0.128334 0.814502 0.750000
O O10 0.030852 0.824816 0.008661
O O11 0.140111 0.750000 0.000000
O O12 0.198284 0.847137 0.021525
O O13 0.707247 0.110358 0.750000
O O14 0.747111 0.056223 0.005286
O O15 0.275420 0.005336 0.250000
O O16 0.349773 0.022050 0.955685
O O17 0.611941 0.825907 0.750000
O O18 0.557869 0.903247 0.942342
O O19 0.936732 0.686427 0.250000
O O20 0.920401 0.750000 0.000000
O O21 0.500000 0.500000 0.500000
O O22 0.538726 0.562475 0.750000
#
# Coordination Sequence:
#
# PCOD9437115 Si02
#       8
#     8   8   8   8   8   8   8   8
#     4  11  23  37  53  75 105 140 177 220 267 317
#     4   8  15  33  57  79 106 140 175 209 253 309
#     4  10  20  35  55  79 106 136 173 218 265 315
#     4  11  22  36  55  77 102 137 178 221 268 316
#     4   9  19  35  54  75 102 137 177 217 259 313
#     4   9  19  35  53  73 101 138 174 208 252 305
#     4   9  18  33  56  82 107 137 172 212 259 312
#     4  11  20  30  48  72  99 131 170 215 257 299
#
# _framework density 19.882937999999999
#
# number of rings (size 3 to 8) (size 9 to 14) (size 15 to 20)
#    0.000    2.250    0.000    4.125    0.000    5.000 
#    0.000    3.125    0.000    0.000    0.000    0.000 
#    0.000    0.000    0.000    0.000    0.000    0.000 
#
# Total GULP energy -356502.700507 kJ/mol
# GULP energy per Si atom -5570.354695 kJ/mol
# Density = 1.983768 g / cm^3
# Si number density = 19.882938 Si / 1000 Ang^3
#
#
#
# Elastic Constant Matrix: (Units=GPa)
#
#
# Indices 1 2 3 4 5 6 
#
# 1 96.2166 64.3937 0.0161 0.0000 0.0000 0.0000
# 2 64.3937 97.4564 1.8220 0.0000 0.0000 0.0000
# 3 0.0161 1.8220 20.0772 0.0000 0.0000 0.0000
# 4 0.0000 0.0000 0.0000 15.1643 0.0000 0.0000
# 5 0.0000 0.0000 0.0000 0.0000 5.1819 0.0000
# 6 0.0000 0.0000 0.0000 0.0000 0.0000 34.7351
#
#
#
# Elastic Compliance Matrix: (Units=1/GPa)
#
#
# Indices 1 2 3 4 5 6 
#
# 1 0.018657 -0.012348 0.001106 0.000000 0.000000 0.000000
# 2 -0.012348 0.018451 -0.001665 0.000000 0.000000 0.000000
# 3 0.001106 -0.001665 0.049958 0.000000 0.000000 0.000000
# 4 0.000000 0.000000 0.000000 0.065944 0.000000 0.000000
# 5 0.000000 0.000000 0.000000 0.000000 0.192979 0.000000
# 6 0.000000 0.000000 0.000000 0.000000 0.000000 0.028789
#
#
# Mechanical properties :
#
#
# Convention : Reuss Voigt Hill
#
# Bulk Modulus (GPa) = 16.32602 38.46817 27.39710
# Shear Modulus (GPa) = 11.87618 20.85081 16.36350
#
# Velocity S-wave (km/s) = 2.44663 3.24184 2.87190
# Velocity P-wave (km/s) = 4.02620 5.77945 4.98058
#
# Compressibility (1/GPa) = 0.06125190
#
# Stress axis : x y z
#
# Youngs Moduli (GPa) = 53.59851 54.19707 20.01687
#
# Poissons Ratio (x) = 0.66924 -0.02213
# Poissons Ratio (y) = 0.66185 0.03332
# Poissons Ratio (z) = -0.05926 0.09021
#
# Static dielectric constant tensor:
#      x y z
#    x 1.697120 0.000000 0.000000 
#    y 0.000000 1.727890 0.000000 
#    z 0.000000 0.000000 1.708730 
# 
# From -- ./inp_files/5696.got.cif
#   From: 2010.05.17/outbox.cif.g08.bks.cpg/sg57_3_cif.got.tgz:5696.got - 2010.06.03 13:58:18.
