data_PCOD9437786
_publ_section_title
;
Structure prediction by ZEFSAII (Michael W. Deem and Ramdas Pophale) SiO2 
 PCOD9437786
Probable space group: P B C M
;
_chemical_formula_sum "Si O2"
_cell_formula_units_Z 56
_cell_length_a 8.355891
_cell_length_b 16.680202
_cell_length_c 21.436354
_cell_angle_alpha 90.000000
_cell_angle_beta 90.000000
_cell_angle_gamma 90.000000
_cell_volume 2987.755071
_symmetry_space_group_name_H-M "P B C M"
_symmetry_group_IT_number 57
_symmetry_cell_setting 'orthorhombic'
loop_
_space_group_symop_operation_xyz
x,y,z
-x,-y,1/2+z
x,1/2-y,-z
-x,1/2+y,1/2-z
-x,-y,-z
x,y,1/2-z
-x,1/2+y,z
x,1/2-y,1/2+z
loop_
_atom_site_type_symbol
_atom_site_label
_atom_site_fract_x
_atom_site_fract_y
_atom_site_fract_z
Si Si1 0.918820 0.578545 0.028822
Si Si2 0.848011 0.775385 0.817442
Si Si3 0.566063 0.234057 0.431155
Si Si4 0.731526 0.648798 0.910940
Si Si5 0.848692 0.154143 0.370345
Si Si6 0.649373 0.001490 0.175982
Si Si7 0.361224 0.092870 0.379731
O O1 0.781987 0.556713 0.079418
O O2 0.052230 0.628958 0.067093
O O3 0.824412 0.626009 0.974276
O O4 0.000000 0.500000 0.000000
O O5 0.816618 0.739160 0.750000
O O6 0.836750 0.711082 0.871938
O O7 0.718823 0.844567 0.831793
O O8 0.020839 0.814529 0.822389
O O9 0.629705 0.250000 0.500000
O O10 0.436567 0.304133 0.420014
O O11 0.714921 0.220834 0.385401
O O12 0.469851 0.149784 0.424357
O O13 0.700889 0.571957 0.867770
O O14 0.761961 0.076378 0.342375
O O15 0.656769 0.985124 0.250000
O O16 0.472267 0.029681 0.154981
#
# Coordination Sequence:
#
# PCOD9437786 Si02
#       7
#     8   8   8   8   8   8   8
#     4  11  21  39  61  94 123 148 197 252 312 357
#     4  10  21  40  60  86 121 160 200 247 299 356
#     4  10  20  37  59  89 116 151 191 241 295 361
#     4  11  23  38  62  89 123 158 197 253 307 355
#     4  10  23  37  63  89 116 160 201 245 299 362
#     4  11  22  41  61  87 119 162 209 246 292 358
#     4   9  21  37  63  86 115 159 198 240 295 360
#
# _framework density 18.743169000000002
#
# number of rings (size 3 to 8) (size 9 to 14) (size 15 to 20)
#    0.000    1.714    2.857    1.286    2.000    1.714 
#    0.000    2.143    0.000    0.000    0.000    0.000 
#    0.000    0.000    0.000    0.000    0.000    0.000 
#
# Total GULP energy -312402.215734 kJ/mol
# GULP energy per Si atom -5578.610995 kJ/mol
# Density = 1.870051 g / cm^3
# Si number density = 18.743169 Si / 1000 Ang^3
#
#
#
# Elastic Constant Matrix: (Units=GPa)
#
#
# Indices 1 2 3 4 5 6 
#
# 1 73.6816 12.5093 12.9972 0.0000 0.0000 0.0000
# 2 12.5093 45.3353 12.7727 0.0000 0.0000 0.0000
# 3 12.9972 12.7727 91.6271 0.0000 0.0000 0.0000
# 4 0.0000 0.0000 0.0000 6.0148 0.0000 0.0000
# 5 0.0000 0.0000 0.0000 0.0000 5.9654 0.0000
# 6 0.0000 0.0000 0.0000 0.0000 0.0000 25.6362
#
#
#
# Elastic Compliance Matrix: (Units=1/GPa)
#
#
# Indices 1 2 3 4 5 6 
#
# 1 0.014449 -0.003549 -0.001555 0.000000 0.000000 0.000000
# 2 -0.003549 0.023831 -0.002819 0.000000 0.000000 0.000000
# 3 -0.001555 -0.002819 0.011527 0.000000 0.000000 0.000000
# 4 0.000000 0.000000 0.000000 0.166257 0.000000 0.000000
# 5 0.000000 0.000000 0.000000 0.000000 0.167634 0.000000
# 6 0.000000 0.000000 0.000000 0.000000 0.000000 0.039007
#
#
# Mechanical properties :
#
#
# Convention : Reuss Voigt Hill
#
# Bulk Modulus (GPa) = 29.44407 31.91136 30.67772
# Shear Modulus (GPa) = 11.11429 19.01425 15.06427
#
# Velocity S-wave (km/s) = 2.43776 3.18852 2.83807
# Velocity P-wave (km/s) = 4.86486 5.53336 5.20984
#
# Compressibility (1/GPa) = 0.03396269
#
# Stress axis : x y z
#
# Youngs Moduli (GPa) = 69.21057 41.96181 86.75077
#
# Poissons Ratio (x) = 0.14891 0.13488
# Poissons Ratio (y) = 0.24561 0.24452
# Poissons Ratio (z) = 0.10761 0.11828
#
# Static dielectric constant tensor:
#      x y z
#    x 1.653990 0.000000 0.000000 
#    y 0.000000 1.627810 0.000000 
#    z 0.000000 0.000000 1.646890 
# 
# From -- ./inp_files/24416.got.cif
#   From: 2010.05.17/outbox.cif.g08.bks.cpg/sg57_13_cif.got.tgz:24416.got - 2010.06.03 13:58:18.
