data_PCOD9437733
_publ_section_title
;
Structure prediction by ZEFSAII (Michael W. Deem and Ramdas Pophale) SiO2 
 PCOD9437733
Probable space group: P B C M
;
_chemical_formula_sum "Si O2"
_cell_formula_units_Z 64
_cell_length_a 20.312973
_cell_length_b 11.528697
_cell_length_c 14.501803
_cell_angle_alpha 90.000000
_cell_angle_beta 90.000000
_cell_angle_gamma 90.000000
_cell_volume 3396.062838
_symmetry_space_group_name_H-M "P B C M"
_symmetry_group_IT_number 57
_symmetry_cell_setting 'orthorhombic'
loop_
_space_group_symop_operation_xyz
x,y,z
-x,-y,1/2+z
x,1/2-y,-z
-x,1/2+y,1/2-z
-x,-y,-z
x,y,1/2-z
-x,1/2+y,z
x,1/2-y,1/2+z
loop_
_atom_site_type_symbol
_atom_site_label
_atom_site_fract_x
_atom_site_fract_y
_atom_site_fract_z
Si Si1 0.974035 0.047035 0.363004
Si Si2 0.429281 0.120822 0.535052
Si Si3 0.041446 0.690562 0.858421
Si Si4 0.284721 0.385573 0.477952
Si Si5 0.303182 0.554449 0.851347
Si Si6 0.549301 0.460715 0.356659
Si Si7 0.823936 0.998026 0.353614
Si Si8 0.193825 0.758533 0.109678
O O1 0.977962 0.052748 0.250000
O O2 0.984310 0.182246 0.394608
O O3 0.899010 0.012518 0.386902
O O4 0.017223 0.935643 0.394696
O O5 0.425254 0.250000 0.500000
O O6 0.355917 0.087536 0.568259
O O7 0.446219 0.052417 0.440462
O O8 0.485024 0.109674 0.612524
O O9 0.023589 0.689553 0.750000
O O10 0.120511 0.698117 0.866065
O O11 0.280458 0.250000 0.500000
O O12 0.286930 0.460731 0.571186
O O13 0.223178 0.424506 0.417800
O O14 0.299891 0.499542 0.750000
O O15 0.378537 0.598895 0.862281
O O16 0.250249 0.655842 0.857329
O O17 0.542388 0.501157 0.250000
O O18 0.825492 0.950500 0.250000
O O19 0.797631 0.129619 0.352230
O O20 0.197777 0.750000 0.000000
#
# Coordination Sequence:
#
# PCOD9437733 Si02
#       8
#     8   8   8   8   8   8   8   8
#     4   8  16  32  54  77 109 147 184 230 282 338
#     4   9  19  36  56  77 112 149 181 224 280 329
#     4   9  17  33  54  78 108 147 190 230 283 347
#     4  10  21  38  57  82 112 150 190 231 277 337
#     4  10  20  37  58  82 112 147 188 234 282 334
#     4   9  19  35  55  82 111 141 183 229 274 330
#     4  10  20  37  58  83 115 150 186 233 287 337
#     4  11  20  35  58  83 113 148 184 236 291 336
#
# _framework density 18.845351999999998
#
# number of rings (size 3 to 8) (size 9 to 14) (size 15 to 20)
#    0.000    2.500    1.250    1.875    0.000    2.000 
#    4.500    5.625    0.000    0.000    0.000    0.000 
#    0.000    0.000    0.000    0.000    0.000    0.000 
#
# Total GULP energy -356348.627556 kJ/mol
# GULP energy per Si atom -5567.947306 kJ/mol
# Density = 1.880246 g / cm^3
# Si number density = 18.845352 Si / 1000 Ang^3
#
#
#
# Elastic Constant Matrix: (Units=GPa)
#
#
# Indices 1 2 3 4 5 6 
#
# 1 81.0938 65.7892 23.6729 0.0000 0.0000 0.0000
# 2 65.7892 97.4404 16.0754 0.0000 0.0000 0.0000
# 3 23.6729 16.0754 55.2554 0.0000 0.0000 0.0000
# 4 0.0000 0.0000 0.0000 11.6108 0.0000 0.0000
# 5 0.0000 0.0000 0.0000 0.0000 28.3505 0.0000
# 6 0.0000 0.0000 0.0000 0.0000 0.0000 28.4923
#
#
#
# Elastic Compliance Matrix: (Units=1/GPa)
#
#
# Indices 1 2 3 4 5 6 
#
# 1 0.029806 -0.018926 -0.007264 0.000000 0.000000 0.000000
# 2 -0.018926 0.022797 0.001476 0.000000 0.000000 0.000000
# 3 -0.007264 0.001476 0.020780 0.000000 0.000000 0.000000
# 4 0.000000 0.000000 0.000000 0.086127 0.000000 0.000000
# 5 0.000000 0.000000 0.000000 0.000000 0.035273 0.000000
# 6 0.000000 0.000000 0.000000 0.000000 0.000000 0.035097
#
#
# Mechanical properties :
#
#
# Convention : Reuss Voigt Hill
#
# Bulk Modulus (GPa) = 41.74213 49.42941 45.58577
# Shear Modulus (GPa) = 17.40386 22.24085 19.82236
#
# Velocity S-wave (km/s) = 3.04223 3.43910 3.24673
# Velocity P-wave (km/s) = 5.87691 6.48504 6.18845
#
# Compressibility (1/GPa) = 0.02395661
#
# Stress axis : x y z
#
# Youngs Moduli (GPa) = 33.55061 43.86475 48.12248
#
# Poissons Ratio (x) = 0.83017 0.34954
# Poissons Ratio (y) = 0.63497 -0.07102
# Poissons Ratio (z) = 0.24370 -0.06474
#
# Static dielectric constant tensor:
#      x y z
#    x 1.671800 0.000000 0.000000 
#    y 0.000000 1.659350 0.000000 
#    z 0.000000 0.000000 1.686400 
# 
# From -- ./inp_files/19131.got.cif
#   From: 2010.05.17/outbox.cif.g08.bks.cpg/sg57_10_cif.got.tgz:19131.got - 2010.06.03 13:58:18.
