data_PCOD9437880
_publ_section_title
;
Structure prediction by ZEFSAII (Michael W. Deem and Ramdas Pophale) SiO2 
 PCOD9437880
Probable space group: P B C M
;
_chemical_formula_sum "Si O2"
_cell_formula_units_Z 56
_cell_length_a 5.586801
_cell_length_b 31.057913
_cell_length_c 15.264036
_cell_angle_alpha 90.000000
_cell_angle_beta 90.000000
_cell_angle_gamma 90.000000
_cell_volume 2648.529734
_symmetry_space_group_name_H-M "P B C M"
_symmetry_group_IT_number 57
_symmetry_cell_setting 'orthorhombic'
loop_
_space_group_symop_operation_xyz
x,y,z
-x,-y,1/2+z
x,1/2-y,-z
-x,1/2+y,1/2-z
-x,-y,-z
x,y,1/2-z
-x,1/2+y,z
x,1/2-y,1/2+z
loop_
_atom_site_type_symbol
_atom_site_label
_atom_site_fract_x
_atom_site_fract_y
_atom_site_fract_z
Si Si1 0.579056 0.290400 0.849106
Si Si2 0.165377 0.840578 0.346878
Si Si3 0.537128 0.983200 0.148372
Si Si4 0.478886 0.638540 0.494366
Si Si5 0.859709 0.588219 0.917683
Si Si6 0.085388 0.255892 0.104450
Si Si7 0.233837 0.955187 0.515765
O O1 0.585029 0.305644 0.750000
O O2 0.837592 0.268430 0.867906
O O3 0.341094 0.260882 0.860343
O O4 0.541468 0.330189 0.913615
O O5 0.266371 0.834981 0.250000
O O6 0.356543 0.837601 0.423852
O O7 0.966245 0.804277 0.363498
O O8 0.055388 0.888290 0.358546
O O9 0.470994 0.991509 0.250000
O O10 0.674298 0.937539 0.141633
O O11 0.337321 0.978056 0.072340
O O12 0.707789 0.019512 0.104492
O O13 0.742089 0.625579 0.524516
O O14 0.352350 0.592396 0.478274
O O15 0.963340 0.554635 0.988352
O O16 0.099430 0.250000 0.000000
#
# Coordination Sequence:
#
# PCOD9437880 Si02
#       7
#     8   8   8   8   8   8   8
#     4  12  26  45  68  99 135 178 228 282 338 403
#     4  11  23  39  61  92 125 164 215 272 332 399
#     4  10  20  37  62  90 122 163 208 262 325 394
#     4  10  23  41  61  90 126 173 213 269 333 394
#     4  10  21  38  60  88 127 164 210 263 331 389
#     4  12  25  46  69  97 133 177 226 283 342 405
#     4   9  21  39  59  89 125 163 210 264 320 395
#
# _framework density 21.143806999999999
#
# number of rings (size 3 to 8) (size 9 to 14) (size 15 to 20)
#    0.000    1.429    1.429    3.429    4.000    6.857 
#    0.000    0.714    0.000    0.000    0.000    0.000 
#    0.000    0.000    0.000    0.000    0.000    0.000 
#
# Total GULP energy -312640.179203 kJ/mol
# GULP energy per Si atom -5582.860343 kJ/mol
# Density = 2.109568 g / cm^3
# Si number density = 21.143807 Si / 1000 Ang^3
#
#
#
# Elastic Constant Matrix: (Units=GPa)
#
#
# Indices 1 2 3 4 5 6 
#
# 1 69.8138 10.9024 23.9831 0.0000 0.0000 0.0000
# 2 10.9024 74.9105 40.0521 0.0000 0.0000 0.0000
# 3 23.9831 40.0521 170.4538 0.0000 0.0000 0.0000
# 4 0.0000 0.0000 0.0000 20.6323 0.0000 0.0000
# 5 0.0000 0.0000 0.0000 0.0000 7.1053 0.0000
# 6 0.0000 0.0000 0.0000 0.0000 0.0000 36.7695
#
#
#
# Elastic Compliance Matrix: (Units=1/GPa)
#
#
# Indices 1 2 3 4 5 6 
#
# 1 0.015148 -0.001218 -0.001845 0.000000 0.000000 0.000000
# 2 -0.001218 0.015365 -0.003439 0.000000 0.000000 0.000000
# 3 -0.001845 -0.003439 0.006934 0.000000 0.000000 0.000000
# 4 0.000000 0.000000 0.000000 0.048468 0.000000 0.000000
# 5 0.000000 0.000000 0.000000 0.000000 0.140741 0.000000
# 6 0.000000 0.000000 0.000000 0.000000 0.000000 0.027196
#
#
# Mechanical properties :
#
#
# Convention : Reuss Voigt Hill
#
# Bulk Modulus (GPa) = 40.91140 51.67259 46.29199
# Shear Modulus (GPa) = 18.18152 28.91745 23.54948
#
# Velocity S-wave (km/s) = 2.93558 3.70220 3.34095
# Velocity P-wave (km/s) = 5.55710 6.53962 6.06828
#
# Compressibility (1/GPa) = 0.02444306
#
# Stress axis : x y z
#
# Youngs Moduli (GPa) = 66.01576 65.08175 144.20892
#
# Poissons Ratio (x) = 0.07928 0.26608
# Poissons Ratio (y) = 0.08041 0.49594
# Poissons Ratio (z) = 0.12181 0.22382
#
# Static dielectric constant tensor:
#      x y z
#    x 1.855520 0.000000 0.000000 
#    y 0.000000 1.794640 0.000000 
#    z 0.000000 0.000000 1.718770 
# 
# From -- ./inp_files/15270.got.cif
#   From: 2010.05.17/outbox.cif.g08.bks.cpg/sg57_8_cif.got.tgz:15270.got - 2010.06.03 13:58:18.
