data_PCOD9437873
_publ_section_title
;
Structure prediction by ZEFSAII (Michael W. Deem and Ramdas Pophale) SiO2 
 PCOD9437873
Probable space group: P B C M
;
_chemical_formula_sum "Si O2"
_cell_formula_units_Z 48
_cell_length_a 8.967981
_cell_length_b 14.209467
_cell_length_c 18.294472
_cell_angle_alpha 90.000000
_cell_angle_beta 90.000000
_cell_angle_gamma 90.000000
_cell_volume 2331.268776
_symmetry_space_group_name_H-M "P B C M"
_symmetry_group_IT_number 57
_symmetry_cell_setting 'orthorhombic'
loop_
_space_group_symop_operation_xyz
x,y,z
-x,-y,1/2+z
x,1/2-y,-z
-x,1/2+y,1/2-z
-x,-y,-z
x,y,1/2-z
-x,1/2+y,z
x,1/2-y,1/2+z
loop_
_atom_site_type_symbol
_atom_site_label
_atom_site_fract_x
_atom_site_fract_y
_atom_site_fract_z
Si Si1 0.711197 0.623647 0.665281
Si Si2 0.119931 0.899795 0.051337
Si Si3 0.577144 0.707813 0.420051
Si Si4 0.900510 0.612896 0.075446
Si Si5 0.620754 0.043184 0.442887
Si Si6 0.032873 0.727442 0.666735
O O1 0.681051 0.600713 0.750000
O O2 0.605533 0.707907 0.636160
O O3 0.683261 0.536348 0.611242
O O4 0.880381 0.664632 0.661726
O O5 0.147447 0.821848 0.111915
O O6 0.095734 0.001511 0.087833
O O7 0.248862 0.915436 0.992912
O O8 0.976455 0.871358 0.003341
O O9 0.541286 0.750000 0.500000
O O10 0.734243 0.652651 0.426987
O O11 0.456573 0.629142 0.400619
O O12 0.989736 0.670823 0.135924
O O13 0.500000 0.000000 0.500000
O O14 0.081413 0.730184 0.750000
#
# Coordination Sequence:
#
# PCOD9437873 Si02
#       6
#     8   8   8   8   8   8
#     4  10  22  42  65  91 126 168 213 264 320 373
#     4  11  21  37  64  92 119 161 209 259 309 364
#     4  11  20  37  64  88 121 162 212 254 307 380
#     4  10  20  37  62  89 116 158 210 254 305 372
#     4  12  23  39  63  96 127 167 213 261 304 374
#     4  10  22  40  63  91 125 164 208 264 320 372
#
# _framework density 20.589648
#
# number of rings (size 3 to 8) (size 9 to 14) (size 15 to 20)
#    0.000    1.333    3.333    4.500    0.000    2.667 
#    0.000    1.667    0.000    0.000    0.000    0.000 
#    0.000    0.000    0.000    0.000    0.000    0.000 
#
# Total GULP energy -268465.027087 kJ/mol
# GULP energy per Si atom -5593.021398 kJ/mol
# Density = 2.054278 g / cm^3
# Si number density = 20.589648 Si / 1000 Ang^3
#
#
#
# Elastic Constant Matrix: (Units=GPa)
#
#
# Indices 1 2 3 4 5 6 
#
# 1 46.4899 48.1011 42.4020 0.0000 0.0000 0.0000
# 2 48.1011 87.6793 31.8067 0.0000 0.0000 0.0000
# 3 42.4020 31.8067 97.8115 0.0000 0.0000 0.0000
# 4 0.0000 0.0000 0.0000 23.5540 0.0000 0.0000
# 5 0.0000 0.0000 0.0000 0.0000 9.5808 0.0000
# 6 0.0000 0.0000 0.0000 0.0000 0.0000 25.2878
#
#
#
# Elastic Compliance Matrix: (Units=1/GPa)
#
#
# Indices 1 2 3 4 5 6 
#
# 1 0.077613 -0.034435 -0.022448 0.000000 0.000000 0.000000
# 2 -0.034435 0.028209 0.005755 0.000000 0.000000 0.000000
# 3 -0.022448 0.005755 0.018084 0.000000 0.000000 0.000000
# 4 0.000000 0.000000 0.000000 0.042456 0.000000 0.000000
# 5 0.000000 0.000000 0.000000 0.000000 0.104376 0.000000
# 6 0.000000 0.000000 0.000000 0.000000 0.000000 0.039545
#
#
# Mechanical properties :
#
#
# Convention : Reuss Voigt Hill
#
# Bulk Modulus (GPa) = 46.19224 52.95560 49.57392
# Shear Modulus (GPa) = 11.91173 18.99592 15.45382
#
# Velocity S-wave (km/s) = 2.40787 3.04072 2.74261
# Velocity P-wave (km/s) = 5.49672 6.17279 5.84454
#
# Compressibility (1/GPa) = 0.02164866
#
# Stress axis : x y z
#
# Youngs Moduli (GPa) = 12.88447 35.44985 55.29849
#
# Poissons Ratio (x) = 1.22073 1.24133
# Poissons Ratio (y) = 0.44368 -0.31824
# Poissons Ratio (z) = 0.28923 -0.20401
#
# Static dielectric constant tensor:
#      x y z
#    x 1.773540 0.000000 0.000000 
#    y 0.000000 1.748140 0.000000 
#    z 0.000000 0.000000 1.707590 
# 
# From -- ./inp_files/20911.got.cif
#   From: 2010.05.17/outbox.cif.g08.bks.cpg/sg57_11_cif.got.tgz:20911.got - 2010.06.03 13:58:18.
