data_PCOD9437892
_publ_section_title
;
Structure prediction by ZEFSAII (Michael W. Deem and Ramdas Pophale) SiO2 
 PCOD9437892
Probable space group: P B C M
;
_chemical_formula_sum "Si O2"
_cell_formula_units_Z 40
_cell_length_a 18.817107
_cell_length_b 10.934311
_cell_length_c 10.147480
_cell_angle_alpha 90.000000
_cell_angle_beta 90.000000
_cell_angle_gamma 90.000000
_cell_volume 2087.865320
_symmetry_space_group_name_H-M "P B C M"
_symmetry_group_IT_number 57
_symmetry_cell_setting 'orthorhombic'
loop_
_space_group_symop_operation_xyz
x,y,z
-x,-y,1/2+z
x,1/2-y,-z
-x,1/2+y,1/2-z
-x,-y,-z
x,y,1/2-z
-x,1/2+y,z
x,1/2-y,1/2+z
loop_
_atom_site_type_symbol
_atom_site_label
_atom_site_fract_x
_atom_site_fract_y
_atom_site_fract_z
Si Si1 0.627972 0.250000 0.000000
Si Si2 0.960622 0.842448 0.750000
Si Si3 0.656637 0.926616 0.250000
Si Si4 0.379540 0.356411 0.750000
Si Si5 0.848894 0.886678 0.981381
Si Si6 0.451420 0.862845 0.750000
Si Si7 0.706105 0.002569 0.533919
Si Si8 0.070086 0.064574 0.750000
O O1 0.579316 0.296167 0.879655
O O2 0.678199 0.139866 0.952940
O O3 0.912210 0.870082 0.877444
O O4 0.973966 0.694762 0.750000
O O5 0.024105 0.940566 0.750000
O O6 0.641801 0.784347 0.250000
O O7 0.697865 0.965302 0.381220
O O8 0.583116 0.002411 0.250000
O O9 0.464209 0.368037 0.750000
O O10 0.345290 0.420397 0.877102
O O11 0.787344 0.975312 0.930164
O O12 0.816960 0.750000 0.000000
O O13 0.881505 0.929894 0.119577
#
# Coordination Sequence:
#
# PCOD9437892 Si02
#       8
#     4   4   4   4   8   4   8   4
#     4  10  24  44  60  84 132 154 196 252 314 366
#     4  10  21  38  59  92 123 163 198 246 294 354
#     4  10  23  38  58  88 114 151 202 251 296 358
#     4  12  24  36  64  87 113 153 207 249 299 366
#     4  10  20  37  63  87 122 158 200 246 297 342
#     4  10  25  39  61  83 120 162 192 248 315 358
#     4  11  23  41  61  91 119 160 202 253 304 363
#     4  10  21  39  60  90 126 161 199 248 294 354
#
# _framework density 19.158322999999999
#
# number of rings (size 3 to 8) (size 9 to 14) (size 15 to 20)
#    0.000    1.600    0.000    4.200    5.600    3.200 
#    3.600    0.000    0.000    0.000    0.000    0.000 
#    0.000    0.000    0.000    0.000    0.000    0.000 
#
# Total GULP energy -223523.281027 kJ/mol
# GULP energy per Si atom -5588.082026 kJ/mol
# Density = 1.911472 g / cm^3
# Si number density = 19.158323 Si / 1000 Ang^3
#
#
#
# Elastic Constant Matrix: (Units=GPa)
#
#
# Indices 1 2 3 4 5 6 
#
# 1 78.7891 46.4566 3.2373 0.0000 0.0000 0.0000
# 2 46.4566 131.6224 16.9844 0.0000 0.0000 0.0000
# 3 3.2373 16.9844 79.6151 0.0000 0.0000 0.0000
# 4 0.0000 0.0000 0.0000 286.5482 0.0000 0.0000
# 5 0.0000 0.0000 0.0000 0.0000 14.8015 0.0000
# 6 0.0000 0.0000 0.0000 0.0000 0.0000 -34.0056
#
#
#
# Elastic Compliance Matrix: (Units=1/GPa)
#
#
# Indices 1 2 3 4 5 6 
#
# 1 0.016053 -0.005740 0.000572 0.000000 0.000000 0.000000
# 2 -0.005740 0.009865 -0.001871 0.000000 0.000000 0.000000
# 3 0.000572 -0.001871 0.012936 0.000000 0.000000 0.000000
# 4 0.000000 0.000000 0.000000 0.003490 0.000000 0.000000
# 5 0.000000 0.000000 0.000000 0.000000 0.067561 0.000000
# 6 0.000000 0.000000 0.000000 0.000000 0.000000 -0.029407
#
#
# Mechanical properties :
#
#
# Convention : Reuss Voigt Hill
#
# Bulk Modulus (GPa) = 40.36177 47.04259 43.70218
# Shear Modulus (GPa) = 48.62173 68.35869 58.49021
#
# Velocity S-wave (km/s) = 5.04321 5.97983 5.53138
# Velocity P-wave (km/s) = 7.41790 8.50211 7.97844
#
# Compressibility (1/GPa) = 0.02477592
#
# Stress axis : x y z
#
# Youngs Moduli (GPa) = 62.29380 101.37062 77.30159
#
# Poissons Ratio (x) = 0.58184 -0.04420
# Poissons Ratio (y) = 0.35755 0.14464
# Poissons Ratio (z) = -0.03562 0.18967
#
# Static dielectric constant tensor:
#      x y z
#    x 1.647050 0.000000 0.000000 
#    y 0.000000 1.663530 0.000000 
#    z 0.000000 0.000000 1.658590 
# 
# From -- ./inp_files/6342.got.cif
#   From: 2010.05.17/outbox.cif.g08.bks.cpg/sg57_4_cif.got.tgz:6342.got - 2010.06.03 13:58:18.
