data_PCOD9437071
_publ_section_title
;
Structure prediction by ZEFSAII (Michael W. Deem and Ramdas Pophale) SiO2 
 PCOD9437071
Probable space group: P B C M
;
_chemical_formula_sum "Si O2"
_cell_formula_units_Z 64
_cell_length_a 24.541208
_cell_length_b 13.716846
_cell_length_c 7.836187
_cell_angle_alpha 90.000000
_cell_angle_beta 90.000000
_cell_angle_gamma 90.000000
_cell_volume 2637.879729
_symmetry_space_group_name_H-M "P B C M"
_symmetry_group_IT_number 57
_symmetry_cell_setting 'orthorhombic'
loop_
_space_group_symop_operation_xyz
x,y,z
-x,-y,1/2+z
x,1/2-y,-z
-x,1/2+y,1/2-z
-x,-y,-z
x,y,1/2-z
-x,1/2+y,z
x,1/2-y,1/2+z
loop_
_atom_site_type_symbol
_atom_site_label
_atom_site_fract_x
_atom_site_fract_y
_atom_site_fract_z
Si Si1 0.510739 0.111607 0.549646
Si Si2 0.374151 0.930892 0.949476
Si Si3 0.790344 0.862928 0.046125
Si Si4 0.394503 0.351151 0.456381
Si Si5 0.742233 0.445179 0.050211
Si Si6 0.972469 0.134031 0.543961
Si Si7 0.910414 0.634592 0.544360
Si Si8 0.144693 0.636047 0.955930
O O1 0.505933 0.125341 0.750000
O O2 0.456478 0.157725 0.470618
O O3 0.500000 0.000000 0.500000
O O4 0.573783 0.130830 0.509247
O O5 0.382941 0.561116 0.250000
O O6 0.312732 0.897694 0.980422
O O7 0.376255 0.042233 0.021063
O O8 0.790525 0.869452 0.250000
O O9 0.850663 0.896263 0.979279
O O10 0.782193 0.750000 0.000000
O O11 0.746037 0.938588 0.979239
O O12 0.364949 0.250000 0.500000
O O13 0.393428 0.356150 0.250000
O O14 0.742402 0.425445 0.250000
O O15 0.799046 0.406545 0.973827
O O16 0.972120 0.250000 0.500000
O O17 0.972898 0.125747 0.750000
O O18 0.913842 0.095863 0.479024
O O19 0.031079 0.096035 0.477730
O O20 0.911090 0.750000 0.500000
O O21 0.910180 0.624668 0.750000
O O22 0.144394 0.624619 0.750000
O O23 0.145126 0.750000 0.000000
#
# Coordination Sequence:
#
# PCOD9437071 Si02
#       8
#     8   8   8   8   8   8   8   8
#     4   9  17  32  53  78 105 134 167 204 246 297
#     4  10  21  37  55  77 104 140 183 224 264 312
#     4  10  20  35  54  77 106 143 184 227 273 328
#     4   9  19  33  53  82 112 137 167 206 252 304
#     4  11  23  38  55  78 108 146 188 231 277 328
#     4   8  13  25  46  72  99 128 164 213 271 332
#     4   8  14  25  45  71  99 131 169 213 267 327
#     4   9  19  35  56  79 104 135 176 226 282 338
#
# _framework density 24.261911000000001
#
# number of rings (size 3 to 8) (size 9 to 14) (size 15 to 20)
#    0.000    2.750    0.000    2.250    0.000    5.000 
#    0.000    2.500    0.000    0.000    0.000    0.000 
#    0.000    0.000    0.000    0.000    0.000    0.000 
#
# Total GULP energy -356897.956363 kJ/mol
# GULP energy per Si atom -5576.530568 kJ/mol
# Density = 2.420669 g / cm^3
# Si number density = 24.261911 Si / 1000 Ang^3
#
#
#
# Elastic Constant Matrix: (Units=GPa)
#
#
# Indices 1 2 3 4 5 6 
#
# 1 143.5758 3.1160 -0.4622 0.0000 0.0000 0.0000
# 2 3.1160 46.8688 -15.6622 0.0000 0.0000 0.0000
# 3 -0.4622 -15.6622 48.4240 0.0000 0.0000 0.0000
# 4 0.0000 0.0000 0.0000 14.9984 0.0000 0.0000
# 5 0.0000 0.0000 0.0000 0.0000 1.4573 0.0000
# 6 0.0000 0.0000 0.0000 0.0000 0.0000 5.7809
#
#
#
# Elastic Compliance Matrix: (Units=1/GPa)
#
#
# Indices 1 2 3 4 5 6 
#
# 1 0.006975 -0.000495 -0.000094 0.000000 0.000000 0.000000
# 2 -0.000495 0.023957 0.007744 0.000000 0.000000 0.000000
# 3 -0.000094 0.007744 0.023155 0.000000 0.000000 0.000000
# 4 0.000000 0.000000 0.000000 0.066674 0.000000 0.000000
# 5 0.000000 0.000000 0.000000 0.000000 0.686178 0.000000
# 6 0.000000 0.000000 0.000000 0.000000 0.000000 0.172985
#
#
# Mechanical properties :
#
#
# Convention : Reuss Voigt Hill
#
# Bulk Modulus (GPa) = 14.62041 23.65021 19.13531
# Shear Modulus (GPa) = 5.05862 21.23913 13.14888
#
# Velocity S-wave (km/s) = 1.44552 2.96194 2.33052
# Velocity P-wave (km/s) = 2.97072 4.63320 3.89177
#
# Compressibility (1/GPa) = 0.06839752
#
# Stress axis : x y z
#
# Youngs Moduli (GPa) = 143.36092 41.74174 43.18785
#
# Poissons Ratio (x) = 0.02066 0.00404
# Poissons Ratio (y) = 0.07096 -0.33444
# Poissons Ratio (z) = 0.01341 -0.32324
#
# Static dielectric constant tensor:
#      x y z
#    x 2.033000 0.000000 0.000000 
#    y 0.000000 1.998500 0.000000 
#    z 0.000000 0.000000 1.852780 
# 
# From -- ./inp_files/9343.got.cif
#   From: 2010.05.17/outbox.cif.g08.bks.cpg/sg57_5_cif.got.tgz:9343.got - 2010.06.03 13:58:18.
