data_PCOD9437544
_publ_section_title
;
Structure prediction by ZEFSAII (Michael W. Deem and Ramdas Pophale) SiO2 
 PCOD9437544
Probable space group: P B C M
;
_chemical_formula_sum "Si O2"
_cell_formula_units_Z 44
_cell_length_a 8.112506
_cell_length_b 13.671121
_cell_length_c 15.871533
_cell_angle_alpha 90.000000
_cell_angle_beta 90.000000
_cell_angle_gamma 90.000000
_cell_volume 1760.264922
_symmetry_space_group_name_H-M "P B C M"
_symmetry_group_IT_number 57
_symmetry_cell_setting 'orthorhombic'
loop_
_space_group_symop_operation_xyz
x,y,z
-x,-y,1/2+z
x,1/2-y,-z
-x,1/2+y,1/2-z
-x,-y,-z
x,y,1/2-z
-x,1/2+y,z
x,1/2-y,1/2+z
loop_
_atom_site_type_symbol
_atom_site_label
_atom_site_fract_x
_atom_site_fract_y
_atom_site_fract_z
Si Si1 0.687778 0.436479 0.342203
Si Si2 0.966368 0.250000 0.000000
Si Si3 0.919519 0.534841 0.659050
Si Si4 0.727124 0.080149 0.017342
Si Si5 0.439825 0.712017 0.157324
Si Si6 0.171069 0.237748 0.341026
O O1 0.622915 0.473032 0.250000
O O2 0.636729 0.469054 0.436891
O O3 0.635740 0.321731 0.342841
O O4 0.881677 0.463971 0.340957
O O5 0.072112 0.207204 0.076856
O O6 0.852312 0.159281 0.975797
O O7 0.868705 0.491412 0.750000
O O8 0.834367 0.488461 0.577774
O O9 0.858912 0.646447 0.660436
O O10 0.622414 0.146867 0.080769
O O11 0.397770 0.672098 0.250000
O O12 0.636589 0.718454 0.151090
O O13 0.112331 0.198530 0.250000
#
# Coordination Sequence:
#
# PCOD9437544 Si02
#       6
#     8   4   8   8   8   8
#     4  10  20  36  58  84 121 166 196 240 304 365
#     4  12  24  34  66  88 126 160 206 256 302 362
#     4  10  21  39  63  88 124 160 205 258 312 363
#     4  12  21  37  62  97 118 157 210 259 300 362
#     4  10  21  39  63  87 123 163 204 247 303 366
#     4  10  23  42  60  87 126 167 202 249 309 368
#
# _framework density 24.996238000000002
#
# number of rings (size 3 to 8) (size 9 to 14) (size 15 to 20)
#    0.000    1.455    3.636    1.091    2.545    1.455 
#    0.000    2.727    0.000    4.364    0.000    0.000 
#    0.000    0.000    0.000    0.000    0.000    0.000 
#
# Total GULP energy -245875.194925 kJ/mol
# GULP energy per Si atom -5588.072612 kJ/mol
# Density = 2.493935 g / cm^3
# Si number density = 24.996238 Si / 1000 Ang^3
#
#
#
# Elastic Constant Matrix: (Units=GPa)
#
#
# Indices 1 2 3 4 5 6 
#
# 1 47.3022 10.2601 45.7306 0.0000 0.0000 0.0000
# 2 10.2601 47.1562 7.4555 0.0000 0.0000 0.0000
# 3 45.7306 7.4555 236.3822 0.0000 0.0000 0.0000
# 4 0.0000 0.0000 0.0000 48.7635 0.0000 0.0000
# 5 0.0000 0.0000 0.0000 0.0000 25.8219 0.0000
# 6 0.0000 0.0000 0.0000 0.0000 0.0000 30.7223
#
#
#
# Elastic Compliance Matrix: (Units=1/GPa)
#
#
# Indices 1 2 3 4 5 6 
#
# 1 0.027175 -0.005107 -0.005096 0.000000 0.000000 0.000000
# 2 -0.005107 0.022272 0.000286 0.000000 0.000000 0.000000
# 3 -0.005096 0.000286 0.005207 0.000000 0.000000 0.000000
# 4 0.000000 0.000000 0.000000 0.020507 0.000000 0.000000
# 5 0.000000 0.000000 0.000000 0.000000 0.038727 0.000000
# 6 0.000000 0.000000 0.000000 0.000000 0.000000 0.032550
#
#
# Mechanical properties :
#
#
# Convention : Reuss Voigt Hill
#
# Bulk Modulus (GPa) = 28.71964 50.85921 39.78942
# Shear Modulus (GPa) = 28.10878 38.88783 33.49830
#
# Velocity S-wave (km/s) = 3.35702 3.94858 3.66476
# Velocity P-wave (km/s) = 5.15176 6.41711 5.81893
#
# Compressibility (1/GPa) = 0.03481938
#
# Stress axis : x y z
#
# Youngs Moduli (GPa) = 36.79809 44.89914 192.03601
#
# Poissons Ratio (x) = 0.22930 0.97867
# Poissons Ratio (y) = 0.18793 -0.05483
# Poissons Ratio (z) = 0.18753 -0.01282
#
# Static dielectric constant tensor:
#      x y z
#    x 1.930020 0.000000 0.000000 
#    y 0.000000 1.967680 0.000000 
#    z 0.000000 0.000000 2.157970 
# 
# From -- ./inp_files/16232.got.cif
#   From: 2010.05.17/outbox.cif.g08.bks.cpg/sg57_9_cif.got.tgz:16232.got - 2010.06.03 13:58:18.
