data_PCOD9437136
_publ_section_title
;
Structure prediction by ZEFSAII (Michael W. Deem and Ramdas Pophale) SiO2 
 PCOD9437136
Probable space group: P B C M
;
_chemical_formula_sum "Si O2"
_cell_formula_units_Z 48
_cell_length_a 18.455803
_cell_length_b 15.144209
_cell_length_c 8.852294
_cell_angle_alpha 90.000000
_cell_angle_beta 90.000000
_cell_angle_gamma 90.000000
_cell_volume 2474.203230
_symmetry_space_group_name_H-M "P B C M"
_symmetry_group_IT_number 57
_symmetry_cell_setting 'orthorhombic'
loop_
_space_group_symop_operation_xyz
x,y,z
-x,-y,1/2+z
x,1/2-y,-z
-x,1/2+y,1/2-z
-x,-y,-z
x,y,1/2-z
-x,1/2+y,z
x,1/2-y,1/2+z
loop_
_atom_site_type_symbol
_atom_site_label
_atom_site_fract_x
_atom_site_fract_y
_atom_site_fract_z
Si Si1 0.953407 0.155663 0.931239
Si Si2 0.329699 0.962724 0.569688
Si Si3 0.179128 0.973186 0.069328
Si Si4 0.529032 0.408898 0.069876
Si Si5 0.624033 0.839694 0.430142
Si Si6 0.888594 0.844041 0.568707
O O1 0.961627 0.162312 0.750000
O O2 0.892480 0.083428 0.965304
O O3 0.931124 0.250000 0.000000
O O4 0.031307 0.135175 0.004335
O O5 0.336045 0.961098 0.750000
O O6 0.249852 0.939107 0.515099
O O7 0.344400 0.065180 0.518967
O O8 0.391666 0.899740 0.500861
O O9 0.190762 0.968640 0.250000
O O10 0.163224 0.074892 0.028096
O O11 0.535235 0.416004 0.250000
O O12 0.462390 0.344082 0.036362
O O13 0.500000 0.500000 0.000000
O O14 0.654953 0.750000 0.500000
O O15 0.633017 0.835967 0.250000
O O16 0.866400 0.750000 0.500000
O O17 0.892689 0.837572 0.750000
#
# Coordination Sequence:
#
# PCOD9437136 Si02
#       6
#     8   8   8   8   8   8
#     4  10  20  36  57  80 105 136 179 227 273 321
#     4  10  21  35  52  76 104 136 174 213 259 312
#     4  10  22  37  54  78 109 145 180 218 269 324
#     4   9  17  32  52  73  98 128 166 206 245 294
#     4   9  19  33  51  77 103 131 168 209 253 304
#     4  10  20  35  55  80 109 142 180 221 268 319
#
# _framework density 19.400186999999999
#
# number of rings (size 3 to 8) (size 9 to 14) (size 15 to 20)
#    0.000    2.333    0.000    4.500    0.000    7.333 
#    0.000    4.167    0.000    0.000    0.000    0.000 
#    0.000    0.000    0.000    0.000    0.000    0.000 
#
# Total GULP energy -267779.176858 kJ/mol
# GULP energy per Si atom -5578.732851 kJ/mol
# Density = 1.935603 g / cm^3
# Si number density = 19.400187 Si / 1000 Ang^3
#
#
#
# Elastic Constant Matrix: (Units=GPa)
#
#
# Indices 1 2 3 4 5 6 
#
# 1 53.9592 0.7377 18.5198 0.0000 0.0000 0.0000
# 2 0.7377 18.1639 11.4072 0.0000 0.0000 0.0000
# 3 18.5198 11.4072 29.4598 0.0000 0.0000 0.0000
# 4 0.0000 0.0000 0.0000 23.1441 0.0000 0.0000
# 5 0.0000 0.0000 0.0000 0.0000 26.5297 0.0000
# 6 0.0000 0.0000 0.0000 0.0000 0.0000 11.1026
#
#
#
# Elastic Compliance Matrix: (Units=1/GPa)
#
#
# Indices 1 2 3 4 5 6 
#
# 1 0.025441 0.011906 -0.020604 0.000000 0.000000 0.000000
# 2 0.011906 0.078316 -0.037810 0.000000 0.000000 0.000000
# 3 -0.020604 -0.037810 0.061538 0.000000 0.000000 0.000000
# 4 0.000000 0.000000 0.000000 0.043207 0.000000 0.000000
# 5 0.000000 0.000000 0.000000 0.000000 0.037694 0.000000
# 6 0.000000 0.000000 0.000000 0.000000 0.000000 0.090069
#
#
# Mechanical properties :
#
#
# Convention : Reuss Voigt Hill
#
# Bulk Modulus (GPa) = 13.83507 18.10138 15.96822
# Shear Modulus (GPa) = 11.02843 16.88316 13.95579
#
# Velocity S-wave (km/s) = 2.38685 2.95321 2.68501
# Velocity P-wave (km/s) = 3.83966 4.58033 4.22625
#
# Compressibility (1/GPa) = 0.07228010
#
# Stress axis : x y z
#
# Youngs Moduli (GPa) = 39.30598 12.76879 16.25024
#
# Poissons Ratio (x) = -0.15203 0.33482
# Poissons Ratio (y) = -0.46799 0.61442
# Poissons Ratio (z) = 0.80986 0.48279
#
# Static dielectric constant tensor:
#      x y z
#    x 1.686240 0.000000 0.000000 
#    y 0.000000 1.683600 0.000000 
#    z 0.000000 0.000000 1.646600 
# 
# From -- ./inp_files/6557.got.cif
#   From: 2010.05.17/outbox.cif.g08.bks.cpg/sg57_4_cif.got.tgz:6557.got - 2010.06.03 13:58:18.
