data_PCOD9437323
_publ_section_title
;
Structure prediction by ZEFSAII (Michael W. Deem and Ramdas Pophale) SiO2 
 PCOD9437323
Probable space group: P B C M
;
_chemical_formula_sum "Si O2"
_cell_formula_units_Z 64
_cell_length_a 12.384360
_cell_length_b 19.118230
_cell_length_c 13.902722
_cell_angle_alpha 90.000000
_cell_angle_beta 90.000000
_cell_angle_gamma 90.000000
_cell_volume 3291.706376
_symmetry_space_group_name_H-M "P B C M"
_symmetry_group_IT_number 57
_symmetry_cell_setting 'orthorhombic'
loop_
_space_group_symop_operation_xyz
x,y,z
-x,-y,1/2+z
x,1/2-y,-z
-x,1/2+y,1/2-z
-x,-y,-z
x,y,1/2-z
-x,1/2+y,z
x,1/2-y,1/2+z
loop_
_atom_site_type_symbol
_atom_site_label
_atom_site_fract_x
_atom_site_fract_y
_atom_site_fract_z
Si Si1 0.021699 0.823875 0.972934
Si Si2 0.256158 0.433699 0.474430
Si Si3 0.452167 0.354559 0.537155
Si Si4 0.039581 0.417613 0.139286
Si Si5 0.452645 0.720884 0.863082
Si Si6 0.385301 0.948405 0.637130
Si Si7 0.758592 0.307960 0.860984
Si Si8 0.096507 0.056067 0.361119
O O1 0.030506 0.868975 0.069960
O O2 0.969045 0.750000 0.000000
O O3 0.137434 0.808687 0.926914
O O4 0.952726 0.871424 0.900102
O O5 0.329467 0.369666 0.509794
O O6 0.161176 0.414021 0.400419
O O7 0.333549 0.488920 0.422464
O O8 0.193802 0.463289 0.567661
O O9 0.516426 0.339353 0.437818
O O10 0.473545 0.287161 0.604506
O O11 0.503590 0.420683 0.591602
O O12 0.032695 0.397058 0.250000
O O13 0.995754 0.496784 0.130095
O O14 0.466353 0.705540 0.750000
O O15 0.330315 0.747957 0.879607
O O16 0.396739 0.965579 0.750000
O O17 0.305229 0.881375 0.630011
O O18 0.793218 0.301303 0.750000
O O19 0.128500 0.060436 0.250000
#
# Coordination Sequence:
#
# PCOD9437323 Si02
#       8
#     8   8   8   8   8   8   8   8
#     4  11  22  34  60  89 121 151 190 251 305 353
#     4  11  21  37  60  88 114 154 197 248 293 350
#     4  10  21  36  58  85 119 149 199 245 293 347
#     4  10  22  42  62  84 118 160 204 247 300 365
#     4   9  20  39  58  80 117 160 196 235 288 355
#     4  10  20  35  59  87 118 154 194 240 288 352
#     4   9  18  34  58  85 112 151 190 226 289 355
#     4  10  22  42  63  85 118 159 203 248 302 365
#
# _framework density 19.442803000000001
#
# number of rings (size 3 to 8) (size 9 to 14) (size 15 to 20)
#    0.000    2.000    0.000    5.250    3.500    5.000 
#    9.000    0.625    0.000    0.000    0.000    0.000 
#    0.000    0.000    0.000    0.000    0.000    0.000 
#
# Total GULP energy -357344.390411 kJ/mol
# GULP energy per Si atom -5583.506100 kJ/mol
# Density = 1.939855 g / cm^3
# Si number density = 19.442803 Si / 1000 Ang^3
#
#
#
# Elastic Constant Matrix: (Units=GPa)
#
#
# Indices 1 2 3 4 5 6 
#
# 1 61.8177 17.7747 37.1966 0.0000 0.0000 0.0000
# 2 17.7747 42.8311 22.8742 0.0000 0.0000 0.0000
# 3 37.1966 22.8742 141.2607 0.0000 0.0000 0.0000
# 4 0.0000 0.0000 0.0000 12.5535 0.0000 0.0000
# 5 0.0000 0.0000 0.0000 0.0000 16.0769 0.0000
# 6 0.0000 0.0000 0.0000 0.0000 0.0000 12.3071
#
#
#
# Elastic Compliance Matrix: (Units=1/GPa)
#
#
# Indices 1 2 3 4 5 6 
#
# 1 0.020621 -0.006193 -0.004427 0.000000 0.000000 0.000000
# 2 -0.006193 0.027418 -0.002809 0.000000 0.000000 0.000000
# 3 -0.004427 -0.002809 0.008700 0.000000 0.000000 0.000000
# 4 0.000000 0.000000 0.000000 0.079659 0.000000 0.000000
# 5 0.000000 0.000000 0.000000 0.000000 0.062201 0.000000
# 6 0.000000 0.000000 0.000000 0.000000 0.000000 0.081254
#
#
# Mechanical properties :
#
#
# Convention : Reuss Voigt Hill
#
# Bulk Modulus (GPa) = 33.46717 44.62228 39.04473
# Shear Modulus (GPa) = 15.78923 19.39176 17.59050
#
# Velocity S-wave (km/s) = 2.85280 3.16155 3.01114
# Velocity P-wave (km/s) = 5.30112 6.02724 5.67580
#
# Compressibility (1/GPa) = 0.02988003
#
# Stress axis : x y z
#
# Youngs Moduli (GPa) = 48.49366 36.47253 114.94666
#
# Poissons Ratio (x) = 0.22589 0.50888
# Poissons Ratio (y) = 0.30034 0.32287
# Poissons Ratio (z) = 0.21469 0.10245
#
# Static dielectric constant tensor:
#      x y z
#    x 1.668450 0.000000 0.000000 
#    y 0.000000 1.683360 0.000000 
#    z 0.000000 0.000000 1.676370 
# 
# From -- ./inp_files/17945.got.cif
#   From: 2010.05.17/outbox.cif.g08.bks.cpg/sg57_9_cif.got.tgz:17945.got - 2010.06.03 13:58:18.
