data_PCOD9437218
_publ_section_title
;
Structure prediction by ZEFSAII (Michael W. Deem and Ramdas Pophale) SiO2 
 PCOD9437218
Probable space group: P B C M
;
_chemical_formula_sum "Si O2"
_cell_formula_units_Z 48
_cell_length_a 15.129558
_cell_length_b 19.118763
_cell_length_c 8.601185
_cell_angle_alpha 90.000000
_cell_angle_beta 90.000000
_cell_angle_gamma 90.000000
_cell_volume 2487.965301
_symmetry_space_group_name_H-M "P B C M"
_symmetry_group_IT_number 57
_symmetry_cell_setting 'orthorhombic'
loop_
_space_group_symop_operation_xyz
x,y,z
-x,-y,1/2+z
x,1/2-y,-z
-x,1/2+y,1/2-z
-x,-y,-z
x,y,1/2-z
-x,1/2+y,z
x,1/2-y,1/2+z
loop_
_atom_site_type_symbol
_atom_site_label
_atom_site_fract_x
_atom_site_fract_y
_atom_site_fract_z
Si Si1 0.532287 0.827116 0.563804
Si Si2 0.680906 0.919444 0.063625
Si Si3 0.944266 0.099073 0.935850
Si Si4 0.874702 0.555858 0.435716
Si Si5 0.781521 0.175602 0.436130
Si Si6 0.374478 0.927735 0.938919
O O1 0.513543 0.750000 0.500000
O O2 0.529252 0.824826 0.750000
O O3 0.626667 0.855566 0.507733
O O4 0.459273 0.883702 0.508231
O O5 0.676048 0.916443 0.250000
O O6 0.635316 0.992382 0.008501
O O7 0.782694 0.922731 0.012437
O O8 0.950861 0.101487 0.750000
O O9 0.900627 0.024003 0.980485
O O10 0.877434 0.157157 0.997215
O O11 0.041533 0.101000 0.008750
O O12 0.866520 0.558808 0.250000
O O13 0.750858 0.250000 0.500000
O O14 0.784495 0.177144 0.250000
O O15 0.712562 0.115637 0.485118
O O16 0.376633 0.929198 0.750000
#
# Coordination Sequence:
#
# PCOD9437218 Si02
#       6
#     8   8   8   8   8   8
#     4  11  23  41  60  85 118 157 199 244 296 354
#     4  11  21  38  62  90 119 154 196 246 297 349
#     4  10  20  35  56  84 116 153 194 237 288 346
#     4  10  20  35  58  87 116 150 192 240 288 342
#     4  11  21  36  56  84 121 160 198 245 297 354
#     4   9  20  37  60  87 118 153 197 245 294 348
#
# _framework density 19.292874000000001
#
# number of rings (size 3 to 8) (size 9 to 14) (size 15 to 20)
#    0.000    1.667    1.667    3.500    0.000    1.333 
#    0.000    5.833    0.000    0.000    0.000    0.000 
#    0.000    0.000    0.000    0.000    0.000    0.000 
#
# Total GULP energy -268211.108903 kJ/mol
# GULP energy per Si atom -5587.731435 kJ/mol
# Density = 1.924896 g / cm^3
# Si number density = 19.292874 Si / 1000 Ang^3
#
#
#
# Elastic Constant Matrix: (Units=GPa)
#
#
# Indices 1 2 3 4 5 6 
#
# 1 105.6020 15.1672 17.8924 0.0000 0.0000 0.0000
# 2 15.1672 39.2860 7.5403 0.0000 0.0000 0.0000
# 3 17.8924 7.5403 40.2586 0.0000 0.0000 0.0000
# 4 0.0000 0.0000 0.0000 28.0282 0.0000 0.0000
# 5 0.0000 0.0000 0.0000 0.0000 23.7236 0.0000
# 6 0.0000 0.0000 0.0000 0.0000 0.0000 30.7315
#
#
#
# Elastic Compliance Matrix: (Units=1/GPa)
#
#
# Indices 1 2 3 4 5 6 
#
# 1 0.010642 -0.003320 -0.004108 0.000000 0.000000 0.000000
# 2 -0.003320 0.027439 -0.003664 0.000000 0.000000 0.000000
# 3 -0.004108 -0.003664 0.027351 0.000000 0.000000 0.000000
# 4 0.000000 0.000000 0.000000 0.035678 0.000000 0.000000
# 5 0.000000 0.000000 0.000000 0.000000 0.042152 0.000000
# 6 0.000000 0.000000 0.000000 0.000000 0.000000 0.032540
#
#
# Mechanical properties :
#
#
# Convention : Reuss Voigt Hill
#
# Bulk Modulus (GPa) = 23.12176 29.59405 26.35790
# Shear Modulus (GPa) = 23.54007 26.13312 24.83659
#
# Velocity S-wave (km/s) = 3.49684 3.68441 3.59185
# Velocity P-wave (km/s) = 5.32114 5.78554 5.55819
#
# Compressibility (1/GPa) = 0.04324930
#
# Stress axis : x y z
#
# Youngs Moduli (GPa) = 93.96361 36.44397 36.56126
#
# Poissons Ratio (x) = 0.12100 0.15019
# Poissons Ratio (y) = 0.31198 0.13395
# Poissons Ratio (z) = 0.38600 0.13352
#
# Static dielectric constant tensor:
#      x y z
#    x 1.664660 0.000000 0.000000 
#    y 0.000000 1.666900 0.000000 
#    z 0.000000 0.000000 1.639460 
# 
# From -- ./inp_files/4671.got.cif
#   From: 2010.05.17/outbox.cif.g08.bks.cpg/sg57_3_cif.got.tgz:4671.got - 2010.06.03 13:58:18.
