data_PCOD9437419
_publ_section_title
;
Structure prediction by ZEFSAII (Michael W. Deem and Ramdas Pophale) SiO2 
 PCOD9437419
Probable space group: P B C M
;
_chemical_formula_sum "Si O2"
_cell_formula_units_Z 64
_cell_length_a 12.513773
_cell_length_b 32.334354
_cell_length_c 7.935138
_cell_angle_alpha 90.000000
_cell_angle_beta 90.000000
_cell_angle_gamma 90.000000
_cell_volume 3210.753357
_symmetry_space_group_name_H-M "P B C M"
_symmetry_group_IT_number 57
_symmetry_cell_setting 'orthorhombic'
loop_
_space_group_symop_operation_xyz
x,y,z
-x,-y,1/2+z
x,1/2-y,-z
-x,1/2+y,1/2-z
-x,-y,-z
x,y,1/2-z
-x,1/2+y,z
x,1/2-y,1/2+z
loop_
_atom_site_type_symbol
_atom_site_label
_atom_site_fract_x
_atom_site_fract_y
_atom_site_fract_z
Si Si1 0.633319 0.113697 0.553058
Si Si2 0.007207 0.203550 0.953576
Si Si3 0.754032 0.555450 0.546329
Si Si4 0.748795 0.704227 0.547433
Si Si5 0.006137 0.048059 0.445150
Si Si6 0.600285 0.869905 0.456874
Si Si7 0.612756 0.020480 0.451937
Si Si8 0.868322 0.373928 0.048731
O O1 0.634431 0.125609 0.750000
O O2 0.521392 0.130101 0.480716
O O3 0.625049 0.064259 0.539482
O O4 0.747772 0.125978 0.478215
O O5 0.009466 0.201567 0.750000
O O6 0.129607 0.198789 0.015373
O O7 0.936812 0.165080 0.016174
O O8 0.970633 0.250000 0.000000
O O9 0.761307 0.557076 0.750000
O O10 0.872050 0.562317 0.477171
O O11 0.667018 0.589454 0.492990
O O12 0.707225 0.510831 0.498720
O O13 0.713056 0.750000 0.500000
O O14 0.752803 0.700981 0.750000
O O15 0.668301 0.669351 0.486735
O O16 0.980413 0.048451 0.250000
O O17 0.927055 0.082043 0.524032
O O18 0.000000 0.000000 0.500000
O O19 0.596990 0.870588 0.250000
O O20 0.616145 0.025919 0.250000
O O21 0.500000 0.000000 0.500000
O O22 0.860532 0.368607 0.250000
#
# Coordination Sequence:
#
# PCOD9437419 Si02
#       8
#     8   8   8   8   8   8   8   8
#     4  10  20  36  56  79 107 143 188 227 269 327
#     4   9  18  34  57  84 110 143 183 230 284 339
#     4  10  20  36  57  79 106 140 181 225 271 322
#     4   9  17  31  53  76 104 136 171 214 267 325
#     4  12  25  39  56  80 112 148 188 233 283 338
#     4   9  17  33  55  78 104 138 174 214 265 320
#     4  11  21  34  54  78 108 144 182 225 270 320
#     4  10  21  38  60  83 112 149 191 237 285 340
#
# _framework density 19.933018000000001
#
# number of rings (size 3 to 8) (size 9 to 14) (size 15 to 20)
#    0.000    2.000    1.250    3.000    0.000    6.000 
#    0.000    4.375    0.000    0.000    0.000    0.000 
#    0.000    0.000    0.000    0.000    0.000    0.000 
#
# Total GULP energy -357314.521791 kJ/mol
# GULP energy per Si atom -5583.039403 kJ/mol
# Density = 1.988765 g / cm^3
# Si number density = 19.933018 Si / 1000 Ang^3
#
#
#
# Elastic Constant Matrix: (Units=GPa)
#
#
# Indices 1 2 3 4 5 6 
#
# 1 131.4343 72.0383 1.0262 0.0000 0.0000 0.0000
# 2 72.0383 126.1808 -0.6806 0.0000 0.0000 0.0000
# 3 1.0262 -0.6806 18.6589 0.0000 0.0000 0.0000
# 4 0.0000 0.0000 0.0000 25.1705 0.0000 0.0000
# 5 0.0000 0.0000 0.0000 0.0000 13.4977 0.0000
# 6 0.0000 0.0000 0.0000 0.0000 0.0000 36.6857
#
#
#
# Elastic Compliance Matrix: (Units=1/GPa)
#
#
# Indices 1 2 3 4 5 6 
#
# 1 0.011087 -0.006334 -0.000841 0.000000 0.000000 0.000000
# 2 -0.006334 0.011545 0.000769 0.000000 0.000000 0.000000
# 3 -0.000841 0.000769 0.053668 0.000000 0.000000 0.000000
# 4 0.000000 0.000000 0.000000 0.039729 0.000000 0.000000
# 5 0.000000 0.000000 0.000000 0.000000 0.074087 0.000000
# 6 0.000000 0.000000 0.000000 0.000000 0.000000 0.027259
#
#
# Mechanical properties :
#
#
# Convention : Reuss Voigt Hill
#
# Bulk Modulus (GPa) = 15.75065 46.78243 31.26654
# Shear Modulus (GPa) = 19.89272 28.66344 24.27808
#
# Velocity S-wave (km/s) = 3.16251 3.79620 3.49375
# Velocity P-wave (km/s) = 4.61023 6.53724 5.65640
#
# Compressibility (1/GPa) = 0.06348945
#
# Stress axis : x y z
#
# Youngs Moduli (GPa) = 90.19942 86.61426 18.63306
#
# Poissons Ratio (x) = 0.54861 0.01567
# Poissons Ratio (y) = 0.57132 -0.01434
# Poissons Ratio (z) = 0.07584 -0.06665
#
# Static dielectric constant tensor:
#      x y z
#    x 1.734320 0.000000 0.000000 
#    y 0.000000 1.682950 0.000000 
#    z 0.000000 0.000000 1.720240 
# 
# From -- ./inp_files/3810.got.cif
#   From: 2010.05.17/outbox.cif.g08.bks.cpg/sg57_2_cif.got.tgz:3810.got - 2010.06.03 13:58:18.
