data_PCOD9437272
_publ_section_title
;
Structure prediction by ZEFSAII (Michael W. Deem and Ramdas Pophale) SiO2 
 PCOD9437272
Probable space group: P B C M
;
_chemical_formula_sum "Si O2"
_cell_formula_units_Z 64
_cell_length_a 24.117644
_cell_length_b 15.880903
_cell_length_c 8.805275
_cell_angle_alpha 90.000000
_cell_angle_beta 90.000000
_cell_angle_gamma 90.000000
_cell_volume 3372.508069
_symmetry_space_group_name_H-M "P B C M"
_symmetry_group_IT_number 57
_symmetry_cell_setting 'orthorhombic'
loop_
_space_group_symop_operation_xyz
x,y,z
-x,-y,1/2+z
x,1/2-y,-z
-x,1/2+y,1/2-z
-x,-y,-z
x,y,1/2-z
-x,1/2+y,z
x,1/2-y,1/2+z
loop_
_atom_site_type_symbol
_atom_site_label
_atom_site_fract_x
_atom_site_fract_y
_atom_site_fract_z
Si Si1 0.061943 0.160202 0.932613
Si Si2 0.672812 0.663094 0.430290
Si Si3 0.067278 0.840269 0.431876
Si Si4 0.132085 0.997679 0.933288
Si Si5 0.738475 0.993749 0.067461
Si Si6 0.562960 0.407923 0.068179
Si Si7 0.562707 0.595796 0.568621
Si Si8 0.327451 0.836391 0.931635
O O1 0.064542 0.165470 0.750000
O O2 0.997471 0.145821 0.975275
O O3 0.099437 0.081877 0.982007
O O4 0.079454 0.250000 0.000000
O O5 0.694723 0.750000 0.500000
O O6 0.673408 0.667217 0.250000
O O7 0.707552 0.583320 0.488155
O O8 0.610138 0.649352 0.489280
O O9 0.084046 0.750000 0.500000
O O10 0.070563 0.837192 0.250000
O O11 0.103818 0.915974 0.495184
O O12 0.127845 0.991551 0.750000
O O13 0.196810 0.003650 0.972393
O O14 0.733442 0.983031 0.250000
O O15 0.708997 0.081903 0.027965
O O16 0.569203 0.415385 0.250000
O O17 0.500461 0.376558 0.036713
O O18 0.567871 0.500331 0.993156
O O19 0.611479 0.351848 0.999653
O O20 0.571282 0.595775 0.750000
O O21 0.330458 0.830560 0.750000
O O22 0.304473 0.750000 0.000000
#
# Coordination Sequence:
#
# PCOD9437272 Si02
#       8
#     8   8   8   8   8   8   8   8
#     4   9  19  35  57  86 121 157 193 238 290 346
#     4  12  25  41  64  88 116 155 198 244 295 353
#     4  10  20  35  57  87 121 157 196 239 289 345
#     4  10  21  38  60  86 118 155 195 243 295 346
#     4  10  23  43  62  84 117 155 197 248 298 345
#     4  10  20  35  59  89 119 152 189 234 292 355
#     4  10  20  36  59  88 121 152 187 235 292 353
#     4  11  23  39  61  84 114 153 195 245 296 352
#
# _framework density 18.976973999999998
#
# number of rings (size 3 to 8) (size 9 to 14) (size 15 to 20)
#    0.000    1.750    1.250    3.000    0.000    5.000 
#    0.000    2.500    0.000    0.000    0.000    0.000 
#    0.000    0.000    0.000    0.000    0.000    0.000 
#
# Total GULP energy -357687.017082 kJ/mol
# GULP energy per Si atom -5588.859642 kJ/mol
# Density = 1.893378 g / cm^3
# Si number density = 18.976974 Si / 1000 Ang^3
#
#
#
# Elastic Constant Matrix: (Units=GPa)
#
#
# Indices 1 2 3 4 5 6 
#
# 1 111.8247 92.9073 56.9068 0.0000 0.0000 0.0000
# 2 92.9073 170.8383 67.6121 0.0000 0.0000 0.0000
# 3 56.9068 67.6121 64.6856 0.0000 0.0000 0.0000
# 4 0.0000 0.0000 0.0000 35.5277 0.0000 0.0000
# 5 0.0000 0.0000 0.0000 0.0000 19.3149 0.0000
# 6 0.0000 0.0000 0.0000 0.0000 0.0000 -5.0292
#
#
#
# Elastic Compliance Matrix: (Units=1/GPa)
#
#
# Indices 1 2 3 4 5 6 
#
# 1 0.019760 -0.006594 -0.010492 0.000000 0.000000 0.000000
# 2 -0.006594 0.012184 -0.006934 0.000000 0.000000 0.000000
# 3 -0.010492 -0.006934 0.031937 0.000000 0.000000 0.000000
# 4 0.000000 0.000000 0.000000 0.028147 0.000000 0.000000
# 5 0.000000 0.000000 0.000000 0.000000 0.051773 0.000000
# 6 0.000000 0.000000 0.000000 0.000000 0.000000 -0.198838
#
#
# Mechanical properties :
#
#
# Convention : Reuss Voigt Hill
#
# Bulk Modulus (GPa) = 63.12401 86.91124 75.01762
# Shear Modulus (GPa) = -2911.83904 18.62417 -1446.60743
#
# Velocity S-wave (km/s) = -39.21400 3.13614 -27.63966
# Velocity P-wave (km/s) = 44.91081 7.68190 31.28873
#
# Compressibility (1/GPa) = 0.01584183
#
# Stress axis : x y z
#
# Youngs Moduli (GPa) = 50.60702 82.07673 31.31176
#
# Poissons Ratio (x) = 0.54121 0.32851
# Poissons Ratio (y) = 0.33370 0.21711
# Poissons Ratio (z) = 0.53095 0.56911
#
# Static dielectric constant tensor:
#      x y z
#    x 1.648260 0.000000 0.000000 
#    y 0.000000 1.648030 0.000000 
#    z 0.000000 0.000000 1.632380 
# 
# From -- ./inp_files/9407.got.cif
#   From: 2010.05.17/outbox.cif.g08.bks.cpg/sg57_5_cif.got.tgz:9407.got - 2010.06.03 13:58:18.
