data_PCOD9437158
_publ_section_title
;
Structure prediction by ZEFSAII (Michael W. Deem and Ramdas Pophale) SiO2 
 PCOD9437158
Probable space group: P B C M
;
_chemical_formula_sum "Si O2"
_cell_formula_units_Z 64
_cell_length_a 5.028856
_cell_length_b 29.761424
_cell_length_c 20.678084
_cell_angle_alpha 90.000000
_cell_angle_beta 90.000000
_cell_angle_gamma 90.000000
_cell_volume 3094.804376
_symmetry_space_group_name_H-M "P B C M"
_symmetry_group_IT_number 57
_symmetry_cell_setting 'orthorhombic'
loop_
_space_group_symop_operation_xyz
x,y,z
-x,-y,1/2+z
x,1/2-y,-z
-x,1/2+y,1/2-z
-x,-y,-z
x,y,1/2-z
-x,1/2+y,z
x,1/2-y,1/2+z
loop_
_atom_site_type_symbol
_atom_site_label
_atom_site_fract_x
_atom_site_fract_y
_atom_site_fract_z
Si Si1 0.362816 0.737504 0.566638
Si Si2 0.971247 0.187535 0.676857
Si Si3 0.177405 0.884317 0.411685
Si Si4 0.568618 0.390548 0.904232
Si Si5 0.361181 0.270493 0.679376
Si Si6 0.675753 0.655653 0.971436
Si Si7 0.249614 0.532674 0.998191
Si Si8 0.076760 0.135974 0.175724
O O1 0.218199 0.750000 0.500000
O O2 0.468467 0.775304 0.614701
O O3 0.608719 0.707419 0.540422
O O4 0.193186 0.709588 0.618398
O O5 -0.134756 0.190221 0.750000
O O6 0.956467 0.135293 0.653974
O O7 0.229630 0.220423 0.677970
O O8 0.977108 0.860379 0.463609
O O9 0.482353 0.868156 0.418640
O O10 0.198736 0.935528 0.435321
O O11 0.689128 0.433807 0.941762
O O12 0.320730 0.392691 0.854567
O O13 0.814719 0.370282 0.865923
O O14 0.443797 0.360994 0.961750
O O15 0.497264 0.275266 0.750000
O O16 0.153973 0.311143 0.675908
O O17 0.500000 0.500000 0.000000
O O18 0.000000 0.500000 0.000000
O O19 0.032348 0.122805 0.250000
#
# Coordination Sequence:
#
# PCOD9437158 Si02
#       8
#     8   8   8   8   8   8   8   8
#     4  11  22  33  53  84 120 164 219 278 320 357
#     4  10  22  40  59  83 125 180 222 268 323 389
#     4  10  20  39  60  90 123 157 208 252 320 399
#     4  11  22  41  63  90 128 163 203 262 329 385
#     4  10  22  38  56  82 122 174 227 267 308 371
#     4  10  20  35  55  84 120 160 199 254 315 375
#     4  11  22  39  69 100 125 155 197 264 338 412
#     4  11  24  39  61  88 124 175 222 258 304 374
#
# _framework density 20.679819999999999
#
# number of rings (size 3 to 8) (size 9 to 14) (size 15 to 20)
#    0.000    1.500    1.250    5.250    3.500    0.500 
#    0.000    0.000    0.000    4.500    0.000    0.000 
#    0.000    0.000    0.000    0.000    0.000    0.000 
#
# Total GULP energy -356555.393928 kJ/mol
# GULP energy per Si atom -5571.178030 kJ/mol
# Density = 2.063275 g / cm^3
# Si number density = 20.679820 Si / 1000 Ang^3
#
#
#
# Elastic Constant Matrix: (Units=GPa)
#
#
# Indices 1 2 3 4 5 6 
#
# 1 99.2450 29.8848 41.1963 0.0000 0.0000 0.0000
# 2 29.8848 93.6398 45.9495 0.0000 0.0000 0.0000
# 3 41.1963 45.9495 175.5245 0.0000 0.0000 0.0000
# 4 0.0000 0.0000 0.0000 28.1888 0.0000 0.0000
# 5 0.0000 0.0000 0.0000 0.0000 21.9350 0.0000
# 6 0.0000 0.0000 0.0000 0.0000 0.0000 35.0181
#
#
#
# Elastic Compliance Matrix: (Units=1/GPa)
#
#
# Indices 1 2 3 4 5 6 
#
# 1 0.011750 -0.002750 -0.002038 0.000000 0.000000 0.000000
# 2 -0.002750 0.012897 -0.002731 0.000000 0.000000 0.000000
# 3 -0.002038 -0.002731 0.006890 0.000000 0.000000 0.000000
# 4 0.000000 0.000000 0.000000 0.035475 0.000000 0.000000
# 5 0.000000 0.000000 0.000000 0.000000 0.045589 0.000000
# 6 0.000000 0.000000 0.000000 0.000000 0.000000 0.028557
#
#
# Mechanical properties :
#
#
# Convention : Reuss Voigt Hill
#
# Bulk Modulus (GPa) = 60.60588 66.94115 63.77351
# Shear Modulus (GPa) = 30.92229 33.78695 32.35462
#
# Velocity S-wave (km/s) = 3.87109 4.04643 3.95973
# Velocity P-wave (km/s) = 7.02502 7.36695 7.19802
#
# Compressibility (1/GPa) = 0.01650005
#
# Stress axis : x y z
#
# Youngs Moduli (GPa) = 85.10582 77.53826 145.12989
#
# Poissons Ratio (x) = 0.21323 0.29576
# Poissons Ratio (y) = 0.23404 0.39631
# Poissons Ratio (z) = 0.17344 0.21174
#
# Static dielectric constant tensor:
#      x y z
#    x 1.775330 0.000000 0.000000 
#    y 0.000000 1.812670 0.000000 
#    z 0.000000 0.000000 1.786290 
# 
# From -- ./inp_files/20347.got.cif
#   From: 2010.05.17/outbox.cif.g08.bks.cpg/sg57_11_cif.got.tgz:20347.got - 2010.06.03 13:58:18.
