data_PCOD9437511
_publ_section_title
;
Structure prediction by ZEFSAII (Michael W. Deem and Ramdas Pophale) SiO2 
 PCOD9437511
Probable space group: P B C M
;
_chemical_formula_sum "Si O2"
_cell_formula_units_Z 64
_cell_length_a 19.961797
_cell_length_b 8.435770
_cell_length_c 15.966001
_cell_angle_alpha 90.000000
_cell_angle_beta 90.000000
_cell_angle_gamma 90.000000
_cell_volume 2688.564854
_symmetry_space_group_name_H-M "P B C M"
_symmetry_group_IT_number 57
_symmetry_cell_setting 'orthorhombic'
loop_
_space_group_symop_operation_xyz
x,y,z
-x,-y,1/2+z
x,1/2-y,-z
-x,1/2+y,1/2-z
-x,-y,-z
x,y,1/2-z
-x,1/2+y,z
x,1/2-y,1/2+z
loop_
_atom_site_type_symbol
_atom_site_label
_atom_site_fract_x
_atom_site_fract_y
_atom_site_fract_z
Si Si1 0.844594 0.146111 0.648855
Si Si2 0.225295 0.974421 0.851082
Si Si3 0.283716 0.484977 0.850999
Si Si4 0.594848 0.319021 0.407801
Si Si5 0.650579 0.840822 0.147395
Si Si6 0.519195 0.012476 0.151881
Si Si7 0.089712 0.099836 0.846148
Si Si8 0.020494 0.788273 0.593194
O O1 0.849069 0.141390 0.750000
O O2 0.806186 0.308182 0.623033
O O3 0.792621 0.012086 0.619772
O O4 0.919483 0.166103 0.616001
O O5 0.232197 0.966812 0.750000
O O6 0.297387 0.025332 0.883311
O O7 0.167501 0.103743 0.870486
O O8 0.280529 0.476269 0.750000
O O9 0.333154 0.629678 0.872902
O O10 0.318958 0.325059 0.881291
O O11 0.600914 0.250000 0.500000
O O12 0.546909 0.473389 0.400455
O O13 0.555447 0.181602 0.357532
O O14 0.650284 0.839708 0.250000
O O15 0.575690 0.885795 0.124348
O O16 0.501789 0.992672 0.250000
O O17 0.089130 0.043974 0.750000
O O18 0.045563 0.256502 0.852618
O O19 0.051724 0.961207 0.895877
O O20 0.999543 0.750000 0.500000
#
# Coordination Sequence:
#
# PCOD9437511 Si02
#       8
#     8   8   8   8   8   8   8   8
#     4   9  18  34  56  80 110 151 197 239 282 341
#     4   8  15  30  52  79 107 138 181 233 284 332
#     4  10  20  36  59  86 114 148 195 242 284 342
#     4  12  25  40  59  86 121 155 191 241 298 346
#     4   9  18  33  57  88 114 139 182 239 287 330
#     4  11  22  39  63  86 113 153 197 238 286 348
#     4  10  20  36  58  81 109 149 195 238 286 350
#     4  11  22  36  55  82 117 151 188 240 300 351
#
# _framework density 23.804521000000001
#
# number of rings (size 3 to 8) (size 9 to 14) (size 15 to 20)
#    0.000    2.000    0.000    5.250    0.000    4.500 
#    0.000    2.500    0.000    0.750    0.000    0.000 
#    0.000    0.000    0.000    0.000    0.000    0.000 
#
# Total GULP energy -357763.342827 kJ/mol
# GULP energy per Si atom -5590.052232 kJ/mol
# Density = 2.375034 g / cm^3
# Si number density = 23.804521 Si / 1000 Ang^3
#
#
#
# Elastic Constant Matrix: (Units=GPa)
#
#
# Indices 1 2 3 4 5 6 
#
# 1 83.7548 -9.0258 -2.5710 0.0000 0.0000 0.0000
# 2 -9.0258 48.6902 -1.1876 0.0000 0.0000 0.0000
# 3 -2.5710 -1.1876 20.3961 0.0000 0.0000 0.0000
# 4 0.0000 0.0000 0.0000 -1.0951 0.0000 0.0000
# 5 0.0000 0.0000 0.0000 0.0000 -12.0314 0.0000
# 6 0.0000 0.0000 0.0000 0.0000 0.0000 38.8762
#
#
#
# Elastic Compliance Matrix: (Units=1/GPa)
#
#
# Indices 1 2 3 4 5 6 
#
# 1 0.012240 0.002310 0.001677 0.000000 0.000000 0.000000
# 2 0.002310 0.021003 0.001514 0.000000 0.000000 0.000000
# 3 0.001677 0.001514 0.049329 0.000000 0.000000 0.000000
# 4 0.000000 0.000000 0.000000 -0.913151 0.000000 0.000000
# 5 0.000000 0.000000 0.000000 0.000000 -0.083116 0.000000
# 6 0.000000 0.000000 0.000000 0.000000 0.000000 0.025723
#
#
# Mechanical properties :
#
#
# Convention : Reuss Voigt Hill
#
# Bulk Modulus (GPa) = 10.68668 14.14136 12.41402
# Shear Modulus (GPa) = -5.76180 16.19163 5.21491
#
# Velocity S-wave (km/s) = -1.55747 2.61088 1.48172
# Velocity P-wave (km/s) = 1.12463 3.87846 2.85545
#
# Compressibility (1/GPa) = 0.09357444
#
# Stress axis : x y z
#
# Youngs Moduli (GPa) = 81.69912 47.61191 20.27224
#
# Poissons Ratio (x) = -0.10998 -0.03400
# Poissons Ratio (y) = -0.18871 -0.03069
# Poissons Ratio (z) = -0.13704 -0.07209
#
# Static dielectric constant tensor:
#      x y z
#    x 1.878370 0.000000 0.000000 
#    y 0.000000 1.973490 0.000000 
#    z 0.000000 0.000000 1.876350 
# 
# From -- ./inp_files/23008.got.cif
#   From: 2010.05.17/outbox.cif.g08.bks.cpg/sg57_12_cif.got.tgz:23008.got - 2010.06.03 13:58:18.
