data_PCOD9437339
_publ_section_title
;
Structure prediction by ZEFSAII (Michael W. Deem and Ramdas Pophale) SiO2 
 PCOD9437339
Probable space group: P B C M
;
_chemical_formula_sum "Si O2"
_cell_formula_units_Z 56
_cell_length_a 22.493025
_cell_length_b 14.414587
_cell_length_c 8.790542
_cell_angle_alpha 90.000000
_cell_angle_beta 90.000000
_cell_angle_gamma 90.000000
_cell_volume 2850.136913
_symmetry_space_group_name_H-M "P B C M"
_symmetry_group_IT_number 57
_symmetry_cell_setting 'orthorhombic'
loop_
_space_group_symop_operation_xyz
x,y,z
-x,-y,1/2+z
x,1/2-y,-z
-x,1/2+y,1/2-z
-x,-y,-z
x,y,1/2-z
-x,1/2+y,z
x,1/2-y,1/2+z
loop_
_atom_site_type_symbol
_atom_site_label
_atom_site_fract_x
_atom_site_fract_y
_atom_site_fract_z
Si Si1 0.467144 0.646098 0.068350
Si Si2 0.898046 0.843675 0.425133
Si Si3 0.151346 0.651418 0.431097
Si Si4 0.972629 0.407977 0.074019
Si Si5 0.590022 0.964959 0.568592
Si Si6 0.300074 0.146877 0.568236
Si Si7 0.807507 0.968889 0.570010
O O1 0.457573 0.650352 0.250000
O O2 0.532715 0.601619 0.041835
O O3 0.462512 0.750000 0.000000
O O4 0.424286 0.567913 0.994714
O O5 0.874901 0.750000 0.500000
O O6 0.878954 0.854275 0.250000
O O7 0.871361 0.926638 0.523480
O O8 0.969345 0.842741 0.425875
O O9 0.168213 0.750000 0.500000
O O10 0.154011 0.651474 0.250000
O O11 0.083493 0.630342 0.483239
O O12 0.192500 0.570932 0.499395
O O13 0.954908 0.422859 0.250000
O O14 0.000000 0.500000 0.000000
O O15 0.599864 0.969857 0.750000
O O16 0.645288 0.916719 0.486869
O O17 0.305847 0.250000 0.500000
O O18 0.298440 0.152475 0.750000
O O19 0.240928 0.097781 0.505253
O O20 0.800156 0.971099 0.750000
#
# Coordination Sequence:
#
# PCOD9437339 Si02
#       7
#     8   8   8   8   8   8   8
#     4  10  20  35  59  92 131 173 214 260 312 365
#     4  11  23  38  58  86 118 153 192 239 296 357
#     4  12  25  43  65  90 120 156 201 248 302 367
#     4  11  22  37  60  88 120 155 194 242 299 361
#     4  10  21  38  61  92 129 169 215 261 310 367
#     4  12  25  43  66  93 126 163 206 253 306 363
#     4  12  25  43  65  88 118 155 200 250 303 359
#
# _framework density 19.648178999999999
#
# number of rings (size 3 to 8) (size 9 to 14) (size 15 to 20)
#    0.000    0.857    1.429    6.857    0.000    5.714 
#    0.000    0.714    0.000    0.000    0.000    0.000 
#    0.000    0.000    0.000    0.000    0.000    0.000 
#
# Total GULP energy -313165.531208 kJ/mol
# GULP energy per Si atom -5592.241629 kJ/mol
# Density = 1.960346 g / cm^3
# Si number density = 19.648179 Si / 1000 Ang^3
#
#
#
# Elastic Constant Matrix: (Units=GPa)
#
#
# Indices 1 2 3 4 5 6 
#
# 1 72.0944 32.3968 50.6223 0.0000 0.0000 0.0000
# 2 32.3968 165.3889 79.3382 0.0000 0.0000 0.0000
# 3 50.6223 79.3382 185.4849 0.0000 0.0000 0.0000
# 4 0.0000 0.0000 0.0000 36.6410 0.0000 0.0000
# 5 0.0000 0.0000 0.0000 0.0000 31.6346 0.0000
# 6 0.0000 0.0000 0.0000 0.0000 0.0000 33.1372
#
#
#
# Elastic Compliance Matrix: (Units=1/GPa)
#
#
# Indices 1 2 3 4 5 6 
#
# 1 0.017421 -0.001424 -0.004146 0.000000 0.000000 0.000000
# 2 -0.001424 0.007724 -0.002915 0.000000 0.000000 0.000000
# 3 -0.004146 -0.002915 0.007770 0.000000 0.000000 0.000000
# 4 0.000000 0.000000 0.000000 0.027292 0.000000 0.000000
# 5 0.000000 0.000000 0.000000 0.000000 0.031611 0.000000
# 6 0.000000 0.000000 0.000000 0.000000 0.000000 0.030178
#
#
# Mechanical properties :
#
#
# Convention : Reuss Voigt Hill
#
# Bulk Modulus (GPa) = 62.71335 83.07585 72.89460
# Shear Modulus (GPa) = 34.65501 37.65661 36.15581
#
# Velocity S-wave (km/s) = 4.20429 4.38259 4.29436
# Velocity P-wave (km/s) = 7.45356 8.24517 7.85934
#
# Compressibility (1/GPa) = 0.01594557
#
# Stress axis : x y z
#
# Youngs Moduli (GPa) = 57.40050 129.47254 128.70744
#
# Poissons Ratio (x) = 0.18435 0.53357
# Poissons Ratio (y) = 0.08173 0.37519
# Poissons Ratio (z) = 0.23796 0.37742
#
# Static dielectric constant tensor:
#      x y z
#    x 1.703220 0.000000 0.000000 
#    y 0.000000 1.726610 0.000000 
#    z 0.000000 0.000000 1.656980 
# 
# From -- ./inp_files/8187.got.cif
#   From: 2010.05.17/outbox.cif.g08.bks.cpg/sg57_5_cif.got.tgz:8187.got - 2010.06.03 13:58:18.
