data_PCOD9437212
_publ_section_title
;
Structure prediction by ZEFSAII (Michael W. Deem and Ramdas Pophale) SiO2 
 PCOD9437212
Probable space group: P B C M
;
_chemical_formula_sum "Si O2"
_cell_formula_units_Z 64
_cell_length_a 22.129072
_cell_length_b 18.218451
_cell_length_c 8.891236
_cell_angle_alpha 90.000000
_cell_angle_beta 90.000000
_cell_angle_gamma 90.000000
_cell_volume 3584.567712
_symmetry_space_group_name_H-M "P B C M"
_symmetry_group_IT_number 57
_symmetry_cell_setting 'orthorhombic'
loop_
_space_group_symop_operation_xyz
x,y,z
-x,-y,1/2+z
x,1/2-y,-z
-x,1/2+y,1/2-z
-x,-y,-z
x,y,1/2-z
-x,1/2+y,z
x,1/2-y,1/2+z
loop_
_atom_site_type_symbol
_atom_site_label
_atom_site_fract_x
_atom_site_fract_y
_atom_site_fract_z
Si Si1 0.755943 0.096543 0.431401
Si Si2 0.504720 0.170585 0.570349
Si Si3 0.877177 0.173779 0.429692
Si Si4 0.380270 0.906908 0.569337
Si Si5 0.935573 0.481035 0.930792
Si Si6 0.275264 0.330574 0.570223
Si Si7 0.817435 0.954667 0.569975
Si Si8 0.614073 0.920936 0.069275
O O1 0.758602 0.085815 0.250000
O O2 0.807924 0.154396 0.473026
O O3 0.687744 0.117677 0.470614
O O4 0.774987 0.020181 0.508022
O O5 0.492905 0.250000 0.500000
O O6 0.506908 0.176757 0.750000
O O7 0.567529 0.138645 0.509711
O O8 0.449960 0.115798 0.530306
O O9 0.897056 0.250000 0.500000
O O10 0.879350 0.179907 0.250000
O O11 0.915954 0.102219 0.472497
O O12 0.387388 0.900688 0.750000
O O13 0.385039 0.993164 0.529122
O O14 0.936752 0.485911 0.750000
O O15 0.882425 0.532770 0.994563
O O16 0.000000 0.500000 0.000000
O O17 0.273896 0.250000 0.500000
O O18 0.279971 0.325098 0.750000
O O19 0.215636 0.378386 0.533508
O O20 0.332368 0.376100 0.508431
O O21 0.822770 0.961025 0.750000
O O22 0.622264 0.916147 0.250000
#
# Coordination Sequence:
#
# PCOD9437212 Si02
#       8
#     8   8   8   8   8   8   8   8
#     4   9  18  34  56  81 111 145 181 225 279 334
#     4  11  24  39  54  76 107 145 189 236 288 345
#     4   9  19  34  54  83 115 148 184 224 271 323
#     4  10  20  36  59  83 109 144 184 232 288 344
#     4  10  21  38  61  87 115 152 194 234 278 328
#     4  11  23  36  56  85 115 147 187 235 286 339
#     4  10  20  35  56  84 114 145 185 228 271 328
#     4  10  21  38  60  82 107 144 187 233 289 347
#
# _framework density 17.854315
#
# number of rings (size 3 to 8) (size 9 to 14) (size 15 to 20)
#    0.000    2.000    1.250    3.000    0.000    7.500 
#    0.000    1.875    0.000    0.000    0.000    0.000 
#    0.000    0.000    0.000    0.000    0.000    0.000 
#
# Total GULP energy -357362.062454 kJ/mol
# GULP energy per Si atom -5583.782226 kJ/mol
# Density = 1.781368 g / cm^3
# Si number density = 17.854315 Si / 1000 Ang^3
#
#
#
# Elastic Constant Matrix: (Units=GPa)
#
#
# Indices 1 2 3 4 5 6 
#
# 1 118.8422 13.7416 29.8207 0.0000 0.0000 0.0000
# 2 13.7416 40.7258 9.1752 0.0000 0.0000 0.0000
# 3 29.8207 9.1752 24.7342 0.0000 0.0000 0.0000
# 4 0.0000 0.0000 0.0000 27.3237 0.0000 0.0000
# 5 0.0000 0.0000 0.0000 0.0000 29.3206 0.0000
# 6 0.0000 0.0000 0.0000 0.0000 0.0000 15.8463
#
#
#
# Elastic Compliance Matrix: (Units=1/GPa)
#
#
# Indices 1 2 3 4 5 6 
#
# 1 0.012092 -0.000868 -0.014257 0.000000 0.000000 0.000000
# 2 -0.000868 0.026856 -0.008916 0.000000 0.000000 0.000000
# 3 -0.014257 -0.008916 0.060926 0.000000 0.000000 0.000000
# 4 0.000000 0.000000 0.000000 0.036598 0.000000 0.000000
# 5 0.000000 0.000000 0.000000 0.000000 0.034106 0.000000
# 6 0.000000 0.000000 0.000000 0.000000 0.000000 0.063106
#
#
# Mechanical properties :
#
#
# Convention : Reuss Voigt Hill
#
# Bulk Modulus (GPa) = 19.30772 32.19749 25.75261
# Shear Modulus (GPa) = 16.72068 23.26909 19.99488
#
# Velocity S-wave (km/s) = 3.06356 3.61401 3.35011
# Velocity P-wave (km/s) = 4.83233 5.95712 5.42396
#
# Compressibility (1/GPa) = 0.05179275
#
# Stress axis : x y z
#
# Youngs Moduli (GPa) = 82.69659 37.23562 16.41331
#
# Poissons Ratio (x) = 0.03233 0.23401
# Poissons Ratio (y) = 0.07179 0.14633
# Poissons Ratio (z) = 1.17901 0.33198
#
# Static dielectric constant tensor:
#      x y z
#    x 1.599900 0.000000 0.000000 
#    y 0.000000 1.588430 0.000000 
#    z 0.000000 0.000000 1.601100 
# 
# From -- ./inp_files/8450.got.cif
#   From: 2010.05.17/outbox.cif.g08.bks.cpg/sg57_5_cif.got.tgz:8450.got - 2010.06.03 13:58:18.
