data_PCOD9437122
_publ_section_title
;
Structure prediction by ZEFSAII (Michael W. Deem and Ramdas Pophale) SiO2 
 PCOD9437122
Probable space group: P B C M
;
_chemical_formula_sum "Si O2"
_cell_formula_units_Z 40
_cell_length_a 26.059226
_cell_length_b 9.833925
_cell_length_c 8.628004
_cell_angle_alpha 90.000000
_cell_angle_beta 90.000000
_cell_angle_gamma 90.000000
_cell_volume 2211.050907
_symmetry_space_group_name_H-M "P B C M"
_symmetry_group_IT_number 57
_symmetry_cell_setting 'orthorhombic'
loop_
_space_group_symop_operation_xyz
x,y,z
-x,-y,1/2+z
x,1/2-y,-z
-x,1/2+y,1/2-z
-x,-y,-z
x,y,1/2-z
-x,1/2+y,z
x,1/2-y,1/2+z
loop_
_atom_site_type_symbol
_atom_site_label
_atom_site_fract_x
_atom_site_fract_y
_atom_site_fract_z
Si Si1 0.957135 0.400343 0.564386
Si Si2 0.543507 0.401319 0.064476
Si Si3 0.840224 0.400948 0.937061
Si Si4 0.251028 0.097554 0.937019
Si Si5 0.344473 0.598952 0.063378
O O1 0.966602 0.250000 0.500000
O O2 0.959177 0.398975 0.750000
O O3 0.898642 0.437421 0.517510
O O4 0.000000 0.500000 0.500000
O O5 0.543252 0.399888 0.250000
O O6 0.534155 0.250000 0.000000
O O7 0.500000 0.500000 0.000000
O O8 0.600083 0.440863 0.003914
O O9 0.838266 0.394118 0.750000
O O10 0.798887 0.512008 0.989158
O O11 0.828654 0.250000 0.000000
O O12 0.249913 0.103772 0.750000
O O13 0.300942 0.009060 0.981102
O O14 0.252092 0.250000 0.000000
O O15 0.347493 0.606173 0.250000
O O16 0.332180 0.750000 0.000000
#
# Coordination Sequence:
#
# PCOD9437122 Si02
#       5
#     8   8   8   8   8
#     4  10  20  35  55  79 109 142 181 224 271 323
#     4  11  22  38  59  84 113 146 184 225 270 321
#     4   9  19  36  56  79 105 139 180 221 264 319
#     4  10  22  37  54  79 110 140 176 220 268 319
#     4  10  20  36  57  81 108 141 181 222 265 320
#
# _framework density 18.090945999999999
#
# number of rings (size 3 to 8) (size 9 to 14) (size 15 to 20)
#    0.000    2.000    0.000    4.800    0.000    4.800 
#    0.000    4.000    0.000    0.000    0.000    0.000 
#    0.000    0.000    0.000    0.000    0.000    0.000 
#
# Total GULP energy -223384.374430 kJ/mol
# GULP energy per Si atom -5584.609361 kJ/mol
# Density = 1.804977 g / cm^3
# Si number density = 18.090946 Si / 1000 Ang^3
#
#
#
# Elastic Constant Matrix: (Units=GPa)
#
#
# Indices 1 2 3 4 5 6 
#
# 1 187.1128 148.8304 59.7138 0.0000 0.0000 0.0000
# 2 148.8304 149.6390 49.2717 0.0000 0.0000 0.0000
# 3 59.7138 49.2717 72.0964 0.0000 0.0000 0.0000
# 4 0.0000 0.0000 0.0000 37.4567 0.0000 0.0000
# 5 0.0000 0.0000 0.0000 0.0000 26.7781 0.0000
# 6 0.0000 0.0000 0.0000 0.0000 0.0000 40.1083
#
#
#
# Elastic Compliance Matrix: (Units=1/GPa)
#
#
# Indices 1 2 3 4 5 6 
#
# 1 0.027002 -0.025152 -0.005175 0.000000 0.000000 0.000000
# 2 -0.025152 0.032052 -0.001073 0.000000 0.000000 0.000000
# 3 -0.005175 -0.001073 0.018890 0.000000 0.000000 0.000000
# 4 0.000000 0.000000 0.000000 0.026698 0.000000 0.000000
# 5 0.000000 0.000000 0.000000 0.000000 0.037344 0.000000
# 6 0.000000 0.000000 0.000000 0.000000 0.000000 0.024933
#
#
# Mechanical properties :
#
#
# Convention : Reuss Voigt Hill
#
# Bulk Modulus (GPa) = 66.03246 102.72002 84.37624
# Shear Modulus (GPa) = 21.29785 30.93742 26.11763
#
# Velocity S-wave (km/s) = 3.43485 4.13983 3.80371
# Velocity P-wave (km/s) = 7.23260 8.93051 8.12602
#
# Compressibility (1/GPa) = 0.01514407
#
# Stress axis : x y z
#
# Youngs Moduli (GPa) = 37.03432 31.19919 52.93899
#
# Poissons Ratio (x) = 0.78472 0.27396
# Poissons Ratio (y) = 0.93149 0.05679
# Poissons Ratio (z) = 0.19166 0.03347
#
# Static dielectric constant tensor:
#      x y z
#    x 1.624940 0.000000 0.000000 
#    y 0.000000 1.592850 0.000000 
#    z 0.000000 0.000000 1.613180 
# 
# From -- ./inp_files/8915.got.cif
#   From: 2010.05.17/outbox.cif.g08.bks.cpg/sg57_5_cif.got.tgz:8915.got - 2010.06.03 13:58:18.
