data_PCOD9437087
_publ_section_title
;
Structure prediction by ZEFSAII (Michael W. Deem and Ramdas Pophale) SiO2 
 PCOD9437087
Probable space group: P B C M
;
_chemical_formula_sum "Si O2"
_cell_formula_units_Z 64
_cell_length_a 27.071492
_cell_length_b 15.079268
_cell_length_c 8.577964
_cell_angle_alpha 90.000000
_cell_angle_beta 90.000000
_cell_angle_gamma 90.000000
_cell_volume 3501.681736
_symmetry_space_group_name_H-M "P B C M"
_symmetry_group_IT_number 57
_symmetry_cell_setting 'orthorhombic'
loop_
_space_group_symop_operation_xyz
x,y,z
-x,-y,1/2+z
x,1/2-y,-z
-x,1/2+y,1/2-z
-x,-y,-z
x,y,1/2-z
-x,1/2+y,z
x,1/2-y,1/2+z
loop_
_atom_site_type_symbol
_atom_site_label
_atom_site_fract_x
_atom_site_fract_y
_atom_site_fract_z
Si Si1 0.498680 0.649227 0.563008
Si Si2 0.055298 0.001093 0.063196
Si Si3 0.237577 0.151362 0.562149
Si Si4 0.311253 0.999296 0.561587
Si Si5 0.873908 0.849206 0.062895
Si Si6 0.870688 0.348698 0.062068
Si Si7 0.240830 0.650980 0.563084
Si Si8 0.424898 0.503450 0.438600
O O1 0.500235 0.750000 0.500000
O O2 0.497639 0.653834 0.750000
O O3 0.452238 0.590544 0.504585
O O4 0.545040 0.585853 0.515975
O O5 0.053867 0.999753 0.250000
O O6 0.087594 0.916727 0.008216
O O7 0.085313 0.086537 0.006743
O O8 0.000000 0.000000 0.000000
O O9 0.245673 0.250000 0.500000
O O10 0.238560 0.153915 0.750000
O O11 0.181970 0.122679 0.515970
O O12 0.279347 0.083736 0.507316
O O13 0.311253 0.999684 0.750000
O O14 0.281865 0.913720 0.504088
O O15 0.368074 0.001097 0.510439
O O16 0.876797 0.849587 0.250000
O O17 0.880643 0.750000 0.000000
O O18 0.871437 0.346302 0.250000
O O19 0.815028 0.376797 0.014774
O O20 0.879126 0.250000 0.000000
O O21 0.247998 0.750000 0.500000
O O22 0.243002 0.651069 0.750000
O O23 0.426669 0.508643 0.250000
#
# Coordination Sequence:
#
# PCOD9437087 Si02
#       8
#     8   8   8   8   8   8   8   8
#     4  10  20  36  58  80 104 138 180 224 268 314
#     4  11  23  38  55  79 108 138 175 221 270 320
#     4   9  19  34  54  80 109 141 177 215 259 314
#     4  10  20  35  54  79 112 144 174 216 264 309
#     4  10  20  36  57  80 106 140 179 218 262 314
#     4   9  20  37  57  79 105 137 175 217 261 312
#     4  10  20  35  55  80 107 139 177 215 259 313
#     4   9  20  37  55  78 108 141 179 220 263 313
#
# _framework density 18.276933
#
# number of rings (size 3 to 8) (size 9 to 14) (size 15 to 20)
#    0.000    2.250    0.000    2.250    0.000    5.000 
#    0.000    1.250    0.000    0.000    0.000    0.000 
#    0.000    0.000    0.000    0.000    0.000    0.000 
#
# Total GULP energy -357223.891856 kJ/mol
# GULP energy per Si atom -5581.623310 kJ/mol
# Density = 1.823533 g / cm^3
# Si number density = 18.276933 Si / 1000 Ang^3
#
#
#
# Elastic Constant Matrix: (Units=GPa)
#
#
# Indices 1 2 3 4 5 6 
#
# 1 203.2642 115.7167 40.6883 0.0000 0.0000 0.0000
# 2 115.7167 138.6193 27.1341 0.0000 0.0000 0.0000
# 3 40.6883 27.1341 24.6327 0.0000 0.0000 0.0000
# 4 0.0000 0.0000 0.0000 29.4069 0.0000 0.0000
# 5 0.0000 0.0000 0.0000 0.0000 30.9007 0.0000
# 6 0.0000 0.0000 0.0000 0.0000 0.0000 136.3841
#
#
#
# Elastic Compliance Matrix: (Units=1/GPa)
#
#
# Indices 1 2 3 4 5 6 
#
# 1 0.011132 -0.007259 -0.010393 0.000000 0.000000 0.000000
# 2 -0.007259 0.013930 -0.003355 0.000000 0.000000 0.000000
# 3 -0.010393 -0.003355 0.061458 0.000000 0.000000 0.000000
# 4 0.000000 0.000000 0.000000 0.034006 0.000000 0.000000
# 5 0.000000 0.000000 0.000000 0.000000 0.032362 0.000000
# 6 0.000000 0.000000 0.000000 0.000000 0.000000 0.007332
#
#
# Mechanical properties :
#
#
# Convention : Reuss Voigt Hill
#
# Bulk Modulus (GPa) = 22.46746 81.51047 51.98897
# Shear Modulus (GPa) = 23.03416 51.53682 37.28549
#
# Velocity S-wave (km/s) = 3.55390 5.31592 4.52157
# Velocity P-wave (km/s) = 5.39998 9.07595 7.46769
#
# Compressibility (1/GPa) = 0.04450881
#
# Stress axis : x y z
#
# Youngs Moduli (GPa) = 89.82764 71.78656 16.27118
#
# Poissons Ratio (x) = 0.52109 0.16910
# Poissons Ratio (y) = 0.65204 0.05458
# Poissons Ratio (z) = 0.93354 0.24082
#
# Static dielectric constant tensor:
#      x y z
#    x 1.625100 0.000000 0.000000 
#    y 0.000000 1.596710 0.000000 
#    z 0.000000 0.000000 1.629880 
# 
# From -- ./inp_files/9305.got.cif
#   From: 2010.05.17/outbox.cif.g08.bks.cpg/sg57_5_cif.got.tgz:9305.got - 2010.06.03 13:58:18.
