data_PCOD9437309
_publ_section_title
;
Structure prediction by ZEFSAII (Michael W. Deem and Ramdas Pophale) SiO2 
 PCOD9437309
Probable space group: P B C M
;
_chemical_formula_sum "Si O2"
_cell_formula_units_Z 64
_cell_length_a 24.430513
_cell_length_b 15.545109
_cell_length_c 8.287709
_cell_angle_alpha 90.000000
_cell_angle_beta 90.000000
_cell_angle_gamma 90.000000
_cell_volume 3147.464582
_symmetry_space_group_name_H-M "P B C M"
_symmetry_group_IT_number 57
_symmetry_cell_setting 'orthorhombic'
loop_
_space_group_symop_operation_xyz
x,y,z
-x,-y,1/2+z
x,1/2-y,-z
-x,1/2+y,1/2-z
-x,-y,-z
x,y,1/2-z
-x,1/2+y,z
x,1/2-y,1/2+z
loop_
_atom_site_type_symbol
_atom_site_label
_atom_site_fract_x
_atom_site_fract_y
_atom_site_fract_z
Si Si1 0.380908 0.403827 0.434892
Si Si2 0.402233 0.916701 0.063970
Si Si3 0.710207 0.343051 0.055185
Si Si4 0.493601 0.339910 0.937644
Si Si5 0.206142 0.989283 0.446595
Si Si6 0.268621 0.161061 0.057188
Si Si7 0.991986 0.850647 0.056639
Si Si8 0.081195 0.507638 0.554553
O O1 0.377837 0.432606 0.250000
O O2 0.381079 0.486177 0.550732
O O3 0.438336 0.357033 0.464712
O O4 0.328182 0.348152 0.476876
O O5 0.413490 0.894398 0.250000
O O6 0.351918 0.860616 0.998100
O O7 0.458689 0.908304 0.968738
O O8 0.707904 0.347813 0.250000
O O9 0.752541 0.415117 0.997575
O O10 0.728492 0.250000 0.000000
O O11 0.479987 0.336483 0.750000
O O12 0.517539 0.250000 0.000000
O O13 0.205590 0.986067 0.250000
O O14 0.143664 0.980729 0.500166
O O15 0.232171 0.080214 0.492744
O O16 0.274974 0.160029 0.250000
O O17 0.243103 0.250000 0.000000
O O18 0.992471 0.847194 0.250000
O O19 0.044338 0.909807 0.003001
O O20 0.990687 0.750000 0.000000
O O21 0.943039 0.915583 0.003121
O O22 0.079717 0.505900 0.750000
#
# Coordination Sequence:
#
# PCOD9437309 Si02
#       8
#     8   8   8   8   8   8   8   8
#     4  12  24  40  61  86 114 149 194 243 299 363
#     4  11  22  40  62  85 115 152 192 241 301 361
#     4  10  21  38  60  86 117 155 195 240 295 354
#     4  12  25  41  59  84 115 149 192 242 298 362
#     4   9  19  39  62  85 119 160 199 245 301 352
#     4  11  22  40  62  86 117 155 197 246 301 361
#     4  10  20  35  58  89 125 163 203 247 298 351
#     4   9  19  37  61  87 119 161 206 251 297 349
#
# _framework density 20.333826999999999
#
# number of rings (size 3 to 8) (size 9 to 14) (size 15 to 20)
#    0.000    1.500    1.250    4.500    0.000    3.500 
#    0.000    3.125    0.000    0.000    0.000    0.000 
#    0.000    0.000    0.000    0.000    0.000    0.000 
#
# Total GULP energy -357451.730001 kJ/mol
# GULP energy per Si atom -5585.183281 kJ/mol
# Density = 2.028755 g / cm^3
# Si number density = 20.333827 Si / 1000 Ang^3
#
#
#
# Elastic Constant Matrix: (Units=GPa)
#
#
# Indices 1 2 3 4 5 6 
#
# 1 101.5460 24.1766 15.3398 0.0000 0.0000 0.0000
# 2 24.1766 117.0551 3.2336 0.0000 0.0000 0.0000
# 3 15.3398 3.2336 40.7772 0.0000 0.0000 0.0000
# 4 0.0000 0.0000 0.0000 26.5686 0.0000 0.0000
# 5 0.0000 0.0000 0.0000 0.0000 11.8896 0.0000
# 6 0.0000 0.0000 0.0000 0.0000 0.0000 37.1348
#
#
#
# Elastic Compliance Matrix: (Units=1/GPa)
#
#
# Indices 1 2 3 4 5 6 
#
# 1 0.010957 -0.002154 -0.003951 0.000000 0.000000 0.000000
# 2 -0.002154 0.008985 0.000098 0.000000 0.000000 0.000000
# 3 -0.003951 0.000098 0.026002 0.000000 0.000000 0.000000
# 4 0.000000 0.000000 0.000000 0.037638 0.000000 0.000000
# 5 0.000000 0.000000 0.000000 0.000000 0.084107 0.000000
# 6 0.000000 0.000000 0.000000 0.000000 0.000000 0.026929
#
#
# Mechanical properties :
#
#
# Convention : Reuss Voigt Hill
#
# Bulk Modulus (GPa) = 29.47254 38.31981 33.89618
# Shear Modulus (GPa) = 22.94170 29.56050 26.25110
#
# Velocity S-wave (km/s) = 3.36259 3.81696 3.59696
# Velocity P-wave (km/s) = 5.44076 6.18965 5.82725
#
# Compressibility (1/GPa) = 0.03392988
#
# Stress axis : x y z
#
# Youngs Moduli (GPa) = 91.26188 111.29447 38.45838
#
# Poissons Ratio (x) = 0.23973 0.15196
# Poissons Ratio (y) = 0.19658 -0.00376
# Poissons Ratio (z) = 0.36060 -0.01088
#
# Static dielectric constant tensor:
#      x y z
#    x 1.713170 0.000000 0.000000 
#    y 0.000000 1.729990 0.000000 
#    z 0.000000 0.000000 1.699760 
# 
# From -- ./inp_files/9350.got.cif
#   From: 2010.05.17/outbox.cif.g08.bks.cpg/sg57_5_cif.got.tgz:9350.got - 2010.06.03 13:58:18.
