data_PCOD9437314
_publ_section_title
;
Structure prediction by ZEFSAII (Michael W. Deem and Ramdas Pophale) SiO2 
 PCOD9437314
Probable space group: P B C M
;
_chemical_formula_sum "Si O2"
_cell_formula_units_Z 64
_cell_length_a 12.113343
_cell_length_b 17.150290
_cell_length_c 16.872153
_cell_angle_alpha 90.000000
_cell_angle_beta 90.000000
_cell_angle_gamma 90.000000
_cell_volume 3505.144996
_symmetry_space_group_name_H-M "P B C M"
_symmetry_group_IT_number 57
_symmetry_cell_setting 'orthorhombic'
loop_
_space_group_symop_operation_xyz
x,y,z
-x,-y,1/2+z
x,1/2-y,-z
-x,1/2+y,1/2-z
-x,-y,-z
x,y,1/2-z
-x,1/2+y,z
x,1/2-y,1/2+z
loop_
_atom_site_type_symbol
_atom_site_label
_atom_site_fract_x
_atom_site_fract_y
_atom_site_fract_z
Si Si1 0.877199 0.028185 0.987363
Si Si2 0.170241 0.444979 0.658655
Si Si3 0.319172 0.062087 0.929586
Si Si4 0.618721 0.402186 0.844578
Si Si5 0.969181 0.709982 0.155505
Si Si6 0.809399 0.311318 0.935086
Si Si7 0.740531 0.784739 0.155855
Si Si8 0.381574 0.361670 0.907577
O O1 0.851116 0.019042 0.895105
O O2 0.794546 0.969353 0.032356
O O3 0.854570 0.113462 0.018656
O O4 0.000000 0.000000 0.000000
O O5 0.156218 0.461234 0.750000
O O6 0.085133 0.374943 0.636821
O O7 0.292441 0.413466 0.640500
O O8 0.294395 0.128302 0.865318
O O9 0.372520 0.985986 0.889188
O O10 0.382452 0.103375 0.003230
O O11 0.628751 0.411841 0.750000
O O12 0.715225 0.345363 0.877270
O O13 0.500810 0.366977 0.868457
O O14 0.987703 0.711987 0.250000
O O15 0.869688 0.769533 0.136476
O O16 0.083848 0.722087 0.110927
O O17 0.766761 0.250000 0.000000
O O18 0.726557 0.767155 0.250000
O O19 0.668818 0.724698 0.103351
#
# Coordination Sequence:
#
# PCOD9437314 Si02
#       8
#     8   8   8   8   8   8   8   8
#     4  10  20  36  54  84 113 148 189 232 293 354
#     4   9  17  33  57  83 110 143 185 236 293 349
#     4  10  22  36  60  90 119 150 198 248 292 349
#     4  11  23  42  61  82 118 161 200 243 297 356
#     4   9  18  33  54  80 112 146 187 234 289 346
#     4  11  24  37  56  78 113 157 197 236 284 356
#     4  10  20  35  58  93 120 148 193 247 302 346
#     4  10  20  37  61  87 117 152 194 242 303 352
#
# _framework density 18.258875
#
# number of rings (size 3 to 8) (size 9 to 14) (size 15 to 20)
#    0.000    2.000    1.250    3.375    1.750    1.000 
#    0.000    1.875    0.000    0.000    0.000    0.000 
#    0.000    0.000    0.000    0.000    0.000    0.000 
#
# Total GULP energy -357062.664765 kJ/mol
# GULP energy per Si atom -5579.104137 kJ/mol
# Density = 1.821732 g / cm^3
# Si number density = 18.258875 Si / 1000 Ang^3
#
#
#
# Elastic Constant Matrix: (Units=GPa)
#
#
# Indices 1 2 3 4 5 6 
#
# 1 79.4069 27.8713 31.3550 0.0000 0.0000 0.0000
# 2 27.8713 60.9795 27.0137 0.0000 0.0000 0.0000
# 3 31.3550 27.0137 84.0648 0.0000 0.0000 0.0000
# 4 0.0000 0.0000 0.0000 27.7260 0.0000 0.0000
# 5 0.0000 0.0000 0.0000 0.0000 23.7971 0.0000
# 6 0.0000 0.0000 0.0000 0.0000 0.0000 6.6669
#
#
#
# Elastic Compliance Matrix: (Units=1/GPa)
#
#
# Indices 1 2 3 4 5 6 
#
# 1 0.016219 -0.005519 -0.004276 0.000000 0.000000 0.000000
# 2 -0.005519 0.020999 -0.004689 0.000000 0.000000 0.000000
# 3 -0.004276 -0.004689 0.014997 0.000000 0.000000 0.000000
# 4 0.000000 0.000000 0.000000 0.036067 0.000000 0.000000
# 5 0.000000 0.000000 0.000000 0.000000 0.042022 0.000000
# 6 0.000000 0.000000 0.000000 0.000000 0.000000 0.149994
#
#
# Mechanical properties :
#
#
# Convention : Reuss Voigt Hill
#
# Bulk Modulus (GPa) = 43.01685 44.10346 43.56016
# Shear Modulus (GPa) = 15.77209 20.85206 18.31208
#
# Velocity S-wave (km/s) = 2.94224 3.38305 3.17032
# Velocity P-wave (km/s) = 5.92899 6.28228 6.10819
#
# Compressibility (1/GPa) = 0.02324670
#
# Stress axis : x y z
#
# Youngs Moduli (GPa) = 61.65658 47.62188 66.67834
#
# Poissons Ratio (x) = 0.26281 0.28512
# Poissons Ratio (y) = 0.34027 0.31268
# Poissons Ratio (z) = 0.26364 0.22332
#
# Static dielectric constant tensor:
#      x y z
#    x 1.613280 0.000000 0.000000 
#    y 0.000000 1.618670 0.000000 
#    z 0.000000 0.000000 1.644130 
# 
# From -- ./inp_files/18000.got.cif
#   From: 2010.05.17/outbox.cif.g08.bks.cpg/sg57_9_cif.got.tgz:18000.got - 2010.06.03 13:58:18.
