data_PCOD9437062
_publ_section_title
;
Structure prediction by ZEFSAII (Michael W. Deem and Ramdas Pophale) SiO2 
 PCOD9437062
Probable space group: P B C M
;
_chemical_formula_sum "Si O2"
_cell_formula_units_Z 48
_cell_length_a 29.886823
_cell_length_b 10.474618
_cell_length_c 8.604052
_cell_angle_alpha 90.000000
_cell_angle_beta 90.000000
_cell_angle_gamma 90.000000
_cell_volume 2693.524757
_symmetry_space_group_name_H-M "P B C M"
_symmetry_group_IT_number 57
_symmetry_cell_setting 'orthorhombic'
loop_
_space_group_symop_operation_xyz
x,y,z
-x,-y,1/2+z
x,1/2-y,-z
-x,1/2+y,1/2-z
-x,-y,-z
x,y,1/2-z
-x,1/2+y,z
x,1/2-y,1/2+z
loop_
_atom_site_type_symbol
_atom_site_label
_atom_site_fract_x
_atom_site_fract_y
_atom_site_fract_z
Si Si1 0.701065 0.388555 0.062812
Si Si2 0.968415 0.888848 0.563801
Si Si3 0.468387 0.389456 0.936335
Si Si4 0.131922 0.387990 0.064048
Si Si5 0.635074 0.888671 0.937518
Si Si6 0.195032 0.890172 0.063051
O O1 0.699395 0.384842 0.250000
O O2 0.668168 0.500112 0.008113
O O3 0.752859 0.411701 0.018738
O O4 0.687769 0.250000 0.000000
O O5 0.982800 0.750000 0.500000
O O6 0.968753 0.887190 0.750000
O O7 0.917835 0.909276 0.503580
O O8 0.000000 0.000000 0.500000
O O9 0.470309 0.387645 0.750000
O O10 0.416561 0.412051 0.984057
O O11 0.481387 0.250000 0.000000
O O12 0.500000 0.500000 0.000000
O O13 0.129672 0.383453 0.250000
O O14 0.147187 0.250000 0.000000
O O15 0.164236 0.500214 0.007859
O O16 0.636365 0.885346 0.750000
O O17 0.648399 0.750000 0.000000
O O18 0.191639 0.891427 0.250000
O O19 0.182432 0.750000 0.000000
#
# Coordination Sequence:
#
# PCOD9437062 Si02
#       6
#     8   8   8   8   8   8
#     4   9  19  35  54  77 106 137 174 216 262 313
#     4  11  22  39  60  85 114 146 183 225 271 320
#     4  10  20  35  54  76 105 138 176 218 265 316
#     4  11  22  38  58  82 111 145 182 223 269 319
#     4   9  19  35  53  76 104 136 173 216 261 313
#     4  10  20  36  56  80 109 142 179 222 267 317
#
# _framework density 17.820516000000001
#
# number of rings (size 3 to 8) (size 9 to 14) (size 15 to 20)
#    0.000    2.000    0.000    5.000    0.000    4.000 
#    0.000    6.667    0.000    0.000    0.000    0.000 
#    0.000    0.000    0.000    0.000    0.000    0.000 
#
# Total GULP energy -268056.458841 kJ/mol
# GULP energy per Si atom -5584.509559 kJ/mol
# Density = 1.777996 g / cm^3
# Si number density = 17.820516 Si / 1000 Ang^3
#
#
#
# Elastic Constant Matrix: (Units=GPa)
#
#
# Indices 1 2 3 4 5 6 
#
# 1 88.8046 123.0050 43.9185 0.0000 0.0000 0.0000
# 2 123.0050 210.7086 65.9813 0.0000 0.0000 0.0000
# 3 43.9185 65.9813 98.8380 0.0000 0.0000 0.0000
# 4 0.0000 0.0000 0.0000 36.9333 0.0000 0.0000
# 5 0.0000 0.0000 0.0000 0.0000 21.1208 0.0000
# 6 0.0000 0.0000 0.0000 0.0000 0.0000 45.0223
#
#
#
# Elastic Compliance Matrix: (Units=1/GPa)
#
#
# Indices 1 2 3 4 5 6 
#
# 1 0.060150 -0.033813 -0.004155 0.000000 0.000000 0.000000
# 2 -0.033813 0.025008 -0.001670 0.000000 0.000000 0.000000
# 3 -0.004155 -0.001670 0.013079 0.000000 0.000000 0.000000
# 4 0.000000 0.000000 0.000000 0.027076 0.000000 0.000000
# 5 0.000000 0.000000 0.000000 0.000000 0.047347 0.000000
# 6 0.000000 0.000000 0.000000 0.000000 0.000000 0.022211
#
#
# Mechanical properties :
#
#
# Convention : Reuss Voigt Hill
#
# Bulk Modulus (GPa) = 52.73965 96.01786 74.37875
# Shear Modulus (GPa) = 17.82747 31.64504 24.73626
#
# Velocity S-wave (km/s) = 3.16633 4.21855 3.72973
# Velocity P-wave (km/s) = 6.55947 8.81622 7.77021
#
# Compressibility (1/GPa) = 0.01896107
#
# Stress axis : x y z
#
# Youngs Moduli (GPa) = 16.62500 39.98799 76.46064
#
# Poissons Ratio (x) = 1.35210 0.31772
# Poissons Ratio (y) = 0.56214 0.12766
# Poissons Ratio (z) = 0.06908 0.06677
#
# Static dielectric constant tensor:
#      x y z
#    x 1.598770 0.000000 0.000000 
#    y 0.000000 1.576960 0.000000 
#    z 0.000000 0.000000 1.601160 
# 
# From -- ./inp_files/9909.got.cif
#   From: 2010.05.17/outbox.cif.g08.bks.cpg/sg57_5_cif.got.tgz:9909.got - 2010.06.03 13:58:18.
