data_PCOD9437754
_publ_section_title
;
Structure prediction by ZEFSAII (Michael W. Deem and Ramdas Pophale) SiO2 
 PCOD9437754
Probable space group: P B C M
;
_chemical_formula_sum "Si O2"
_cell_formula_units_Z 64
_cell_length_a 22.311510
_cell_length_b 18.142786
_cell_length_c 8.550464
_cell_angle_alpha 90.000000
_cell_angle_beta 90.000000
_cell_angle_gamma 90.000000
_cell_volume 3461.167557
_symmetry_space_group_name_H-M "P B C M"
_symmetry_group_IT_number 57
_symmetry_cell_setting 'orthorhombic'
loop_
_space_group_symop_operation_xyz
x,y,z
-x,-y,1/2+z
x,1/2-y,-z
-x,1/2+y,1/2-z
-x,-y,-z
x,y,1/2-z
-x,1/2+y,z
x,1/2-y,1/2+z
loop_
_atom_site_type_symbol
_atom_site_label
_atom_site_fract_x
_atom_site_fract_y
_atom_site_fract_z
Si Si1 0.610254 0.428365 0.062004
Si Si2 0.064515 0.477594 0.062525
Si Si3 0.721341 0.332831 0.561673
Si Si4 0.241797 0.109337 0.938576
Si Si5 0.814235 0.451633 0.560908
Si Si6 0.121196 0.171252 0.064715
Si Si7 0.497409 0.331017 0.061451
Si Si8 0.375494 0.405880 0.060794
O O1 0.612785 0.430250 0.250000
O O2 0.547725 0.390117 0.013712
O O3 0.663954 0.377888 0.998493
O O4 0.616173 0.510749 0.997444
O O5 0.063865 0.479211 0.250000
O O6 0.118276 0.531822 0.006526
O O7 0.084287 0.396346 0.008427
O O8 0.000000 0.500000 0.000000
O O9 0.720981 0.250000 0.500000
O O10 0.720113 0.332205 0.750000
O O11 0.779853 0.378918 0.507195
O O12 0.236940 0.117241 0.750000
O O13 0.310020 0.123224 0.988007
O O14 0.224958 0.024301 0.977236
O O15 0.190500 0.158039 0.016474
O O16 0.816216 0.448326 0.750000
O O17 0.115585 0.169134 0.250000
O O18 0.101389 0.250000 0.000000
O O19 0.497179 0.328720 0.250000
O O20 0.431691 0.357150 0.007674
O O21 0.512071 0.250000 0.000000
O O22 0.375404 0.407573 0.250000
#
# Coordination Sequence:
#
# PCOD9437754 Si02
#       8
#     8   8   8   8   8   8   8   8
#     4  11  22  36  55  82 109 142 189 237 281 341
#     4  10  20  38  62  89 118 156 200 238 280 336
#     4  11  21  36  56  82 111 147 185 231 287 337
#     4   9  17  34  57  81 108 144 184 227 284 344
#     4   8  16  33  56  78 108 146 183 222 272 330
#     4  11  22  37  58  87 120 156 194 239 288 337
#     4  10  23  39  54  75 107 145 187 234 289 343
#     4  10  20  37  59  81 108 145 184 231 288 346
#
# _framework density 18.490869
#
# number of rings (size 3 to 8) (size 9 to 14) (size 15 to 20)
#    0.000    2.000    1.250    3.750    0.000    3.500 
#    0.000    3.750    0.000    1.500    0.000    0.000 
#    0.000    0.000    0.000    0.000    0.000    0.000 
#
# Total GULP energy -357345.693651 kJ/mol
# GULP energy per Si atom -5583.526463 kJ/mol
# Density = 1.844878 g / cm^3
# Si number density = 18.490869 Si / 1000 Ang^3
#
#
#
# Elastic Constant Matrix: (Units=GPa)
#
#
# Indices 1 2 3 4 5 6 
#
# 1 123.1002 12.8881 20.4286 0.0000 0.0000 0.0000
# 2 12.8881 44.7048 2.6968 0.0000 0.0000 0.0000
# 3 20.4286 2.6968 34.5138 0.0000 0.0000 0.0000
# 4 0.0000 0.0000 0.0000 29.1400 0.0000 0.0000
# 5 0.0000 0.0000 0.0000 0.0000 25.8298 0.0000
# 6 0.0000 0.0000 0.0000 0.0000 0.0000 18.0773
#
#
#
# Elastic Compliance Matrix: (Units=1/GPa)
#
#
# Indices 1 2 3 4 5 6 
#
# 1 0.009247 -0.002347 -0.005290 0.000000 0.000000 0.000000
# 2 -0.002347 0.023070 -0.000414 0.000000 0.000000 0.000000
# 3 -0.005290 -0.000414 0.032137 0.000000 0.000000 0.000000
# 4 0.000000 0.000000 0.000000 0.034317 0.000000 0.000000
# 5 0.000000 0.000000 0.000000 0.000000 0.038715 0.000000
# 6 0.000000 0.000000 0.000000 0.000000 0.000000 0.055318
#
#
# Mechanical properties :
#
#
# Convention : Reuss Voigt Hill
#
# Bulk Modulus (GPa) = 20.68073 30.48288 25.58181
# Shear Modulus (GPa) = 22.21989 25.69642 23.95815
#
# Velocity S-wave (km/s) = 3.47027 3.73189 3.60345
# Velocity P-wave (km/s) = 5.22165 5.92372 5.58373
#
# Compressibility (1/GPa) = 0.04835419
#
# Stress axis : x y z
#
# Youngs Moduli (GPa) = 108.14285 43.34549 31.11646
#
# Poissons Ratio (x) = 0.10172 0.16460
# Poissons Ratio (y) = 0.25378 0.01287
# Poissons Ratio (z) = 0.57207 0.01793
#
# Static dielectric constant tensor:
#      x y z
#    x 1.645870 0.000000 0.000000 
#    y 0.000000 1.605620 0.000000 
#    z 0.000000 0.000000 1.627330 
# 
# From -- ./inp_files/8581.got.cif
#   From: 2010.05.17/outbox.cif.g08.bks.cpg/sg57_5_cif.got.tgz:8581.got - 2010.06.03 13:58:18.
