data_PCOD9437126
_publ_section_title
;
Structure prediction by ZEFSAII (Michael W. Deem and Ramdas Pophale) SiO2 
 PCOD9437126
Probable space group: P B C M
;
_chemical_formula_sum "Si O2"
_cell_formula_units_Z 40
_cell_length_a 26.516386
_cell_length_b 9.273102
_cell_length_c 8.601582
_cell_angle_alpha 90.000000
_cell_angle_beta 90.000000
_cell_angle_gamma 90.000000
_cell_volume 2115.035704
_symmetry_space_group_name_H-M "P B C M"
_symmetry_group_IT_number 57
_symmetry_cell_setting 'orthorhombic'
loop_
_space_group_symop_operation_xyz
x,y,z
-x,-y,1/2+z
x,1/2-y,-z
-x,1/2+y,1/2-z
-x,-y,-z
x,y,1/2-z
-x,1/2+y,z
x,1/2-y,1/2+z
loop_
_atom_site_type_symbol
_atom_site_label
_atom_site_fract_x
_atom_site_fract_y
_atom_site_fract_z
Si Si1 0.546778 0.911398 0.936077
Si Si2 0.659049 0.912407 0.562210
Si Si3 0.143788 0.087435 0.437245
Si Si4 0.951962 0.087163 0.436241
Si Si5 0.243715 0.588961 0.562519
O O1 0.544654 0.910250 0.750000
O O2 0.602878 0.964826 0.983038
O O3 0.543065 0.750000 0.000000
O O4 0.500000 0.000000 0.000000
O O5 0.665773 0.750000 0.500000
O O6 0.660667 0.905990 0.750000
O O7 0.704270 0.014762 0.508545
O O8 0.142041 0.250000 0.500000
O O9 0.140122 0.089373 0.250000
O O10 0.097891 0.994929 0.505578
O O11 0.196248 0.010318 0.482104
O O12 0.952575 0.250000 0.500000
O O13 0.953255 0.089825 0.250000
O O14 0.000000 0.000000 0.500000
O O15 0.238170 0.750000 0.500000
O O16 0.244693 0.594965 0.750000
#
# Coordination Sequence:
#
# PCOD9437126 Si02
#       5
#     8   8   8   8   8
#     4  10  20  35  55  79 110 145 186 232 283 338
#     4   9  19  36  56  80 108 143 185 230 278 335
#     4  11  23  40  62  89 119 154 194 237 286 341
#     4  12  25  43  65  91 123 158 197 241 288 339
#     4  10  22  38  57  83 115 148 187 232 282 337
#
# _framework density 18.912210999999999
#
# number of rings (size 3 to 8) (size 9 to 14) (size 15 to 20)
#    0.000    1.600    0.000    4.800    0.000    5.600 
#    0.000    2.000    0.000    0.000    0.000    0.000 
#    0.000    0.000    0.000    0.000    0.000    0.000 
#
# Total GULP energy -223557.316005 kJ/mol
# GULP energy per Si atom -5588.932900 kJ/mol
# Density = 1.886917 g / cm^3
# Si number density = 18.912211 Si / 1000 Ang^3
#
#
#
# Elastic Constant Matrix: (Units=GPa)
#
#
# Indices 1 2 3 4 5 6 
#
# 1 210.9931 119.9123 66.1000 0.0000 0.0000 0.0000
# 2 119.9123 165.5810 51.3881 0.0000 0.0000 0.0000
# 3 66.1000 51.3881 76.5042 0.0000 0.0000 0.0000
# 4 0.0000 0.0000 0.0000 39.2095 0.0000 0.0000
# 5 0.0000 0.0000 0.0000 0.0000 27.1828 0.0000
# 6 0.0000 0.0000 0.0000 0.0000 0.0000 43.1895
#
#
#
# Elastic Compliance Matrix: (Units=1/GPa)
#
#
# Indices 1 2 3 4 5 6 
#
# 1 0.009060 -0.005220 -0.004322 0.000000 0.000000 0.000000
# 2 -0.005220 0.010637 -0.002635 0.000000 0.000000 0.000000
# 3 -0.004322 -0.002635 0.018575 0.000000 0.000000 0.000000
# 4 0.000000 0.000000 0.000000 0.025504 0.000000 0.000000
# 5 0.000000 0.000000 0.000000 0.000000 0.036788 0.000000
# 6 0.000000 0.000000 0.000000 0.000000 0.000000 0.023154
#
#
# Mechanical properties :
#
#
# Convention : Reuss Voigt Hill
#
# Bulk Modulus (GPa) = 71.84364 103.09767 87.47066
# Shear Modulus (GPa) = 32.74153 36.29490 34.51822
#
# Velocity S-wave (km/s) = 4.16533 4.38553 4.27685
# Velocity P-wave (km/s) = 7.82328 8.95969 8.41070
#
# Compressibility (1/GPa) = 0.01391912
#
# Stress axis : x y z
#
# Youngs Moduli (GPa) = 110.37547 94.00810 53.83558
#
# Poissons Ratio (x) = 0.49072 0.23266
# Poissons Ratio (y) = 0.57615 0.14186
# Poissons Ratio (z) = 0.47700 0.24772
#
# Static dielectric constant tensor:
#      x y z
#    x 1.664310 0.000000 0.000000 
#    y 0.000000 1.602820 0.000000 
#    z 0.000000 0.000000 1.642280 
# 
# From -- ./inp_files/8860.got.cif
#   From: 2010.05.17/outbox.cif.g08.bks.cpg/sg57_5_cif.got.tgz:8860.got - 2010.06.03 13:58:18.
