data_PCOD9437802
_publ_section_title
;
Structure prediction by ZEFSAII (Michael W. Deem and Ramdas Pophale) SiO2 
 PCOD9437802
Probable space group: P B C M
;
_chemical_formula_sum "Si O2"
_cell_formula_units_Z 48
_cell_length_a 31.387116
_cell_length_b 9.300827
_cell_length_c 8.654857
_cell_angle_alpha 90.000000
_cell_angle_beta 90.000000
_cell_angle_gamma 90.000000
_cell_volume 2526.578961
_symmetry_space_group_name_H-M "P B C M"
_symmetry_group_IT_number 57
_symmetry_cell_setting 'orthorhombic'
loop_
_space_group_symop_operation_xyz
x,y,z
-x,-y,1/2+z
x,1/2-y,-z
-x,1/2+y,1/2-z
-x,-y,-z
x,y,1/2-z
-x,1/2+y,z
x,1/2-y,1/2+z
loop_
_atom_site_type_symbol
_atom_site_label
_atom_site_fract_x
_atom_site_fract_y
_atom_site_fract_z
Si Si1 0.782225 0.090020 0.435531
Si Si2 0.120931 0.908611 0.935984
Si Si3 0.039510 0.409760 0.435824
Si Si4 0.704884 0.909361 0.934762
Si Si5 0.379652 0.911675 0.064126
Si Si6 0.459727 0.412097 0.064692
O O1 0.773522 0.250000 0.500000
O O2 0.779982 0.093898 0.250000
O O3 0.830796 0.051501 0.482448
O O4 0.747748 0.979780 0.499428
O O5 0.120334 0.901784 0.750000
O O6 0.083962 0.016549 0.985591
O O7 0.111973 0.750000 0.000000
O O8 0.037049 0.250000 0.500000
O O9 0.037886 0.408696 0.250000
O O10 0.000000 0.500000 0.500000
O O11 0.707571 0.902179 0.750000
O O12 0.665009 0.011534 0.975345
O O13 0.698290 0.750000 0.000000
O O14 0.384083 0.908910 0.250000
O O15 0.380863 0.750000 0.000000
O O16 0.417615 0.005365 0.992331
O O17 0.461164 0.408557 0.250000
O O18 0.460187 0.250000 0.000000
O O19 0.500000 0.500000 0.000000
#
# Coordination Sequence:
#
# PCOD9437802 Si02
#       6
#     8   8   8   8   8   8
#     4  10  20  37  60  86 117 153 194 238 287 344
#     4   9  20  37  58  84 114 149 189 235 286 342
#     4  11  23  39  58  83 114 149 190 235 287 343
#     4  11  24  40  60  87 120 157 197 244 296 349
#     4  11  24  42  64  91 122 158 200 245 296 351
#     4  12  25  43  66  93 126 162 202 247 297 351
#
# _framework density 18.99802
#
# number of rings (size 3 to 8) (size 9 to 14) (size 15 to 20)
#    0.000    1.333    0.000    5.500    0.000    9.333 
#    0.000    1.667    0.000    0.000    0.000    0.000 
#    0.000    0.000    0.000    0.000    0.000    0.000 
#
# Total GULP energy -268467.530962 kJ/mol
# GULP energy per Si atom -5593.073562 kJ/mol
# Density = 1.895478 g / cm^3
# Si number density = 18.998020 Si / 1000 Ang^3
#
#
#
# Elastic Constant Matrix: (Units=GPa)
#
#
# Indices 1 2 3 4 5 6 
#
# 1 151.2326 119.4245 63.6193 0.0000 0.0000 0.0000
# 2 119.4245 191.6953 65.6946 0.0000 0.0000 0.0000
# 3 63.6193 65.6946 82.0951 0.0000 0.0000 0.0000
# 4 0.0000 0.0000 0.0000 40.1648 0.0000 0.0000
# 5 0.0000 0.0000 0.0000 0.0000 29.5339 0.0000
# 6 0.0000 0.0000 0.0000 0.0000 0.0000 42.6571
#
#
#
# Elastic Compliance Matrix: (Units=1/GPa)
#
#
# Indices 1 2 3 4 5 6 
#
# 1 0.014665 -0.007222 -0.005585 0.000000 0.000000 0.000000
# 2 -0.007222 0.010744 -0.003001 0.000000 0.000000 0.000000
# 3 -0.005585 -0.003001 0.018911 0.000000 0.000000 0.000000
# 4 0.000000 0.000000 0.000000 0.024897 0.000000 0.000000
# 5 0.000000 0.000000 0.000000 0.000000 0.033859 0.000000
# 6 0.000000 0.000000 0.000000 0.000000 0.000000 0.023443
#
#
# Mechanical properties :
#
#
# Convention : Reuss Voigt Hill
#
# Bulk Modulus (GPa) = 78.72053 102.50000 90.61026
# Shear Modulus (GPa) = 30.79355 34.22346 32.50851
#
# Velocity S-wave (km/s) = 4.03039 4.24892 4.14110
# Velocity P-wave (km/s) = 7.94889 8.83975 8.40613
#
# Compressibility (1/GPa) = 0.01270317
#
# Stress axis : x y z
#
# Youngs Moduli (GPa) = 68.18965 93.07148 52.87925
#
# Poissons Ratio (x) = 0.67217 0.29535
# Poissons Ratio (y) = 0.49247 0.15870
# Poissons Ratio (z) = 0.38086 0.27933
#
# Static dielectric constant tensor:
#      x y z
#    x 1.653940 0.000000 0.000000 
#    y 0.000000 1.608520 0.000000 
#    z 0.000000 0.000000 1.640590 
# 
# From -- ./inp_files/9990.got.cif
#   From: 2010.05.17/outbox.cif.g08.bks.cpg/sg57_5_cif.got.tgz:9990.got - 2010.06.03 13:58:18.
