data_PCOD9437999
_publ_section_title
;
Structure prediction by ZEFSAII (Michael W. Deem and Ramdas Pophale) SiO2 
 PCOD9437999
Probable space group: P B C M
;
_chemical_formula_sum "Si O2"
_cell_formula_units_Z 40
_cell_length_a 12.893358
_cell_length_b 19.159846
_cell_length_c 8.468814
_cell_angle_alpha 90.000000
_cell_angle_beta 90.000000
_cell_angle_gamma 90.000000
_cell_volume 2092.091381
_symmetry_space_group_name_H-M "P B C M"
_symmetry_group_IT_number 57
_symmetry_cell_setting 'orthorhombic'
loop_
_space_group_symop_operation_xyz
x,y,z
-x,-y,1/2+z
x,1/2-y,-z
-x,1/2+y,1/2-z
-x,-y,-z
x,y,1/2-z
-x,1/2+y,z
x,1/2-y,1/2+z
loop_
_atom_site_type_symbol
_atom_site_label
_atom_site_fract_x
_atom_site_fract_y
_atom_site_fract_z
Si Si1 0.031741 0.671208 0.560860
Si Si2 0.786459 0.070438 0.557422
Si Si3 0.833445 0.586806 0.060607
Si Si4 0.634778 0.671368 0.560432
Si Si5 0.549217 0.427874 0.440710
O O1 0.026542 0.750000 0.500000
O O2 0.032431 0.672801 0.750000
O O3 0.134996 0.630612 0.505061
O O4 0.932492 0.627023 0.506100
O O5 0.785688 0.070937 0.750000
O O6 0.667757 0.079729 0.504243
O O7 0.826965 0.993959 0.508541
O O8 0.837965 0.588125 0.250000
O O9 0.729650 0.626012 0.005753
O O10 0.641583 0.750000 0.500000
O O11 0.640551 0.671000 0.750000
O O12 0.527273 0.634510 0.510916
O O13 0.500000 0.500000 0.500000
O O14 0.550741 0.430051 0.250000
#
# Coordination Sequence:
#
# PCOD9437999 Si02
#       5
#     8   8   8   8   8
#     4  11  23  40  59  84 119 155 194 240 292 349
#     4   9  20  38  62  87 116 152 191 241 293 346
#     4  11  21  38  63  87 115 152 195 244 296 347
#     4  11  23  37  58  88 121 156 195 240 290 347
#     4  10  20  38  61  87 117 152 192 238 290 343
#
# _framework density 19.119623000000001
#
# number of rings (size 3 to 8) (size 9 to 14) (size 15 to 20)
#    0.000    1.600    2.000    3.000    0.000    1.600 
#    0.000    5.000    0.000    0.000    0.000    0.000 
#    0.000    0.000    0.000    0.000    0.000    0.000 
#
# Total GULP energy -223546.891013 kJ/mol
# GULP energy per Si atom -5588.672275 kJ/mol
# Density = 1.907611 g / cm^3
# Si number density = 19.119623 Si / 1000 Ang^3
#
#
#
# Elastic Constant Matrix: (Units=GPa)
#
#
# Indices 1 2 3 4 5 6 
#
# 1 161.0727 35.6740 20.0616 0.0000 0.0000 0.0000
# 2 35.6740 27.0746 8.3401 0.0000 0.0000 0.0000
# 3 20.0616 8.3401 34.3284 0.0000 0.0000 0.0000
# 4 0.0000 0.0000 0.0000 9.4830 0.0000 0.0000
# 5 0.0000 0.0000 0.0000 0.0000 5.6440 0.0000
# 6 0.0000 0.0000 0.0000 0.0000 0.0000 28.2442
#
#
#
# Elastic Compliance Matrix: (Units=1/GPa)
#
#
# Indices 1 2 3 4 5 6 
#
# 1 0.008971 -0.011030 -0.002563 0.000000 0.000000 0.000000
# 2 -0.011030 0.053486 -0.006548 0.000000 0.000000 0.000000
# 3 -0.002563 -0.006548 0.032219 0.000000 0.000000 0.000000
# 4 0.000000 0.000000 0.000000 0.105452 0.000000 0.000000
# 5 0.000000 0.000000 0.000000 0.000000 0.177180 0.000000
# 6 0.000000 0.000000 0.000000 0.000000 0.000000 0.035406
#
#
# Mechanical properties :
#
#
# Convention : Reuss Voigt Hill
#
# Bulk Modulus (GPa) = 18.38476 38.95858 28.67167
# Shear Modulus (GPa) = 10.61287 19.23423 14.92355
#
# Velocity S-wave (km/s) = 2.35856 3.17518 2.79684
# Velocity P-wave (km/s) = 4.12960 5.81918 5.04562
#
# Compressibility (1/GPa) = 0.05439287
#
# Stress axis : x y z
#
# Youngs Moduli (GPa) = 111.47629 18.69650 31.03769
#
# Poissons Ratio (x) = 0.20623 0.07954
# Poissons Ratio (y) = 1.22962 0.20325
# Poissons Ratio (z) = 0.28566 0.12243
#
# Static dielectric constant tensor:
#      x y z
#    x 1.654460 0.000000 0.000000 
#    y 0.000000 1.628670 0.000000 
#    z 0.000000 0.000000 1.655440 
# 
# From -- ./inp_files/2628.got.cif
#   From: 2010.05.17/outbox.cif.g08.bks.cpg/sg57_2_cif.got.tgz:2628.got - 2010.06.03 13:58:18.
