data_PCOD9437465
_publ_section_title
;
Structure prediction by ZEFSAII (Michael W. Deem and Ramdas Pophale) SiO2 
 PCOD9437465
Probable space group: P B C M
;
_chemical_formula_sum "Si O2"
_cell_formula_units_Z 48
_cell_length_a 10.310860
_cell_length_b 29.639913
_cell_length_c 7.548095
_cell_angle_alpha 90.000000
_cell_angle_beta 90.000000
_cell_angle_gamma 90.000000
_cell_volume 2306.795907
_symmetry_space_group_name_H-M "P B C M"
_symmetry_group_IT_number 57
_symmetry_cell_setting 'orthorhombic'
loop_
_space_group_symop_operation_xyz
x,y,z
-x,-y,1/2+z
x,1/2-y,-z
-x,1/2+y,1/2-z
-x,-y,-z
x,y,1/2-z
-x,1/2+y,z
x,1/2-y,1/2+z
loop_
_atom_site_type_symbol
_atom_site_label
_atom_site_fract_x
_atom_site_fract_y
_atom_site_fract_z
Si Si1 0.225036 0.697883 0.537299
Si Si2 0.359122 0.480199 0.037873
Si Si3 0.714468 0.879668 0.467740
Si Si4 0.482527 0.302309 0.462463
Si Si5 0.007336 0.632016 0.954405
Si Si6 0.113284 0.535517 0.461203
O O1 0.197113 0.750000 0.500000
O O2 0.230147 0.691288 0.750000
O O3 0.371106 0.688658 0.469830
O O4 0.110672 0.666608 0.464939
O O5 0.343556 0.478341 0.250000
O O6 0.335641 0.429002 0.974265
O O7 0.246940 0.513775 0.971563
O O8 0.500000 0.500000 0.000000
O O9 0.715072 0.880202 0.250000
O O10 0.620493 0.839185 0.526050
O O11 0.862294 0.871911 0.529150
O O12 0.449568 0.250000 0.500000
O O13 0.486426 0.306491 0.250000
O O14 0.988646 0.646027 0.750000
O O15 0.073150 0.583052 0.958472
O O16 0.122568 0.542016 0.250000
O O17 0.000000 0.500000 0.500000
#
# Coordination Sequence:
#
# PCOD9437465 Si02
#       6
#     8   8   8   8   8   8
#     4   9  19  34  55  79 105 140 179 221 271 326
#     4  10  22  38  56  81 111 145 183 226 272 323
#     4   9  18  35  55  76 107 141 177 219 265 321
#     4   9  18  34  54  76 103 139 178 219 269 321
#     4  10  20  36  57  81 109 145 183 224 276 329
#     4  11  22  38  58  82 113 148 185 227 275 328
#
# _framework density 20.808081999999999
#
# number of rings (size 3 to 8) (size 9 to 14) (size 15 to 20)
#    0.000    2.333    1.667    0.500    2.333    2.667 
#    0.000    1.667    0.000    0.000    0.000    0.000 
#    0.000    0.000    0.000    0.000    0.000    0.000 
#
# Total GULP energy -267985.191073 kJ/mol
# GULP energy per Si atom -5583.024814 kJ/mol
# Density = 2.076072 g / cm^3
# Si number density = 20.808082 Si / 1000 Ang^3
#
#
#
# Elastic Constant Matrix: (Units=GPa)
#
#
# Indices 1 2 3 4 5 6 
#
# 1 223.0049 142.4280 -2.2204 0.0000 0.0000 0.0000
# 2 142.4280 158.4981 -7.9218 0.0000 0.0000 0.0000
# 3 -2.2204 -7.9218 51.6715 0.0000 0.0000 0.0000
# 4 0.0000 0.0000 0.0000 23.6262 0.0000 0.0000
# 5 0.0000 0.0000 0.0000 0.0000 13.6693 0.0000
# 6 0.0000 0.0000 0.0000 0.0000 0.0000 40.4952
#
#
#
# Elastic Compliance Matrix: (Units=1/GPa)
#
#
# Indices 1 2 3 4 5 6 
#
# 1 0.010576 -0.009555 -0.001010 0.000000 0.000000 0.000000
# 2 -0.009555 0.014989 0.001887 0.000000 0.000000 0.000000
# 3 -0.001010 0.001887 0.019599 0.000000 0.000000 0.000000
# 4 0.000000 0.000000 0.000000 0.042326 0.000000 0.000000
# 5 0.000000 0.000000 0.000000 0.000000 0.073157 0.000000
# 6 0.000000 0.000000 0.000000 0.000000 0.000000 0.024694
#
#
# Mechanical properties :
#
#
# Convention : Reuss Voigt Hill
#
# Bulk Modulus (GPa) = 35.95843 77.52735 56.74289
# Shear Modulus (GPa) = 23.58860 35.61737 29.60299
#
# Velocity S-wave (km/s) = 3.37059 4.14177 3.77592
# Velocity P-wave (km/s) = 5.69792 7.75961 6.80727
#
# Compressibility (1/GPa) = 0.02780989
#
# Stress axis : x y z
#
# Youngs Moduli (GPa) = 94.54965 66.71366 51.02309
#
# Poissons Ratio (x) = 0.63742 0.05155
# Poissons Ratio (y) = 0.90339 -0.09630
# Poissons Ratio (z) = 0.09553 -0.12592
#
# Static dielectric constant tensor:
#      x y z
#    x 1.738650 0.000000 0.000000 
#    y 0.000000 1.711180 0.000000 
#    z 0.000000 0.000000 1.813320 
# 
# From -- ./inp_files/2012.got.cif
#   From: 2010.05.17/outbox.cif.g08.bks.cpg/sg57_2_cif.got.tgz:2012.got - 2010.06.03 13:58:18.
