data_PCOD9437045
_publ_section_title
;
Structure prediction by ZEFSAII (Michael W. Deem and Ramdas Pophale) SiO2 
 PCOD9437045
Probable space group: P B C M
;
_chemical_formula_sum "Si O2"
_cell_formula_units_Z 56
_cell_length_a 15.159878
_cell_length_b 23.394291
_cell_length_c 8.692964
_cell_angle_alpha 90.000000
_cell_angle_beta 90.000000
_cell_angle_gamma 90.000000
_cell_volume 3082.999648
_symmetry_space_group_name_H-M "P B C M"
_symmetry_group_IT_number 57
_symmetry_cell_setting 'orthorhombic'
loop_
_space_group_symop_operation_xyz
x,y,z
-x,-y,1/2+z
x,1/2-y,-z
-x,1/2+y,1/2-z
-x,-y,-z
x,y,1/2-z
-x,1/2+y,z
x,1/2-y,1/2+z
loop_
_atom_site_type_symbol
_atom_site_label
_atom_site_fract_x
_atom_site_fract_y
_atom_site_fract_z
Si Si1 0.491755 0.119302 0.065819
Si Si2 0.256848 0.920371 0.933308
Si Si3 0.329260 0.188276 0.930014
Si Si4 0.781039 0.901612 0.574974
Si Si5 0.339374 0.814186 0.066942
Si Si6 0.613247 0.988200 0.572494
Si Si7 0.097746 0.494315 0.065232
O O1 0.497720 0.883693 0.750000
O O2 0.408635 0.158269 0.021407
O O3 0.573213 0.152899 0.992588
O O4 0.464940 0.054475 0.012900
O O5 0.260018 0.913664 0.750000
O O6 0.167607 0.954882 0.974665
O O7 0.264140 0.858566 0.011967
O O8 0.342136 0.959260 0.981365
O O9 0.350190 0.190013 0.750000
O O10 0.316342 0.250000 0.000000
O O11 0.244480 0.149758 0.964005
O O12 0.795394 0.882310 0.750000
O O13 0.696588 0.944155 0.577084
O O14 0.860701 0.937957 0.509347
O O15 0.341482 0.810487 0.250000
O O16 0.333684 0.750000 0.000000
O O17 0.594603 0.005009 0.750000
O O18 0.096565 0.490586 0.250000
O O19 0.000000 0.500000 0.000000
#
# Coordination Sequence:
#
# PCOD9437045 Si02
#       7
#     8   8   8   8   8   8   8
#     4  10  20  35  53  76 107 143 187 233 273 315
#     4  10  21  37  57  82 111 142 179 221 269 326
#     4  11  20  31  48  72 104 143 185 223 264 313
#     4   9  17  31  50  75 107 139 173 214 260 311
#     4  12  25  40  57  76 104 144 189 233 274 318
#     4   8  16  31  52  77 106 140 176 219 270 317
#     4  10  20  35  59  88 113 137 167 209 263 324
#
# _framework density 18.164128000000002
#
# number of rings (size 3 to 8) (size 9 to 14) (size 15 to 20)
#    0.000    2.000    0.000    5.571    0.000    6.286 
#    0.000    0.000    0.000    0.857    0.000    2.000 
#    0.000    0.000    0.000    0.000    0.000    0.000 
#
# Total GULP energy -312516.101954 kJ/mol
# GULP energy per Si atom -5580.644678 kJ/mol
# Density = 1.812279 g / cm^3
# Si number density = 18.164128 Si / 1000 Ang^3
#
#
#
# Elastic Constant Matrix: (Units=GPa)
#
#
# Indices 1 2 3 4 5 6 
#
# 1 82.2712 30.4933 14.9939 0.0000 0.0000 0.0000
# 2 30.4933 132.7932 44.8975 0.0000 0.0000 0.0000
# 3 14.9939 44.8975 87.0307 0.0000 0.0000 0.0000
# 4 0.0000 0.0000 0.0000 32.5917 0.0000 0.0000
# 5 0.0000 0.0000 0.0000 0.0000 27.8979 0.0000
# 6 0.0000 0.0000 0.0000 0.0000 0.0000 20.4190
#
#
#
# Elastic Compliance Matrix: (Units=1/GPa)
#
#
# Indices 1 2 3 4 5 6 
#
# 1 0.013340 -0.002769 -0.000870 0.000000 0.000000 0.000000
# 2 -0.002769 0.009696 -0.004525 0.000000 0.000000 0.000000
# 3 -0.000870 -0.004525 0.013974 0.000000 0.000000 0.000000
# 4 0.000000 0.000000 0.000000 0.030683 0.000000 0.000000
# 5 0.000000 0.000000 0.000000 0.000000 0.035845 0.000000
# 6 0.000000 0.000000 0.000000 0.000000 0.000000 0.048974
#
#
# Mechanical properties :
#
#
# Convention : Reuss Voigt Hill
#
# Bulk Modulus (GPa) = 48.34952 53.65163 51.00058
# Shear Modulus (GPa) = 28.45204 30.29573 29.37388
#
# Velocity S-wave (km/s) = 3.96205 4.08841 4.02573
# Velocity P-wave (km/s) = 6.89974 7.20334 7.05317
#
# Compressibility (1/GPa) = 0.02068273
#
# Stress axis : x y z
#
# Youngs Moduli (GPa) = 74.96368 103.13188 71.55926
#
# Poissons Ratio (x) = 0.28559 0.06223
# Poissons Ratio (y) = 0.20759 0.32381
# Poissons Ratio (z) = 0.06519 0.46668
#
# Static dielectric constant tensor:
#      x y z
#    x 1.659390 0.000000 0.000000 
#    y 0.000000 1.530840 0.000000 
#    z 0.000000 0.000000 1.614770 
# 
# From -- ./inp_files/5182.got.cif
#   From: 2010.05.17/outbox.cif.g08.bks.cpg/sg57_3_cif.got.tgz:5182.got - 2010.06.03 13:58:18.
