data_PCOD9437135
_publ_section_title
;
Structure prediction by ZEFSAII (Michael W. Deem and Ramdas Pophale) SiO2 
 PCOD9437135
Probable space group: P B C M
;
_chemical_formula_sum "Si O2"
_cell_formula_units_Z 64
_cell_length_a 21.196114
_cell_length_b 18.906064
_cell_length_c 8.894509
_cell_angle_alpha 90.000000
_cell_angle_beta 90.000000
_cell_angle_gamma 90.000000
_cell_volume 3564.341845
_symmetry_space_group_name_H-M "P B C M"
_symmetry_group_IT_number 57
_symmetry_cell_setting 'orthorhombic'
loop_
_space_group_symop_operation_xyz
x,y,z
-x,-y,1/2+z
x,1/2-y,-z
-x,1/2+y,1/2-z
-x,-y,-z
x,y,1/2-z
-x,1/2+y,z
x,1/2-y,1/2+z
loop_
_atom_site_type_symbol
_atom_site_label
_atom_site_fract_x
_atom_site_fract_y
_atom_site_fract_z
Si Si1 0.571185 0.416534 0.427184
Si Si2 0.924826 0.078733 0.071040
Si Si3 0.928917 0.574269 0.069825
Si Si4 0.814107 0.826924 0.571114
Si Si5 0.816046 0.172312 0.929178
Si Si6 0.294894 0.418621 0.072424
Si Si7 0.700871 0.087517 0.071625
Si Si8 0.434500 0.070931 0.929752
O O1 0.583254 0.409198 0.250000
O O2 0.631157 0.388910 0.518462
O O3 0.566463 0.499395 0.472642
O O4 0.500207 0.389084 0.460371
O O5 0.914669 0.083091 0.250000
O O6 0.998504 0.094398 0.038568
O O7 0.877498 0.130724 0.987528
O O8 0.913935 0.998665 0.014822
O O9 0.923919 0.561897 0.250000
O O10 0.879023 0.633939 0.026189
O O11 0.809090 0.750000 0.500000
O O12 0.813835 0.820459 0.750000
O O13 0.756477 0.876160 0.519587
O O14 0.816405 0.176529 0.750000
O O15 0.814821 0.250000 0.000000
O O16 0.755060 0.129191 0.985615
O O17 0.282297 0.409671 0.250000
O O18 0.293025 0.503047 0.041066
O O19 0.366889 0.393601 0.042751
O O20 0.707446 0.097525 0.250000
O O21 0.435294 0.051905 0.750000
#
# Coordination Sequence:
#
# PCOD9437135 Si02
#       8
#     8   8   8   8   8   8   8   8
#     4   9  15  25  45  74 105 137 174 218 267 316
#     4  10  20  37  61  87 113 141 175 218 267 316
#     4   9  20  38  59  84 112 143 180 219 261 315
#     4  11  23  37  53  75 105 140 179 221 264 312
#     4  12  25  40  57  79 109 144 182 223 268 320
#     4   9  18  33  53  77 106 140 177 218 264 314
#     4  10  20  35  55  80 109 141 177 219 268 322
#     4   8  15  27  44  70 105 140 174 217 267 317
#
# _framework density 17.955628000000001
#
# number of rings (size 3 to 8) (size 9 to 14) (size 15 to 20)
#    0.000    2.250    0.000    4.125    0.000    7.000 
#    0.000    1.250    0.000    0.750    0.000    3.500 
#    0.000    0.000    0.000    0.000    0.000    0.000 
#
# Total GULP energy -357019.145019 kJ/mol
# GULP energy per Si atom -5578.424141 kJ/mol
# Density = 1.791476 g / cm^3
# Si number density = 17.955628 Si / 1000 Ang^3
#
#
#
# Elastic Constant Matrix: (Units=GPa)
#
#
# Indices 1 2 3 4 5 6 
#
# 1 130.9477 70.4035 70.0213 0.0000 0.0000 0.0000
# 2 70.4035 64.9819 52.1868 0.0000 0.0000 0.0000
# 3 70.0213 52.1868 80.5890 0.0000 0.0000 0.0000
# 4 0.0000 0.0000 0.0000 26.2270 0.0000 0.0000
# 5 0.0000 0.0000 0.0000 0.0000 33.1906 0.0000
# 6 0.0000 0.0000 0.0000 0.0000 0.0000 -7.3738
#
#
#
# Elastic Compliance Matrix: (Units=1/GPa)
#
#
# Indices 1 2 3 4 5 6 
#
# 1 0.020011 -0.016080 -0.006975 0.000000 0.000000 0.000000
# 2 -0.016080 0.044985 -0.015159 0.000000 0.000000 0.000000
# 3 -0.006975 -0.015159 0.028285 0.000000 0.000000 0.000000
# 4 0.000000 0.000000 0.000000 0.038129 0.000000 0.000000
# 5 0.000000 0.000000 0.000000 0.000000 0.030129 0.000000
# 6 0.000000 0.000000 0.000000 0.000000 0.000000 -0.135616
#
#
# Mechanical properties :
#
#
# Convention : Reuss Voigt Hill
#
# Bulk Modulus (GPa) = 59.33310 73.52688 66.42999
# Shear Modulus (GPa) = 46.30996 16.00257 31.15626
#
# Velocity S-wave (km/s) = 5.08403 2.98858 4.17007
# Velocity P-wave (km/s) = 8.22065 7.27647 7.76293
#
# Compressibility (1/GPa) = 0.01685400
#
# Stress axis : x y z
#
# Youngs Moduli (GPa) = 49.97183 22.22981 35.35401
#
# Poissons Ratio (x) = 0.35745 0.24658
# Poissons Ratio (y) = 0.80353 0.53595
# Poissons Ratio (z) = 0.34853 0.33699
#
# Static dielectric constant tensor:
#      x y z
#    x 1.648070 0.000000 0.000000 
#    y 0.000000 1.574900 0.000000 
#    z 0.000000 0.000000 1.601500 
# 
# From -- ./inp_files/8557.got.cif
#   From: 2010.05.17/outbox.cif.g08.bks.cpg/sg57_5_cif.got.tgz:8557.got - 2010.06.03 13:58:18.
