data_PCOD9437985
_publ_section_title
;
Structure prediction by ZEFSAII (Michael W. Deem and Ramdas Pophale) SiO2 
 PCOD9437985
Probable space group: P B C M
;
_chemical_formula_sum "Si O2"
_cell_formula_units_Z 64
_cell_length_a 18.961527
_cell_length_b 8.096510
_cell_length_c 17.546883
_cell_angle_alpha 90.000000
_cell_angle_beta 90.000000
_cell_angle_gamma 90.000000
_cell_volume 2693.835958
_symmetry_space_group_name_H-M "P B C M"
_symmetry_group_IT_number 57
_symmetry_cell_setting 'orthorhombic'
loop_
_space_group_symop_operation_xyz
x,y,z
-x,-y,1/2+z
x,1/2-y,-z
-x,1/2+y,1/2-z
-x,-y,-z
x,y,1/2-z
-x,1/2+y,z
x,1/2-y,1/2+z
loop_
_atom_site_type_symbol
_atom_site_label
_atom_site_fract_x
_atom_site_fract_y
_atom_site_fract_z
Si Si1 0.023149 0.971680 0.339774
Si Si2 0.854428 0.843833 0.576298
Si Si3 0.597347 0.993720 0.341193
Si Si4 0.528998 0.189536 0.586615
Si Si5 0.766020 0.314759 0.079981
Si Si6 0.269034 0.330401 0.162324
Si Si7 0.110032 0.865813 0.660519
Si Si8 0.356158 0.509668 0.662903
O O1 0.021280 0.011518 0.250000
O O2 0.076686 0.096947 0.379403
O O3 0.942374 0.989547 0.366545
O O4 0.058717 0.793696 0.347184
O O5 0.873351 0.750000 0.500000
O O6 0.801741 0.720690 0.620618
O O7 0.809552 0.014423 0.564870
O O8 0.595776 0.968672 0.250000
O O9 0.546781 0.862821 0.382554
O O10 0.678206 0.970862 0.367702
O O11 0.564497 0.168575 0.362586
O O12 0.528038 0.250000 0.500000
O O13 0.581053 0.034813 0.602819
O O14 0.820869 0.181650 0.113822
O O15 0.705861 0.363594 0.139903
O O16 0.736572 0.250000 0.000000
O O17 0.251873 0.365122 0.250000
O O18 0.319090 0.168024 0.159937
O O19 0.127845 0.884012 0.750000
O O20 0.381101 0.535464 0.750000
#
# Coordination Sequence:
#
# PCOD9437985 Si02
#       8
#     8   8   8   8   8   8   8   8
#     4   9  18  34  55  77 104 138 182 227 270 324
#     4  10  21  35  54  79 110 145 179 221 277 335
#     4  11  23  41  63  87 116 154 196 235 279 340
#     4  12  25  40  60  89 122 153 188 237 290 337
#     4  10  21  36  54  79 111 145 182 228 279 333
#     4   9  20  38  61  84 108 143 188 233 277 328
#     4   9  18  34  55  78 103 139 183 228 275 328
#     4  10  20  38  61  83 110 149 192 233 280 339
#
# _framework density 23.757942
#
# number of rings (size 3 to 8) (size 9 to 14) (size 15 to 20)
#    0.000    2.000    0.000    3.375    0.000    9.000 
#    0.000    2.500    0.000    6.000    0.000    0.000 
#    0.000    0.000    0.000    0.000    0.000    0.000 
#
# Total GULP energy -358339.295511 kJ/mol
# GULP energy per Si atom -5599.051492 kJ/mol
# Density = 2.370387 g / cm^3
# Si number density = 23.757942 Si / 1000 Ang^3
#
#
#
# Elastic Constant Matrix: (Units=GPa)
#
#
# Indices 1 2 3 4 5 6 
#
# 1 111.2742 28.7178 27.5152 0.0000 0.0000 0.0000
# 2 28.7178 76.7301 6.8402 0.0000 0.0000 0.0000
# 3 27.5152 6.8402 72.8594 0.0000 0.0000 0.0000
# 4 0.0000 0.0000 0.0000 -32.6102 0.0000 0.0000
# 5 0.0000 0.0000 0.0000 0.0000 34.0524 0.0000
# 6 0.0000 0.0000 0.0000 0.0000 0.0000 47.0390
#
#
#
# Elastic Compliance Matrix: (Units=1/GPa)
#
#
# Indices 1 2 3 4 5 6 
#
# 1 0.010881 -0.003737 -0.003758 0.000000 0.000000 0.000000
# 2 -0.003737 0.014426 0.000057 0.000000 0.000000 0.000000
# 3 -0.003758 0.000057 0.015139 0.000000 0.000000 0.000000
# 4 0.000000 0.000000 0.000000 -0.030665 0.000000 0.000000
# 5 0.000000 0.000000 0.000000 0.000000 0.029367 0.000000
# 6 0.000000 0.000000 0.000000 0.000000 0.000000 0.021259
#
#
# Mechanical properties :
#
#
# Convention : Reuss Voigt Hill
#
# Bulk Modulus (GPa) = 39.10977 43.00111 41.05544
# Shear Modulus (GPa) = 59.66149 22.88226 41.27187
#
# Velocity S-wave (km/s) = 5.01665 3.10682 4.17247
# Velocity P-wave (km/s) = 7.07483 5.56855 6.36639
#
# Compressibility (1/GPa) = 0.02556906
#
# Stress axis : x y z
#
# Youngs Moduli (GPa) = 91.90644 69.31756 66.05464
#
# Poissons Ratio (x) = 0.25906 0.24825
# Poissons Ratio (y) = 0.34348 -0.00376
# Poissons Ratio (z) = 0.34540 -0.00395
#
# Static dielectric constant tensor:
#      x y z
#    x 1.870730 0.000000 0.000000 
#    y 0.000000 1.987480 0.000000 
#    z 0.000000 0.000000 1.814850 
# 
# From -- ./inp_files/23064.got.cif
#   From: 2010.05.17/outbox.cif.g08.bks.cpg/sg57_12_cif.got.tgz:23064.got - 2010.06.03 13:58:18.
