data_PCOD9437505
_publ_section_title
;
Structure prediction by ZEFSAII (Michael W. Deem and Ramdas Pophale) SiO2 
 PCOD9437505
Probable space group: P B C M
;
_chemical_formula_sum "Si O2"
_cell_formula_units_Z 48
_cell_length_a 9.952988
_cell_length_b 31.498333
_cell_length_c 8.702450
_cell_angle_alpha 90.000000
_cell_angle_beta 90.000000
_cell_angle_gamma 90.000000
_cell_volume 2728.240095
_symmetry_space_group_name_H-M "P B C M"
_symmetry_group_IT_number 57
_symmetry_cell_setting 'orthorhombic'
loop_
_space_group_symop_operation_xyz
x,y,z
-x,-y,1/2+z
x,1/2-y,-z
-x,1/2+y,1/2-z
-x,-y,-z
x,y,1/2-z
-x,1/2+y,z
x,1/2-y,1/2+z
loop_
_atom_site_type_symbol
_atom_site_label
_atom_site_fract_x
_atom_site_fract_y
_atom_site_fract_z
Si Si1 0.001515 0.127580 0.435645
Si Si2 0.587496 0.363289 0.935248
Si Si3 0.300453 0.106407 0.064859
Si Si4 0.644933 0.986508 0.066860
Si Si5 0.215428 0.934063 0.432950
Si Si6 0.193603 0.796784 0.565636
O O1 0.991026 0.124576 0.250000
O O2 0.919688 0.088295 0.506749
O O3 0.924562 0.170678 0.482566
O O4 0.157271 0.125961 0.479364
O O5 0.601032 0.368428 0.750000
O O6 0.430954 0.365568 0.974918
O O7 0.667840 0.320748 0.978318
O O8 0.665173 0.402456 0.012963
O O9 0.300514 0.101211 0.250000
O O10 0.319674 0.060399 0.990429
O O11 0.638355 0.987896 0.250000
O O12 0.500000 0.000000 0.000000
O O13 0.752896 0.020531 0.006342
O O14 0.214219 0.937294 0.250000
O O15 0.181697 0.750000 0.500000
O O16 0.190137 0.794070 0.750000
#
# Coordination Sequence:
#
# PCOD9437505 Si02
#       6
#     8   8   8   8   8   8
#     4   9  20  38  57  79 109 145 183 225 277 330
#     4   9  18  34  56  79 106 138 177 225 273 322
#     4  10  20  36  58  80 106 143 184 229 278 323
#     4  12  23  35  53  79 111 146 187 231 271 317
#     4  11  21  34  54  79 107 146 188 226 268 316
#     4   9  18  34  56  81 107 139 178 221 270 327
#
# _framework density 17.593758999999999
#
# number of rings (size 3 to 8) (size 9 to 14) (size 15 to 20)
#    0.000    2.000    1.667    4.000    0.000    4.000 
#    0.000    0.833    0.000    0.000    0.000    0.000 
#    0.000    0.000    0.000    0.000    0.000    0.000 
#
# Total GULP energy -267936.574479 kJ/mol
# GULP energy per Si atom -5582.011968 kJ/mol
# Density = 1.755372 g / cm^3
# Si number density = 17.593759 Si / 1000 Ang^3
#
#
#
# Elastic Constant Matrix: (Units=GPa)
#
#
# Indices 1 2 3 4 5 6 
#
# 1 163.6967 71.4001 43.6689 0.0000 0.0000 0.0000
# 2 71.4001 125.4969 33.5846 0.0000 0.0000 0.0000
# 3 43.6689 33.5846 36.9018 0.0000 0.0000 0.0000
# 4 0.0000 0.0000 0.0000 31.7701 0.0000 0.0000
# 5 0.0000 0.0000 0.0000 0.0000 18.8853 0.0000
# 6 0.0000 0.0000 0.0000 0.0000 0.0000 15.0091
#
#
#
# Elastic Compliance Matrix: (Units=1/GPa)
#
#
# Indices 1 2 3 4 5 6 
#
# 1 0.009856 -0.003287 -0.008672 0.000000 0.000000 0.000000
# 2 -0.003287 0.011630 -0.006695 0.000000 0.000000 0.000000
# 3 -0.008672 -0.006695 0.043455 0.000000 0.000000 0.000000
# 4 0.000000 0.000000 0.000000 0.031476 0.000000 0.000000
# 5 0.000000 0.000000 0.000000 0.000000 0.052951 0.000000
# 6 0.000000 0.000000 0.000000 0.000000 0.000000 0.066626
#
#
# Mechanical properties :
#
#
# Convention : Reuss Voigt Hill
#
# Bulk Modulus (GPa) = 36.18893 69.26696 52.72795
# Shear Modulus (GPa) = 19.04671 24.96234 22.00452
#
# Velocity S-wave (km/s) = 3.29383 3.77081 3.54036
# Velocity P-wave (km/s) = 5.92280 7.64292 6.83717
#
# Compressibility (1/GPa) = 0.02763276
#
# Stress axis : x y z
#
# Youngs Moduli (GPa) = 101.46310 85.98514 23.01251
#
# Poissons Ratio (x) = 0.28260 0.19957
# Poissons Ratio (y) = 0.33347 0.15407
# Poissons Ratio (z) = 0.87989 0.57568
#
# Static dielectric constant tensor:
#      x y z
#    x 1.617190 0.000000 0.000000 
#    y 0.000000 1.566510 0.000000 
#    z 0.000000 0.000000 1.590740 
# 
# From -- ./inp_files/2081.got.cif
#   From: 2010.05.17/outbox.cif.g08.bks.cpg/sg57_2_cif.got.tgz:2081.got - 2010.06.03 13:58:18.
