data_PCOD9437724
_publ_section_title
;
Structure prediction by ZEFSAII (Michael W. Deem and Ramdas Pophale) SiO2 
 PCOD9437724
Probable space group: P B C M
;
_chemical_formula_sum "Si O2"
_cell_formula_units_Z 60
_cell_length_a 12.568770
_cell_length_b 15.350583
_cell_length_c 16.154623
_cell_angle_alpha 90.000000
_cell_angle_beta 90.000000
_cell_angle_gamma 90.000000
_cell_volume 3116.839798
_symmetry_space_group_name_H-M "P B C M"
_symmetry_group_IT_number 57
_symmetry_cell_setting 'orthorhombic'
loop_
_space_group_symop_operation_xyz
x,y,z
-x,-y,1/2+z
x,1/2-y,-z
-x,1/2+y,1/2-z
-x,-y,-z
x,y,1/2-z
-x,1/2+y,z
x,1/2-y,1/2+z
loop_
_atom_site_type_symbol
_atom_site_label
_atom_site_fract_x
_atom_site_fract_y
_atom_site_fract_z
Si Si1 0.936088 0.148977 0.497889
Si Si2 0.730021 0.420961 0.558684
Si Si3 0.705323 0.750000 0.500000
Si Si4 0.472632 0.958647 0.846074
Si Si5 0.164240 0.420665 0.958923
Si Si6 0.445615 0.236244 0.152883
Si Si7 0.605896 0.379797 0.101126
Si Si8 0.169532 0.565639 0.659235
O O1 0.963669 0.250000 0.500000
O O2 0.837446 0.135322 0.434122
O O3 0.893101 0.116332 0.587005
O O4 0.040363 0.094062 0.476971
O O5 0.651289 0.443756 0.632569
O O6 0.776812 0.509283 0.517892
O O7 0.653459 0.374262 0.491259
O O8 0.776568 0.668926 0.473403
O O9 0.634684 0.731668 0.581618
O O10 0.484898 0.981290 0.750000
O O11 0.531693 0.866457 0.860758
O O12 0.524885 0.038311 0.896024
O O13 0.172684 0.464800 0.868947
O O14 0.414869 0.248197 0.250000
O O15 0.550085 0.293767 0.134758
O O16 0.709060 0.402570 0.155163
O O17 0.124103 0.577667 0.750000
#
# Coordination Sequence:
#
# PCOD9437724 Si02
#       8
#     8   8   4   8   8   8   8   8
#     4  10  21  40  62  85 117 153 197 253 303 354
#     4  10  21  35  60  82 111 154 199 235 290 369
#     4  12  22  36  62  84 118 164 206 248 302 366
#     4  11  22  35  54  85 121 153 191 244 297 351
#     4  10  21  40  60  85 115 156 201 249 307 357
#     4  11  23  36  55  85 121 156 200 249 300 364
#     4  10  20  37  57  80 118 157 191 238 293 353
#     4  10  21  38  64  89 118 158 202 245 301 366
#
# _framework density 19.250267999999998
#
# number of rings (size 3 to 8) (size 9 to 14) (size 15 to 20)
#    0.000    1.867    0.667    6.400    3.733    1.600 
#    0.000    4.000    0.000    0.000    0.000    0.000 
#    0.000    0.000    0.000    0.000    0.000    0.000 
#
# Total GULP energy -334767.935393 kJ/mol
# GULP energy per Si atom -5579.465590 kJ/mol
# Density = 1.920645 g / cm^3
# Si number density = 19.250268 Si / 1000 Ang^3
#
#
#
# Elastic Constant Matrix: (Units=GPa)
#
#
# Indices 1 2 3 4 5 6 
#
# 1 82.2791 -5.3397 26.2080 0.0000 0.0000 0.0000
# 2 -5.3397 52.5409 3.1440 0.0000 0.0000 0.0000
# 3 26.2080 3.1440 51.6440 0.0000 0.0000 0.0000
# 4 0.0000 0.0000 0.0000 12.4151 0.0000 0.0000
# 5 0.0000 0.0000 0.0000 0.0000 17.3440 0.0000
# 6 0.0000 0.0000 0.0000 0.0000 0.0000 49.2896
#
#
#
# Elastic Compliance Matrix: (Units=1/GPa)
#
#
# Indices 1 2 3 4 5 6 
#
# 1 0.014693 0.001946 -0.007575 0.000000 0.000000 0.000000
# 2 0.001946 0.019360 -0.002166 0.000000 0.000000 0.000000
# 3 -0.007575 -0.002166 0.023339 0.000000 0.000000 0.000000
# 4 0.000000 0.000000 0.000000 0.080547 0.000000 0.000000
# 5 0.000000 0.000000 0.000000 0.000000 0.057657 0.000000
# 6 0.000000 0.000000 0.000000 0.000000 0.000000 0.020288
#
#
# Mechanical properties :
#
#
# Convention : Reuss Voigt Hill
#
# Bulk Modulus (GPa) = 23.92171 26.05426 24.98799
# Shear Modulus (GPa) = 20.37425 26.63987 23.50706
#
# Velocity S-wave (km/s) = 3.25682 3.72408 3.49826
# Velocity P-wave (km/s) = 5.15714 5.66176 5.41533
#
# Compressibility (1/GPa) = 0.04180303
#
# Stress axis : x y z
#
# Youngs Moduli (GPa) = 68.06050 51.65220 42.84636
#
# Poissons Ratio (x) = -0.10054 0.32455
# Poissons Ratio (y) = -0.13248 0.09282
# Poissons Ratio (z) = 0.51554 0.11190
#
# Static dielectric constant tensor:
#      x y z
#    x 1.683450 0.000000 0.000000 
#    y 0.000000 1.690840 0.000000 
#    z 0.000000 0.000000 1.682350 
# 
# From -- ./inp_files/21964.got.cif
#   From: 2010.05.17/outbox.cif.g08.bks.cpg/sg57_11_cif.got.tgz:21964.got - 2010.06.03 13:58:18.
