data_PCOD9437402
_publ_section_title
;
Structure prediction by ZEFSAII (Michael W. Deem and Ramdas Pophale) SiO2 
 PCOD9437402
Probable space group: P B C M
;
_chemical_formula_sum "Si O2"
_cell_formula_units_Z 64
_cell_length_a 19.740368
_cell_length_b 7.984202
_cell_length_c 17.511460
_cell_angle_alpha 90.000000
_cell_angle_beta 90.000000
_cell_angle_gamma 90.000000
_cell_volume 2760.000222
_symmetry_space_group_name_H-M "P B C M"
_symmetry_group_IT_number 57
_symmetry_cell_setting 'orthorhombic'
loop_
_space_group_symop_operation_xyz
x,y,z
-x,-y,1/2+z
x,1/2-y,-z
-x,1/2+y,1/2-z
-x,-y,-z
x,y,1/2-z
-x,1/2+y,z
x,1/2-y,1/2+z
loop_
_atom_site_type_symbol
_atom_site_label
_atom_site_fract_x
_atom_site_fract_y
_atom_site_fract_z
Si Si1 0.165897 0.122881 0.658674
Si Si2 0.393357 0.379642 0.161354
Si Si3 0.896909 0.377695 0.160924
Si Si4 0.522503 0.963356 0.839318
Si Si5 0.228656 0.713184 0.409431
Si Si6 0.726452 0.694261 0.418067
Si Si7 0.359490 0.849296 0.421996
Si Si8 0.970992 0.481358 0.659735
O O1 0.168121 0.094199 0.750000
O O2 0.209892 0.285614 0.638429
O O3 0.087215 0.111602 0.634591
O O4 0.201103 0.966976 0.615474
O O5 0.372808 0.402162 0.250000
O O6 0.444394 0.525140 0.134593
O O7 0.329874 0.327147 0.111207
O O8 0.443114 0.217561 0.156837
O O9 0.883057 0.413703 0.250000
O O10 0.825903 0.345667 0.121114
O O11 0.953654 0.501446 0.126885
O O12 0.937030 0.199946 0.154420
O O13 0.521338 0.011726 0.750000
O O14 0.572247 0.087608 0.883518
O O15 0.232416 0.750000 0.500000
O O16 0.304729 0.735287 0.377102
O O17 0.752348 0.750000 0.500000
O O18 0.686316 0.520215 0.428022
O O19 0.373865 0.750000 0.500000
O O20 0.980909 0.515143 0.750000
#
# Coordination Sequence:
#
# PCOD9437402 Si02
#       8
#     8   8   8   8   8   8   8   8
#     4  10  21  39  60  83 113 153 195 236 283 341
#     4   9  19  36  55  79 108 140 179 227 277 331
#     4   9  17  32  52  75 104 142 186 232 278 334
#     4   9  19  35  56  79 105 137 180 228 272 322
#     4  10  20  36  55  80 114 150 188 234 286 338
#     4  11  22  37  57  82 112 147 187 233 283 337
#     4  10  22  38  54  77 112 147 182 226 280 339
#     4   8  16  31  52  77 107 142 185 232 279 332
#
# _framework density 23.188403000000001
#
# number of rings (size 3 to 8) (size 9 to 14) (size 15 to 20)
#    0.000    2.500    0.000    3.000    0.000    5.000 
#    0.000    8.125    0.000    0.000    0.000    0.000 
#    0.000    0.000    0.000    0.000    0.000    0.000 
#
# Total GULP energy -357271.721374 kJ/mol
# GULP energy per Si atom -5582.370646 kJ/mol
# Density = 2.313563 g / cm^3
# Si number density = 23.188403 Si / 1000 Ang^3
#
#
#
# Elastic Constant Matrix: (Units=GPa)
#
#
# Indices 1 2 3 4 5 6 
#
# 1 74.3059 -1.6090 17.8706 0.0000 0.0000 0.0000
# 2 -1.6090 76.1521 11.6129 0.0000 0.0000 0.0000
# 3 17.8706 11.6129 52.5145 0.0000 0.0000 0.0000
# 4 0.0000 0.0000 0.0000 11.1432 0.0000 0.0000
# 5 0.0000 0.0000 0.0000 0.0000 59.5810 0.0000
# 6 0.0000 0.0000 0.0000 0.0000 0.0000 43.0639
#
#
#
# Elastic Compliance Matrix: (Units=1/GPa)
#
#
# Indices 1 2 3 4 5 6 
#
# 1 0.014748 0.001115 -0.005265 0.000000 0.000000 0.000000
# 2 0.001115 0.013674 -0.003403 0.000000 0.000000 0.000000
# 3 -0.005265 -0.003403 0.021587 0.000000 0.000000 0.000000
# 4 0.000000 0.000000 0.000000 0.089741 0.000000 0.000000
# 5 0.000000 0.000000 0.000000 0.000000 0.016784 0.000000
# 6 0.000000 0.000000 0.000000 0.000000 0.000000 0.023221
#
#
# Mechanical properties :
#
#
# Convention : Reuss Voigt Hill
#
# Bulk Modulus (GPa) = 28.65218 28.74685 28.69952
# Shear Modulus (GPa) = 24.21350 34.43083 29.32217
#
# Velocity S-wave (km/s) = 3.23493 3.85753 3.55986
# Velocity P-wave (km/s) = 5.13187 5.68020 5.41298
#
# Compressibility (1/GPa) = 0.03490135
#
# Stress axis : x y z
#
# Youngs Moduli (GPa) = 67.80440 73.13083 46.32487
#
# Poissons Ratio (x) = -0.08151 0.24391
# Poissons Ratio (y) = -0.07557 0.15765
# Poissons Ratio (z) = 0.35701 0.24887
#
# Static dielectric constant tensor:
#      x y z
#    x 1.889420 0.000000 0.000000 
#    y 0.000000 2.012540 0.000000 
#    z 0.000000 0.000000 1.827460 
# 
# From -- ./inp_files/23030.got.cif
#   From: 2010.05.17/outbox.cif.g08.bks.cpg/sg57_12_cif.got.tgz:23030.got - 2010.06.03 13:58:18.
