data_PCOD9437130
_publ_section_title
;
Structure prediction by ZEFSAII (Michael W. Deem and Ramdas Pophale) SiO2 
 PCOD9437130
Probable space group: P B C M
;
_chemical_formula_sum "Si O2"
_cell_formula_units_Z 64
_cell_length_a 20.192164
_cell_length_b 20.615652
_cell_length_c 8.729401
_cell_angle_alpha 90.000000
_cell_angle_beta 90.000000
_cell_angle_gamma 90.000000
_cell_volume 3633.828138
_symmetry_space_group_name_H-M "P B C M"
_symmetry_group_IT_number 57
_symmetry_cell_setting 'orthorhombic'
loop_
_space_group_symop_operation_xyz
x,y,z
-x,-y,1/2+z
x,1/2-y,-z
-x,1/2+y,1/2-z
-x,-y,-z
x,y,1/2-z
-x,1/2+y,z
x,1/2-y,1/2+z
loop_
_atom_site_type_symbol
_atom_site_label
_atom_site_fract_x
_atom_site_fract_y
_atom_site_fract_z
Si Si1 0.433402 0.320449 0.432909
Si Si2 0.184608 0.566410 0.566790
Si Si3 0.663858 0.042848 0.931948
Si Si4 0.473759 0.931985 0.932078
Si Si5 0.689716 0.596685 0.933007
Si Si6 0.095291 0.820099 0.566963
Si Si7 0.839481 0.574379 0.933801
Si Si8 0.948860 0.679856 0.565363
O O1 0.446269 0.250000 0.500000
O O2 0.440206 0.319472 0.250000
O O3 0.482691 0.373924 0.500833
O O4 0.358788 0.344421 0.470586
O O5 0.178012 0.571365 0.750000
O O6 0.262975 0.568991 0.528199
O O7 0.144211 0.623472 0.486921
O O8 0.158992 0.495824 0.512763
O O9 0.654313 0.048667 0.750000
O O10 0.602677 0.075007 0.018376
O O11 0.665368 0.967230 0.979216
O O12 0.479598 0.934165 0.750000
O O13 0.500000 0.000000 0.000000
O O14 0.683908 0.584125 0.750000
O O15 0.767239 0.605038 0.967901
O O16 0.115676 0.750000 0.500000
O O17 0.092197 0.816497 0.750000
O O18 0.021893 0.833407 0.500541
O O19 0.843245 0.564708 0.750000
O O20 0.897597 0.623438 0.978657
O O21 0.928066 0.750000 0.500000
O O22 0.952030 0.683373 0.750000
#
# Coordination Sequence:
#
# PCOD9437130 Si02
#       8
#     8   8   8   8   8   8   8   8
#     4  11  23  38  56  82 116 153 191 237 285 336
#     4  10  21  37  58  86 116 145 183 233 281 335
#     4  10  20  35  58  86 113 142 184 230 277 333
#     4  12  23  37  60  86 113 148 191 235 280 337
#     4   9  18  34  55  78 109 148 188 227 275 331
#     4  11  22  38  60  82 109 146 188 233 284 343
#     4   9  19  35  55  82 114 150 190 232 279 330
#     4  10  20  35  55  79 111 148 191 237 280 336
#
# _framework density 17.612280999999999
#
# number of rings (size 3 to 8) (size 9 to 14) (size 15 to 20)
#    0.000    1.750    1.250    4.500    0.000    4.000 
#    0.000    0.625    0.000    3.000    0.000    0.000 
#    0.000    0.000    0.000    0.000    0.000    0.000 
#
# Total GULP energy -357428.658315 kJ/mol
# GULP energy per Si atom -5584.822786 kJ/mol
# Density = 1.757219 g / cm^3
# Si number density = 17.612281 Si / 1000 Ang^3
#
#
#
# Elastic Constant Matrix: (Units=GPa)
#
#
# Indices 1 2 3 4 5 6 
#
# 1 107.6821 96.4251 60.7708 0.0000 0.0000 0.0000
# 2 96.4251 144.2521 66.4446 0.0000 0.0000 0.0000
# 3 60.7708 66.4446 89.5179 0.0000 0.0000 0.0000
# 4 0.0000 0.0000 0.0000 32.8474 0.0000 0.0000
# 5 0.0000 0.0000 0.0000 0.0000 24.7033 0.0000
# 6 0.0000 0.0000 0.0000 0.0000 0.0000 29.8626
#
#
#
# Elastic Compliance Matrix: (Units=1/GPa)
#
#
# Indices 1 2 3 4 5 6 
#
# 1 0.025849 -0.013973 -0.007177 0.000000 0.000000 0.000000
# 2 -0.013973 0.018087 -0.003939 0.000000 0.000000 0.000000
# 3 -0.007177 -0.003939 0.018967 0.000000 0.000000 0.000000
# 4 0.000000 0.000000 0.000000 0.030444 0.000000 0.000000
# 5 0.000000 0.000000 0.000000 0.000000 0.040480 0.000000
# 6 0.000000 0.000000 0.000000 0.000000 0.000000 0.033487
#
#
# Mechanical properties :
#
#
# Convention : Reuss Voigt Hill
#
# Bulk Modulus (GPa) = 78.58476 87.63699 83.11088
# Shear Modulus (GPa) = 22.54958 25.33675 23.94317
#
# Velocity S-wave (km/s) = 3.58206 3.79698 3.69108
# Velocity P-wave (km/s) = 7.86284 8.31203 8.09055
#
# Compressibility (1/GPa) = 0.01272511
#
# Stress axis : x y z
#
# Youngs Moduli (GPa) = 38.68603 55.28795 52.72389
#
# Poissons Ratio (x) = 0.77255 0.37837
# Poissons Ratio (y) = 0.54057 0.20769
# Poissons Ratio (z) = 0.27763 0.21779
#
# Static dielectric constant tensor:
#      x y z
#    x 1.607240 0.000000 0.000000 
#    y 0.000000 1.561690 0.000000 
#    z 0.000000 0.000000 1.587940 
# 
# From -- ./inp_files/8461.got.cif
#   From: 2010.05.17/outbox.cif.g08.bks.cpg/sg57_5_cif.got.tgz:8461.got - 2010.06.03 13:58:18.
