data_PCOD9437751
_publ_section_title
;
Structure prediction by ZEFSAII (Michael W. Deem and Ramdas Pophale) SiO2 
 PCOD9437751
Probable space group: P B C M
;
_chemical_formula_sum "Si O2"
_cell_formula_units_Z 40
_cell_length_a 12.471776
_cell_length_b 13.239919
_cell_length_c 14.101667
_cell_angle_alpha 90.000000
_cell_angle_beta 90.000000
_cell_angle_gamma 90.000000
_cell_volume 2328.542051
_symmetry_space_group_name_H-M "P B C M"
_symmetry_group_IT_number 57
_symmetry_cell_setting 'orthorhombic'
loop_
_space_group_symop_operation_xyz
x,y,z
-x,-y,1/2+z
x,1/2-y,-z
-x,1/2+y,1/2-z
-x,-y,-z
x,y,1/2-z
-x,1/2+y,z
x,1/2-y,1/2+z
loop_
_atom_site_type_symbol
_atom_site_label
_atom_site_fract_x
_atom_site_fract_y
_atom_site_fract_z
Si Si1 0.829414 0.822271 0.250000
Si Si2 0.347735 0.869955 0.637552
Si Si3 0.950301 0.875234 0.750000
Si Si4 0.927187 0.107792 0.750000
Si Si5 0.635261 0.891524 0.357280
Si Si6 0.886359 0.222353 0.393971
Si Si7 0.493359 0.250000 0.500000
O O1 0.757313 0.854717 0.339274
O O2 0.853422 0.703955 0.250000
O O3 0.944130 0.875760 0.250000
O O4 0.363362 0.851115 0.750000
O O5 0.227955 0.832960 0.611895
O O6 0.431645 0.810885 0.572892
O O7 0.361576 0.989699 0.621721
O O8 0.026074 0.846171 0.839441
O O9 0.910311 0.989114 0.750000
O O10 0.881624 0.171137 0.661818
O O11 0.586481 0.877985 0.250000
O O12 0.577127 0.826587 0.436805
O O13 0.917132 0.250000 0.500000
#
# Coordination Sequence:
#
# PCOD9437751 Si02
#       7
#     4   8   4   4   8   8   4
#     4   8  18  40  54  76 119 151 183 222 295 339
#     4  11  20  38  63  80 117 159 185 241 296 342
#     4  10  20  38  61  84 118 154 187 238 289 338
#     4  10  20  38  61  86 115 153 194 236 282 347
#     4   9  21  40  56  82 114 158 190 230 301 344
#     4  10  20  37  58  89 118 148 197 234 283 353
#     4  12  22  36  60  90 114 140 214 244 276 344
#
# _framework density 17.178131
#
# number of rings (size 3 to 8) (size 9 to 14) (size 15 to 20)
#    0.600    1.600    3.000    2.400    0.000    0.800 
#   10.800    0.000    0.000    0.000    0.000    0.000 
#    0.000    0.000    0.000    0.000    0.000    0.000 
#
# Total GULP energy -222881.123479 kJ/mol
# GULP energy per Si atom -5572.028087 kJ/mol
# Density = 1.713903 g / cm^3
# Si number density = 17.178131 Si / 1000 Ang^3
#
#
#
# Elastic Constant Matrix: (Units=GPa)
#
#
# Indices 1 2 3 4 5 6 
#
# 1 59.9945 27.5570 18.9548 0.0000 0.0000 0.0000
# 2 27.5570 128.3036 41.1387 0.0000 0.0000 0.0000
# 3 18.9548 41.1387 103.4689 0.0000 0.0000 0.0000
# 4 0.0000 0.0000 0.0000 15.3432 0.0000 0.0000
# 5 0.0000 0.0000 0.0000 0.0000 -21.9679 0.0000
# 6 0.0000 0.0000 0.0000 0.0000 0.0000 15.5785
#
#
#
# Elastic Compliance Matrix: (Units=1/GPa)
#
#
# Indices 1 2 3 4 5 6 
#
# 1 0.018889 -0.003378 -0.002117 0.000000 0.000000 0.000000
# 2 -0.003378 0.009537 -0.003173 0.000000 0.000000 0.000000
# 3 -0.002117 -0.003173 0.011314 0.000000 0.000000 0.000000
# 4 0.000000 0.000000 0.000000 0.065176 0.000000 0.000000
# 5 0.000000 0.000000 0.000000 0.000000 -0.045521 0.000000
# 6 0.000000 0.000000 0.000000 0.000000 0.000000 0.064191
#
#
# Mechanical properties :
#
#
# Convention : Reuss Voigt Hill
#
# Bulk Modulus (GPa) = 44.63624 51.89645 48.26634
# Shear Modulus (GPa) = 33.69504 15.39852 24.54678
#
# Velocity S-wave (km/s) = 4.43370 2.99725 3.78425
# Velocity P-wave (km/s) = 7.22848 6.50033 6.87406
#
# Compressibility (1/GPa) = 0.02240332
#
# Stress axis : x y z
#
# Youngs Moduli (GPa) = 52.94160 104.85558 88.38485
#
# Poissons Ratio (x) = 0.35421 0.18713
# Poissons Ratio (y) = 0.17884 0.28044
# Poissons Ratio (z) = 0.11209 0.33271
#
# Static dielectric constant tensor:
#      x y z
#    x 1.567800 0.000000 0.000000 
#    y 0.000000 1.569220 0.000000 
#    z 0.000000 0.000000 1.625450 
# 
# From -- ./inp_files/17489.got.cif
#   From: 2010.05.17/outbox.cif.g08.bks.cpg/sg57_9_cif.got.tgz:17489.got - 2010.06.03 13:58:18.
