data_PCOD9437862
_publ_section_title
;
Structure prediction by ZEFSAII (Michael W. Deem and Ramdas Pophale) SiO2 
 PCOD9437862
Probable space group: P B C M
;
_chemical_formula_sum "Si O2"
_cell_formula_units_Z 64
_cell_length_a 12.243404
_cell_length_b 31.695580
_cell_length_c 8.499402
_cell_angle_alpha 90.000000
_cell_angle_beta 90.000000
_cell_angle_gamma 90.000000
_cell_volume 3298.293162
_symmetry_space_group_name_H-M "P B C M"
_symmetry_group_IT_number 57
_symmetry_cell_setting 'orthorhombic'
loop_
_space_group_symop_operation_xyz
x,y,z
-x,-y,1/2+z
x,1/2-y,-z
-x,1/2+y,1/2-z
-x,-y,-z
x,y,1/2-z
-x,1/2+y,z
x,1/2-y,1/2+z
loop_
_atom_site_type_symbol
_atom_site_label
_atom_site_fract_x
_atom_site_fract_y
_atom_site_fract_z
Si Si1 0.876161 0.374880 0.061015
Si Si2 0.976265 0.953483 0.060552
Si Si3 0.490635 0.294614 0.559872
Si Si4 0.483930 0.047105 0.561672
Si Si5 0.747761 0.912968 0.060119
Si Si6 0.989119 0.705357 0.061075
Si Si7 0.250895 0.181737 0.061521
Si Si8 0.370347 0.623343 0.438819
O O1 0.878647 0.373906 0.250000
O O2 0.937713 0.417721 0.007844
O O3 0.752087 0.374384 0.003085
O O4 0.942024 0.334426 0.998420
O O5 0.979272 0.954370 0.250000
O O6 0.855612 0.938346 0.012563
O O7 0.000000 0.000000 0.000000
O O8 0.535179 0.250000 0.500000
O O9 0.489943 0.294343 0.750000
O O10 0.365211 0.299398 0.501673
O O11 0.559721 0.335558 0.509266
O O12 0.492318 0.047146 0.750000
O O13 0.363052 0.063142 0.517401
O O14 0.569755 0.080888 0.495018
O O15 0.500000 0.000000 0.500000
O O16 0.750125 0.907679 0.250000
O O17 0.749001 0.867351 0.981870
O O18 0.989303 0.705114 0.250000
O O19 0.863432 0.700606 0.002365
O O20 0.032928 0.750000 0.000000
O O21 0.251308 0.186450 0.250000
O O22 0.367623 0.623524 0.250000
#
# Coordination Sequence:
#
# PCOD9437862 Si02
#       8
#     8   8   8   8   8   8   8   8
#     4  11  24  43  64  89 123 161 206 257 308 366
#     4  10  23  41  62  91 123 159 201 250 305 362
#     4  10  22  39  61  90 122 158 199 247 302 359
#     4  11  24  41  64  94 125 163 206 253 308 367
#     4  10  21  39  63  91 123 159 200 249 307 361
#     4  11  23  39  63  93 124 162 204 251 306 365
#     4  10  20  37  61  92 125 158 199 247 305 362
#     4  11  24  43  64  88 124 164 207 257 307 366
#
# _framework density 19.403976
#
# number of rings (size 3 to 8) (size 9 to 14) (size 15 to 20)
#    0.000    1.500    2.500    1.875    1.750    4.500 
#    0.000    1.250    0.000    0.000    0.000    0.000 
#    0.000    0.000    0.000    0.000    0.000    0.000 
#
# Total GULP energy -357699.436822 kJ/mol
# GULP energy per Si atom -5589.053700 kJ/mol
# Density = 1.935981 g / cm^3
# Si number density = 19.403976 Si / 1000 Ang^3
#
#
#
# Elastic Constant Matrix: (Units=GPa)
#
#
# Indices 1 2 3 4 5 6 
#
# 1 151.4128 82.1696 31.6333 0.0000 0.0000 0.0000
# 2 82.1696 188.0527 29.6819 0.0000 0.0000 0.0000
# 3 31.6333 29.6819 27.6377 0.0000 0.0000 0.0000
# 4 0.0000 0.0000 0.0000 37.1049 0.0000 0.0000
# 5 0.0000 0.0000 0.0000 0.0000 27.1735 0.0000
# 6 0.0000 0.0000 0.0000 0.0000 0.0000 53.6028
#
#
#
# Elastic Compliance Matrix: (Units=1/GPa)
#
#
# Indices 1 2 3 4 5 6 
#
# 1 0.009967 -0.003076 -0.008104 0.000000 0.000000 0.000000
# 2 -0.003076 0.007352 -0.004376 0.000000 0.000000 0.000000
# 3 -0.008104 -0.004376 0.050158 0.000000 0.000000 0.000000
# 4 0.000000 0.000000 0.000000 0.026951 0.000000 0.000000
# 5 0.000000 0.000000 0.000000 0.000000 0.036801 0.000000
# 6 0.000000 0.000000 0.000000 0.000000 0.000000 0.018656
#
#
# Mechanical properties :
#
#
# Convention : Reuss Voigt Hill
#
# Bulk Modulus (GPa) = 27.49883 72.67473 50.08678
# Shear Modulus (GPa) = 25.89103 38.48415 32.18759
#
# Velocity S-wave (km/s) = 3.65679 4.45827 4.07727
# Velocity P-wave (km/s) = 5.65968 8.00228 6.93067
#
# Compressibility (1/GPa) = 0.03636518
#
# Stress axis : x y z
#
# Youngs Moduli (GPa) = 100.33257 136.01245 19.93712
#
# Poissons Ratio (x) = 0.41835 0.16158
# Poissons Ratio (y) = 0.30861 0.08724
# Poissons Ratio (z) = 0.81314 0.59513
#
# Static dielectric constant tensor:
#      x y z
#    x 1.676590 0.000000 0.000000 
#    y 0.000000 1.645400 0.000000 
#    z 0.000000 0.000000 1.665900 
# 
# From -- ./inp_files/3912.got.cif
#   From: 2010.05.17/outbox.cif.g08.bks.cpg/sg57_2_cif.got.tgz:3912.got - 2010.06.03 13:58:18.
