data_PCOD9437523
_publ_section_title
;
Structure prediction by ZEFSAII (Michael W. Deem and Ramdas Pophale) SiO2 
 PCOD9437523
Probable space group: P B C M
;
_chemical_formula_sum "Si O2"
_cell_formula_units_Z 48
_cell_length_a 15.365404
_cell_length_b 19.555799
_cell_length_c 8.631784
_cell_angle_alpha 90.000000
_cell_angle_beta 90.000000
_cell_angle_gamma 90.000000
_cell_volume 2593.702213
_symmetry_space_group_name_H-M "P B C M"
_symmetry_group_IT_number 57
_symmetry_cell_setting 'orthorhombic'
loop_
_space_group_symop_operation_xyz
x,y,z
-x,-y,1/2+z
x,1/2-y,-z
-x,1/2+y,1/2-z
-x,-y,-z
x,y,1/2-z
-x,1/2+y,z
x,1/2-y,1/2+z
loop_
_atom_site_type_symbol
_atom_site_label
_atom_site_fract_x
_atom_site_fract_y
_atom_site_fract_z
Si Si1 0.903717 0.324547 0.935145
Si Si2 0.753462 0.080301 0.935976
Si Si3 0.754438 0.921197 0.937413
Si Si4 0.903037 0.675622 0.565041
Si Si5 0.602755 0.174714 0.436302
Si Si6 0.597649 0.675451 0.063677
O O1 0.905319 0.321874 0.750000
O O2 0.877242 0.250000 0.000000
O O3 0.836205 0.380767 0.993453
O O4 0.000677 0.338116 0.998452
O O5 0.757140 0.084733 0.750000
O O6 0.752603 0.000668 0.980849
O O7 0.668003 0.119188 0.995749
O O8 0.760853 0.917170 0.750000
O O9 0.666493 0.881658 0.985599
O O10 0.835462 0.881191 0.009710
O O11 0.875730 0.750000 0.500000
O O12 0.907099 0.678963 0.750000
O O13 0.625693 0.250000 0.500000
O O14 0.608621 0.175298 0.250000
O O15 0.502245 0.161198 0.482659
O O16 0.599023 0.678812 0.250000
O O17 0.622299 0.750000 0.000000
#
# Coordination Sequence:
#
# PCOD9437523 Si02
#       6
#     8   8   8   8   8   8
#     4  11  22  39  62  85 111 144 186 232 278 330
#     4  11  23  38  56  81 115 151 186 228 280 334
#     4  10  22  39  57  81 115 152 188 228 277 331
#     4  11  22  38  61  87 114 145 185 230 277 329
#     4  10  20  36  58  83 111 144 187 233 278 330
#     4   9  19  36  58  83 110 144 186 232 277 325
#
# _framework density 18.506364000000001
#
# number of rings (size 3 to 8) (size 9 to 14) (size 15 to 20)
#    0.000    1.667    0.000    6.000    0.000    5.333 
#    0.000    0.000    0.000    0.000    0.000    0.000 
#    0.000    0.000    0.000    0.000    0.000    0.000 
#
# Total GULP energy -268304.047305 kJ/mol
# GULP energy per Si atom -5589.667652 kJ/mol
# Density = 1.846424 g / cm^3
# Si number density = 18.506364 Si / 1000 Ang^3
#
#
#
# Elastic Constant Matrix: (Units=GPa)
#
#
# Indices 1 2 3 4 5 6 
#
# 1 121.5187 128.2224 54.2159 0.0000 0.0000 0.0000
# 2 128.2224 197.9601 72.7247 0.0000 0.0000 0.0000
# 3 54.2159 72.7247 89.2853 0.0000 0.0000 0.0000
# 4 0.0000 0.0000 0.0000 27.5558 0.0000 0.0000
# 5 0.0000 0.0000 0.0000 0.0000 25.4596 0.0000
# 6 0.0000 0.0000 0.0000 0.0000 0.0000 3.3340
#
#
#
# Elastic Compliance Matrix: (Units=1/GPa)
#
#
# Indices 1 2 3 4 5 6 
#
# 1 0.026554 -0.016091 -0.003018 0.000000 0.000000 0.000000
# 2 -0.016091 0.016959 -0.004043 0.000000 0.000000 0.000000
# 3 -0.003018 -0.004043 0.016325 0.000000 0.000000 0.000000
# 4 0.000000 0.000000 0.000000 0.036290 0.000000 0.000000
# 5 0.000000 0.000000 0.000000 0.000000 0.039278 0.000000
# 6 0.000000 0.000000 0.000000 0.000000 0.000000 0.299937
#
#
# Mechanical properties :
#
#
# Convention : Reuss Voigt Hill
#
# Bulk Modulus (GPa) = 73.87911 102.12111 88.00011
# Shear Modulus (GPa) = 10.28471 21.50998 15.89735
#
# Velocity S-wave (km/s) = 2.35997 3.41295 2.93408
# Velocity P-wave (km/s) = 6.88720 8.41620 7.68980
#
# Compressibility (1/GPa) = 0.01353563
#
# Stress axis : x y z
#
# Youngs Moduli (GPa) = 37.65861 58.96503 61.25400
#
# Poissons Ratio (x) = 0.94881 0.18486
# Poissons Ratio (y) = 0.60597 0.24764
# Poissons Ratio (z) = 0.11365 0.23838
#
# Static dielectric constant tensor:
#      x y z
#    x 1.630720 0.000000 0.000000 
#    y 0.000000 1.603670 0.000000 
#    z 0.000000 0.000000 1.619980 
# 
# From -- ./inp_files/4605.got.cif
#   From: 2010.05.17/outbox.cif.g08.bks.cpg/sg57_3_cif.got.tgz:4605.got - 2010.06.03 13:58:18.
