data_PCOD9437245
_publ_section_title
;
Structure prediction by ZEFSAII (Michael W. Deem and Ramdas Pophale) SiO2 
 PCOD9437245
Probable space group: P B C M
;
_chemical_formula_sum "Si O2"
_cell_formula_units_Z 48
_cell_length_a 9.673344
_cell_length_b 30.990108
_cell_length_c 8.850223
_cell_angle_alpha 90.000000
_cell_angle_beta 90.000000
_cell_angle_gamma 90.000000
_cell_volume 2653.101932
_symmetry_space_group_name_H-M "P B C M"
_symmetry_group_IT_number 57
_symmetry_cell_setting 'orthorhombic'
loop_
_space_group_symop_operation_xyz
x,y,z
-x,-y,1/2+z
x,1/2-y,-z
-x,1/2+y,1/2-z
-x,-y,-z
x,y,1/2-z
-x,1/2+y,z
x,1/2-y,1/2+z
loop_
_atom_site_type_symbol
_atom_site_label
_atom_site_fract_x
_atom_site_fract_y
_atom_site_fract_z
Si Si1 0.659412 0.796904 0.931055
Si Si2 0.157070 0.627000 0.931937
Si Si3 0.835887 0.625617 0.568671
Si Si4 0.654636 0.550779 0.069760
Si Si5 0.337272 0.796715 0.569572
Si Si6 0.355925 0.549232 0.568741
O O1 0.672799 0.795582 0.750000
O O2 0.498200 0.806510 0.967945
O O3 0.691666 0.750000 0.000000
O O4 0.756243 0.833556 0.999417
O O5 0.163178 0.631218 0.750000
O O6 0.237081 0.582961 0.972575
O O7 0.996793 0.625990 0.976341
O O8 0.238332 0.666753 0.004433
O O9 0.827473 0.627312 0.750000
O O10 0.760611 0.582748 0.509667
O O11 0.662072 0.556320 0.250000
O O12 0.680735 0.500387 0.032725
O O13 0.499225 0.560401 0.013347
O O14 0.304678 0.750000 0.500000
O O15 0.325464 0.794646 0.750000
O O16 0.378506 0.551531 0.750000
#
# Coordination Sequence:
#
# PCOD9437245 Si02
#       6
#     8   8   8   8   8   8
#     4  10  21  38  60  85 110 140 181 226 272 323
#     4  10  22  38  55  78 110 147 184 221 267 323
#     4  11  23  37  54  79 112 149 184 221 269 322
#     4  10  20  35  57  84 110 140 182 228 273 323
#     4  10  21  37  59  84 108 138 178 223 270 320
#     4   9  19  37  59  81 108 143 182 226 274 324
#
# _framework density 18.092030999999999
#
# number of rings (size 3 to 8) (size 9 to 14) (size 15 to 20)
#    0.000    2.000    0.000    3.000    0.000    8.667 
#    0.000    0.000    0.000    0.000    0.000    0.000 
#    0.000    0.000    0.000    0.000    0.000    0.000 
#
# Total GULP energy -268169.829309 kJ/mol
# GULP energy per Si atom -5586.871444 kJ/mol
# Density = 1.805085 g / cm^3
# Si number density = 18.092031 Si / 1000 Ang^3
#
#
#
# Elastic Constant Matrix: (Units=GPa)
#
#
# Indices 1 2 3 4 5 6 
#
# 1 159.9613 128.5022 64.6964 0.0000 0.0000 0.0000
# 2 128.5022 143.9922 58.5375 0.0000 0.0000 0.0000
# 3 64.6964 58.5375 47.4559 0.0000 0.0000 0.0000
# 4 0.0000 0.0000 0.0000 35.8231 0.0000 0.0000
# 5 0.0000 0.0000 0.0000 0.0000 28.5817 0.0000
# 6 0.0000 0.0000 0.0000 0.0000 0.0000 -16.6160
#
#
#
# Elastic Compliance Matrix: (Units=1/GPa)
#
#
# Indices 1 2 3 4 5 6 
#
# 1 0.025823 -0.017518 -0.013596 0.000000 0.000000 0.000000
# 2 -0.017518 0.025815 -0.007960 0.000000 0.000000 0.000000
# 3 -0.013596 -0.007960 0.049426 0.000000 0.000000 0.000000
# 4 0.000000 0.000000 0.000000 0.027915 0.000000 0.000000
# 5 0.000000 0.000000 0.000000 0.000000 0.034987 0.000000
# 6 0.000000 0.000000 0.000000 0.000000 0.000000 -0.060183
#
#
# Mechanical properties :
#
#
# Convention : Reuss Voigt Hill
#
# Bulk Modulus (GPa) = 43.63811 94.98683 69.31247
# Shear Modulus (GPa) = 26.37549 16.20266 21.28908
#
# Velocity S-wave (km/s) = 3.82232 2.99585 3.43404
# Velocity P-wave (km/s) = 6.60702 8.03635 7.35648
#
# Compressibility (1/GPa) = 0.02291575
#
# Stress axis : x y z
#
# Youngs Moduli (GPa) = 38.72476 38.73789 20.23221
#
# Poissons Ratio (x) = 0.67862 0.27507
# Poissons Ratio (y) = 0.67839 0.16105
# Poissons Ratio (z) = 0.52649 0.30836
#
# Static dielectric constant tensor:
#      x y z
#    x 1.592330 0.000000 0.000000 
#    y 0.000000 1.598080 0.000000 
#    z 0.000000 0.000000 1.604860 
# 
# From -- ./inp_files/2017.got.cif
#   From: 2010.05.17/outbox.cif.g08.bks.cpg/sg57_2_cif.got.tgz:2017.got - 2010.06.03 13:58:18.
