data_PCOD9437961
_publ_section_title
;
Structure prediction by ZEFSAII (Michael W. Deem and Ramdas Pophale) SiO2 
 PCOD9437961
Probable space group: P B C M
;
_chemical_formula_sum "Si O2"
_cell_formula_units_Z 44
_cell_length_a 7.781627
_cell_length_b 22.250955
_cell_length_c 10.120575
_cell_angle_alpha 90.000000
_cell_angle_beta 90.000000
_cell_angle_gamma 90.000000
_cell_volume 1752.363718
_symmetry_space_group_name_H-M "P B C M"
_symmetry_group_IT_number 57
_symmetry_cell_setting 'orthorhombic'
loop_
_space_group_symop_operation_xyz
x,y,z
-x,-y,1/2+z
x,1/2-y,-z
-x,1/2+y,1/2-z
-x,-y,-z
x,y,1/2-z
-x,1/2+y,z
x,1/2-y,1/2+z
loop_
_atom_site_type_symbol
_atom_site_label
_atom_site_fract_x
_atom_site_fract_y
_atom_site_fract_z
Si Si1 0.781035 0.590251 0.021023
Si Si2 0.145204 0.841972 0.528741
Si Si3 0.390649 0.447682 0.250000
Si Si4 0.627598 0.791843 0.612189
Si Si5 0.269942 0.770870 0.750000
Si Si6 0.267631 0.568901 0.250000
Si Si7 0.102353 0.006453 0.250000
Si Si8 0.249934 0.620977 0.750000
O O1 0.647803 0.638627 0.078133
O O2 0.811256 0.534824 0.119790
O O3 0.960228 0.626275 0.012132
O O4 0.712929 0.568675 0.881243
O O5 0.133829 0.786855 0.629687
O O6 0.255352 0.889020 0.621261
O O7 0.223643 0.839035 0.380653
O O8 0.416598 0.519754 0.250000
O O9 0.564395 0.409408 0.250000
O O10 0.699984 0.750000 0.500000
O O11 0.721029 0.780966 0.750000
O O12 0.430688 0.773959 0.639259
O O13 0.091686 0.530391 0.250000
O O14 0.121110 0.935173 0.250000
#
# Coordination Sequence:
#
# PCOD9437961 Si02
#       8
#     8   8   4   8   4   4   4   4
#     4  11  22  40  65  88 121 168 209 256 306 368
#     4  10  21  40  63  87 127 170 209 251 304 353
#     4  12  25  33  55  91 128 166 216 255 299 355
#     4  10  23  43  68  92 123 154 196 249 313 383
#     4   9  21  40  65  88 123 156 192 244 312 369
#     4   9  20  37  57  84 122 174 212 255 295 355
#     4  10  20  38  59  85 126 166 214 255 305 349
#     4  12  24  34  54  94 133 168 214 259 289 354
#
# _framework density 25.108941000000002
#
# number of rings (size 3 to 8) (size 9 to 14) (size 15 to 20)
#    0.545    1.091    0.909    4.364    1.273    8.727 
#    1.636    0.909    0.000    0.000    0.000    0.000 
#    0.000    0.000    0.000    0.000    0.000    0.000 
#
# Total GULP energy -245388.421785 kJ/mol
# GULP energy per Si atom -5577.009586 kJ/mol
# Density = 2.505179 g / cm^3
# Si number density = 25.108941 Si / 1000 Ang^3
#
#
#
# Elastic Constant Matrix: (Units=GPa)
#
#
# Indices 1 2 3 4 5 6 
#
# 1 84.9605 8.2282 15.9810 0.0000 0.0000 0.0000
# 2 8.2282 114.3700 28.1941 0.0000 0.0000 0.0000
# 3 15.9810 28.1941 212.8351 0.0000 0.0000 0.0000
# 4 0.0000 0.0000 0.0000 49.8089 0.0000 0.0000
# 5 0.0000 0.0000 0.0000 0.0000 602.2527 0.0000
# 6 0.0000 0.0000 0.0000 0.0000 0.0000 35.6944
#
#
#
# Elastic Compliance Matrix: (Units=1/GPa)
#
#
# Indices 1 2 3 4 5 6 
#
# 1 0.011987 -0.000662 -0.000812 0.000000 0.000000 0.000000
# 2 -0.000662 0.009075 -0.001152 0.000000 0.000000 0.000000
# 3 -0.000812 -0.001152 0.004912 0.000000 0.000000 0.000000
# 4 0.000000 0.000000 0.000000 0.020077 0.000000 0.000000
# 5 0.000000 0.000000 0.000000 0.000000 0.001660 0.000000
# 6 0.000000 0.000000 0.000000 0.000000 0.000000 0.028016
#
#
# Mechanical properties :
#
#
# Convention : Reuss Voigt Hill
#
# Bulk Modulus (GPa) = 48.26119 57.44136 52.85128
# Shear Modulus (GPa) = 56.89050 161.53535 109.21292
#
# Velocity S-wave (km/s) = 4.76515 8.02954 6.60228
# Velocity P-wave (km/s) = 7.03832 10.43509 8.90026
#
# Compressibility (1/GPa) = 0.02072058
#
# Stress axis : x y z
#
# Youngs Moduli (GPa) = 83.42301 110.18929 203.57734
#
# Poissons Ratio (x) = 0.07296 0.16538
# Poissons Ratio (y) = 0.05524 0.23462
# Poissons Ratio (z) = 0.06777 0.12699
#
# Static dielectric constant tensor:
#      x y z
#    x 1.998860 0.000000 0.000000 
#    y 0.000000 2.200170 0.000000 
#    z 0.000000 0.000000 1.974400 
# 
# From -- ./inp_files/1957.got.cif
#   From: 2010.05.17/outbox.cif.g08.bks.cpg/sg57_1_cif.got.tgz:1957.got - 2010.06.03 13:58:18.
