data_PCOD9437797
_publ_section_title
;
Structure prediction by ZEFSAII (Michael W. Deem and Ramdas Pophale) SiO2 
 PCOD9437797
Probable space group: P B C M
;
_chemical_formula_sum "Si O2"
_cell_formula_units_Z 64
_cell_length_a 14.662427
_cell_length_b 25.707052
_cell_length_c 8.080887
_cell_angle_alpha 90.000000
_cell_angle_beta 90.000000
_cell_angle_gamma 90.000000
_cell_volume 3045.910743
_symmetry_space_group_name_H-M "P B C M"
_symmetry_group_IT_number 57
_symmetry_cell_setting 'orthorhombic'
loop_
_space_group_symop_operation_xyz
x,y,z
-x,-y,1/2+z
x,1/2-y,-z
-x,1/2+y,1/2-z
-x,-y,-z
x,y,1/2-z
-x,1/2+y,z
x,1/2-y,1/2+z
loop_
_atom_site_type_symbol
_atom_site_label
_atom_site_fract_x
_atom_site_fract_y
_atom_site_fract_z
Si Si1 0.302549 0.809455 0.050304
Si Si2 0.900919 0.309948 0.050167
Si Si3 0.569972 0.099693 0.943518
Si Si4 0.286865 0.982904 0.942546
Si Si5 0.733924 0.692176 0.053360
Si Si6 0.098671 0.479794 0.449768
Si Si7 0.915091 0.637736 0.550443
Si Si8 0.368244 0.410733 0.944013
O O1 0.301926 0.812432 0.250000
O O2 0.200650 0.825144 0.991685
O O3 0.380387 0.848414 0.991248
O O4 0.317865 0.750000 0.000000
O O5 0.900452 0.312519 0.250000
O O6 0.985581 0.344103 0.989493
O O7 0.915320 0.250000 0.000000
O O8 0.547417 0.106171 0.750000
O O9 0.644342 0.054287 0.962086
O O10 0.476827 0.087217 0.035921
O O11 0.712425 0.032722 0.250000
O O12 0.323036 0.041835 0.958594
O O13 0.183109 0.984904 0.007910
O O14 0.731343 0.691302 0.250000
O O15 0.669565 0.644908 0.994274
O O16 0.707567 0.750000 0.000000
O O17 0.836183 0.677742 0.997789
O O18 0.104427 0.479127 0.250000
O O19 0.108806 0.420242 0.509484
O O20 0.000000 0.500000 0.500000
O O21 0.918528 0.636020 0.750000
O O22 0.344722 0.416669 0.750000
#
# Coordination Sequence:
#
# PCOD9437797 Si02
#       8
#     8   8   8   8   8   8   8   8
#     4   9  20  38  59  85 118 156 195 240 295 351
#     4   9  18  33  54  80 111 148 188 231 281 340
#     4  11  24  40  64  92 119 157 201 249 306 368
#     4  11  23  42  65  91 123 159 202 250 301 358
#     4  11  24  40  62  90 122 162 205 253 309 369
#     4  10  23  39  60  90 124 163 199 245 301 357
#     4  10  20  37  60  85 119 158 199 248 298 355
#     4  11  24  43  64  89 120 157 201 253 308 362
#
# _framework density 21.011778
#
# number of rings (size 3 to 8) (size 9 to 14) (size 15 to 20)
#    0.000    1.750    1.250    2.250    1.750    6.000 
#    0.000    2.500    0.000    0.000    0.000    0.000 
#    0.000    0.000    0.000    0.000    0.000    0.000 
#
# Total GULP energy -357668.787766 kJ/mol
# GULP energy per Si atom -5588.574809 kJ/mol
# Density = 2.096395 g / cm^3
# Si number density = 21.011778 Si / 1000 Ang^3
#
#
#
# Elastic Constant Matrix: (Units=GPa)
#
#
# Indices 1 2 3 4 5 6 
#
# 1 100.3602 13.5168 -6.9328 0.0000 0.0000 0.0000
# 2 13.5168 53.3875 -10.3984 0.0000 0.0000 0.0000
# 3 -6.9328 -10.3984 18.7977 0.0000 0.0000 0.0000
# 4 0.0000 0.0000 0.0000 26.0820 0.0000 0.0000
# 5 0.0000 0.0000 0.0000 0.0000 -55.8966 0.0000
# 6 0.0000 0.0000 0.0000 0.0000 0.0000 50.2067
#
#
#
# Elastic Compliance Matrix: (Units=1/GPa)
#
#
# Indices 1 2 3 4 5 6 
#
# 1 0.010435 -0.002121 0.002675 0.000000 0.000000 0.000000
# 2 -0.002121 0.021424 0.011069 0.000000 0.000000 0.000000
# 3 0.002675 0.011069 0.060308 0.000000 0.000000 0.000000
# 4 0.000000 0.000000 0.000000 0.038341 0.000000 0.000000
# 5 0.000000 0.000000 0.000000 0.000000 -0.017890 0.000000
# 6 0.000000 0.000000 0.000000 0.000000 0.000000 0.019918
#
#
# Mechanical properties :
#
#
# Convention : Reuss Voigt Hill
#
# Bulk Modulus (GPa) = 8.66453 18.32405 13.49429
# Shear Modulus (GPa) = 33.83899 15.83574 24.83736
#
# Velocity S-wave (km/s) = 4.01743 2.74827 3.44185
# Velocity P-wave (km/s) = 5.06481 4.33709 4.71501
#
# Compressibility (1/GPa) = 0.11541303
#
# Stress axis : x y z
#
# Youngs Moduli (GPa) = 95.83550 46.67690 16.58161
#
# Poissons Ratio (x) = 0.09899 -0.04436
# Poissons Ratio (y) = 0.20325 -0.18354
# Poissons Ratio (z) = -0.25638 -0.51667
#
# Static dielectric constant tensor:
#      x y z
#    x 1.758480 0.000000 0.000000 
#    y 0.000000 1.765850 0.000000 
#    z 0.000000 0.000000 1.737220 
# 
# From -- ./inp_files/5654.got.cif
#   From: 2010.05.17/outbox.cif.g08.bks.cpg/sg57_3_cif.got.tgz:5654.got - 2010.06.03 13:58:18.
