data_PCOD9437510
_publ_section_title
;
Structure prediction by ZEFSAII (Michael W. Deem and Ramdas Pophale) SiO2 
 PCOD9437510
Probable space group: P B C M
;
_chemical_formula_sum "Si O2"
_cell_formula_units_Z 64
_cell_length_a 22.200331
_cell_length_b 18.397179
_cell_length_c 8.646687
_cell_angle_alpha 90.000000
_cell_angle_beta 90.000000
_cell_angle_gamma 90.000000
_cell_volume 3531.509850
_symmetry_space_group_name_H-M "P B C M"
_symmetry_group_IT_number 57
_symmetry_cell_setting 'orthorhombic'
loop_
_space_group_symop_operation_xyz
x,y,z
-x,-y,1/2+z
x,1/2-y,-z
-x,1/2+y,1/2-z
-x,-y,-z
x,y,1/2-z
-x,1/2+y,z
x,1/2-y,1/2+z
loop_
_atom_site_type_symbol
_atom_site_label
_atom_site_fract_x
_atom_site_fract_y
_atom_site_fract_z
Si Si1 0.616487 0.417739 0.064135
Si Si2 0.064868 0.478842 0.063935
Si Si3 0.731526 0.331312 0.565330
Si Si4 0.244326 0.093733 0.936781
Si Si5 0.816764 0.449861 0.434550
Si Si6 0.124686 0.172301 0.935400
Si Si7 0.496068 0.330953 0.063567
Si Si8 0.378830 0.419176 0.063126
O O1 0.621722 0.416986 0.250000
O O2 0.554178 0.378440 0.018918
O O3 0.672338 0.373780 0.993604
O O4 0.616459 0.500157 0.004997
O O5 0.065720 0.482517 0.250000
O O6 0.083793 0.396496 0.017864
O O7 0.117155 0.530757 0.997954
O O8 0.000000 0.500000 0.000000
O O9 0.731297 0.250000 0.500000
O O10 0.731613 0.330025 0.750000
O O11 0.788446 0.377032 0.504049
O O12 0.240719 0.085554 0.750000
O O13 0.193053 0.151158 0.983572
O O14 0.312858 0.111775 0.978252
O O15 0.225367 0.016879 0.010254
O O16 0.817190 0.446410 0.250000
O O17 0.123552 0.175901 0.750000
O O18 0.106464 0.250000 0.000000
O O19 0.494975 0.327841 0.250000
O O20 0.434539 0.369885 0.010988
O O21 0.500951 0.250000 0.000000
O O22 0.381334 0.424546 0.250000
#
# Coordination Sequence:
#
# PCOD9437510 Si02
#       8
#     8   8   8   8   8   8   8   8
#     4  11  22  37  57  83 111 144 194 243 289 353
#     4  10  21  39  62  89 120 158 201 243 287 336
#     4  12  24  39  59  85 116 150 189 239 296 350
#     4   9  18  34  55  80 112 149 187 232 287 338
#     4  11  21  36  59  87 117 149 190 233 280 342
#     4   9  19  34  54  83 118 152 190 236 282 333
#     4  10  23  39  54  77 110 148 191 241 295 351
#     4  10  20  36  58  81 109 148 189 236 293 346
#
# _framework density 18.12256
#
# number of rings (size 3 to 8) (size 9 to 14) (size 15 to 20)
#    0.000    1.750    1.250    4.500    0.000    5.500 
#    0.000    0.625    0.000    1.500    0.000    0.000 
#    0.000    0.000    0.000    0.000    0.000    0.000 
#
# Total GULP energy -357499.001464 kJ/mol
# GULP energy per Si atom -5585.921898 kJ/mol
# Density = 1.808131 g / cm^3
# Si number density = 18.122560 Si / 1000 Ang^3
#
#
#
# Elastic Constant Matrix: (Units=GPa)
#
#
# Indices 1 2 3 4 5 6 
#
# 1 148.8328 47.7664 33.0539 0.0000 0.0000 0.0000
# 2 47.7664 71.3228 7.7536 0.0000 0.0000 0.0000
# 3 33.0539 7.7536 41.3675 0.0000 0.0000 0.0000
# 4 0.0000 0.0000 0.0000 32.9566 0.0000 0.0000
# 5 0.0000 0.0000 0.0000 0.0000 26.2992 0.0000
# 6 0.0000 0.0000 0.0000 0.0000 0.0000 17.6990
#
#
#
# Elastic Compliance Matrix: (Units=1/GPa)
#
#
# Indices 1 2 3 4 5 6 
#
# 1 0.010237 -0.006091 -0.007038 0.000000 0.000000 0.000000
# 2 -0.006091 0.017936 0.001505 0.000000 0.000000 0.000000
# 3 -0.007038 0.001505 0.029515 0.000000 0.000000 0.000000
# 4 0.000000 0.000000 0.000000 0.030343 0.000000 0.000000
# 5 0.000000 0.000000 0.000000 0.000000 0.038024 0.000000
# 6 0.000000 0.000000 0.000000 0.000000 0.000000 0.056500
#
#
# Mechanical properties :
#
#
# Convention : Reuss Voigt Hill
#
# Bulk Modulus (GPa) = 29.03561 48.74123 38.88842
# Shear Modulus (GPa) = 23.01150 26.92091 24.96621
#
# Velocity S-wave (km/s) = 3.56725 3.85839 3.71567
# Velocity P-wave (km/s) = 5.74662 6.84129 6.31771
#
# Compressibility (1/GPa) = 0.03444047
#
# Stress axis : x y z
#
# Youngs Moduli (GPa) = 97.68773 55.75316 33.88107
#
# Poissons Ratio (x) = 0.33957 0.23845
# Poissons Ratio (y) = 0.59498 -0.05098
# Poissons Ratio (z) = 0.68751 -0.08390
#
# Static dielectric constant tensor:
#      x y z
#    x 1.624120 0.000000 0.000000 
#    y 0.000000 1.587430 0.000000 
#    z 0.000000 0.000000 1.609110 
# 
# From -- ./inp_files/8582.got.cif
#   From: 2010.05.17/outbox.cif.g08.bks.cpg/sg57_5_cif.got.tgz:8582.got - 2010.06.03 13:58:18.
