data_PCOD9437730
_publ_section_title
;
Structure prediction by ZEFSAII (Michael W. Deem and Ramdas Pophale) SiO2 
 PCOD9437730
Probable space group: P B C M
;
_chemical_formula_sum "Si O2"
_cell_formula_units_Z 64
_cell_length_a 14.884129
_cell_length_b 25.498907
_cell_length_c 7.648134
_cell_angle_alpha 90.000000
_cell_angle_beta 90.000000
_cell_angle_gamma 90.000000
_cell_volume 2902.688811
_symmetry_space_group_name_H-M "P B C M"
_symmetry_group_IT_number 57
_symmetry_cell_setting 'orthorhombic'
loop_
_space_group_symop_operation_xyz
x,y,z
-x,-y,1/2+z
x,1/2-y,-z
-x,1/2+y,1/2-z
-x,-y,-z
x,y,1/2-z
-x,1/2+y,z
x,1/2-y,1/2+z
loop_
_atom_site_type_symbol
_atom_site_label
_atom_site_fract_x
_atom_site_fract_y
_atom_site_fract_z
Si Si1 0.220013 0.517637 0.545632
Si Si2 0.431363 0.136759 0.457067
Si Si3 0.069980 0.905686 0.453169
Si Si4 0.611834 0.188473 0.460284
Si Si5 0.401721 0.478954 0.539712
Si Si6 0.133668 0.093169 0.963558
Si Si7 0.748153 0.808997 0.457301
Si Si8 0.811946 0.311168 0.541379
O O1 0.227782 0.532674 0.750000
O O2 0.145086 0.555887 0.466021
O O3 0.320643 0.514919 0.470021
O O4 0.183584 0.458510 0.530100
O O5 0.444650 0.129415 0.250000
O O6 0.527034 0.155952 0.529555
O O7 0.397908 0.080828 0.528212
O O8 0.352616 0.178852 0.479267
O O9 0.060130 0.921208 0.250000
O O10 0.111953 0.847981 0.463456
O O11 0.969577 0.907886 0.525643
O O12 0.598685 0.250000 0.500000
O O13 0.613514 0.183397 0.250000
O O14 0.711648 0.173444 0.523889
O O15 0.500000 0.500000 0.500000
O O16 0.390281 0.477454 0.750000
O O17 0.135098 0.092400 0.750000
O O18 0.185377 0.145535 0.023555
O O19 0.776163 0.750000 0.500000
O O20 0.745869 0.813855 0.250000
O O21 0.824427 0.250000 0.500000
O O22 0.813982 0.317646 0.750000
#
# Coordination Sequence:
#
# PCOD9437730 Si02
#       8
#     8   8   8   8   8   8   8   8
#     4  10  21  39  62  87 117 153 193 239 291 344
#     4  10  20  37  58  81 115 151 190 237 282 340
#     4  10  22  39  60  87 117 149 192 242 289 348
#     4   9  19  34  53  78 107 142 181 225 273 328
#     4  10  22  37  56  85 119 155 190 232 286 341
#     4  10  22  40  60  85 116 150 192 243 294 344
#     4  11  23  38  58  85 115 152 194 239 293 351
#     4  10  21  38  59  84 115 151 190 234 288 342
#
# _framework density 22.048522999999999
#
# number of rings (size 3 to 8) (size 9 to 14) (size 15 to 20)
#    0.000    2.000    1.250    1.500    1.750    5.000 
#    0.000    1.250    0.000    0.000    0.000    0.000 
#    0.000    0.000    0.000    0.000    0.000    0.000 
#
# Total GULP energy -357548.605143 kJ/mol
# GULP energy per Si atom -5586.696955 kJ/mol
# Density = 2.199834 g / cm^3
# Si number density = 22.048523 Si / 1000 Ang^3
#
#
#
# Elastic Constant Matrix: (Units=GPa)
#
#
# Indices 1 2 3 4 5 6 
#
# 1 132.8124 14.7043 -13.0420 0.0000 0.0000 0.0000
# 2 14.7043 50.1182 -20.4851 0.0000 0.0000 0.0000
# 3 -13.0420 -20.4851 40.5491 0.0000 0.0000 0.0000
# 4 0.0000 0.0000 0.0000 18.2955 0.0000 0.0000
# 5 0.0000 0.0000 0.0000 0.0000 2.7303 0.0000
# 6 0.0000 0.0000 0.0000 0.0000 0.0000 33.5907
#
#
#
# Elastic Compliance Matrix: (Units=1/GPa)
#
#
# Indices 1 2 3 4 5 6 
#
# 1 0.007876 -0.001607 0.001721 0.000000 0.000000 0.000000
# 2 -0.001607 0.025473 0.012352 0.000000 0.000000 0.000000
# 3 0.001721 0.012352 0.031455 0.000000 0.000000 0.000000
# 4 0.000000 0.000000 0.000000 0.054658 0.000000 0.000000
# 5 0.000000 0.000000 0.000000 0.000000 0.366255 0.000000
# 6 0.000000 0.000000 0.000000 0.000000 0.000000 0.029770
#
#
# Mechanical properties :
#
#
# Convention : Reuss Voigt Hill
#
# Bulk Modulus (GPa) = 11.14375 20.64823 15.89599
# Shear Modulus (GPa) = 9.60673 27.07681 18.34177
#
# Velocity S-wave (km/s) = 2.08963 3.50816 2.88737
# Velocity P-wave (km/s) = 3.29958 5.07886 4.28264
#
# Compressibility (1/GPa) = 0.08973637
#
# Stress axis : x y z
#
# Youngs Moduli (GPa) = 126.96155 39.25715 31.79128
#
# Poissons Ratio (x) = 0.06310 -0.05472
# Poissons Ratio (y) = 0.20407 -0.39268
# Poissons Ratio (z) = -0.21854 -0.48490
#
# Static dielectric constant tensor:
#      x y z
#    x 1.826480 0.000000 0.000000 
#    y 0.000000 1.776100 0.000000 
#    z 0.000000 0.000000 1.824300 
# 
# From -- ./inp_files/5649.got.cif
#   From: 2010.05.17/outbox.cif.g08.bks.cpg/sg57_3_cif.got.tgz:5649.got - 2010.06.03 13:58:18.
