data_PCOD9437123
_publ_section_title
;
Structure prediction by ZEFSAII (Michael W. Deem and Ramdas Pophale) SiO2 
 PCOD9437123
Probable space group: P B C M
;
_chemical_formula_sum "Si O2"
_cell_formula_units_Z 64
_cell_length_a 25.192079
_cell_length_b 15.638506
_cell_length_c 8.061307
_cell_angle_alpha 90.000000
_cell_angle_beta 90.000000
_cell_angle_gamma 90.000000
_cell_volume 3175.884732
_symmetry_space_group_name_H-M "P B C M"
_symmetry_group_IT_number 57
_symmetry_cell_setting 'orthorhombic'
loop_
_space_group_symop_operation_xyz
x,y,z
-x,-y,1/2+z
x,1/2-y,-z
-x,1/2+y,1/2-z
-x,-y,-z
x,y,1/2-z
-x,1/2+y,z
x,1/2-y,1/2+z
loop_
_atom_site_type_symbol
_atom_site_label
_atom_site_fract_x
_atom_site_fract_y
_atom_site_fract_z
Si Si1 0.610742 0.650332 0.549089
Si Si2 0.002809 0.901368 0.947619
Si Si3 0.813347 0.503941 0.953733
Si Si4 0.307714 0.006588 0.949344
Si Si5 0.117554 0.656279 0.449704
Si Si6 0.112143 0.157099 0.553159
Si Si7 0.378452 0.650613 0.551151
Si Si8 0.494620 0.650465 0.949553
O O1 0.618222 0.750000 0.500000
O O2 0.610534 0.648647 0.750000
O O3 0.655781 0.585108 0.488603
O O4 0.552097 0.618594 0.490805
O O5 0.005021 0.897607 0.750000
O O6 0.057653 0.861277 0.013487
O O7 0.948777 0.856446 0.001681
O O8 0.000000 0.000000 0.000000
O O9 0.813012 0.504611 0.750000
O O10 0.752758 0.510268 0.010403
O O11 0.842530 0.417220 0.006911
O O12 0.849958 0.582276 0.011845
O O13 0.305912 0.014229 0.750000
O O14 0.334941 0.916111 0.989704
O O15 0.135120 0.750000 0.500000
O O16 0.115674 0.651558 0.250000
O O17 0.130916 0.250000 0.500000
O O18 0.113301 0.151624 0.750000
O O19 0.370595 0.750000 0.500000
O O20 0.378780 0.649081 0.750000
O O21 0.437092 0.619507 0.489556
O O22 0.494427 0.642957 0.750000
O O23 0.494935 0.750000 0.000000
#
# Coordination Sequence:
#
# PCOD9437123 Si02
#       8
#     8   8   8   8   8   8   8   8
#     4   9  18  33  54  80 108 142 181 224 275 331
#     4  11  21  36  60  88 118 150 182 224 278 333
#     4   9  20  40  58  75 109 150 186 228 277 323
#     4  10  21  37  57  79 107 146 188 230 277 329
#     4  10  21  38  58  82 109 143 180 220 270 324
#     4  11  22  39  60  85 116 150 188 230 277 334
#     4  10  20  35  55  79 109 143 179 226 277 331
#     4   8  15  29  49  75 107 139 174 217 272 331
#
# _framework density 20.151865000000001
#
# number of rings (size 3 to 8) (size 9 to 14) (size 15 to 20)
#    0.000    2.250    1.250    1.500    0.000    4.500 
#    0.000    3.125    0.000    0.000    0.000    0.000 
#    0.000    0.000    0.000    0.000    0.000    0.000 
#
# Total GULP energy -357138.672716 kJ/mol
# GULP energy per Si atom -5580.291761 kJ/mol
# Density = 2.010600 g / cm^3
# Si number density = 20.151865 Si / 1000 Ang^3
#
#
#
# Elastic Constant Matrix: (Units=GPa)
#
#
# Indices 1 2 3 4 5 6 
#
# 1 142.1756 51.9749 10.0863 0.0000 0.0000 0.0000
# 2 51.9749 112.2015 -0.8424 0.0000 0.0000 0.0000
# 3 10.0863 -0.8424 17.5942 0.0000 0.0000 0.0000
# 4 0.0000 0.0000 0.0000 27.7934 0.0000 0.0000
# 5 0.0000 0.0000 0.0000 0.0000 26.4150 0.0000
# 6 0.0000 0.0000 0.0000 0.0000 0.0000 -17.1952
#
#
#
# Elastic Compliance Matrix: (Units=1/GPa)
#
#
# Indices 1 2 3 4 5 6 
#
# 1 0.008940 -0.004181 -0.005325 0.000000 0.000000 0.000000
# 2 -0.004181 0.010871 0.002917 0.000000 0.000000 0.000000
# 3 -0.005325 0.002917 0.060030 0.000000 0.000000 0.000000
# 4 0.000000 0.000000 0.000000 0.035980 0.000000 0.000000
# 5 0.000000 0.000000 0.000000 0.000000 0.037857 0.000000
# 6 0.000000 0.000000 0.000000 0.000000 0.000000 -0.058156
#
#
# Mechanical properties :
#
#
# Convention : Reuss Voigt Hill
#
# Bulk Modulus (GPa) = 15.00086 43.82322 29.41204
# Shear Modulus (GPa) = 38.19111 21.45281 29.82196
#
# Velocity S-wave (km/s) = 4.35807 3.26629 3.85107
# Velocity P-wave (km/s) = 5.72571 6.00155 5.86525
#
# Compressibility (1/GPa) = 0.06666286
#
# Stress axis : x y z
#
# Youngs Moduli (GPa) = 111.85883 91.98552 16.65847
#
# Poissons Ratio (x) = 0.38461 0.08871
# Poissons Ratio (y) = 0.46770 -0.04860
# Poissons Ratio (z) = 0.59567 -0.26836
#
# Static dielectric constant tensor:
#      x y z
#    x 1.739350 0.000000 0.000000 
#    y 0.000000 1.682920 0.000000 
#    z 0.000000 0.000000 1.729080 
# 
# From -- ./inp_files/9458.got.cif
#   From: 2010.05.17/outbox.cif.g08.bks.cpg/sg57_5_cif.got.tgz:9458.got - 2010.06.03 13:58:18.
