data_PCOD9437489
_publ_section_title
;
Structure prediction by ZEFSAII (Michael W. Deem and Ramdas Pophale) SiO2 
 PCOD9437489
Probable space group: P B C M
;
_chemical_formula_sum "Si O2"
_cell_formula_units_Z 40
_cell_length_a 6.853179
_cell_length_b 22.720818
_cell_length_c 11.943615
_cell_angle_alpha 90.000000
_cell_angle_beta 90.000000
_cell_angle_gamma 90.000000
_cell_volume 1859.738294
_symmetry_space_group_name_H-M "P B C M"
_symmetry_group_IT_number 57
_symmetry_cell_setting 'orthorhombic'
loop_
_space_group_symop_operation_xyz
x,y,z
-x,-y,1/2+z
x,1/2-y,-z
-x,1/2+y,1/2-z
-x,-y,-z
x,y,1/2-z
-x,1/2+y,z
x,1/2-y,1/2+z
loop_
_atom_site_type_symbol
_atom_site_label
_atom_site_fract_x
_atom_site_fract_y
_atom_site_fract_z
Si Si1 0.094466 0.910850 0.966889
Si Si2 0.456959 0.239606 0.124971
Si Si3 0.507119 0.886548 0.932070
Si Si4 0.231715 0.488650 0.629843
Si Si5 0.227075 0.355281 0.122254
O O1 0.961313 0.873318 0.051160
O O2 0.199295 0.963580 0.034934
O O3 0.277575 0.876920 0.917236
O O4 0.946583 0.942454 0.882898
O O5 0.549986 0.250200 0.250000
O O6 0.395574 0.171436 0.121292
O O7 0.279589 0.286190 0.121196
O O8 0.555403 0.250000 0.000000
O O9 0.579014 0.947928 0.882864
O O10 0.587781 0.885190 0.059529
O O11 0.227987 0.518035 0.750000
O O12 0.208913 0.375079 0.250000
#
# Coordination Sequence:
#
# PCOD9437489 Si02
#       5
#     8   8   8   8   8
#     4  10  21  37  57  84 116 154 197 244 297 360
#     4   9  18  35  58  82 114 154 194 243 299 356
#     4  10  20  36  57  84 118 153 199 250 304 361
#     4  10  21  36  55  83 118 153 194 245 298 358
#     4   9  19  36  57  83 117 155 197 246 300 360
#
# _framework density 21.508403999999999
#
# number of rings (size 3 to 8) (size 9 to 14) (size 15 to 20)
#    0.000    2.400    0.000    1.800    0.000    3.200 
#    0.000   15.000    0.000   14.400    0.000    0.000 
#    0.000    0.000    0.000    0.000    0.000    0.000 
#
# Total GULP energy -222762.432063 kJ/mol
# GULP energy per Si atom -5569.060802 kJ/mol
# Density = 2.145945 g / cm^3
# Si number density = 21.508404 Si / 1000 Ang^3
#
#
#
# Elastic Constant Matrix: (Units=GPa)
#
#
# Indices 1 2 3 4 5 6 
#
# 1 81.0185 -0.9649 -1.0158 0.0000 0.0000 0.0000
# 2 -0.9649 51.6881 -5.2131 0.0000 0.0000 0.0000
# 3 -1.0158 -5.2131 114.8537 0.0000 0.0000 0.0000
# 4 0.0000 0.0000 0.0000 11.9910 0.0000 0.0000
# 5 0.0000 0.0000 0.0000 0.0000 -3.3328 0.0000
# 6 0.0000 0.0000 0.0000 0.0000 0.0000 9.1544
#
#
#
# Elastic Compliance Matrix: (Units=1/GPa)
#
#
# Indices 1 2 3 4 5 6 
#
# 1 0.012347 0.000243 0.000120 0.000000 0.000000 0.000000
# 2 0.000243 0.019441 0.000885 0.000000 0.000000 0.000000
# 3 0.000120 0.000885 0.008748 0.000000 0.000000 0.000000
# 4 0.000000 0.000000 0.000000 0.083396 0.000000 0.000000
# 5 0.000000 0.000000 0.000000 0.000000 -0.300047 0.000000
# 6 0.000000 0.000000 0.000000 0.000000 0.000000 0.109237
#
#
# Mechanical properties :
#
#
# Convention : Reuss Voigt Hill
#
# Bulk Modulus (GPa) = 23.23934 25.90808 24.57371
# Shear Modulus (GPa) = -90.86089 20.54612 -35.15739
#
# Velocity S-wave (km/s) = -6.50662 3.09408 -4.04739
# Velocity P-wave (km/s) = 6.75425 4.98359 3.22364
#
# Compressibility (1/GPa) = 0.04303049
#
# Stress axis : x y z
#
# Youngs Moduli (GPa) = 80.98967 51.43887 114.31260
#
# Poissons Ratio (x) = -0.01248 -0.01374
# Poissons Ratio (y) = -0.01965 -0.10111
# Poissons Ratio (z) = -0.00974 -0.04550
#
# Static dielectric constant tensor:
#      x y z
#    x 1.786380 0.000000 0.000000 
#    y 0.000000 1.799010 0.000000 
#    z 0.000000 0.000000 1.862300 
# 
# From -- ./inp_files/10923.got.cif
#   From: 2010.05.17/outbox.cif.g08.bks.cpg/sg57_6_cif.got.tgz:10923.got - 2010.06.03 13:58:18.
