data_PCOD9437124
_publ_section_title
;
Structure prediction by ZEFSAII (Michael W. Deem and Ramdas Pophale) SiO2 
 PCOD9437124
Probable space group: P B C M
;
_chemical_formula_sum "Si O2"
_cell_formula_units_Z 48
_cell_length_a 31.407596
_cell_length_b 9.582047
_cell_length_c 8.801515
_cell_angle_alpha 90.000000
_cell_angle_beta 90.000000
_cell_angle_gamma 90.000000
_cell_volume 2648.807675
_symmetry_space_group_name_H-M "P B C M"
_symmetry_group_IT_number 57
_symmetry_cell_setting 'orthorhombic'
loop_
_space_group_symop_operation_xyz
x,y,z
-x,-y,1/2+z
x,1/2-y,-z
-x,1/2+y,1/2-z
-x,-y,-z
x,y,1/2-z
-x,1/2+y,z
x,1/2-y,1/2+z
loop_
_atom_site_type_symbol
_atom_site_label
_atom_site_fract_x
_atom_site_fract_y
_atom_site_fract_z
Si Si1 0.207444 0.905039 0.067397
Si Si2 0.711308 0.904513 0.566899
Si Si3 0.536457 0.403766 0.067916
Si Si4 0.963881 0.596921 0.568775
Si Si5 0.866273 0.594805 0.932220
Si Si6 0.633092 0.404190 0.432964
O O1 0.205243 0.896847 0.250000
O O2 0.248540 0.998545 0.025564
O O3 0.210711 0.750000 0.000000
O O4 0.166486 0.985982 0.003307
O O5 0.714700 0.750000 0.500000
O O6 0.710518 0.893528 0.750000
O O7 0.668513 0.985218 0.516901
O O8 0.533249 0.400163 0.250000
O O9 0.584834 0.448575 0.027457
O O10 0.531228 0.250000 0.000000
O O11 0.500000 0.500000 0.000000
O O12 0.969148 0.750000 0.500000
O O13 0.967964 0.601772 0.750000
O O14 0.915206 0.553104 0.533304
O O15 0.000000 0.500000 0.500000
O O16 0.861190 0.600863 0.750000
O O17 0.859181 0.750000 0.000000
O O18 0.640821 0.250000 0.500000
O O19 0.635480 0.392920 0.250000
#
# Coordination Sequence:
#
# PCOD9437124 Si02
#       6
#     8   8   8   8   8   8
#     4  11  23  38  58  83 111 144 182 225 272 323
#     4  10  22  38  56  81 110 141 179 221 268 322
#     4  10  20  35  55  79 109 144 182 225 273 324
#     4  10  21  37  58  83 112 147 185 227 274 324
#     4  10  21  38  59  83 112 146 184 226 273 324
#     4   9  19  36  56  79 107 140 179 222 269 321
#
# _framework density 18.121362000000001
#
# number of rings (size 3 to 8) (size 9 to 14) (size 15 to 20)
#    0.000    2.000    0.000    3.000    0.000    7.333 
#    0.000    1.667    0.000    0.000    0.000    0.000 
#    0.000    0.000    0.000    0.000    0.000    0.000 
#
# Total GULP energy -268069.214655 kJ/mol
# GULP energy per Si atom -5584.775305 kJ/mol
# Density = 1.808012 g / cm^3
# Si number density = 18.121362 Si / 1000 Ang^3
#
#
#
# Elastic Constant Matrix: (Units=GPa)
#
#
# Indices 1 2 3 4 5 6 
#
# 1 192.1832 136.4719 74.4703 0.0000 0.0000 0.0000
# 2 136.4719 151.6142 58.8207 0.0000 0.0000 0.0000
# 3 74.4703 58.8207 56.6062 0.0000 0.0000 0.0000
# 4 0.0000 0.0000 0.0000 39.4932 0.0000 0.0000
# 5 0.0000 0.0000 0.0000 0.0000 26.6879 0.0000
# 6 0.0000 0.0000 0.0000 0.0000 0.0000 42.6029
#
#
#
# Elastic Compliance Matrix: (Units=1/GPa)
#
#
# Indices 1 2 3 4 5 6 
#
# 1 0.017976 -0.011738 -0.011452 0.000000 0.000000 0.000000
# 2 -0.011738 0.018715 -0.004005 0.000000 0.000000 0.000000
# 3 -0.011452 -0.004005 0.036894 0.000000 0.000000 0.000000
# 4 0.000000 0.000000 0.000000 0.025321 0.000000 0.000000
# 5 0.000000 0.000000 0.000000 0.000000 0.037470 0.000000
# 6 0.000000 0.000000 0.000000 0.000000 0.000000 0.023473
#
#
# Mechanical properties :
#
#
# Convention : Reuss Voigt Hill
#
# Bulk Modulus (GPa) = 52.09671 104.43660 78.26666
# Shear Modulus (GPa) = 22.66156 30.46618 26.56387
#
# Velocity S-wave (km/s) = 3.54014 4.10473 3.83284
# Velocity P-wave (km/s) = 6.74695 8.95667 7.92916
#
# Compressibility (1/GPa) = 0.01919507
#
# Stress axis : x y z
#
# Youngs Moduli (GPa) = 55.62877 53.43295 27.10455
#
# Poissons Ratio (x) = 0.62719 0.31041
# Poissons Ratio (y) = 0.65296 0.10855
# Poissons Ratio (z) = 0.63708 0.21400
#
# Static dielectric constant tensor:
#      x y z
#    x 1.631470 0.000000 0.000000 
#    y 0.000000 1.566500 0.000000 
#    z 0.000000 0.000000 1.610480 
# 
# From -- ./inp_files/9928.got.cif
#   From: 2010.05.17/outbox.cif.g08.bks.cpg/sg57_5_cif.got.tgz:9928.got - 2010.06.03 13:58:18.
