data_PCOD9437299
_publ_section_title
;
Structure prediction by ZEFSAII (Michael W. Deem and Ramdas Pophale) SiO2 
 PCOD9437299
Probable space group: P B C M
;
_chemical_formula_sum "Si O2"
_cell_formula_units_Z 48
_cell_length_a 19.600806
_cell_length_b 15.425561
_cell_length_c 8.409986
_cell_angle_alpha 90.000000
_cell_angle_beta 90.000000
_cell_angle_gamma 90.000000
_cell_volume 2542.788102
_symmetry_space_group_name_H-M "P B C M"
_symmetry_group_IT_number 57
_symmetry_cell_setting 'orthorhombic'
loop_
_space_group_symop_operation_xyz
x,y,z
-x,-y,1/2+z
x,1/2-y,-z
-x,1/2+y,1/2-z
-x,-y,-z
x,y,1/2-z
-x,1/2+y,z
x,1/2-y,1/2+z
loop_
_atom_site_type_symbol
_atom_site_label
_atom_site_fract_x
_atom_site_fract_y
_atom_site_fract_z
Si Si1 0.999637 0.901579 0.559414
Si Si2 0.602051 0.501211 0.057414
Si Si3 0.145246 0.657977 0.939935
Si Si4 0.502359 0.649577 0.940682
Si Si5 0.851162 0.842486 0.558481
Si Si6 0.241249 0.501846 0.555717
O O1 0.999694 0.900229 0.750000
O O2 0.068371 0.857313 0.499330
O O3 0.928780 0.859367 0.502347
O O4 0.000000 0.000000 0.500000
O O5 0.599784 0.504248 0.250000
O O6 0.560989 0.413591 0.008718
O O7 0.680467 0.496607 0.004408
O O8 0.565871 0.589168 0.995936
O O9 0.143491 0.655826 0.750000
O O10 0.196061 0.583190 0.996763
O O11 0.170036 0.750000 0.000000
O O12 0.502303 0.653708 0.750000
O O13 0.501440 0.750000 0.000000
O O14 0.827499 0.750000 0.500000
O O15 0.852632 0.844530 0.750000
O O16 0.800168 0.917209 0.503956
O O17 0.241845 0.502470 0.750000
#
# Coordination Sequence:
#
# PCOD9437299 Si02
#       6
#     8   8   8   8   8   8
#     4  11  21  36  58  81 107 144 188 237 287 334
#     4   9  19  37  60  83 111 149 187 228 274 324
#     4  11  22  38  57  81 112 147 188 235 282 337
#     4  10  20  35  58  87 115 146 183 226 273 326
#     4  10  21  37  55  78 106 142 182 227 277 327
#     4   9  19  38  58  78 112 149 182 225 280 330
#
# _framework density 18.876916999999999
#
# number of rings (size 3 to 8) (size 9 to 14) (size 15 to 20)
#    0.000    2.000    1.667    2.000    0.000    4.667 
#    0.000    4.167    0.000    0.000    0.000    0.000 
#    0.000    0.000    0.000    0.000    0.000    0.000 
#
# Total GULP energy -267860.048254 kJ/mol
# GULP energy per Si atom -5580.417672 kJ/mol
# Density = 1.883395 g / cm^3
# Si number density = 18.876917 Si / 1000 Ang^3
#
#
#
# Elastic Constant Matrix: (Units=GPa)
#
#
# Indices 1 2 3 4 5 6 
#
# 1 167.3623 93.3026 22.7279 0.0000 0.0000 0.0000
# 2 93.3026 201.9058 24.6592 0.0000 0.0000 0.0000
# 3 22.7279 24.6592 27.4981 0.0000 0.0000 0.0000
# 4 0.0000 0.0000 0.0000 28.9188 0.0000 0.0000
# 5 0.0000 0.0000 0.0000 0.0000 16.0563 0.0000
# 6 0.0000 0.0000 0.0000 0.0000 0.0000 3.1473
#
#
#
# Elastic Compliance Matrix: (Units=1/GPa)
#
#
# Indices 1 2 3 4 5 6 
#
# 1 0.008403 -0.003408 -0.003889 0.000000 0.000000 0.000000
# 2 -0.003408 0.006944 -0.003410 0.000000 0.000000 0.000000
# 3 -0.003889 -0.003410 0.042639 0.000000 0.000000 0.000000
# 4 0.000000 0.000000 0.000000 0.034580 0.000000 0.000000
# 5 0.000000 0.000000 0.000000 0.000000 0.062281 0.000000
# 6 0.000000 0.000000 0.000000 0.000000 0.000000 0.317728
#
#
# Mechanical properties :
#
#
# Convention : Reuss Voigt Hill
#
# Bulk Modulus (GPa) = 27.34409 75.34948 51.34679
# Shear Modulus (GPa) = 9.87789 26.69626 18.28708
#
# Velocity S-wave (km/s) = 2.29001 3.76470 3.11586
# Velocity P-wave (km/s) = 4.63779 7.67464 6.34071
#
# Compressibility (1/GPa) = 0.03657098
#
# Stress axis : x y z
#
# Youngs Moduli (GPa) = 119.00140 144.00302 23.45276
#
# Poissons Ratio (x) = 0.49080 0.09121
# Poissons Ratio (y) = 0.40559 0.07998
# Poissons Ratio (z) = 0.46281 0.49110
#
# Static dielectric constant tensor:
#      x y z
#    x 1.655110 0.000000 0.000000 
#    y 0.000000 1.637370 0.000000 
#    z 0.000000 0.000000 1.672380 
# 
# From -- ./inp_files/6468.got.cif
#   From: 2010.05.17/outbox.cif.g08.bks.cpg/sg57_4_cif.got.tgz:6468.got - 2010.06.03 13:58:18.
