data_PCOD9437073
_publ_section_title
;
Structure prediction by ZEFSAII (Michael W. Deem and Ramdas Pophale) SiO2 
 PCOD9437073
Probable space group: P B C M
;
_chemical_formula_sum "Si O2"
_cell_formula_units_Z 48
_cell_length_a 18.040351
_cell_length_b 15.143462
_cell_length_c 9.390223
_cell_angle_alpha 90.000000
_cell_angle_beta 90.000000
_cell_angle_gamma 90.000000
_cell_volume 2565.346665
_symmetry_space_group_name_H-M "P B C M"
_symmetry_group_IT_number 57
_symmetry_cell_setting 'orthorhombic'
loop_
_space_group_symop_operation_xyz
x,y,z
-x,-y,1/2+z
x,1/2-y,-z
-x,1/2+y,1/2-z
-x,-y,-z
x,y,1/2-z
-x,1/2+y,z
x,1/2-y,1/2+z
loop_
_atom_site_type_symbol
_atom_site_label
_atom_site_fract_x
_atom_site_fract_y
_atom_site_fract_z
Si Si1 0.164384 0.970116 0.919167
Si Si2 0.625186 0.836420 0.416775
Si Si3 0.666364 0.462539 0.919256
Si Si4 0.469006 0.585576 0.917834
Si Si5 0.118756 0.162526 0.582664
Si Si6 0.057175 0.840351 0.419111
O O1 0.146422 0.963120 0.750000
O O2 0.248233 0.937944 0.940183
O O3 0.160754 0.073510 0.957231
O O4 0.105499 0.917051 0.011298
O O5 0.651487 0.750000 0.500000
O O6 0.643103 0.826690 0.250000
O O7 0.535545 0.844580 0.431607
O O8 0.655405 0.933506 0.460820
O O9 0.648811 0.458152 0.750000
O O10 0.609992 0.401621 0.007302
O O11 0.459663 0.568055 0.750000
O O12 0.500000 0.500000 0.000000
O O13 0.141018 0.250000 0.500000
O O14 0.129376 0.177915 0.750000
O O15 0.030897 0.145653 0.558486
O O16 0.076745 0.750000 0.500000
O O17 0.069833 0.833313 0.250000
#
# Coordination Sequence:
#
# PCOD9437073 Si02
#       6
#     8   8   8   8   8   8
#     4  10  20  35  54  77 108 143 175 215 269 320
#     4   9  18  31  48  72  98 125 159 199 242 291
#     4   9  19  34  50  71 101 133 164 202 251 304
#     4   9  17  31  50  70  93 123 161 200 238 285
#     4   9  19  34  53  78 108 141 177 220 267 315
#     4  10  20  35  55  78 103 135 179 226 269 317
#
# _framework density 18.710920999999999
#
# number of rings (size 3 to 8) (size 9 to 14) (size 15 to 20)
#    0.000    2.667    0.000    2.500    0.000    6.000 
#    0.000    0.833    0.000    2.000    0.000    0.000 
#    0.000    0.000    0.000    0.000    0.000    0.000 
#
# Total GULP energy -267628.427877 kJ/mol
# GULP energy per Si atom -5575.592247 kJ/mol
# Density = 1.866833 g / cm^3
# Si number density = 18.710921 Si / 1000 Ang^3
#
#
#
# Elastic Constant Matrix: (Units=GPa)
#
#
# Indices 1 2 3 4 5 6 
#
# 1 41.5601 7.6598 25.8039 0.0000 0.0000 0.0000
# 2 7.6598 17.0859 11.2941 0.0000 0.0000 0.0000
# 3 25.8039 11.2941 44.1990 0.0000 0.0000 0.0000
# 4 0.0000 0.0000 0.0000 32.8735 0.0000 0.0000
# 5 0.0000 0.0000 0.0000 0.0000 7.3735 0.0000
# 6 0.0000 0.0000 0.0000 0.0000 0.0000 2.5895
#
#
#
# Elastic Compliance Matrix: (Units=1/GPa)
#
#
# Indices 1 2 3 4 5 6 
#
# 1 0.037857 -0.002842 -0.021375 0.000000 0.000000 0.000000
# 2 -0.002842 0.070636 -0.016390 0.000000 0.000000 0.000000
# 3 -0.021375 -0.016390 0.039292 0.000000 0.000000 0.000000
# 4 0.000000 0.000000 0.000000 0.030420 0.000000 0.000000
# 5 0.000000 0.000000 0.000000 0.000000 0.135620 0.000000
# 6 0.000000 0.000000 0.000000 0.000000 0.000000 0.386174
#
#
# Mechanical properties :
#
#
# Convention : Reuss Voigt Hill
#
# Bulk Modulus (GPa) = 15.02174 21.37340 18.19757
# Shear Modulus (GPa) = 6.22352 12.43979 9.33166
#
# Velocity S-wave (km/s) = 1.82575 2.58125 2.23564
# Velocity P-wave (km/s) = 3.53415 4.50905 4.05104
#
# Compressibility (1/GPa) = 0.06657020
#
# Stress axis : x y z
#
# Youngs Moduli (GPa) = 26.41550 14.15701 25.45053
#
# Poissons Ratio (x) = 0.04024 0.54400
# Poissons Ratio (y) = 0.07508 0.41714
# Poissons Ratio (z) = 0.56463 0.23204
#
# Static dielectric constant tensor:
#      x y z
#    x 1.687780 0.000000 0.000000 
#    y 0.000000 1.640560 0.000000 
#    z 0.000000 0.000000 1.623590 
# 
# From -- ./inp_files/6562.got.cif
#   From: 2010.05.17/outbox.cif.g08.bks.cpg/sg57_4_cif.got.tgz:6562.got - 2010.06.03 13:58:18.
