data_PCOD9437195
_publ_section_title
;
Structure prediction by ZEFSAII (Michael W. Deem and Ramdas Pophale) SiO2 
 PCOD9437195
Probable space group: P B C M
;
_chemical_formula_sum "Si O2"
_cell_formula_units_Z 64
_cell_length_a 21.223863
_cell_length_b 19.159814
_cell_length_c 8.774363
_cell_angle_alpha 90.000000
_cell_angle_beta 90.000000
_cell_angle_gamma 90.000000
_cell_volume 3568.053189
_symmetry_space_group_name_H-M "P B C M"
_symmetry_group_IT_number 57
_symmetry_cell_setting 'orthorhombic'
loop_
_space_group_symop_operation_xyz
x,y,z
-x,-y,1/2+z
x,1/2-y,-z
-x,1/2+y,1/2-z
-x,-y,-z
x,y,1/2-z
-x,1/2+y,z
x,1/2-y,1/2+z
loop_
_atom_site_type_symbol
_atom_site_label
_atom_site_fract_x
_atom_site_fract_y
_atom_site_fract_z
Si Si1 0.805280 0.028338 0.067214
Si Si2 0.501499 0.576886 0.933230
Si Si3 0.388104 0.823405 0.066971
Si Si4 0.248814 0.676365 0.067288
Si Si5 0.119110 0.326205 0.932472
Si Si6 0.939615 0.538385 0.567716
Si Si7 0.619675 0.827479 0.433227
Si Si8 0.745911 0.894022 0.567925
O O1 0.796989 0.021515 0.250000
O O2 0.791017 0.108050 0.025288
O O3 0.876376 0.005445 0.029956
O O4 0.759194 0.972911 0.987168
O O5 0.503814 0.572645 0.750000
O O6 0.437643 0.617313 0.975067
O O7 0.561883 0.622603 0.981888
O O8 0.500000 0.500000 0.000000
O O9 0.383340 0.818823 0.250000
O O10 0.411598 0.750000 0.000000
O O11 0.319215 0.834841 0.996899
O O12 0.251389 0.681988 0.250000
O O13 0.225656 0.750000 0.000000
O O14 0.114185 0.325005 0.750000
O O15 0.190457 0.351036 0.972238
O O16 0.107506 0.250000 0.000000
O O17 0.072757 0.384953 0.999228
O O18 0.944682 0.542926 0.750000
O O19 0.000000 0.500000 0.500000
O O20 0.612311 0.750000 0.500000
O O21 0.619888 0.823360 0.250000
O O22 0.685188 0.860516 0.489984
O O23 0.738441 0.892314 0.750000
#
# Coordination Sequence:
#
# PCOD9437195 Si02
#       8
#     8   8   8   8   8   8   8   8
#     4   9  20  37  57  81 113 149 184 227 277 327
#     4  10  24  40  55  77 106 140 182 227 275 328
#     4  10  20  36  56  79 103 136 179 225 274 328
#     4  10  20  35  56  82 109 141 180 226 278 328
#     4  10  20  35  56  84 115 148 188 230 276 329
#     4  10  20  37  59  83 114 152 190 230 274 325
#     4  11  23  39  57  80 110 145 183 225 276 333
#     4  10  21  35  56  85 114 146 183 228 278 331
#
# _framework density 17.936952000000002
#
# number of rings (size 3 to 8) (size 9 to 14) (size 15 to 20)
#    0.000    2.000    0.000    3.750    1.750    6.000 
#    0.000    0.625    0.000    1.500    0.000    0.000 
#    0.000    0.000    0.000    0.000    0.000    0.000 
#
# Total GULP energy -357441.982074 kJ/mol
# GULP energy per Si atom -5585.030970 kJ/mol
# Density = 1.789613 g / cm^3
# Si number density = 17.936952 Si / 1000 Ang^3
#
#
#
# Elastic Constant Matrix: (Units=GPa)
#
#
# Indices 1 2 3 4 5 6 
#
# 1 72.5070 82.2527 36.0236 0.0000 0.0000 0.0000
# 2 82.2527 197.2009 58.5497 0.0000 0.0000 0.0000
# 3 36.0236 58.5497 49.8967 0.0000 0.0000 0.0000
# 4 0.0000 0.0000 0.0000 36.7595 0.0000 0.0000
# 5 0.0000 0.0000 0.0000 0.0000 25.8828 0.0000
# 6 0.0000 0.0000 0.0000 0.0000 0.0000 28.4551
#
#
#
# Elastic Compliance Matrix: (Units=1/GPa)
#
#
# Indices 1 2 3 4 5 6 
#
# 1 0.029361 -0.009136 -0.010478 0.000000 0.000000 0.000000
# 2 -0.009136 0.010625 -0.005872 0.000000 0.000000 0.000000
# 3 -0.010478 -0.005872 0.034496 0.000000 0.000000 0.000000
# 4 0.000000 0.000000 0.000000 0.027204 0.000000 0.000000
# 5 0.000000 0.000000 0.000000 0.000000 0.038636 0.000000
# 6 0.000000 0.000000 0.000000 0.000000 0.000000 0.035143
#
#
# Mechanical properties :
#
#
# Convention : Reuss Voigt Hill
#
# Bulk Modulus (GPa) = 42.53217 74.80628 58.66923
# Shear Modulus (GPa) = 21.34277 27.73805 24.54041
#
# Velocity S-wave (km/s) = 3.45320 3.93672 3.70286
# Velocity P-wave (km/s) = 6.29786 7.90312 7.14571
#
# Compressibility (1/GPa) = 0.02351161
#
# Stress axis : x y z
#
# Youngs Moduli (GPa) = 34.05886 94.11962 28.98899
#
# Poissons Ratio (x) = 0.85984 0.30374
# Poissons Ratio (y) = 0.31115 0.17021
# Poissons Ratio (z) = 0.35686 0.55264
#
# Static dielectric constant tensor:
#      x y z
#    x 1.593600 0.000000 0.000000 
#    y 0.000000 1.599480 0.000000 
#    z 0.000000 0.000000 1.601390 
# 
# From -- ./inp_files/8546.got.cif
#   From: 2010.05.17/outbox.cif.g08.bks.cpg/sg57_5_cif.got.tgz:8546.got - 2010.06.03 13:58:18.
