data_PCOD9437640
_publ_section_title
;
Structure prediction by ZEFSAII (Michael W. Deem and Ramdas Pophale) SiO2 
 PCOD9437640
Probable space group: P B C M
;
_chemical_formula_sum "Si O2"
_cell_formula_units_Z 64
_cell_length_a 24.360808
_cell_length_b 15.882933
_cell_length_c 8.639374
_cell_angle_alpha 90.000000
_cell_angle_beta 90.000000
_cell_angle_gamma 90.000000
_cell_volume 3342.755930
_symmetry_space_group_name_H-M "P B C M"
_symmetry_group_IT_number 57
_symmetry_cell_setting 'orthorhombic'
loop_
_space_group_symop_operation_xyz
x,y,z
-x,-y,1/2+z
x,1/2-y,-z
-x,1/2+y,1/2-z
-x,-y,-z
x,y,1/2-z
-x,1/2+y,z
x,1/2-y,1/2+z
loop_
_atom_site_type_symbol
_atom_site_label
_atom_site_fract_x
_atom_site_fract_y
_atom_site_fract_z
Si Si1 0.618004 0.159758 0.935498
Si Si2 0.312460 0.995751 0.564329
Si Si3 0.881364 0.840135 0.563641
Si Si4 0.499334 0.094788 0.936960
Si Si5 0.810115 0.001457 0.937256
Si Si6 0.999346 0.094967 0.063749
Si Si7 0.380985 0.339969 0.436502
Si Si8 0.114799 0.839492 0.064433
O O1 0.619711 0.161037 0.750000
O O2 0.555144 0.140998 0.985866
O O3 0.635579 0.250000 0.000000
O O4 0.655353 0.083996 0.996322
O O5 0.314782 0.991570 0.750000
O O6 0.250087 0.996033 0.507973
O O7 0.343120 0.081770 0.514653
O O8 0.863857 0.750000 0.500000
O O9 0.880550 0.837767 0.750000
O O10 0.842854 0.917486 0.514213
O O11 0.943958 0.860401 0.515321
O O12 0.498712 0.091292 0.750000
O O13 0.443472 0.140367 0.988119
O O14 0.500000 0.000000 0.000000
O O15 0.806191 0.000852 0.750000
O O16 0.845616 0.083479 0.981201
O O17 0.997596 0.092813 0.250000
O O18 0.945800 0.141298 0.000003
O O19 0.000000 0.000000 0.000000
O O20 0.362867 0.250000 0.500000
O O21 0.380565 0.336914 0.250000
O O22 0.112307 0.836698 0.250000
O O23 0.134137 0.750000 0.000000
#
# Coordination Sequence:
#
# PCOD9437640 Si02
#       8
#     8   8   8   8   8   8   8   8
#     4  11  23  39  63  92 122 161 200 244 302 361
#     4  11  24  42  63  88 120 157 205 256 302 356
#     4  10  22  40  61  89 122 159 198 244 298 354
#     4  10  20  36  60  90 123 158 196 240 298 358
#     4  10  23  44  63  83 120 161 204 253 303 358
#     4  11  21  37  62  92 126 162 199 244 301 363
#     4  10  22  39  60  89 123 157 197 246 296 355
#     4  11  23  41  63  91 124 159 200 249 303 363
#
# _framework density 19.145879999999998
#
# number of rings (size 3 to 8) (size 9 to 14) (size 15 to 20)
#    0.000    1.500    2.500    2.250    0.000    6.500 
#    0.000    3.750    0.000    0.000    0.000    0.000 
#    0.000    0.000    0.000    0.000    0.000    0.000 
#
# Total GULP energy -357782.857873 kJ/mol
# GULP energy per Si atom -5590.357154 kJ/mol
# Density = 1.910230 g / cm^3
# Si number density = 19.145880 Si / 1000 Ang^3
#
#
#
# Elastic Constant Matrix: (Units=GPa)
#
#
# Indices 1 2 3 4 5 6 
#
# 1 150.5300 86.1983 39.3285 0.0000 0.0000 0.0000
# 2 86.1983 200.6945 42.0156 0.0000 0.0000 0.0000
# 3 39.3285 42.0156 31.1656 0.0000 0.0000 0.0000
# 4 0.0000 0.0000 0.0000 38.4506 0.0000 0.0000
# 5 0.0000 0.0000 0.0000 0.0000 20.7787 0.0000
# 6 0.0000 0.0000 0.0000 0.0000 0.0000 0.2236
#
#
#
# Elastic Compliance Matrix: (Units=1/GPa)
#
#
# Indices 1 2 3 4 5 6 
#
# 1 0.010723 -0.002470 -0.010202 0.000000 0.000000 0.000000
# 2 -0.002470 0.007511 -0.007009 0.000000 0.000000 0.000000
# 3 -0.010202 -0.007009 0.054410 0.000000 0.000000 0.000000
# 4 0.000000 0.000000 0.000000 0.026007 0.000000 0.000000
# 5 0.000000 0.000000 0.000000 0.000000 0.048126 0.000000
# 6 0.000000 0.000000 0.000000 0.000000 0.000000 4.472243
#
#
# Mechanical properties :
#
#
# Convention : Reuss Voigt Hill
#
# Bulk Modulus (GPa) = 30.04613 79.71945 54.88279
# Shear Modulus (GPa) = 1.07078 26.21377 13.64228
#
# Velocity S-wave (km/s) = 0.74866 3.70423 2.67225
# Velocity P-wave (km/s) = 4.05890 7.74748 6.18458
#
# Compressibility (1/GPa) = 0.03328216
#
# Stress axis : x y z
#
# Youngs Moduli (GPa) = 93.25908 133.14205 18.37906
#
# Poissons Ratio (x) = 0.32882 0.18750
# Poissons Ratio (y) = 0.23032 0.12882
# Poissons Ratio (z) = 0.95142 0.93320
#
# Static dielectric constant tensor:
#      x y z
#    x 1.650360 0.000000 0.000000 
#    y 0.000000 1.639710 0.000000 
#    z 0.000000 0.000000 1.649030 
# 
# From -- ./inp_files/9361.got.cif
#   From: 2010.05.17/outbox.cif.g08.bks.cpg/sg57_5_cif.got.tgz:9361.got - 2010.06.03 13:58:18.
