data_PCOD9437349
_publ_section_title
;
Structure prediction by ZEFSAII (Michael W. Deem and Ramdas Pophale) SiO2 
 PCOD9437349
Probable space group: P B C M
;
_chemical_formula_sum "Si O2"
_cell_formula_units_Z 48
_cell_length_a 11.120638
_cell_length_b 23.900617
_cell_length_c 8.712735
_cell_angle_alpha 90.000000
_cell_angle_beta 90.000000
_cell_angle_gamma 90.000000
_cell_volume 2315.758791
_symmetry_space_group_name_H-M "P B C M"
_symmetry_group_IT_number 57
_symmetry_cell_setting 'orthorhombic'
loop_
_space_group_symop_operation_xyz
x,y,z
-x,-y,1/2+z
x,1/2-y,-z
-x,1/2+y,1/2-z
-x,-y,-z
x,y,1/2-z
-x,1/2+y,z
x,1/2-y,1/2+z
loop_
_atom_site_type_symbol
_atom_site_label
_atom_site_fract_x
_atom_site_fract_y
_atom_site_fract_z
Si Si1 0.425536 0.422165 0.433639
Si Si2 0.302607 0.310148 0.431508
Si Si3 0.939799 0.874570 0.065673
Si Si4 0.694313 0.087865 0.935319
Si Si5 0.172374 0.687645 0.432514
Si Si6 0.187871 0.477319 0.932237
O O1 0.408675 0.432784 0.250000
O O2 0.404727 0.356028 0.459924
O O3 0.562063 0.434827 0.478053
O O4 0.318729 0.451610 0.525203
O O5 0.324627 0.250000 0.500000
O O6 0.291449 0.303692 0.250000
O O7 0.177066 0.338164 0.483334
O O8 0.950777 0.873804 0.250000
O O9 0.909215 0.937929 0.014463
O O10 0.053753 0.844447 0.992844
O O11 0.695933 0.093247 0.750000
O O12 0.795534 0.042087 0.978603
O O13 0.721148 0.147273 0.010053
O O14 0.178285 0.750000 0.500000
O O15 0.170402 0.690890 0.250000
O O16 0.168627 0.474813 0.750000
#
# Coordination Sequence:
#
# PCOD9437349 Si02
#       6
#     8   8   8   8   8   8
#     4   9  19  36  56  81 117 157 195 239 291 345
#     4   9  18  31  51  79 108 142 184 233 286 336
#     4  10  21  39  61  84 114 151 192 240 293 349
#     4  10  22  40  60  84 118 158 198 239 285 343
#     4  12  26  43  63  86 115 153 196 239 287 345
#     4  10  20  35  60  92 120 149 191 243 295 344
#
# _framework density 20.727546
#
# number of rings (size 3 to 8) (size 9 to 14) (size 15 to 20)
#    0.000    2.000    0.000    4.500    0.000    8.000 
#    0.000    1.667    0.000    0.000    0.000    0.000 
#    0.000    0.000    0.000    0.000    0.000    0.000 
#
# Total GULP energy -268147.445530 kJ/mol
# GULP energy per Si atom -5586.405115 kJ/mol
# Density = 2.068037 g / cm^3
# Si number density = 20.727546 Si / 1000 Ang^3
#
#
#
# Elastic Constant Matrix: (Units=GPa)
#
#
# Indices 1 2 3 4 5 6 
#
# 1 56.5893 9.5726 7.8635 0.0000 0.0000 0.0000
# 2 9.5726 108.4461 25.9357 0.0000 0.0000 0.0000
# 3 7.8635 25.9357 40.1839 0.0000 0.0000 0.0000
# 4 0.0000 0.0000 0.0000 28.2493 0.0000 0.0000
# 5 0.0000 0.0000 0.0000 0.0000 27.0866 0.0000
# 6 0.0000 0.0000 0.0000 0.0000 0.0000 20.8727
#
#
#
# Elastic Compliance Matrix: (Units=1/GPa)
#
#
# Indices 1 2 3 4 5 6 
#
# 1 0.018238 -0.000894 -0.002992 0.000000 0.000000 0.000000
# 2 -0.000894 0.010948 -0.006891 0.000000 0.000000 0.000000
# 3 -0.002992 -0.006891 0.029919 0.000000 0.000000 0.000000
# 4 0.000000 0.000000 0.000000 0.035399 0.000000 0.000000
# 5 0.000000 0.000000 0.000000 0.000000 0.036919 0.000000
# 6 0.000000 0.000000 0.000000 0.000000 0.000000 0.047909
#
#
# Mechanical properties :
#
#
# Convention : Reuss Voigt Hill
#
# Bulk Modulus (GPa) = 26.63078 32.44032 29.53555
# Shear Modulus (GPa) = 23.42975 26.03156 24.73065
#
# Velocity S-wave (km/s) = 3.36574 3.54770 3.45792
# Velocity P-wave (km/s) = 5.28963 5.69793 5.49757
#
# Compressibility (1/GPa) = 0.03755053
#
# Stress axis : x y z
#
# Youngs Moduli (GPa) = 54.82998 91.33917 33.42377
#
# Poissons Ratio (x) = 0.08169 0.09999
# Poissons Ratio (y) = 0.04904 0.23033
# Poissons Ratio (z) = 0.16404 0.62944
#
# Static dielectric constant tensor:
#      x y z
#    x 1.767620 0.000000 0.000000 
#    y 0.000000 1.767580 0.000000 
#    z 0.000000 0.000000 1.691210 
# 
# From -- ./inp_files/3171.got.cif
#   From: 2010.05.17/outbox.cif.g08.bks.cpg/sg57_2_cif.got.tgz:3171.got - 2010.06.03 13:58:18.
