data_PCOD9437796
_publ_section_title
;
Structure prediction by ZEFSAII (Michael W. Deem and Ramdas Pophale) SiO2 
 PCOD9437796
Probable space group: P B C M
;
_chemical_formula_sum "Si O2"
_cell_formula_units_Z 40
_cell_length_a 7.901396
_cell_length_b 15.358527
_cell_length_c 17.480271
_cell_angle_alpha 90.000000
_cell_angle_beta 90.000000
_cell_angle_gamma 90.000000
_cell_volume 2121.297377
_symmetry_space_group_name_H-M "P B C M"
_symmetry_group_IT_number 57
_symmetry_cell_setting 'orthorhombic'
loop_
_space_group_symop_operation_xyz
x,y,z
-x,-y,1/2+z
x,1/2-y,-z
-x,1/2+y,1/2-z
-x,-y,-z
x,y,1/2-z
-x,1/2+y,z
x,1/2-y,1/2+z
loop_
_atom_site_type_symbol
_atom_site_label
_atom_site_fract_x
_atom_site_fract_y
_atom_site_fract_z
Si Si1 0.869073 0.029944 0.163144
Si Si2 0.659655 0.617115 0.030555
Si Si3 0.858835 0.816562 0.663263
Si Si4 0.706304 0.081746 0.005290
Si Si5 0.967734 0.646815 0.916780
O O1 0.799876 0.029038 0.250000
O O2 0.022908 0.098327 0.161250
O O3 0.937735 0.935079 0.139219
O O4 0.745564 0.059563 0.094337
O O5 0.698733 0.663012 0.110316
O O6 0.683249 0.512266 0.035473
O O7 0.470751 0.631675 0.000726
O O8 0.806406 0.647379 0.973188
O O9 0.811239 0.796971 0.750000
O O10 0.964702 0.736612 0.628524
O O11 0.865055 0.129448 0.966853
#
# Coordination Sequence:
#
# PCOD9437796 Si02
#       5
#     8   8   8   8   8
#     4  10  20  37  60  85 118 154 190 240 295 353
#     4  10  20  38  61  89 112 151 203 249 298 353
#     4  11  22  37  59  87 119 158 196 242 302 353
#     4  10  20  37  65  86 113 155 201 244 302 358
#     4  11  20  40  60  85 117 157 196 243 296 357
#
# _framework density 18.856383999999998
#
# number of rings (size 3 to 8) (size 9 to 14) (size 15 to 20)
#    0.000    1.600    4.000    2.400    0.000    0.800 
#    7.200    0.000    0.000    2.400    0.000    0.000 
#    0.000    0.000    0.000    0.000    0.000    0.000 
#
# Total GULP energy -223339.674896 kJ/mol
# GULP energy per Si atom -5583.491872 kJ/mol
# Density = 1.881347 g / cm^3
# Si number density = 18.856384 Si / 1000 Ang^3
#
#
#
# Elastic Constant Matrix: (Units=GPa)
#
#
# Indices 1 2 3 4 5 6 
#
# 1 112.5631 27.4176 49.3391 0.0000 0.0000 0.0000
# 2 27.4176 90.8725 49.0292 0.0000 0.0000 0.0000
# 3 49.3391 49.0292 125.9858 0.0000 0.0000 0.0000
# 4 0.0000 0.0000 0.0000 20.6425 0.0000 0.0000
# 5 0.0000 0.0000 0.0000 0.0000 10.1869 0.0000
# 6 0.0000 0.0000 0.0000 0.0000 0.0000 11.7201
#
#
#
# Elastic Compliance Matrix: (Units=1/GPa)
#
#
# Indices 1 2 3 4 5 6 
#
# 1 0.010834 -0.001240 -0.003760 0.000000 0.000000 0.000000
# 2 -0.001240 0.014071 -0.004990 0.000000 0.000000 0.000000
# 3 -0.003760 -0.004990 0.011352 0.000000 0.000000 0.000000
# 4 0.000000 0.000000 0.000000 0.048444 0.000000 0.000000
# 5 0.000000 0.000000 0.000000 0.000000 0.098165 0.000000
# 6 0.000000 0.000000 0.000000 0.000000 0.000000 0.085324
#
#
# Mechanical properties :
#
#
# Convention : Reuss Voigt Hill
#
# Bulk Modulus (GPa) = 61.44031 64.55480 62.99756
# Shear Modulus (GPa) = 17.03019 22.08561 19.55790
#
# Velocity S-wave (km/s) = 3.00851 3.42607 3.22406
# Velocity P-wave (km/s) = 6.68747 7.06823 6.88048
#
# Compressibility (1/GPa) = 0.01627596
#
# Stress axis : x y z
#
# Youngs Moduli (GPa) = 92.30029 71.06802 88.08918
#
# Poissons Ratio (x) = 0.08812 0.33125
# Poissons Ratio (y) = 0.11445 0.43960
# Poissons Ratio (z) = 0.34708 0.35465
#
# Static dielectric constant tensor:
#      x y z
#    x 1.641800 0.000000 0.000000 
#    y 0.000000 1.666660 0.000000 
#    z 0.000000 0.000000 1.672280 
# 
# From -- ./inp_files/15939.got.cif
#   From: 2010.05.17/outbox.cif.g08.bks.cpg/sg57_8_cif.got.tgz:15939.got - 2010.06.03 13:58:18.
