data_PCOD9437134
_publ_section_title
;
Structure prediction by ZEFSAII (Michael W. Deem and Ramdas Pophale) SiO2 
 PCOD9437134
Probable space group: P B C M
;
_chemical_formula_sum "Si O2"
_cell_formula_units_Z 40
_cell_length_a 26.445516
_cell_length_b 9.623568
_cell_length_c 8.687358
_cell_angle_alpha 90.000000
_cell_angle_beta 90.000000
_cell_angle_gamma 90.000000
_cell_volume 2210.934535
_symmetry_space_group_name_H-M "P B C M"
_symmetry_group_IT_number 57
_symmetry_cell_setting 'orthorhombic'
loop_
_space_group_symop_operation_xyz
x,y,z
-x,-y,1/2+z
x,1/2-y,-z
-x,1/2+y,1/2-z
-x,-y,-z
x,y,1/2-z
-x,1/2+y,z
x,1/2-y,1/2+z
loop_
_atom_site_type_symbol
_atom_site_label
_atom_site_fract_x
_atom_site_fract_y
_atom_site_fract_z
Si Si1 0.750186 0.595796 0.064741
Si Si2 0.657288 0.404394 0.064649
Si Si3 0.858709 0.595181 0.934637
Si Si4 0.045343 0.593831 0.065244
Si Si5 0.455771 0.594758 0.934634
O O1 0.752027 0.599507 0.250000
O O2 0.703532 0.500364 0.014060
O O3 0.742503 0.750000 0.000000
O O4 0.804652 0.548789 0.001607
O O5 0.658551 0.398095 0.250000
O O6 0.600919 0.455206 0.020855
O O7 0.663258 0.250000 0.000000
O O8 0.855335 0.605766 0.750000
O O9 0.902784 0.487045 0.974697
O O10 0.869479 0.750000 0.000000
O O11 0.041382 0.600108 0.250000
O O12 0.043984 0.750000 0.000000
O O13 0.000000 0.500000 0.000000
O O14 0.458696 0.598234 0.750000
O O15 0.460991 0.750000 0.000000
O O16 0.500000 0.500000 0.000000
#
# Coordination Sequence:
#
# PCOD9437134 Si02
#       5
#     8   8   8   8   8
#     4  10  20  35  55  80 108 141 179 220 265 317
#     4   9  20  36  54  77 106 139 177 219 266 318
#     4  10  21  37  57  82 110 143 180 222 269 318
#     4  11  24  40  60  85 114 147 185 226 272 323
#     4  10  20  36  55  78 107 140 179 223 271 324
#
# _framework density 18.091896999999999
#
# number of rings (size 3 to 8) (size 9 to 14) (size 15 to 20)
#    0.000    2.000    0.000    4.200    0.000    8.800 
#    0.000    6.000    0.000    0.000    0.000    0.000 
#    0.000    0.000    0.000    0.000    0.000    0.000 
#
# Total GULP energy -223335.019792 kJ/mol
# GULP energy per Si atom -5583.375495 kJ/mol
# Density = 1.805072 g / cm^3
# Si number density = 18.091897 Si / 1000 Ang^3
#
#
#
# Elastic Constant Matrix: (Units=GPa)
#
#
# Indices 1 2 3 4 5 6 
#
# 1 215.2439 125.5575 65.3782 0.0000 0.0000 0.0000
# 2 125.5575 110.4300 43.1919 0.0000 0.0000 0.0000
# 3 65.3782 43.1919 54.9739 0.0000 0.0000 0.0000
# 4 0.0000 0.0000 0.0000 32.9658 0.0000 0.0000
# 5 0.0000 0.0000 0.0000 0.0000 25.6984 0.0000
# 6 0.0000 0.0000 0.0000 0.0000 0.0000 42.0169
#
#
#
# Elastic Compliance Matrix: (Units=1/GPa)
#
#
# Indices 1 2 3 4 5 6 
#
# 1 0.015259 -0.014799 -0.006519 0.000000 0.000000 0.000000
# 2 -0.014799 0.027426 -0.003948 0.000000 0.000000 0.000000
# 3 -0.006519 -0.003948 0.029045 0.000000 0.000000 0.000000
# 4 0.000000 0.000000 0.000000 0.030334 0.000000 0.000000
# 5 0.000000 0.000000 0.000000 0.000000 0.038913 0.000000
# 6 0.000000 0.000000 0.000000 0.000000 0.000000 0.023800
#
#
# Mechanical properties :
#
#
# Convention : Reuss Voigt Hill
#
# Bulk Modulus (GPa) = 47.17574 94.32257 70.74916
# Shear Modulus (GPa) = 22.48431 29.90424 26.19428
#
# Velocity S-wave (km/s) = 3.52914 4.07001 3.80918
# Velocity P-wave (km/s) = 6.53748 8.62178 7.65094
#
# Compressibility (1/GPa) = 0.02119734
#
# Stress axis : x y z
#
# Youngs Moduli (GPa) = 65.53555 36.46116 34.42884
#
# Poissons Ratio (x) = 0.53960 0.22445
# Poissons Ratio (y) = 0.96988 0.13593
# Poissons Ratio (z) = 0.42724 0.14395
#
# Static dielectric constant tensor:
#      x y z
#    x 1.632480 0.000000 0.000000 
#    y 0.000000 1.576130 0.000000 
#    z 0.000000 0.000000 1.610620 
# 
# From -- ./inp_files/8885.got.cif
#   From: 2010.05.17/outbox.cif.g08.bks.cpg/sg57_5_cif.got.tgz:8885.got - 2010.06.03 13:58:18.
