data_PCOD9437512
_publ_section_title
;
Structure prediction by ZEFSAII (Michael W. Deem and Ramdas Pophale) SiO2 
 PCOD9437512
Probable space group: P B C M
;
_chemical_formula_sum "Si O2"
_cell_formula_units_Z 48
_cell_length_a 18.229964
_cell_length_b 8.515520
_cell_length_c 15.680500
_cell_angle_alpha 90.000000
_cell_angle_beta 90.000000
_cell_angle_gamma 90.000000
_cell_volume 2434.203548
_symmetry_space_group_name_H-M "P B C M"
_symmetry_group_IT_number 57
_symmetry_cell_setting 'orthorhombic'
loop_
_space_group_symop_operation_xyz
x,y,z
-x,-y,1/2+z
x,1/2-y,-z
-x,1/2+y,1/2-z
-x,-y,-z
x,y,1/2-z
-x,1/2+y,z
x,1/2-y,1/2+z
loop_
_atom_site_type_symbol
_atom_site_label
_atom_site_fract_x
_atom_site_fract_y
_atom_site_fract_z
Si Si1 0.400377 0.053827 0.152983
Si Si2 0.668827 0.435369 0.514841
Si Si3 0.901142 0.535381 0.154942
Si Si4 0.957976 0.847616 0.412635
Si Si5 0.166523 0.936314 0.510776
Si Si6 0.439671 0.420676 0.347104
O O1 0.374179 0.021370 0.250000
O O2 0.423399 0.235913 0.148738
O O3 0.474629 0.954325 0.137798
O O4 0.345869 0.016335 0.076292
O O5 0.661383 0.250000 0.500000
O O6 0.752043 0.466319 0.545049
O O7 0.610252 0.494173 0.583477
O O8 0.879347 0.491813 0.250000
O O9 0.926372 0.715886 0.149727
O O10 0.970301 0.430527 0.124121
O O11 0.839925 0.508609 0.083840
O O12 0.973646 0.750000 0.500000
O O13 0.896956 0.978253 0.435389
O O14 0.155208 0.750000 0.500000
O O15 0.423843 0.475585 0.250000
#
# Coordination Sequence:
#
# PCOD9437512 Si02
#       6
#     8   8   8   8   8   8
#     4  10  21  37  60  85 113 146 186 233 279 329
#     4  11  23  38  58  82 113 152 188 227 279 335
#     4  11  21  35  58  86 111 140 181 230 274 322
#     4  10  20  36  58  81 110 145 181 222 271 328
#     4  10  22  40  57  77 110 151 186 221 273 331
#     4  10  21  38  59  85 113 146 187 233 278 327
#
# _framework density 19.718975
#
# number of rings (size 3 to 8) (size 9 to 14) (size 15 to 20)
#    0.000    1.667    0.000    6.000    0.000    6.667 
#    0.000    6.667    0.000    0.000    0.000    0.000 
#    0.000    0.000    0.000    0.000    0.000    0.000 
#
# Total GULP energy -268214.848164 kJ/mol
# GULP energy per Si atom -5587.809337 kJ/mol
# Density = 1.967409 g / cm^3
# Si number density = 19.718975 Si / 1000 Ang^3
#
#
#
# Elastic Constant Matrix: (Units=GPa)
#
#
# Indices 1 2 3 4 5 6 
#
# 1 36.7016 2.6036 0.8752 0.0000 0.0000 0.0000
# 2 2.6036 58.1481 -3.9961 0.0000 0.0000 0.0000
# 3 0.8752 -3.9961 52.2645 0.0000 0.0000 0.0000
# 4 0.0000 0.0000 0.0000 20.0757 0.0000 0.0000
# 5 0.0000 0.0000 0.0000 0.0000 2.3573 0.0000
# 6 0.0000 0.0000 0.0000 0.0000 0.0000 17.6046
#
#
#
# Elastic Compliance Matrix: (Units=1/GPa)
#
#
# Indices 1 2 3 4 5 6 
#
# 1 0.027350 -0.001263 -0.000555 0.000000 0.000000 0.000000
# 2 -0.001263 0.017347 0.001347 0.000000 0.000000 0.000000
# 3 -0.000555 0.001347 0.019246 0.000000 0.000000 0.000000
# 4 0.000000 0.000000 0.000000 0.049812 0.000000 0.000000
# 5 0.000000 0.000000 0.000000 0.000000 0.424210 0.000000
# 6 0.000000 0.000000 0.000000 0.000000 0.000000 0.056803
#
#
# Mechanical properties :
#
#
# Convention : Reuss Voigt Hill
#
# Bulk Modulus (GPa) = 15.87241 16.23106 16.05173
# Shear Modulus (GPa) = 8.10758 17.84962 12.97860
#
# Velocity S-wave (km/s) = 2.02990 3.01192 2.56828
# Velocity P-wave (km/s) = 3.68249 4.51050 4.11736
#
# Compressibility (1/GPa) = 0.06300242
#
# Stress axis : x y z
#
# Youngs Moduli (GPa) = 36.56366 57.64821 51.95948
#
# Poissons Ratio (x) = 0.07279 0.02881
# Poissons Ratio (y) = 0.04617 -0.07001
# Poissons Ratio (z) = 0.02028 -0.07768
#
# Static dielectric constant tensor:
#      x y z
#    x 1.673560 0.000000 0.000000 
#    y 0.000000 1.677740 0.000000 
#    z 0.000000 0.000000 1.700890 
# 
# From -- ./inp_files/18960.got.cif
#   From: 2010.05.17/outbox.cif.g08.bks.cpg/sg57_10_cif.got.tgz:18960.got - 2010.06.03 13:58:18.
