data_PCOD9437984
_publ_section_title
;
Structure prediction by ZEFSAII (Michael W. Deem and Ramdas Pophale) SiO2 
 PCOD9437984
Probable space group: P B C M
;
_chemical_formula_sum "Si O2"
_cell_formula_units_Z 44
_cell_length_a 8.158319
_cell_length_b 10.695317
_cell_length_c 22.004964
_cell_angle_alpha 90.000000
_cell_angle_beta 90.000000
_cell_angle_gamma 90.000000
_cell_volume 1920.060911
_symmetry_space_group_name_H-M "P B C M"
_symmetry_group_IT_number 57
_symmetry_cell_setting 'orthorhombic'
loop_
_space_group_symop_operation_xyz
x,y,z
-x,-y,1/2+z
x,1/2-y,-z
-x,1/2+y,1/2-z
-x,-y,-z
x,y,1/2-z
-x,1/2+y,z
x,1/2-y,1/2+z
loop_
_atom_site_type_symbol
_atom_site_label
_atom_site_fract_x
_atom_site_fract_y
_atom_site_fract_z
Si Si1 0.706814 0.060503 0.459268
Si Si2 0.714552 0.321254 0.250000
Si Si3 0.216591 0.164233 0.876312
Si Si4 0.666435 0.638443 0.044278
Si Si5 0.099010 0.704338 0.141425
Si Si6 0.111020 0.414553 0.750000
Si Si7 0.669313 0.823698 0.250000
O O1 0.696023 0.935873 0.418589
O O2 0.743232 0.995114 0.524621
O O3 0.529115 0.123787 0.462537
O O4 0.832942 0.142358 0.420343
O O5 0.760270 0.251564 0.312969
O O6 0.824311 0.445695 0.250000
O O7 0.522403 0.341599 0.250000
O O8 0.292309 0.301186 0.891126
O O9 0.253578 0.118267 0.809399
O O10 0.022952 0.185531 0.880374
O O11 0.729400 0.750000 0.000000
O O12 0.992517 0.619906 0.189014
O O13 0.265092 0.318851 0.750000
#
# Coordination Sequence:
#
# PCOD9437984 Si02
#       7
#     8   4   8   8   8   4   4
#     4  10  20  38  61  82 112 151 187 238 287 326
#     4  11  21  35  54  80 114 151 191 231 284 344
#     4  10  21  38  57  84 117 146 186 233 282 341
#     4   9  20  39  61  85 112 147 193 234 278 339
#     4  10  21  35  56  85 115 150 191 233 287 346
#     4   9  21  39  54  82 124 155 187 241 290 340
#     4  10  22  36  58  86 112 148 192 230 278 342
#
# _framework density 22.915938000000001
#
# number of rings (size 3 to 8) (size 9 to 14) (size 15 to 20)
#    0.000    2.182    0.000    2.727    0.000    6.545 
#    0.000   11.818    0.000    0.000    0.000    0.000 
#    0.000    0.000    0.000    0.000    0.000    0.000 
#
# Total GULP energy -245344.435039 kJ/mol
# GULP energy per Si atom -5576.009887 kJ/mol
# Density = 2.286378 g / cm^3
# Si number density = 22.915938 Si / 1000 Ang^3
#
#
#
# Elastic Constant Matrix: (Units=GPa)
#
#
# Indices 1 2 3 4 5 6 
#
# 1 66.2001 5.3545 6.5257 0.0000 0.0000 0.0000
# 2 5.3545 29.8610 9.5806 0.0000 0.0000 0.0000
# 3 6.5257 9.5806 39.4589 0.0000 0.0000 0.0000
# 4 0.0000 0.0000 0.0000 16.4470 0.0000 0.0000
# 5 0.0000 0.0000 0.0000 0.0000 41.6621 0.0000
# 6 0.0000 0.0000 0.0000 0.0000 0.0000 30.8613
#
#
#
# Elastic Compliance Matrix: (Units=1/GPa)
#
#
# Indices 1 2 3 4 5 6 
#
# 1 0.015479 -0.002119 -0.002045 0.000000 0.000000 0.000000
# 2 -0.002119 0.036608 -0.008538 0.000000 0.000000 0.000000
# 3 -0.002045 -0.008538 0.027754 0.000000 0.000000 0.000000
# 4 0.000000 0.000000 0.000000 0.060801 0.000000 0.000000
# 5 0.000000 0.000000 0.000000 0.000000 0.024003 0.000000
# 6 0.000000 0.000000 0.000000 0.000000 0.000000 0.032403
#
#
# Mechanical properties :
#
#
# Convention : Reuss Voigt Hill
#
# Bulk Modulus (GPa) = 18.37033 19.82685 19.09859
# Shear Modulus (GPa) = 20.78155 25.39802 23.08978
#
# Velocity S-wave (km/s) = 3.01468 3.33274 3.17769
# Velocity P-wave (km/s) = 4.48904 4.84565 4.67075
#
# Compressibility (1/GPa) = 0.05443560
#
# Stress axis : x y z
#
# Youngs Moduli (GPa) = 64.60467 27.31654 36.03075
#
# Poissons Ratio (x) = 0.05789 0.07369
# Poissons Ratio (y) = 0.13692 0.30763
# Poissons Ratio (z) = 0.13213 0.23323
#
# Static dielectric constant tensor:
#      x y z
#    x 1.808240 0.000000 0.000000 
#    y 0.000000 1.906510 0.000000 
#    z 0.000000 0.000000 1.934980 
# 
# From -- ./inp_files/26634.got.cif
#   From: 2010.05.17/outbox.cif.g08.bks.cpg/sg57_14_cif.got.tgz:26634.got - 2010.06.03 13:58:18.
