data_PCOD9437238
_publ_section_title
;
Structure prediction by ZEFSAII (Michael W. Deem and Ramdas Pophale) SiO2 
 PCOD9437238
Probable space group: P B C M
;
_chemical_formula_sum "Si O2"
_cell_formula_units_Z 48
_cell_length_a 15.414910
_cell_length_b 19.565748
_cell_length_c 8.713066
_cell_angle_alpha 90.000000
_cell_angle_beta 90.000000
_cell_angle_gamma 90.000000
_cell_volume 2627.897688
_symmetry_space_group_name_H-M "P B C M"
_symmetry_group_IT_number 57
_symmetry_cell_setting 'orthorhombic'
loop_
_space_group_symop_operation_xyz
x,y,z
-x,-y,1/2+z
x,1/2-y,-z
-x,1/2+y,1/2-z
-x,-y,-z
x,y,1/2-z
-x,1/2+y,z
x,1/2-y,1/2+z
loop_
_atom_site_type_symbol
_atom_site_label
_atom_site_fract_x
_atom_site_fract_y
_atom_site_fract_z
Si Si1 0.155180 0.175410 0.065491
Si Si2 0.152570 0.823909 0.565225
Si Si3 0.353281 0.824540 0.934232
Si Si4 0.345345 0.324437 0.065807
Si Si5 0.000977 0.924190 0.935139
Si Si6 0.497102 0.923971 0.066017
O O1 0.158768 0.179497 0.250000
O O2 0.083843 0.119516 0.020484
O O3 0.131198 0.250000 0.000000
O O4 0.250583 0.158913 0.001170
O O5 0.127454 0.750000 0.500000
O O6 0.149043 0.820264 0.750000
O O7 0.252648 0.837301 0.521900
O O8 0.085863 0.881914 0.513917
O O9 0.359351 0.823027 0.750000
O O10 0.377428 0.750000 0.000000
O O11 0.415903 0.881913 0.000687
O O12 0.339798 0.319639 0.250000
O O13 0.416660 0.380852 0.024539
O O14 0.370352 0.250000 0.000000
O O15 0.002443 0.927504 0.750000
O O16 0.000000 0.000000 0.000000
O O17 0.491927 0.926541 0.250000
O O18 0.500000 0.000000 0.000000
#
# Coordination Sequence:
#
# PCOD9437238 Si02
#       6
#     8   8   8   8   8   8
#     4  10  20  35  57  83 108 139 180 224 268 315
#     4   9  19  36  57  81 108 139 178 222 266 316
#     4  10  20  36  59  84 110 142 181 225 271 321
#     4  10  21  37  58  82 107 140 180 222 270 320
#     4  10  22  37  53  78 111 145 180 218 265 319
#     4  11  24  39  56  80 111 147 183 223 274 327
#
# _framework density 18.265550999999999
#
# number of rings (size 3 to 8) (size 9 to 14) (size 15 to 20)
#    0.000    2.000    0.000    4.000    0.000    8.000 
#    0.000    5.000    0.000    0.000    0.000    0.000 
#    0.000    0.000    0.000    0.000    0.000    0.000 
#
# Total GULP energy -268143.641782 kJ/mol
# GULP energy per Si atom -5586.325870 kJ/mol
# Density = 1.822398 g / cm^3
# Si number density = 18.265551 Si / 1000 Ang^3
#
#
#
# Elastic Constant Matrix: (Units=GPa)
#
#
# Indices 1 2 3 4 5 6 
#
# 1 128.0141 132.3596 46.7023 0.0000 0.0000 0.0000
# 2 132.3596 197.4776 53.0489 0.0000 0.0000 0.0000
# 3 46.7023 53.0489 43.1257 0.0000 0.0000 0.0000
# 4 0.0000 0.0000 0.0000 37.4149 0.0000 0.0000
# 5 0.0000 0.0000 0.0000 0.0000 22.4572 0.0000
# 6 0.0000 0.0000 0.0000 0.0000 0.0000 -10.7124
#
#
#
# Elastic Compliance Matrix: (Units=1/GPa)
#
#
# Indices 1 2 3 4 5 6 
#
# 1 0.028574 -0.016189 -0.011030 0.000000 0.000000 0.000000
# 2 -0.016189 0.016735 -0.003054 0.000000 0.000000 0.000000
# 3 -0.011030 -0.003054 0.038890 0.000000 0.000000 0.000000
# 4 0.000000 0.000000 0.000000 0.026727 0.000000 0.000000
# 5 0.000000 0.000000 0.000000 0.000000 0.044529 0.000000
# 6 0.000000 0.000000 0.000000 0.000000 0.000000 -0.093350
#
#
# Mechanical properties :
#
#
# Convention : Reuss Voigt Hill
#
# Bulk Modulus (GPa) = 42.27836 92.53766 67.40801
# Shear Modulus (GPa) = 38.30409 18.93238 28.61824
#
# Velocity S-wave (km/s) = 4.58434 3.22298 3.96256
# Velocity P-wave (km/s) = 7.15670 8.03881 7.61055
#
# Compressibility (1/GPa) = 0.02365276
#
# Stress axis : x y z
#
# Youngs Moduli (GPa) = 34.99736 59.75606 25.71374
#
# Poissons Ratio (x) = 0.96736 0.28362
# Poissons Ratio (y) = 0.56655 0.07854
# Poissons Ratio (z) = 0.38601 0.18251
#
# Static dielectric constant tensor:
#      x y z
#    x 1.630940 0.000000 0.000000 
#    y 0.000000 1.578400 0.000000 
#    z 0.000000 0.000000 1.615460 
# 
# From -- ./inp_files/4689.got.cif
#   From: 2010.05.17/outbox.cif.g08.bks.cpg/sg57_3_cif.got.tgz:4689.got - 2010.06.03 13:58:18.
