data_PCOD9437509
_publ_section_title
;
Structure prediction by ZEFSAII (Michael W. Deem and Ramdas Pophale) SiO2 
 PCOD9437509
Probable space group: P B C M
;
_chemical_formula_sum "Si O2"
_cell_formula_units_Z 56
_cell_length_a 22.294601
_cell_length_b 14.813858
_cell_length_c 8.440103
_cell_angle_alpha 90.000000
_cell_angle_beta 90.000000
_cell_angle_gamma 90.000000
_cell_volume 2787.504828
_symmetry_space_group_name_H-M "P B C M"
_symmetry_group_IT_number 57
_symmetry_cell_setting 'orthorhombic'
loop_
_space_group_symop_operation_xyz
x,y,z
-x,-y,1/2+z
x,1/2-y,-z
-x,1/2+y,1/2-z
-x,-y,-z
x,y,1/2-z
-x,1/2+y,z
x,1/2-y,1/2+z
loop_
_atom_site_type_symbol
_atom_site_label
_atom_site_fract_x
_atom_site_fract_y
_atom_site_fract_z
Si Si1 0.523664 0.853511 0.941182
Si Si2 0.846028 0.025873 0.941222
Si Si3 0.606514 0.353350 0.942143
Si Si4 0.088690 0.350957 0.939325
Si Si5 0.042109 0.851823 0.059800
Si Si6 0.716674 0.475877 0.938923
Si Si7 0.655547 0.852222 0.939918
O O1 0.524139 0.855668 0.750000
O O2 0.459097 0.891465 0.994219
O O3 0.589090 0.886491 0.995259
O O4 0.522393 0.750000 0.000000
O O5 0.843755 0.027696 0.750000
O O6 0.901747 0.088006 0.991727
O O7 0.862686 0.924131 0.992553
O O8 0.781891 0.055026 0.005282
O O9 0.606956 0.352593 0.750000
O O10 0.662566 0.412236 0.998877
O O11 0.611538 0.250000 0.000000
O O12 0.088232 0.348682 0.750000
O O13 0.099250 0.250000 0.000000
O O14 0.022582 0.381713 0.994946
O O15 0.039112 0.852683 0.250000
O O16 0.050738 0.750000 0.000000
O O17 0.714760 0.475351 0.750000
O O18 0.703646 0.576818 0.998889
O O19 0.656505 0.850634 0.750000
O O20 0.663919 0.750000 0.000000
#
# Coordination Sequence:
#
# PCOD9437509 Si02
#       7
#     8   8   8   8   8   8   8
#     4   8  15  30  53  79 105 135 174 222 276 329
#     4  10  23  40  56  77 110 149 186 223 265 317
#     4   9  19  36  56  80 109 141 181 228 277 328
#     4  10  20  36  59  86 112 139 174 219 268 318
#     4  10  20  36  59  86 113 142 177 220 269 320
#     4  11  24  38  54  79 111 148 188 227 270 325
#     4  10  20  36  58  81 108 142 180 226 278 330
#
# _framework density 20.089652000000001
#
# number of rings (size 3 to 8) (size 9 to 14) (size 15 to 20)
#    0.000    2.286    0.000    3.000    0.000    5.714 
#    0.000    4.286    0.000    0.000    0.000    0.000 
#    0.000    0.000    0.000    0.000    0.000    0.000 
#
# Total GULP energy -312537.938945 kJ/mol
# GULP energy per Si atom -5581.034624 kJ/mol
# Density = 2.004393 g / cm^3
# Si number density = 20.089652 Si / 1000 Ang^3
#
#
#
# Elastic Constant Matrix: (Units=GPa)
#
#
# Indices 1 2 3 4 5 6 
#
# 1 61.9349 6.1275 6.8034 0.0000 0.0000 0.0000
# 2 6.1275 33.3086 -1.1055 0.0000 0.0000 0.0000
# 3 6.8034 -1.1055 23.2903 0.0000 0.0000 0.0000
# 4 0.0000 0.0000 0.0000 20.4233 0.0000 0.0000
# 5 0.0000 0.0000 0.0000 0.0000 10.1199 0.0000
# 6 0.0000 0.0000 0.0000 0.0000 0.0000 25.8112
#
#
#
# Elastic Compliance Matrix: (Units=1/GPa)
#
#
# Indices 1 2 3 4 5 6 
#
# 1 0.017037 -0.003304 -0.005134 0.000000 0.000000 0.000000
# 2 -0.003304 0.030711 0.002423 0.000000 0.000000 0.000000
# 3 -0.005134 0.002423 0.044551 0.000000 0.000000 0.000000
# 4 0.000000 0.000000 0.000000 0.048964 0.000000 0.000000
# 5 0.000000 0.000000 0.000000 0.000000 0.098815 0.000000
# 6 0.000000 0.000000 0.000000 0.000000 0.000000 0.038743
#
#
# Mechanical properties :
#
#
# Convention : Reuss Voigt Hill
#
# Bulk Modulus (GPa) = 12.45822 15.79828 14.12825
# Shear Modulus (GPa) = 15.74276 18.38477 17.06377
#
# Velocity S-wave (km/s) = 2.80237 3.02840 2.91758
# Velocity P-wave (km/s) = 4.08482 4.48434 4.28923
#
# Compressibility (1/GPa) = 0.08026831
#
# Stress axis : x y z
#
# Youngs Moduli (GPa) = 58.69639 32.56202 22.44624
#
# Poissons Ratio (x) = 0.10760 0.11523
# Poissons Ratio (y) = 0.19396 -0.05439
# Poissons Ratio (z) = 0.30132 -0.07890
#
# Static dielectric constant tensor:
#      x y z
#    x 1.728430 0.000000 0.000000 
#    y 0.000000 1.688970 0.000000 
#    z 0.000000 0.000000 1.685970 
# 
# From -- ./inp_files/8033.got.cif
#   From: 2010.05.17/outbox.cif.g08.bks.cpg/sg57_5_cif.got.tgz:8033.got - 2010.06.03 13:58:18.
