data_PCOD9437344
_publ_section_title
;
Structure prediction by ZEFSAII (Michael W. Deem and Ramdas Pophale) SiO2 
 PCOD9437344
Probable space group: P B C M
;
_chemical_formula_sum "Si O2"
_cell_formula_units_Z 48
_cell_length_a 5.260178
_cell_length_b 26.385849
_cell_length_c 16.797777
_cell_angle_alpha 90.000000
_cell_angle_beta 90.000000
_cell_angle_gamma 90.000000
_cell_volume 2331.435069
_symmetry_space_group_name_H-M "P B C M"
_symmetry_group_IT_number 57
_symmetry_cell_setting 'orthorhombic'
loop_
_space_group_symop_operation_xyz
x,y,z
-x,-y,1/2+z
x,1/2-y,-z
-x,1/2+y,1/2-z
-x,-y,-z
x,y,1/2-z
-x,1/2+y,z
x,1/2-y,1/2+z
loop_
_atom_site_type_symbol
_atom_site_label
_atom_site_fract_x
_atom_site_fract_y
_atom_site_fract_z
Si Si1 0.933210 0.722807 0.341145
Si Si2 0.621378 0.433948 0.338043
Si Si3 0.753829 0.517235 0.452551
Si Si4 0.323188 0.383194 0.475351
Si Si5 0.983091 0.659103 0.837954
Si Si6 0.589690 0.203831 0.060875
O O1 0.895625 0.706291 0.250000
O O2 0.162717 0.695040 0.385556
O O3 0.035521 0.781044 0.337843
O O4 0.666206 0.717276 0.388292
O O5 0.521985 0.443082 0.250000
O O6 0.751065 0.484932 0.371473
O O7 0.412062 0.418344 0.401960
O O8 0.803055 0.384432 0.336008
O O9 0.500000 0.500000 0.500000
O O10 0.761886 0.578234 0.455772
O O11 0.000000 0.500000 0.500000
O O12 0.135065 0.347997 0.425641
O O13 0.533559 0.346679 0.511063
O O14 0.845043 0.652256 0.750000
O O15 0.635363 0.250000 0.000000
#
# Coordination Sequence:
#
# PCOD9437344 Si02
#       6
#     8   8   8   8   8   8
#     4  11  25  43  60  89 128 172 212 262 320 380
#     4  10  21  38  61  91 124 159 202 260 322 376
#     4  10  21  38  61  87 123 158 197 249 311 376
#     4  11  22  37  62  91 127 160 215 257 320 371
#     4  10  20  35  60  89 122 158 201 258 320 372
#     4  12  24  39  66  92 127 167 218 264 315 378
#
# _framework density 20.588179
#
# number of rings (size 3 to 8) (size 9 to 14) (size 15 to 20)
#    0.000    1.333    3.333    2.500    2.333    0.000 
#    0.000    1.667    0.000    0.000    0.000    0.000 
#    0.000    0.000    0.000    0.000    0.000    0.000 
#
# Total GULP energy -267398.568796 kJ/mol
# GULP energy per Si atom -5570.803517 kJ/mol
# Density = 2.054132 g / cm^3
# Si number density = 20.588179 Si / 1000 Ang^3
#
#
#
# Elastic Constant Matrix: (Units=GPa)
#
#
# Indices 1 2 3 4 5 6 
#
# 1 63.1033 -20.3375 17.4986 0.0000 0.0000 0.0000
# 2 -20.3375 44.8501 9.4450 0.0000 0.0000 0.0000
# 3 17.4986 9.4450 89.1096 0.0000 0.0000 0.0000
# 4 0.0000 0.0000 0.0000 25.3012 0.0000 0.0000
# 5 0.0000 0.0000 0.0000 0.0000 67.2175 0.0000
# 6 0.0000 0.0000 0.0000 0.0000 0.0000 19.5772
#
#
#
# Elastic Compliance Matrix: (Units=1/GPa)
#
#
# Indices 1 2 3 4 5 6 
#
# 1 0.020646 0.010449 -0.005162 0.000000 0.000000 0.000000
# 2 0.010449 0.028094 -0.005030 0.000000 0.000000 0.000000
# 3 -0.005162 -0.005030 0.012769 0.000000 0.000000 0.000000
# 4 0.000000 0.000000 0.000000 0.039524 0.000000 0.000000
# 5 0.000000 0.000000 0.000000 0.000000 0.014877 0.000000
# 6 0.000000 0.000000 0.000000 0.000000 0.000000 0.051080
#
#
# Mechanical properties :
#
#
# Convention : Reuss Voigt Hill
#
# Bulk Modulus (GPa) = 16.12278 23.36391 19.74334
# Shear Modulus (GPa) = 26.71668 35.11631 30.91649
#
# Velocity S-wave (km/s) = 3.60623 4.13444 3.87933
# Velocity P-wave (km/s) = 5.01876 5.84502 5.44758
#
# Compressibility (1/GPa) = 0.06202405
#
# Stress axis : x y z
#
# Youngs Moduli (GPa) = 48.43538 35.59490 78.31533
#
# Poissons Ratio (x) = -0.37194 0.40425
# Poissons Ratio (y) = -0.50611 0.39390
# Poissons Ratio (z) = 0.25002 0.17903
#
# Static dielectric constant tensor:
#      x y z
#    x 1.790590 0.000000 0.000000 
#    y 0.000000 1.783470 0.000000 
#    z 0.000000 0.000000 1.783640 
# 
# From -- ./inp_files/15093.got.cif
#   From: 2010.05.17/outbox.cif.g08.bks.cpg/sg57_8_cif.got.tgz:15093.got - 2010.06.03 13:58:18.
