data_PCOD9437109
_publ_section_title
;
Structure prediction by ZEFSAII (Michael W. Deem and Ramdas Pophale) SiO2 
 PCOD9437109
Probable space group: P B C M
;
_chemical_formula_sum "Si O2"
_cell_formula_units_Z 64
_cell_length_a 24.805537
_cell_length_b 15.549572
_cell_length_c 7.678710
_cell_angle_alpha 90.000000
_cell_angle_beta 90.000000
_cell_angle_gamma 90.000000
_cell_volume 2961.797341
_symmetry_space_group_name_H-M "P B C M"
_symmetry_group_IT_number 57
_symmetry_cell_setting 'orthorhombic'
loop_
_space_group_symop_operation_xyz
x,y,z
-x,-y,1/2+z
x,1/2-y,-z
-x,1/2+y,1/2-z
-x,-y,-z
x,y,1/2-z
-x,1/2+y,z
x,1/2-y,1/2+z
loop_
_atom_site_type_symbol
_atom_site_label
_atom_site_fract_x
_atom_site_fract_y
_atom_site_fract_z
Si Si1 0.499207 0.155072 0.541484
Si Si2 0.991102 0.352714 0.957021
Si Si3 0.606472 0.935102 0.037790
Si Si4 0.381875 0.871776 0.049391
Si Si5 0.081435 0.486076 0.540864
Si Si6 0.264987 0.841390 0.459522
Si Si7 0.285425 0.347241 0.456429
Si Si8 0.201987 0.006053 0.044918
O O1 0.478669 0.250000 0.500000
O O2 0.502818 0.143338 0.750000
O O3 0.453443 0.090312 0.477677
O O4 0.559821 0.148636 0.468206
O O5 0.994073 0.354145 0.750000
O O6 0.042612 0.408737 0.026144
O O7 0.988137 0.250000 0.000000
O O8 0.942338 0.418167 0.006029
O O9 0.605668 0.941035 0.250000
O O10 0.653559 0.869343 0.985316
O O11 0.622108 0.025831 0.958517
O O12 0.383861 0.841460 0.250000
O O13 0.326141 0.840496 0.967552
O O14 0.082058 0.476273 0.750000
O O15 0.142327 0.478596 0.472427
O O16 0.238982 0.750000 0.500000
O O17 0.269788 0.851009 0.250000
O O18 0.231853 0.922107 0.528920
O O19 0.271657 0.250000 0.500000
O O20 0.284858 0.358542 0.250000
O O21 0.242159 0.414019 0.528727
O O22 0.194335 0.988930 0.250000
#
# Coordination Sequence:
#
# PCOD9437109 Si02
#       8
#     8   8   8   8   8   8   8   8
#     4  10  21  35  51  76 106 136 178 227 281 343
#     4  10  20  36  60  89 122 158 195 237 285 337
#     4  10  21  36  54  78 106 139 182 232 284 344
#     4  10  20  35  55  78 104 139 182 229 285 344
#     4   9  20  38  60  87 119 157 198 241 286 333
#     4  10  21  36  56  81 110 147 188 233 285 340
#     4  11  23  38  58  83 112 150 194 239 291 347
#     4  10  21  40  61  84 118 154 194 241 287 336
#
# _framework density 21.608502000000001
#
# number of rings (size 3 to 8) (size 9 to 14) (size 15 to 20)
#    0.000    2.000    1.250    1.875    0.000    4.500 
#    0.000    2.500    0.000    0.000    0.000    0.000 
#    0.000    0.000    0.000    0.000    0.000    0.000 
#
# Total GULP energy -357145.405663 kJ/mol
# GULP energy per Si atom -5580.396963 kJ/mol
# Density = 2.155932 g / cm^3
# Si number density = 21.608502 Si / 1000 Ang^3
#
#
#
# Elastic Constant Matrix: (Units=GPa)
#
#
# Indices 1 2 3 4 5 6 
#
# 1 120.9528 34.3649 10.1385 0.0000 0.0000 0.0000
# 2 34.3649 124.0960 -14.0551 0.0000 0.0000 0.0000
# 3 10.1385 -14.0551 39.7682 0.0000 0.0000 0.0000
# 4 0.0000 0.0000 0.0000 21.9698 0.0000 0.0000
# 5 0.0000 0.0000 0.0000 0.0000 8.7743 0.0000
# 6 0.0000 0.0000 0.0000 0.0000 0.0000 -6.5006
#
#
#
# Elastic Compliance Matrix: (Units=1/GPa)
#
#
# Indices 1 2 3 4 5 6 
#
# 1 0.009409 -0.002997 -0.003458 0.000000 0.000000 0.000000
# 2 -0.002997 0.009349 0.004068 0.000000 0.000000 0.000000
# 3 -0.003458 0.004068 0.027465 0.000000 0.000000 0.000000
# 4 0.000000 0.000000 0.000000 0.045517 0.000000 0.000000
# 5 0.000000 0.000000 0.000000 0.000000 0.113969 0.000000
# 6 0.000000 0.000000 0.000000 0.000000 0.000000 -0.153833
#
#
# Mechanical properties :
#
#
# Convention : Reuss Voigt Hill
#
# Bulk Modulus (GPa) = 24.12585 38.41262 31.26923
# Shear Modulus (GPa) = 70.95550 21.80662 46.38106
#
# Velocity S-wave (km/s) = 5.73656 3.18019 4.63798
# Velocity P-wave (km/s) = 7.42070 5.59464 6.57141
#
# Compressibility (1/GPa) = 0.04144932
#
# Stress axis : x y z
#
# Youngs Moduli (GPa) = 106.27979 106.96258 36.40979
#
# Poissons Ratio (x) = 0.32059 0.12591
# Poissons Ratio (y) = 0.31855 -0.14813
# Poissons Ratio (z) = 0.36752 -0.43516
#
# Static dielectric constant tensor:
#      x y z
#    x 1.815440 0.000000 0.000000 
#    y 0.000000 1.773550 0.000000 
#    z 0.000000 0.000000 1.831870 
# 
# From -- ./inp_files/9257.got.cif
#   From: 2010.05.17/outbox.cif.g08.bks.cpg/sg57_5_cif.got.tgz:9257.got - 2010.06.03 13:58:18.
