data_PCOD9437715
_publ_section_title
;
Structure prediction by ZEFSAII (Michael W. Deem and Ramdas Pophale) SiO2 
 PCOD9437715
Probable space group: P B C M
;
_chemical_formula_sum "Si O2"
_cell_formula_units_Z 48
_cell_length_a 15.177419
_cell_length_b 19.449643
_cell_length_c 9.887561
_cell_angle_alpha 90.000000
_cell_angle_beta 90.000000
_cell_angle_gamma 90.000000
_cell_volume 2918.762339
_symmetry_space_group_name_H-M "P B C M"
_symmetry_group_IT_number 57
_symmetry_cell_setting 'orthorhombic'
loop_
_space_group_symop_operation_xyz
x,y,z
-x,-y,1/2+z
x,1/2-y,-z
-x,1/2+y,1/2-z
-x,-y,-z
x,y,1/2-z
-x,1/2+y,z
x,1/2-y,1/2+z
loop_
_atom_site_type_symbol
_atom_site_label
_atom_site_fract_x
_atom_site_fract_y
_atom_site_fract_z
Si Si1 0.219282 0.862407 0.402563
Si Si2 0.428834 0.669067 0.250000
Si Si3 0.075272 0.589788 0.409498
Si Si4 0.294624 0.485798 0.960293
Si Si5 0.643052 0.250000 0.500000
Si Si6 0.890948 0.956058 0.906966
Si Si7 0.441274 0.051540 0.250000
Si Si8 0.362325 0.979370 0.750000
O O1 0.185900 0.853755 0.250000
O O2 0.139972 0.859685 0.510560
O O3 0.263819 0.937906 0.414237
O O4 0.293495 0.806897 0.434176
O O5 0.413042 0.713667 0.116960
O O6 0.521391 0.629024 0.250000
O O7 0.359384 0.604526 0.250000
O O8 0.096322 0.587440 0.250000
O O9 0.093140 0.516633 0.483915
O O10 0.969711 0.598542 0.424534
O O11 0.211003 0.437328 0.927916
O O12 0.380638 0.464390 0.878020
O O13 0.317251 0.491600 0.117118
O O14 0.900322 0.980849 0.750000
O O15 0.532055 0.007792 0.250000
#
# Coordination Sequence:
#
# PCOD9437715 Si02
#       8
#     8   4   8   8   4   8   4   4
#     4  11  21  32  51  74 108 144 175 216 264 325
#     4  10  24  37  55  76 105 141 179 226 274 317
#     4   9  18  28  45  71 104 137 171 207 249 301
#     4  11  18  33  52  77 109 141 175 213 276 322
#     4  12  22  38  52  78 108 142 182 222 266 324
#     4   9  17  29  44  70 105 140 170 201 249 312
#     4  10  20  37  53  74 108 138 183 220 273 340
#     4  10  22  30  48  80 103 139 174 220 267 327
#
# _framework density 16.445326999999999
#
# number of rings (size 3 to 8) (size 9 to 14) (size 15 to 20)
#    0.500    1.333    4.167    2.000    5.833    0.667 
#    0.000    0.833    0.000    0.000    0.000    1.167 
#    0.000    0.000    0.000    0.000    0.000    0.000 
#
# Total GULP energy -267243.622820 kJ/mol
# GULP energy per Si atom -5567.575475 kJ/mol
# Density = 1.640790 g / cm^3
# Si number density = 16.445327 Si / 1000 Ang^3
#
#
#
# Elastic Constant Matrix: (Units=GPa)
#
#
# Indices 1 2 3 4 5 6 
#
# 1 99.4201 29.3655 47.7931 0.0000 0.0000 0.0000
# 2 29.3655 39.5683 25.7534 0.0000 0.0000 0.0000
# 3 47.7931 25.7534 155.4651 0.0000 0.0000 0.0000
# 4 0.0000 0.0000 0.0000 15.6262 0.0000 0.0000
# 5 0.0000 0.0000 0.0000 0.0000 30.3402 0.0000
# 6 0.0000 0.0000 0.0000 0.0000 0.0000 12.6968
#
#
#
# Elastic Compliance Matrix: (Units=1/GPa)
#
#
# Indices 1 2 3 4 5 6 
#
# 1 0.013948 -0.008474 -0.002884 0.000000 0.000000 0.000000
# 2 -0.008474 0.033475 -0.002940 0.000000 0.000000 0.000000
# 3 -0.002884 -0.002940 0.007806 0.000000 0.000000 0.000000
# 4 0.000000 0.000000 0.000000 0.063995 0.000000 0.000000
# 5 0.000000 0.000000 0.000000 0.000000 0.032960 0.000000
# 6 0.000000 0.000000 0.000000 0.000000 0.000000 0.078760
#
#
# Mechanical properties :
#
#
# Convention : Reuss Voigt Hill
#
# Bulk Modulus (GPa) = 37.54831 55.58640 46.56735
# Shear Modulus (GPa) = 18.62766 24.50207 21.56486
#
# Velocity S-wave (km/s) = 3.36922 3.86412 3.62512
# Velocity P-wave (km/s) = 6.16581 7.33367 6.77495
#
# Compressibility (1/GPa) = 0.02663236
#
# Stress axis : x y z
#
# Youngs Moduli (GPa) = 71.69625 29.87264 128.10686
#
# Poissons Ratio (x) = 0.25315 0.36947
# Poissons Ratio (y) = 0.60756 0.37666
# Poissons Ratio (z) = 0.20677 0.08783
#
# Static dielectric constant tensor:
#      x y z
#    x 1.595750 0.000000 0.000000 
#    y 0.000000 1.540290 0.000000 
#    z 0.000000 0.000000 1.562200 
# 
# From -- ./inp_files/5378.got.cif
#   From: 2010.05.17/outbox.cif.g08.bks.cpg/sg57_3_cif.got.tgz:5378.got - 2010.06.03 13:58:18.
