data_PCOD9437740
_publ_section_title
;
Structure prediction by ZEFSAII (Michael W. Deem and Ramdas Pophale) SiO2 
 PCOD9437740
Probable space group: P B C M
;
_chemical_formula_sum "Si O2"
_cell_formula_units_Z 64
_cell_length_a 22.139739
_cell_length_b 18.125200
_cell_length_c 8.741765
_cell_angle_alpha 90.000000
_cell_angle_beta 90.000000
_cell_angle_gamma 90.000000
_cell_volume 3507.958377
_symmetry_space_group_name_H-M "P B C M"
_symmetry_group_IT_number 57
_symmetry_cell_setting 'orthorhombic'
loop_
_space_group_symop_operation_xyz
x,y,z
-x,-y,1/2+z
x,1/2-y,-z
-x,1/2+y,1/2-z
-x,-y,-z
x,y,1/2-z
-x,1/2+y,z
x,1/2-y,1/2+z
loop_
_atom_site_type_symbol
_atom_site_label
_atom_site_fract_x
_atom_site_fract_y
_atom_site_fract_z
Si Si1 0.310044 0.547047 0.065972
Si Si2 0.998074 0.669542 0.565804
Si Si3 0.126814 0.405428 0.433157
Si Si4 0.110178 0.931801 0.434149
Si Si5 0.564203 0.521406 0.566602
Si Si6 0.772889 0.331766 0.066954
Si Si7 0.255137 0.102377 0.432571
Si Si8 0.372899 0.327067 0.066547
O O1 0.305156 0.543377 0.250000
O O2 0.379803 0.531712 0.022768
O O3 0.282610 0.622530 0.003874
O O4 0.271886 0.479266 0.995191
O O5 0.011084 0.750000 0.500000
O O6 0.999603 0.673622 0.750000
O O7 0.931872 0.641229 0.519302
O O8 0.049102 0.610556 0.520073
O O9 0.132624 0.402199 0.250000
O O10 0.116793 0.489924 0.484442
O O11 0.188578 0.378248 0.509498
O O12 0.109611 0.943709 0.250000
O O13 0.166821 0.878822 0.469407
O O14 0.500000 0.500000 0.500000
O O15 0.560384 0.519836 0.750000
O O16 0.585256 0.603730 0.521489
O O17 0.767186 0.328574 0.250000
O O18 0.777043 0.250000 0.000000
O O19 0.257396 0.102064 0.250000
O O20 0.306673 0.155181 0.500041
O O21 0.369516 0.324621 0.250000
O O22 0.394920 0.250000 0.000000
#
# Coordination Sequence:
#
# PCOD9437740 Si02
#       8
#     8   8   8   8   8   8   8   8
#     4  10  20  37  58  83 116 149 188 234 279 333
#     4  10  23  40  56  78 109 146 188 236 288 346
#     4  11  22  36  57  83 111 147 190 236 288 344
#     4  10  21  38  58  82 110 142 191 238 283 347
#     4   9  20  37  60  88 118 154 194 236 279 333
#     4  11  22  35  56  85 115 149 189 235 290 343
#     4  11  21  35  57  84 113 149 188 233 287 341
#     4  10  21  38  59  88 121 154 194 240 288 340
#
# _framework density 18.244230000000002
#
# number of rings (size 3 to 8) (size 9 to 14) (size 15 to 20)
#    0.000    1.750    1.250    4.125    0.000    5.500 
#    0.000    1.875    0.000    1.500    0.000    0.000 
#    0.000    0.000    0.000    0.000    0.000    0.000 
#
# Total GULP energy -357589.485821 kJ/mol
# GULP energy per Si atom -5587.335716 kJ/mol
# Density = 1.820271 g / cm^3
# Si number density = 18.244230 Si / 1000 Ang^3
#
#
#
# Elastic Constant Matrix: (Units=GPa)
#
#
# Indices 1 2 3 4 5 6 
#
# 1 119.9537 13.2345 29.3258 0.0000 0.0000 0.0000
# 2 13.2345 42.2597 15.4177 0.0000 0.0000 0.0000
# 3 29.3258 15.4177 52.8857 0.0000 0.0000 0.0000
# 4 0.0000 0.0000 0.0000 32.3324 0.0000 0.0000
# 5 0.0000 0.0000 0.0000 0.0000 28.6231 0.0000
# 6 0.0000 0.0000 0.0000 0.0000 0.0000 15.8777
#
#
#
# Elastic Compliance Matrix: (Units=1/GPa)
#
#
# Indices 1 2 3 4 5 6 
#
# 1 0.009698 -0.001203 -0.005027 0.000000 0.000000 0.000000
# 2 -0.001203 0.026629 -0.007096 0.000000 0.000000 0.000000
# 3 -0.005027 -0.007096 0.023765 0.000000 0.000000 0.000000
# 4 0.000000 0.000000 0.000000 0.030929 0.000000 0.000000
# 5 0.000000 0.000000 0.000000 0.000000 0.034937 0.000000
# 6 0.000000 0.000000 0.000000 0.000000 0.000000 0.062981
#
#
# Mechanical properties :
#
#
# Convention : Reuss Voigt Hill
#
# Bulk Modulus (GPa) = 29.90450 36.78390 33.34420
# Shear Modulus (GPa) = 22.05191 25.84138 23.94665
#
# Velocity S-wave (km/s) = 3.48042 3.76761 3.62686
# Velocity P-wave (km/s) = 5.70770 6.25558 5.98791
#
# Compressibility (1/GPa) = 0.03343978
#
# Stress axis : x y z
#
# Youngs Moduli (GPa) = 103.11090 37.55330 42.07887
#
# Poissons Ratio (x) = 0.04518 0.21153
# Poissons Ratio (y) = 0.12406 0.29859
# Poissons Ratio (z) = 0.51834 0.26647
#
# Static dielectric constant tensor:
#      x y z
#    x 1.621900 0.000000 0.000000 
#    y 0.000000 1.609970 0.000000 
#    z 0.000000 0.000000 1.609160 
# 
# From -- ./inp_files/8432.got.cif
#   From: 2010.05.17/outbox.cif.g08.bks.cpg/sg57_5_cif.got.tgz:8432.got - 2010.06.03 13:58:18.
