data_PCOD9437498
_publ_section_title
;
Structure prediction by ZEFSAII (Michael W. Deem and Ramdas Pophale) SiO2 
 PCOD9437498
Probable space group: P B C M
;
_chemical_formula_sum "Si O2"
_cell_formula_units_Z 64
_cell_length_a 22.085518
_cell_length_b 17.941686
_cell_length_c 8.522536
_cell_angle_alpha 90.000000
_cell_angle_beta 90.000000
_cell_angle_gamma 90.000000
_cell_volume 3377.067070
_symmetry_space_group_name_H-M "P B C M"
_symmetry_group_IT_number 57
_symmetry_cell_setting 'orthorhombic'
loop_
_space_group_symop_operation_xyz
x,y,z
-x,-y,1/2+z
x,1/2-y,-z
-x,1/2+y,1/2-z
-x,-y,-z
x,y,1/2-z
-x,1/2+y,z
x,1/2-y,1/2+z
loop_
_atom_site_type_symbol
_atom_site_label
_atom_site_fract_x
_atom_site_fract_y
_atom_site_fract_z
Si Si1 0.189374 0.949779 0.939262
Si Si2 0.603545 0.059757 0.437434
Si Si3 0.495694 0.668953 0.564711
Si Si4 0.065735 0.020350 0.562321
Si Si5 0.247669 0.100592 0.060915
Si Si6 0.122900 0.170437 0.062446
Si Si7 0.715396 0.333406 0.561050
Si Si8 0.383497 0.106534 0.063144
O O1 0.188843 0.949249 0.750000
O O2 0.223020 0.874848 0.992423
O O3 0.120788 0.966278 0.993175
O O4 0.229833 0.020069 0.992378
O O5 0.606427 0.047027 0.250000
O O6 0.543288 0.104869 0.481041
O O7 0.659508 0.113161 0.484676
O O8 0.606704 0.980702 0.523461
O O9 0.477843 0.750000 0.500000
O O10 0.485296 0.665785 0.750000
O O11 0.565651 0.653441 0.525072
O O12 0.064898 0.018058 0.750000
O O13 0.084699 0.102438 0.506442
O O14 0.000000 0.000000 0.500000
O O15 0.247850 0.094214 0.250000
O O16 0.192853 0.154887 0.014967
O O17 0.314732 0.124462 0.012680
O O18 0.119385 0.168370 0.250000
O O19 0.102930 0.250000 0.000000
O O20 0.709115 0.250000 0.500000
O O21 0.715441 0.330616 0.750000
O O22 0.389612 0.118248 0.250000
#
# Coordination Sequence:
#
# PCOD9437498 Si02
#       8
#     8   8   8   8   8   8   8   8
#     4   9  18  35  56  80 111 147 186 230 278 335
#     4  11  22  39  61  84 111 147 191 236 285 345
#     4  12  26  43  59  79 110 148 190 239 292 346
#     4  10  20  36  60  86 116 155 197 238 285 337
#     4   9  19  34  56  84 113 145 184 231 280 337
#     4  10  20  36  57  86 120 153 193 238 287 340
#     4  10  21  35  55  83 113 144 183 229 284 338
#     4  11  22  38  60  87 115 148 190 235 287 345
#
# _framework density 18.951356000000001
#
# number of rings (size 3 to 8) (size 9 to 14) (size 15 to 20)
#    0.000    1.750    1.250    3.375    0.000    4.500 
#    0.000    1.875    0.000    1.500    0.000    0.000 
#    0.000    0.000    0.000    0.000    0.000    0.000 
#
# Total GULP energy -357529.119099 kJ/mol
# GULP energy per Si atom -5586.392486 kJ/mol
# Density = 1.890822 g / cm^3
# Si number density = 18.951356 Si / 1000 Ang^3
#
#
#
# Elastic Constant Matrix: (Units=GPa)
#
#
# Indices 1 2 3 4 5 6 
#
# 1 99.6614 4.7031 7.8405 0.0000 0.0000 0.0000
# 2 4.7031 47.7720 1.3515 0.0000 0.0000 0.0000
# 3 7.8405 1.3515 23.6626 0.0000 0.0000 0.0000
# 4 0.0000 0.0000 0.0000 29.1346 0.0000 0.0000
# 5 0.0000 0.0000 0.0000 0.0000 23.8227 0.0000
# 6 0.0000 0.0000 0.0000 0.0000 0.0000 14.4291
#
#
#
# Elastic Compliance Matrix: (Units=1/GPa)
#
#
# Indices 1 2 3 4 5 6 
#
# 1 0.010343 -0.000923 -0.003374 0.000000 0.000000 0.000000
# 2 -0.000923 0.021049 -0.000896 0.000000 0.000000 0.000000
# 3 -0.003374 -0.000896 0.043430 0.000000 0.000000 0.000000
# 4 0.000000 0.000000 0.000000 0.034323 0.000000 0.000000
# 5 0.000000 0.000000 0.000000 0.000000 0.041977 0.000000
# 6 0.000000 0.000000 0.000000 0.000000 0.000000 0.069304
#
#
# Mechanical properties :
#
#
# Convention : Reuss Voigt Hill
#
# Bulk Modulus (GPa) = 15.51957 22.09846 18.80901
# Shear Modulus (GPa) = 19.81830 23.95735 21.88783
#
# Velocity S-wave (km/s) = 3.23731 3.55935 3.40214
# Velocity P-wave (km/s) = 4.70962 5.34583 5.03777
#
# Compressibility (1/GPa) = 0.06443479
#
# Stress axis : x y z
#
# Youngs Moduli (GPa) = 96.68386 47.50821 23.02553
#
# Poissons Ratio (x) = 0.04384 0.07770
# Poissons Ratio (y) = 0.08922 0.02064
# Poissons Ratio (z) = 0.32625 0.04259
#
# Static dielectric constant tensor:
#      x y z
#    x 1.679490 0.000000 0.000000 
#    y 0.000000 1.624590 0.000000 
#    z 0.000000 0.000000 1.633870 
# 
# From -- ./inp_files/8508.got.cif
#   From: 2010.05.17/outbox.cif.g08.bks.cpg/sg57_5_cif.got.tgz:8508.got - 2010.06.03 13:58:18.
