data_PCOD9437593
_publ_section_title
;
Structure prediction by ZEFSAII (Michael W. Deem and Ramdas Pophale) SiO2 
 PCOD9437593
Probable space group: P B C M
;
_chemical_formula_sum "Si O2"
_cell_formula_units_Z 56
_cell_length_a 21.397704
_cell_length_b 15.797355
_cell_length_c 8.718061
_cell_angle_alpha 90.000000
_cell_angle_beta 90.000000
_cell_angle_gamma 90.000000
_cell_volume 2946.941107
_symmetry_space_group_name_H-M "P B C M"
_symmetry_group_IT_number 57
_symmetry_cell_setting 'orthorhombic'
loop_
_space_group_symop_operation_xyz
x,y,z
-x,-y,1/2+z
x,1/2-y,-z
-x,1/2+y,1/2-z
-x,-y,-z
x,y,1/2-z
-x,1/2+y,z
x,1/2-y,1/2+z
loop_
_atom_site_type_symbol
_atom_site_label
_atom_site_fract_x
_atom_site_fract_y
_atom_site_fract_z
Si Si1 0.645391 0.158969 0.934888
Si Si2 0.509519 0.093848 0.934748
Si Si3 0.968774 0.914873 0.934028
Si Si4 0.848358 0.981556 0.065859
Si Si5 0.624438 0.660610 0.933809
Si Si6 0.094954 0.663069 0.066406
Si Si7 0.288251 0.014093 0.434263
O O1 0.645501 0.163615 0.750000
O O2 0.574769 0.134941 0.986324
O O3 0.689298 0.080305 0.980390
O O4 0.663758 0.250000 0.000000
O O5 0.511949 0.087920 0.750000
O O6 0.448237 0.146951 0.977410
O O7 0.500000 0.000000 0.000000
O O8 0.964811 0.919202 0.750000
O O9 0.021408 0.846240 0.975797
O O10 0.899845 0.915200 0.004398
O O11 0.000000 0.000000 0.000000
O O12 0.848117 0.979009 0.250000
O O13 0.870679 0.076496 0.017084
O O14 0.780082 0.967069 0.999395
O O15 0.629272 0.660314 0.750000
O O16 0.646608 0.750000 0.000000
O O17 0.663325 0.582666 0.001389
O O18 0.098669 0.665843 0.250000
O O19 0.120925 0.750000 0.000000
O O20 0.288149 0.017917 0.250000
#
# Coordination Sequence:
#
# PCOD9437593 Si02
#       7
#     8   8   8   8   8   8   8
#     4  10  22  38  57  84 117 153 194 239 292 352
#     4  10  20  36  59  87 116 149 190 239 296 352
#     4   9  17  32  53  79 107 139 179 221 269 322
#     4  10  21  37  56  80 110 147 191 233 280 338
#     4  11  23  39  62  88 115 151 193 243 299 354
#     4   9  19  33  53  82 114 144 179 225 273 330
#     4  11  23  40  60  83 116 156 199 245 292 350
#
# _framework density 19.002755000000001
#
# number of rings (size 3 to 8) (size 9 to 14) (size 15 to 20)
#    0.000    2.000    1.429    3.000    0.000    6.286 
#    0.000    3.571    0.000    1.714    0.000    0.000 
#    0.000    0.000    0.000    0.000    0.000    0.000 
#
# Total GULP energy -312536.928335 kJ/mol
# GULP energy per Si atom -5581.016577 kJ/mol
# Density = 1.895950 g / cm^3
# Si number density = 19.002755 Si / 1000 Ang^3
#
#
#
# Elastic Constant Matrix: (Units=GPa)
#
#
# Indices 1 2 3 4 5 6 
#
# 1 80.3868 -11.6516 19.1059 0.0000 0.0000 0.0000
# 2 -11.6516 63.8807 12.2589 0.0000 0.0000 0.0000
# 3 19.1059 12.2589 31.0969 0.0000 0.0000 0.0000
# 4 0.0000 0.0000 0.0000 30.9291 0.0000 0.0000
# 5 0.0000 0.0000 0.0000 0.0000 22.3484 0.0000
# 6 0.0000 0.0000 0.0000 0.0000 0.0000 10.9191
#
#
#
# Elastic Compliance Matrix: (Units=1/GPa)
#
#
# Indices 1 2 3 4 5 6 
#
# 1 0.016022 0.005205 -0.011896 0.000000 0.000000 0.000000
# 2 0.005205 0.018626 -0.010541 0.000000 0.000000 0.000000
# 3 -0.011896 -0.010541 0.043621 0.000000 0.000000 0.000000
# 4 0.000000 0.000000 0.000000 0.032332 0.000000 0.000000
# 5 0.000000 0.000000 0.000000 0.000000 0.044746 0.000000
# 6 0.000000 0.000000 0.000000 0.000000 0.000000 0.091583
#
#
# Mechanical properties :
#
#
# Convention : Reuss Voigt Hill
#
# Bulk Modulus (GPa) = 22.82746 23.86564 23.34655
# Shear Modulus (GPa) = 16.89218 23.21607 20.05413
#
# Velocity S-wave (km/s) = 2.98473 3.49911 3.25210
# Velocity P-wave (km/s) = 4.89050 5.37692 5.13947
#
# Compressibility (1/GPa) = 0.04380689
#
# Stress axis : x y z
#
# Youngs Moduli (GPa) = 62.41584 53.68734 22.92450
#
# Poissons Ratio (x) = -0.27945 0.27270
# Poissons Ratio (y) = -0.32488 0.24164
# Poissons Ratio (z) = 0.74247 0.56591
#
# Static dielectric constant tensor:
#      x y z
#    x 1.666490 0.000000 0.000000 
#    y 0.000000 1.646190 0.000000 
#    z 0.000000 0.000000 1.638370 
# 
# From -- ./inp_files/8138.got.cif
#   From: 2010.05.17/outbox.cif.g08.bks.cpg/sg57_5_cif.got.tgz:8138.got - 2010.06.03 13:58:18.
