data_PCOD9437679
_publ_section_title
;
Structure prediction by ZEFSAII (Michael W. Deem and Ramdas Pophale) SiO2 
 PCOD9437679
Probable space group: P B C M
;
_chemical_formula_sum "Si O2"
_cell_formula_units_Z 64
_cell_length_a 18.430492
_cell_length_b 11.175699
_cell_length_c 15.152254
_cell_angle_alpha 90.000000
_cell_angle_beta 90.000000
_cell_angle_gamma 90.000000
_cell_volume 3120.964774
_symmetry_space_group_name_H-M "P B C M"
_symmetry_group_IT_number 57
_symmetry_cell_setting 'orthorhombic'
loop_
_space_group_symop_operation_xyz
x,y,z
-x,-y,1/2+z
x,1/2-y,-z
-x,1/2+y,1/2-z
-x,-y,-z
x,y,1/2-z
-x,1/2+y,z
x,1/2-y,1/2+z
loop_
_atom_site_type_symbol
_atom_site_label
_atom_site_fract_x
_atom_site_fract_y
_atom_site_fract_z
Si Si1 0.045083 0.225232 0.896502
Si Si2 0.446394 0.036951 0.848345
Si Si3 0.792679 0.774329 0.395111
Si Si4 0.944120 0.449937 0.647075
Si Si5 0.637685 0.730619 0.393677
Si Si6 0.647269 0.382500 0.525178
Si Si7 0.219468 0.553118 0.355237
Si Si8 0.607761 0.477566 0.349251
O O1 0.126569 0.246347 0.859273
O O2 0.028848 0.081505 0.887064
O O3 0.992865 0.330834 0.861942
O O4 0.046870 0.250000 0.000000
O O5 0.443106 0.983051 0.750000
O O6 0.393281 0.149657 0.852549
O O7 0.528609 0.080198 0.863010
O O8 0.416565 0.948651 0.922434
O O9 0.797074 0.750000 0.500000
O O10 0.720919 0.705535 0.365075
O O11 0.774090 0.911614 0.373859
O O12 0.934381 0.474141 0.750000
O O13 0.862885 0.419737 0.613364
O O14 0.635533 0.750000 0.500000
O O15 0.592622 0.618239 0.361126
O O16 0.626275 0.250000 0.500000
O O17 0.718115 0.385453 0.587248
O O18 0.659392 0.445957 0.430742
O O19 0.227593 0.576469 0.250000
O O20 0.633293 0.450962 0.250000
#
# Coordination Sequence:
#
# PCOD9437679 Si02
#       8
#     8   8   8   8   8   8   8   8
#     4  10  20  36  61  92 127 167 210 257 313 379
#     4  11  24  41  64  91 121 162 207 251 315 381
#     4   9  18  35  61  93 122 154 204 260 310 371
#     4  10  21  38  62  93 128 165 211 263 318 379
#     4  11  20  38  68  91 122 160 205 260 311 371
#     4  12  25  41  64  88 122 166 209 258 307 369
#     4  10  21  40  63  89 122 167 217 258 307 378
#     4  11  26  42  60  93 128 158 201 263 322 374
#
# _framework density 20.50648
#
# number of rings (size 3 to 8) (size 9 to 14) (size 15 to 20)
#    0.000    1.500    2.500    2.625    1.750    2.500 
#    0.000    1.250    0.000    0.000    0.000    0.000 
#    0.000    0.000    0.000    0.000    0.000    0.000 
#
# Total GULP energy -356847.449523 kJ/mol
# GULP energy per Si atom -5575.741399 kJ/mol
# Density = 2.045981 g / cm^3
# Si number density = 20.506480 Si / 1000 Ang^3
#
#
#
# Elastic Constant Matrix: (Units=GPa)
#
#
# Indices 1 2 3 4 5 6 
#
# 1 69.6486 11.6023 14.6792 0.0000 0.0000 0.0000
# 2 11.6023 66.6465 24.9867 0.0000 0.0000 0.0000
# 3 14.6792 24.9867 104.6336 0.0000 0.0000 0.0000
# 4 0.0000 0.0000 0.0000 11.1906 0.0000 0.0000
# 5 0.0000 0.0000 0.0000 0.0000 35.2189 0.0000
# 6 0.0000 0.0000 0.0000 0.0000 0.0000 30.4063
#
#
#
# Elastic Compliance Matrix: (Units=1/GPa)
#
#
# Indices 1 2 3 4 5 6 
#
# 1 0.015036 -0.002006 -0.001630 0.000000 0.000000 0.000000
# 2 -0.002006 0.016748 -0.003718 0.000000 0.000000 0.000000
# 3 -0.001630 -0.003718 0.010674 0.000000 0.000000 0.000000
# 4 0.000000 0.000000 0.000000 0.089361 0.000000 0.000000
# 5 0.000000 0.000000 0.000000 0.000000 0.028394 0.000000
# 6 0.000000 0.000000 0.000000 0.000000 0.000000 0.032888
#
#
# Mechanical properties :
#
#
# Convention : Reuss Voigt Hill
#
# Bulk Modulus (GPa) = 36.03852 38.16279 37.10066
# Shear Modulus (GPa) = 23.03534 28.00719 25.52126
#
# Velocity S-wave (km/s) = 3.35523 3.69965 3.53164
# Velocity P-wave (km/s) = 5.71161 6.07457 5.89588
#
# Compressibility (1/GPa) = 0.02774809
#
# Stress axis : x y z
#
# Youngs Moduli (GPa) = 66.50878 59.70965 93.68803
#
# Poissons Ratio (x) = 0.11979 0.15274
# Poissons Ratio (y) = 0.13344 0.34833
# Poissons Ratio (z) = 0.10843 0.22200
#
# Static dielectric constant tensor:
#      x y z
#    x 1.777780 0.000000 0.000000 
#    y 0.000000 1.734110 0.000000 
#    z 0.000000 0.000000 1.792070 
# 
# From -- ./inp_files/19142.got.cif
#   From: 2010.05.17/outbox.cif.g08.bks.cpg/sg57_10_cif.got.tgz:19142.got - 2010.06.03 13:58:18.
