data_PCOD9437631
_publ_section_title
;
Structure prediction by ZEFSAII (Michael W. Deem and Ramdas Pophale) SiO2 
 PCOD9437631
Probable space group: P B C M
;
_chemical_formula_sum "Si O2"
_cell_formula_units_Z 64
_cell_length_a 12.312517
_cell_length_b 32.228300
_cell_length_c 8.856176
_cell_angle_alpha 90.000000
_cell_angle_beta 90.000000
_cell_angle_gamma 90.000000
_cell_volume 3514.232409
_symmetry_space_group_name_H-M "P B C M"
_symmetry_group_IT_number 57
_symmetry_cell_setting 'orthorhombic'
loop_
_space_group_symop_operation_xyz
x,y,z
-x,-y,1/2+z
x,1/2-y,-z
-x,1/2+y,1/2-z
-x,-y,-z
x,y,1/2-z
-x,1/2+y,z
x,1/2-y,1/2+z
loop_
_atom_site_type_symbol
_atom_site_label
_atom_site_fract_x
_atom_site_fract_y
_atom_site_fract_z
Si Si1 0.857651 0.391173 0.569036
Si Si2 0.512763 0.545992 0.930145
Si Si3 0.510737 0.705327 0.931961
Si Si4 0.097856 0.133117 0.068490
Si Si5 0.259184 0.058458 0.428333
Si Si6 0.891175 0.019221 0.929316
Si Si7 0.629784 0.374846 0.067419
Si Si8 0.762546 0.705942 0.930247
O O1 0.851294 0.390377 0.750000
O O2 0.864172 0.438229 0.511103
O O3 0.750177 0.371727 0.498267
O O4 0.972335 0.370797 0.522802
O O5 0.503845 0.542058 0.750000
O O6 0.426706 0.581479 0.979744
O O7 0.500000 0.500000 0.000000
O O8 0.631725 0.562435 0.976582
O O9 0.505372 0.708403 0.750000
O O10 0.440458 0.665418 0.978620
O O11 0.636805 0.697826 0.974567
O O12 0.477820 0.750000 0.000000
O O13 0.100793 0.137431 0.250000
O O14 0.166213 0.091638 0.031376
O O15 0.159477 0.170778 0.992258
O O16 0.284593 0.063477 0.250000
O O17 0.206375 0.013344 0.449373
O O18 0.906179 0.025563 0.750000
O O19 0.000000 0.000000 0.000000
O O20 0.633911 0.375476 0.250000
O O21 0.767190 0.707663 0.750000
O O22 0.793300 0.750000 0.000000
#
# Coordination Sequence:
#
# PCOD9437631 Si02
#       8
#     8   8   8   8   8   8   8   8
#     4  11  23  39  57  82 114 151 196 239 281 335
#     4  11  23  38  56  81 114 151 193 239 287 343
#     4   9  19  37  61  88 117 144 183 234 287 346
#     4  10  21  38  56  80 114 146 182 231 279 329
#     4  10  21  37  56  80 112 146 184 234 285 331
#     4  11  21  36  56  80 112 151 192 236 284 334
#     4  10  22  40  58  81 116 155 192 238 291 345
#     4  10  20  36  60  89 116 146 181 224 281 342
#
# _framework density 18.211659000000001
#
# number of rings (size 3 to 8) (size 9 to 14) (size 15 to 20)
#    0.000    1.750    1.250    3.000    0.000    8.500 
#    0.000    0.625    0.000    1.500    0.000    0.000 
#    0.000    0.000    0.000    0.000    0.000    0.000 
#
# Total GULP energy -357482.954227 kJ/mol
# GULP energy per Si atom -5585.671160 kJ/mol
# Density = 1.817021 g / cm^3
# Si number density = 18.211659 Si / 1000 Ang^3
#
#
#
# Elastic Constant Matrix: (Units=GPa)
#
#
# Indices 1 2 3 4 5 6 
#
# 1 116.1780 73.1983 38.0138 0.0000 0.0000 0.0000
# 2 73.1983 139.6772 36.7446 0.0000 0.0000 0.0000
# 3 38.0138 36.7446 20.8144 0.0000 0.0000 0.0000
# 4 0.0000 0.0000 0.0000 32.9399 0.0000 0.0000
# 5 0.0000 0.0000 0.0000 0.0000 33.9470 0.0000
# 6 0.0000 0.0000 0.0000 0.0000 0.0000 29.8071
#
#
#
# Elastic Compliance Matrix: (Units=1/GPa)
#
#
# Indices 1 2 3 4 5 6 
#
# 1 0.021619 -0.001760 -0.036375 0.000000 0.000000 0.000000
# 2 -0.001760 0.013510 -0.020636 0.000000 0.000000 0.000000
# 3 -0.036375 -0.020636 0.150906 0.000000 0.000000 0.000000
# 4 0.000000 0.000000 0.000000 0.030358 0.000000 0.000000
# 5 0.000000 0.000000 0.000000 0.000000 0.029458 0.000000
# 6 0.000000 0.000000 0.000000 0.000000 0.000000 0.033549
#
#
# Mechanical properties :
#
#
# Convention : Reuss Voigt Hill
#
# Bulk Modulus (GPa) = 14.60014 63.62031 39.11023
# Shear Modulus (GPa) = 11.91118 27.91967 19.91542
#
# Velocity S-wave (km/s) = 2.56020 3.91969 3.31048
# Velocity P-wave (km/s) = 4.09558 7.44949 6.01119
#
# Compressibility (1/GPa) = 0.06849249
#
# Stress axis : x y z
#
# Youngs Moduli (GPa) = 46.25655 74.01693 6.62663
#
# Poissons Ratio (x) = 0.13028 0.24105
# Poissons Ratio (y) = 0.08142 0.13675
# Poissons Ratio (z) = 1.68259 1.52741
#
# Static dielectric constant tensor:
#      x y z
#    x 1.626290 0.000000 0.000000 
#    y 0.000000 1.621680 0.000000 
#    z 0.000000 0.000000 1.613700 
# 
# From -- ./inp_files/3761.got.cif
#   From: 2010.05.17/outbox.cif.g08.bks.cpg/sg57_2_cif.got.tgz:3761.got - 2010.06.03 13:58:18.
