data_PCOD9437849
_publ_section_title
;
Structure prediction by ZEFSAII (Michael W. Deem and Ramdas Pophale) SiO2 
 PCOD9437849
Probable space group: P B C M
;
_chemical_formula_sum "Si O2"
_cell_formula_units_Z 60
_cell_length_a 16.893453
_cell_length_b 18.620117
_cell_length_c 9.690985
_cell_angle_alpha 90.000000
_cell_angle_beta 90.000000
_cell_angle_gamma 90.000000
_cell_volume 3048.377552
_symmetry_space_group_name_H-M "P B C M"
_symmetry_group_IT_number 57
_symmetry_cell_setting 'orthorhombic'
loop_
_space_group_symop_operation_xyz
x,y,z
-x,-y,1/2+z
x,1/2-y,-z
-x,1/2+y,1/2-z
-x,-y,-z
x,y,1/2-z
-x,1/2+y,z
x,1/2-y,1/2+z
loop_
_atom_site_type_symbol
_atom_site_label
_atom_site_fract_x
_atom_site_fract_y
_atom_site_fract_z
Si Si1 0.949523 0.310242 0.599127
Si Si2 0.656210 0.419971 0.408816
Si Si3 0.828011 0.737557 0.750000
Si Si4 0.369793 0.088445 0.413271
Si Si5 0.193437 0.359422 0.981373
Si Si6 0.764481 0.177987 0.414915
Si Si7 0.054383 0.048408 0.094726
Si Si8 0.498317 0.323589 0.412811
O O1 0.981438 0.250000 0.500000
O O2 0.947442 0.276325 0.750000
O O3 0.859098 0.330338 0.564726
O O4 0.004941 0.378009 0.600558
O O5 0.686416 0.416270 0.250000
O O6 0.632752 0.502532 0.435941
O O7 0.718698 0.388179 0.516848
O O8 0.579421 0.368858 0.417476
O O9 0.816806 0.676444 0.629064
O O10 0.832787 0.801178 0.631592
O O11 0.387344 0.100837 0.250000
O O12 0.283827 0.120492 0.447620
O O13 0.432068 0.128271 0.511605
O O14 0.139308 0.430176 0.964993
O O15 0.741409 0.250000 0.500000
O O16 0.749255 0.185014 0.250000
O O17 0.062763 0.019329 0.250000
O O18 0.000000 0.000000 0.000000
O O19 0.505477 0.250000 0.500000
O O20 0.479761 0.309916 0.250000
#
# Coordination Sequence:
#
# PCOD9437849 Si02
#       8
#     8   8   4   8   8   8   8   8
#     4   9  21  38  59  87 117 156 206 259 307 367
#     4  10  23  42  63  90 128 169 207 256 314 382
#     4  10  24  42  70  94 132 162 222 266 318 384
#     4  11  24  42  66  95 132 166 210 258 322 379
#     4  11  24  43  67  98 127 172 213 269 319 379
#     4  10  20  37  61  89 119 159 210 261 311 368
#     4  11  25  42  60  90 132 166 211 261 319 380
#     4  11  25  42  65  94 125 164 211 261 315 375
#
# _framework density 19.682601999999999
#
# number of rings (size 3 to 8) (size 9 to 14) (size 15 to 20)
#    0.000    1.600    1.333    1.600    7.467    3.733 
#    0.000    0.000    0.000    0.000    0.000    0.000 
#    0.000    0.000    0.000    0.000    0.000    0.000 
#
# Total GULP energy -334129.611655 kJ/mol
# GULP energy per Si atom -5568.826861 kJ/mol
# Density = 1.963780 g / cm^3
# Si number density = 19.682602 Si / 1000 Ang^3
#
#
#
# Elastic Constant Matrix: (Units=GPa)
#
#
# Indices 1 2 3 4 5 6 
#
# 1 40.8488 6.7067 29.9826 0.0000 0.0000 0.0000
# 2 6.7067 64.4596 46.5130 0.0000 0.0000 0.0000
# 3 29.9826 46.5130 142.9564 0.0000 0.0000 0.0000
# 4 0.0000 0.0000 0.0000 36.8983 0.0000 0.0000
# 5 0.0000 0.0000 0.0000 0.0000 7.4500 0.0000
# 6 0.0000 0.0000 0.0000 0.0000 0.0000 8.5117
#
#
#
# Elastic Compliance Matrix: (Units=1/GPa)
#
#
# Indices 1 2 3 4 5 6 
#
# 1 0.029093 0.001798 -0.006687 0.000000 0.000000 0.000000
# 2 0.001798 0.020384 -0.007010 0.000000 0.000000 0.000000
# 3 -0.006687 -0.007010 0.010678 0.000000 0.000000 0.000000
# 4 0.000000 0.000000 0.000000 0.027102 0.000000 0.000000
# 5 0.000000 0.000000 0.000000 0.000000 0.134228 0.000000
# 6 0.000000 0.000000 0.000000 0.000000 0.000000 0.117485
#
#
# Mechanical properties :
#
#
# Convention : Reuss Voigt Hill
#
# Bulk Modulus (GPa) = 27.50308 46.07439 36.78874
# Shear Modulus (GPa) = 13.33735 21.57617 17.45676
#
# Velocity S-wave (km/s) = 2.60594 3.31449 2.98134
# Velocity P-wave (km/s) = 4.80189 6.17311 5.53017
#
# Compressibility (1/GPa) = 0.03635956
#
# Stress axis : x y z
#
# Youngs Moduli (GPa) = 34.37202 49.05702 93.64829
#
# Poissons Ratio (x) = -0.08821 0.62622
# Poissons Ratio (y) = -0.06181 0.65643
# Poissons Ratio (z) = 0.22984 0.34387
#
# Static dielectric constant tensor:
#      x y z
#    x 1.729670 0.000000 0.000000 
#    y 0.000000 1.660500 0.000000 
#    z 0.000000 0.000000 1.683760 
# 
# From -- ./inp_files/6943.got.cif
#   From: 2010.05.17/outbox.cif.g08.bks.cpg/sg57_4_cif.got.tgz:6943.got - 2010.06.03 13:58:18.
