data_PCOD9437069
_publ_section_title
;
Structure prediction by ZEFSAII (Michael W. Deem and Ramdas Pophale) SiO2 
 PCOD9437069
Probable space group: P B C M
;
_chemical_formula_sum "Si O2"
_cell_formula_units_Z 48
_cell_length_a 31.342466
_cell_length_b 9.732015
_cell_length_c 8.532371
_cell_angle_alpha 90.000000
_cell_angle_beta 90.000000
_cell_angle_gamma 90.000000
_cell_volume 2602.589444
_symmetry_space_group_name_H-M "P B C M"
_symmetry_group_IT_number 57
_symmetry_cell_setting 'orthorhombic'
loop_
_space_group_symop_operation_xyz
x,y,z
-x,-y,1/2+z
x,1/2-y,-z
-x,1/2+y,1/2-z
-x,-y,-z
x,y,1/2-z
-x,1/2+y,z
x,1/2-y,1/2+z
loop_
_atom_site_type_symbol
_atom_site_label
_atom_site_fract_x
_atom_site_fract_y
_atom_site_fract_z
Si Si1 0.115082 0.401071 0.060954
Si Si2 0.961661 0.094768 0.061596
Si Si3 0.462921 0.403468 0.062418
Si Si4 0.289053 0.904250 0.560435
Si Si5 0.633305 0.903892 0.439197
Si Si6 0.787294 0.900733 0.439233
O O1 0.114717 0.396074 0.250000
O O2 0.082077 0.518375 0.011357
O O3 0.163894 0.427464 0.009287
O O4 0.102321 0.250000 0.000000
O O5 0.963087 0.097762 0.250000
O O6 0.964467 0.250000 0.000000
O O7 0.000000 0.000000 0.000000
O O8 0.464008 0.402826 0.250000
O O9 0.414793 0.445155 0.012551
O O10 0.469585 0.250000 0.000000
O O11 0.500000 0.500000 0.000000
O O12 0.289856 0.750000 0.500000
O O13 0.289207 0.902169 0.750000
O O14 0.330405 0.990876 0.507774
O O15 0.246612 0.985816 0.508807
O O16 0.641484 0.750000 0.500000
O O17 0.634303 0.899352 0.250000
O O18 0.774906 0.750000 0.500000
O O19 0.786981 0.897409 0.250000
#
# Coordination Sequence:
#
# PCOD9437069 Si02
#       6
#     8   8   8   8   8   8
#     4   9  19  35  55  79 106 136 171 213 258 306
#     4  11  23  38  56  79 108 141 178 219 264 312
#     4  10  20  35  54  77 105 136 172 213 259 309
#     4  10  21  35  51  75 106 136 169 210 255 303
#     4   9  19  35  54  76 101 132 171 212 253 303
#     4   9  18  34  55  78 104 135 172 211 253 305
#
# _framework density 18.443169999999999
#
# number of rings (size 3 to 8) (size 9 to 14) (size 15 to 20)
#    0.000    2.333    0.000    2.000    0.000    6.000 
#    0.000    1.667    0.000    0.000    0.000    0.000 
#    0.000    0.000    0.000    0.000    0.000    0.000 
#
# Total GULP energy -267920.724981 kJ/mol
# GULP energy per Si atom -5581.681770 kJ/mol
# Density = 1.840119 g / cm^3
# Si number density = 18.443170 Si / 1000 Ang^3
#
#
#
# Elastic Constant Matrix: (Units=GPa)
#
#
# Indices 1 2 3 4 5 6 
#
# 1 146.6555 128.4182 31.7998 0.0000 0.0000 0.0000
# 2 128.4182 171.2799 28.7094 0.0000 0.0000 0.0000
# 3 31.7998 28.7094 18.0511 0.0000 0.0000 0.0000
# 4 0.0000 0.0000 0.0000 37.0438 0.0000 0.0000
# 5 0.0000 0.0000 0.0000 0.0000 20.3372 0.0000
# 6 0.0000 0.0000 0.0000 0.0000 0.0000 38.9392
#
#
#
# Elastic Compliance Matrix: (Units=1/GPa)
#
#
# Indices 1 2 3 4 5 6 
#
# 1 0.023586 -0.014615 -0.018305 0.000000 0.000000 0.000000
# 2 -0.014615 0.017017 -0.001318 0.000000 0.000000 0.000000
# 3 -0.018305 -0.001318 0.089741 0.000000 0.000000 0.000000
# 4 0.000000 0.000000 0.000000 0.026995 0.000000 0.000000
# 5 0.000000 0.000000 0.000000 0.000000 0.049171 0.000000
# 6 0.000000 0.000000 0.000000 0.000000 0.000000 0.025681
#
#
# Mechanical properties :
#
#
# Convention : Reuss Voigt Hill
#
# Bulk Modulus (GPa) = 16.16346 79.31572 47.73959
# Shear Modulus (GPa) = 15.56227 29.06797 22.31512
#
# Velocity S-wave (km/s) = 2.90797 3.97430 3.48219
# Velocity P-wave (km/s) = 4.47861 8.00992 6.48910
#
# Compressibility (1/GPa) = 0.06186794
#
# Stress axis : x y z
#
# Youngs Moduli (GPa) = 42.39883 58.76411 11.14314
#
# Poissons Ratio (x) = 0.85885 0.20397
# Poissons Ratio (y) = 0.61967 0.01469
# Poissons Ratio (z) = 0.77610 0.07745
#
# Static dielectric constant tensor:
#      x y z
#    x 1.658360 0.000000 0.000000 
#    y 0.000000 1.581240 0.000000 
#    z 0.000000 0.000000 1.631120 
# 
# From -- ./inp_files/9958.got.cif
#   From: 2010.05.17/outbox.cif.g08.bks.cpg/sg57_5_cif.got.tgz:9958.got - 2010.06.03 13:58:18.
