data_PCOD9437731
_publ_section_title
;
Structure prediction by ZEFSAII (Michael W. Deem and Ramdas Pophale) SiO2 
 PCOD9437731
Probable space group: P B C M
;
_chemical_formula_sum "Si O2"
_cell_formula_units_Z 48
_cell_length_a 15.698367
_cell_length_b 20.879692
_cell_length_c 8.560244
_cell_angle_alpha 90.000000
_cell_angle_beta 90.000000
_cell_angle_gamma 90.000000
_cell_volume 2805.851679
_symmetry_space_group_name_H-M "P B C M"
_symmetry_group_IT_number 57
_symmetry_cell_setting 'orthorhombic'
loop_
_space_group_symop_operation_xyz
x,y,z
-x,-y,1/2+z
x,1/2-y,-z
-x,1/2+y,1/2-z
-x,-y,-z
x,y,1/2-z
-x,1/2+y,z
x,1/2-y,1/2+z
loop_
_atom_site_type_symbol
_atom_site_label
_atom_site_fract_x
_atom_site_fract_y
_atom_site_fract_z
Si Si1 0.566432 0.447104 0.561604
Si Si2 0.886002 0.681865 0.066470
Si Si3 0.296235 0.156446 0.931487
Si Si4 0.262298 0.493579 0.068304
Si Si5 0.512024 0.817041 0.437672
Si Si6 0.922536 0.542399 0.938410
O O1 0.500000 0.500000 0.500000
O O2 0.566856 0.450735 0.750000
O O3 0.661771 0.463576 0.501664
O O4 0.536191 0.377904 0.506234
O O5 0.900454 0.679852 0.250000
O O6 0.917469 0.750000 0.000000
O O7 0.784679 0.678591 0.029626
O O8 0.923677 0.616791 0.991334
O O9 0.282996 0.175919 0.750000
O O10 0.296264 0.079310 0.934328
O O11 0.388444 0.178543 0.986824
O O12 0.252295 0.512538 0.250000
O O13 0.167000 0.488418 0.001917
O O14 0.477091 0.750000 0.500000
O O15 0.510326 0.819617 0.250000
O O16 0.920953 0.542171 0.750000
O O17 0.000000 0.500000 0.000000
#
# Coordination Sequence:
#
# PCOD9437731 Si02
#       6
#     8   8   8   8   8   8
#     4  11  20  34  54  78 105 142 183 223 263 313
#     4  11  21  33  51  78 109 143 178 216 266 325
#     4   9  17  32  50  72 105 140 175 215 264 319
#     4   8  16  32  53  76 105 138 172 215 266 312
#     4  11  22  35  49  72 105 144 184 228 274 320
#     4  10  20  37  58  82 110 141 176 222 273 326
#
# _framework density 17.107106000000002
#
# number of rings (size 3 to 8) (size 9 to 14) (size 15 to 20)
#    0.000    2.000    1.667    4.500    0.000    2.667 
#    0.000    2.500    0.000    1.000    0.000    4.667 
#    0.000    0.000    0.000    0.000    0.000    0.000 
#
# Total GULP energy -267729.877868 kJ/mol
# GULP energy per Si atom -5577.705789 kJ/mol
# Density = 1.706817 g / cm^3
# Si number density = 17.107106 Si / 1000 Ang^3
#
#
#
# Elastic Constant Matrix: (Units=GPa)
#
#
# Indices 1 2 3 4 5 6 
#
# 1 104.4148 76.4403 27.3749 0.0000 0.0000 0.0000
# 2 76.4403 135.8519 38.8668 0.0000 0.0000 0.0000
# 3 27.3749 38.8668 62.0459 0.0000 0.0000 0.0000
# 4 0.0000 0.0000 0.0000 28.2285 0.0000 0.0000
# 5 0.0000 0.0000 0.0000 0.0000 21.2400 0.0000
# 6 0.0000 0.0000 0.0000 0.0000 0.0000 18.7940
#
#
#
# Elastic Compliance Matrix: (Units=1/GPa)
#
#
# Indices 1 2 3 4 5 6 
#
# 1 0.016445 -0.008745 -0.001778 0.000000 0.000000 0.000000
# 2 -0.008745 0.013618 -0.004673 0.000000 0.000000 0.000000
# 3 -0.001778 -0.004673 0.019828 0.000000 0.000000 0.000000
# 4 0.000000 0.000000 0.000000 0.035425 0.000000 0.000000
# 5 0.000000 0.000000 0.000000 0.000000 0.047081 0.000000
# 6 0.000000 0.000000 0.000000 0.000000 0.000000 0.053209
#
#
# Mechanical properties :
#
#
# Convention : Reuss Voigt Hill
#
# Bulk Modulus (GPa) = 51.27746 65.29740 58.28743
# Shear Modulus (GPa) = 22.47223 24.29452 23.38337
#
# Velocity S-wave (km/s) = 3.62832 3.77257 3.70115
# Velocity P-wave (km/s) = 6.89872 7.56498 7.23952
#
# Compressibility (1/GPa) = 0.01950174
#
# Stress axis : x y z
#
# Youngs Moduli (GPa) = 60.80864 73.43176 50.43256
#
# Poissons Ratio (x) = 0.64213 0.08966
# Poissons Ratio (y) = 0.53174 0.23565
# Poissons Ratio (z) = 0.10811 0.34311
#
# Static dielectric constant tensor:
#      x y z
#    x 1.585310 0.000000 0.000000 
#    y 0.000000 1.586620 0.000000 
#    z 0.000000 0.000000 1.598480 
# 
# From -- ./inp_files/4914.got.cif
#   From: 2010.05.17/outbox.cif.g08.bks.cpg/sg57_3_cif.got.tgz:4914.got - 2010.06.03 13:58:18.
