data_PCOD9437859
_publ_section_title
;
Structure prediction by ZEFSAII (Michael W. Deem and Ramdas Pophale) SiO2 
 PCOD9437859
Probable space group: P B C M
;
_chemical_formula_sum "Si O2"
_cell_formula_units_Z 64
_cell_length_a 14.875910
_cell_length_b 25.678395
_cell_length_c 8.307917
_cell_angle_alpha 90.000000
_cell_angle_beta 90.000000
_cell_angle_gamma 90.000000
_cell_volume 3173.537002
_symmetry_space_group_name_H-M "P B C M"
_symmetry_group_IT_number 57
_symmetry_cell_setting 'orthorhombic'
loop_
_space_group_symop_operation_xyz
x,y,z
-x,-y,1/2+z
x,1/2-y,-z
-x,1/2+y,1/2-z
-x,-y,-z
x,y,1/2-z
-x,1/2+y,z
x,1/2-y,1/2+z
loop_
_atom_site_type_symbol
_atom_site_label
_atom_site_fract_x
_atom_site_fract_y
_atom_site_fract_z
Si Si1 0.181231 0.305294 0.560454
Si Si2 0.990270 0.333966 0.062745
Si Si3 0.970562 0.055713 0.065975
Si Si4 0.206490 0.978571 0.438460
Si Si5 0.342520 0.900435 0.942181
Si Si6 0.726595 0.910566 0.946574
Si Si7 0.786888 0.191855 0.943830
Si Si8 0.471624 0.442328 0.943476
O O1 0.216300 0.250000 0.500000
O O2 0.192952 0.306696 0.750000
O O3 0.075053 0.308808 0.523678
O O4 0.231068 0.356668 0.493359
O O5 0.994250 0.320039 0.250000
O O6 0.890166 0.319743 0.001374
O O7 0.001840 0.395778 0.038162
O O8 0.998985 0.063051 0.250000
O O9 0.863365 0.052540 0.047205
O O10 0.000000 0.000000 0.000000
O O11 0.180593 0.974344 0.250000
O O12 0.300227 0.949918 0.466029
O O13 0.213392 0.038818 0.485576
O O14 0.334503 0.907887 0.750000
O O15 0.448104 0.902060 0.983361
O O16 0.284413 0.850196 0.991493
O O17 0.724904 0.909063 0.750000
O O18 0.625544 0.923119 0.003497
O O19 0.786960 0.188213 0.750000
O O20 0.763970 0.250000 0.000000
O O21 0.465276 0.444898 0.750000
O O22 0.500000 0.500000 0.000000
#
# Coordination Sequence:
#
# PCOD9437859 Si02
#       8
#     8   8   8   8   8   8   8   8
#     4  11  23  41  63  87 118 161 206 255 306 356
#     4  11  23  40  62  89 119 157 204 253 303 361
#     4  12  24  37  55  83 123 164 205 250 301 361
#     4  11  20  35  59  86 120 159 199 245 303 363
#     4  11  22  36  59  90 124 158 198 248 303 362
#     4   9  20  38  61  87 120 159 198 245 307 365
#     4  11  24  41  63  87 120 161 205 252 303 361
#     4  10  20  37  61  91 122 157 198 248 304 367
#
# _framework density 20.166772999999999
#
# number of rings (size 3 to 8) (size 9 to 14) (size 15 to 20)
#    0.000    1.250    2.500    4.125    0.000    4.000 
#    0.000    3.750    0.000    1.500    0.000    0.000 
#    0.000    0.000    0.000    0.000    0.000    0.000 
#
# Total GULP energy -357600.305737 kJ/mol
# GULP energy per Si atom -5587.504777 kJ/mol
# Density = 2.012087 g / cm^3
# Si number density = 20.166773 Si / 1000 Ang^3
#
#
#
# Elastic Constant Matrix: (Units=GPa)
#
#
# Indices 1 2 3 4 5 6 
#
# 1 79.8739 37.0491 6.1356 0.0000 0.0000 0.0000
# 2 37.0491 143.1308 6.4811 0.0000 0.0000 0.0000
# 3 6.1356 6.4811 31.0086 0.0000 0.0000 0.0000
# 4 0.0000 0.0000 0.0000 28.8674 0.0000 0.0000
# 5 0.0000 0.0000 0.0000 0.0000 20.5783 0.0000
# 6 0.0000 0.0000 0.0000 0.0000 0.0000 15.8883
#
#
#
# Elastic Compliance Matrix: (Units=1/GPa)
#
#
# Indices 1 2 3 4 5 6 
#
# 1 0.014360 -0.003623 -0.002084 0.000000 0.000000 0.000000
# 2 -0.003623 0.007967 -0.000948 0.000000 0.000000 0.000000
# 3 -0.002084 -0.000948 0.032860 0.000000 0.000000 0.000000
# 4 0.000000 0.000000 0.000000 0.034641 0.000000 0.000000
# 5 0.000000 0.000000 0.000000 0.000000 0.048595 0.000000
# 6 0.000000 0.000000 0.000000 0.000000 0.000000 0.062939
#
#
# Mechanical properties :
#
#
# Convention : Reuss Voigt Hill
#
# Bulk Modulus (GPa) = 23.87974 39.26055 31.57014
# Shear Modulus (GPa) = 21.86918 26.68997 24.27957
#
# Velocity S-wave (km/s) = 3.29662 3.64189 3.47355
# Velocity P-wave (km/s) = 5.13392 6.09874 5.63701
#
# Compressibility (1/GPa) = 0.04187650
#
# Stress axis : x y z
#
# Youngs Moduli (GPa) = 69.63681 125.51302 30.43237
#
# Poissons Ratio (x) = 0.45470 0.06343
# Poissons Ratio (y) = 0.25228 0.02886
# Poissons Ratio (z) = 0.14514 0.11904
#
# Static dielectric constant tensor:
#      x y z
#    x 1.777090 0.000000 0.000000 
#    y 0.000000 1.716410 0.000000 
#    z 0.000000 0.000000 1.714210 
# 
# From -- ./inp_files/5766.got.cif
#   From: 2010.05.17/outbox.cif.g08.bks.cpg/sg57_3_cif.got.tgz:5766.got - 2010.06.03 13:58:18.
