data_PCOD9437871
_publ_section_title
;
Structure prediction by ZEFSAII (Michael W. Deem and Ramdas Pophale) SiO2 
 PCOD9437871
Probable space group: P B C M
;
_chemical_formula_sum "Si O2"
_cell_formula_units_Z 56
_cell_length_a 5.889178
_cell_length_b 15.172698
_cell_length_c 27.293865
_cell_angle_alpha 90.000000
_cell_angle_beta 90.000000
_cell_angle_gamma 90.000000
_cell_volume 2438.835645
_symmetry_space_group_name_H-M "P B C M"
_symmetry_group_IT_number 57
_symmetry_cell_setting 'orthorhombic'
loop_
_space_group_symop_operation_xyz
x,y,z
-x,-y,1/2+z
x,1/2-y,-z
-x,1/2+y,1/2-z
-x,-y,-z
x,y,1/2-z
-x,1/2+y,z
x,1/2-y,1/2+z
loop_
_atom_site_type_symbol
_atom_site_label
_atom_site_fract_x
_atom_site_fract_y
_atom_site_fract_z
Si Si1 0.487501 0.809874 0.646404
Si Si2 0.746000 0.959590 0.016554
Si Si3 0.899678 0.312994 0.109620
Si Si4 0.176710 0.175890 0.059588
Si Si5 0.310515 0.519142 0.193374
Si Si6 0.747087 0.830107 0.303399
Si Si7 0.997472 0.503959 0.607807
O O1 0.266748 0.752077 0.637216
O O2 0.613401 0.801645 0.594445
O O3 0.615843 0.760316 0.689948
O O4 0.446940 0.909347 0.662572
O O5 0.777244 0.967956 0.074907
O O6 0.750201 0.862275 0.992753
O O7 0.500000 0.000000 0.000000
O O8 0.000000 0.000000 0.000000
O O9 0.998992 0.255614 0.064800
O O10 0.093116 0.330299 0.149774
O O11 0.831481 0.413839 0.097884
O O12 0.075651 0.089709 0.087312
O O13 0.285830 0.546026 0.250000
O O14 0.403013 0.418986 0.192950
O O15 0.072063 0.511181 0.164085
O O16 0.860421 0.834896 0.250000
#
# Coordination Sequence:
#
# PCOD9437871 Si02
#       7
#     8   8   8   8   8   8   8
#     4  11  21  37  62  91 126 165 217 271 339 400
#     4  10  22  41  70 101 132 179 220 272 342 401
#     4  10  22  39  62  90 124 173 218 272 338 406
#     4  10  22  40  64  93 129 165 216 278 328 409
#     4  10  20  37  62  88 123 167 211 267 330 400
#     4   9  21  38  55  87 124 161 217 273 332 408
#     4  10  21  42  65  92 132 171 219 272 344 398
#
# _framework density 22.961774999999999
#
# number of rings (size 3 to 8) (size 9 to 14) (size 15 to 20)
#    0.000    2.000    1.429    1.286    4.000    1.714 
#    7.714    0.714    0.000    0.000    0.000    0.000 
#    0.000    0.000    0.000    0.000    0.000    0.000 
#
# Total GULP energy -311882.961338 kJ/mol
# GULP energy per Si atom -5569.338595 kJ/mol
# Density = 2.290951 g / cm^3
# Si number density = 22.961775 Si / 1000 Ang^3
#
#
#
# Elastic Constant Matrix: (Units=GPa)
#
#
# Indices 1 2 3 4 5 6 
#
# 1 34.9869 -0.2244 10.4476 0.0000 0.0000 0.0000
# 2 -0.2244 79.2649 -6.8660 0.0000 0.0000 0.0000
# 3 10.4476 -6.8660 81.9519 0.0000 0.0000 0.0000
# 4 0.0000 0.0000 0.0000 38.9886 0.0000 0.0000
# 5 0.0000 0.0000 0.0000 0.0000 10.8940 0.0000
# 6 0.0000 0.0000 0.0000 0.0000 0.0000 22.8492
#
#
#
# Elastic Compliance Matrix: (Units=1/GPa)
#
#
# Indices 1 2 3 4 5 6 
#
# 1 0.029718 -0.000246 -0.003809 0.000000 0.000000 0.000000
# 2 -0.000246 0.012710 0.001096 0.000000 0.000000 0.000000
# 3 -0.003809 0.001096 0.012780 0.000000 0.000000 0.000000
# 4 0.000000 0.000000 0.000000 0.025649 0.000000 0.000000
# 5 0.000000 0.000000 0.000000 0.000000 0.091794 0.000000
# 6 0.000000 0.000000 0.000000 0.000000 0.000000 0.043765
#
#
# Mechanical properties :
#
#
# Convention : Reuss Voigt Hill
#
# Bulk Modulus (GPa) = 20.28796 22.54647 21.41721
# Shear Modulus (GPa) = 20.94127 27.40280 24.17203
#
# Velocity S-wave (km/s) = 3.02322 3.45832 3.24807
# Velocity P-wave (km/s) = 4.58707 5.07810 4.83882
#
# Compressibility (1/GPa) = 0.04929033
#
# Stress axis : x y z
#
# Youngs Moduli (GPa) = 33.64960 78.67710 78.24886
#
# Poissons Ratio (x) = 0.01934 0.29807
# Poissons Ratio (y) = 0.00827 -0.08578
# Poissons Ratio (z) = 0.12818 -0.08625
#
# Static dielectric constant tensor:
#      x y z
#    x 1.908450 0.000000 0.000000 
#    y 0.000000 1.989040 0.000000 
#    z 0.000000 0.000000 1.912800 
# 
# From -- ./inp_files/29138.got.cif
#   From: 2010.05.17/outbox.cif.g08.bks.cpg/sg57_15_cif.got.tgz:29138.got - 2010.06.03 13:58:18.
