data_PCOD9437519
_publ_section_title
;
Structure prediction by ZEFSAII (Michael W. Deem and Ramdas Pophale) SiO2 
 PCOD9437519
Probable space group: P B C M
;
_chemical_formula_sum "Si O2"
_cell_formula_units_Z 48
_cell_length_a 14.895995
_cell_length_b 8.860404
_cell_length_c 17.540012
_cell_angle_alpha 90.000000
_cell_angle_beta 90.000000
_cell_angle_gamma 90.000000
_cell_volume 2315.010305
_symmetry_space_group_name_H-M "P B C M"
_symmetry_group_IT_number 57
_symmetry_cell_setting 'orthorhombic'
loop_
_space_group_symop_operation_xyz
x,y,z
-x,-y,1/2+z
x,1/2-y,-z
-x,1/2+y,1/2-z
-x,-y,-z
x,y,1/2-z
-x,1/2+y,z
x,1/2-y,1/2+z
loop_
_atom_site_type_symbol
_atom_site_label
_atom_site_fract_x
_atom_site_fract_y
_atom_site_fract_z
Si Si1 0.122036 0.899074 0.880367
Si Si2 0.623236 0.608717 0.966008
Si Si3 0.902035 0.926793 0.519653
Si Si4 0.319180 0.616512 0.334179
Si Si5 0.049334 0.580619 0.839160
Si Si6 0.419564 0.847102 0.071562
O O1 0.212355 0.862138 0.835925
O O2 0.065109 0.743931 0.877937
O O3 0.054119 0.023752 0.845482
O O4 0.153372 0.966612 0.962188
O O5 0.661266 0.509086 0.898043
O O6 0.527289 0.662934 0.931078
O O7 0.677191 0.750000 0.000000
O O8 0.603492 0.513027 0.042722
O O9 0.897258 0.750000 0.500000
O O10 0.000000 0.000000 0.500000
O O11 0.892233 0.965818 0.608718
O O12 0.347748 0.568059 0.250000
O O13 0.371804 0.769472 0.357504
O O14 0.072966 0.585684 0.750000
O O15 0.385340 0.750000 0.000000
#
# Coordination Sequence:
#
# PCOD9437519 Si02
#       6
#     8   8   8   8   8   8
#     4  11  23  40  60  85 118 159 203 247 305 371
#     4   9  18  37  63  89 118 158 201 239 291 357
#     4  10  20  36  58  82 111 150 196 241 292 360
#     4  11  23  38  59  91 124 154 196 250 304 359
#     4  11  21  37  60  84 114 154 200 253 305 352
#     4   8  17  36  61  86 116 156 195 231 284 358
#
# _framework density 20.734248000000001
#
# number of rings (size 3 to 8) (size 9 to 14) (size 15 to 20)
#    0.000    2.000    0.000    7.000    0.000    5.333 
#    0.000    4.167    0.000    0.000    0.000    0.000 
#    0.000    0.000    0.000    0.000    0.000    0.000 
#
# Total GULP energy -267269.864933 kJ/mol
# GULP energy per Si atom -5568.122186 kJ/mol
# Density = 2.068706 g / cm^3
# Si number density = 20.734248 Si / 1000 Ang^3
#
#
#
# Elastic Constant Matrix: (Units=GPa)
#
#
# Indices 1 2 3 4 5 6 
#
# 1 69.4209 39.9921 32.7385 0.0000 0.0000 0.0000
# 2 39.9921 139.0139 42.4392 0.0000 0.0000 0.0000
# 3 32.7385 42.4392 128.4431 0.0000 0.0000 0.0000
# 4 0.0000 0.0000 0.0000 20.6968 0.0000 0.0000
# 5 0.0000 0.0000 0.0000 0.0000 13.6300 0.0000
# 6 0.0000 0.0000 0.0000 0.0000 0.0000 13.1739
#
#
#
# Elastic Compliance Matrix: (Units=1/GPa)
#
#
# Indices 1 2 3 4 5 6 
#
# 1 0.018428 -0.004301 -0.003276 0.000000 0.000000 0.000000
# 2 -0.004301 0.009005 -0.001879 0.000000 0.000000 0.000000
# 3 -0.003276 -0.001879 0.009241 0.000000 0.000000 0.000000
# 4 0.000000 0.000000 0.000000 0.048317 0.000000 0.000000
# 5 0.000000 0.000000 0.000000 0.000000 0.073367 0.000000
# 6 0.000000 0.000000 0.000000 0.000000 0.000000 0.075907
#
#
# Mechanical properties :
#
#
# Convention : Reuss Voigt Hill
#
# Bulk Modulus (GPa) = 56.30119 63.02417 59.66268
# Shear Modulus (GPa) = 19.29777 24.28070 21.78924
#
# Velocity S-wave (km/s) = 3.05408 3.42576 3.24525
# Velocity P-wave (km/s) = 6.29676 6.79043 6.54825
#
# Compressibility (1/GPa) = 0.01776161
#
# Stress axis : x y z
#
# Youngs Moduli (GPa) = 54.26638 111.05524 108.20988
#
# Poissons Ratio (x) = 0.47768 0.35447
# Poissons Ratio (y) = 0.23341 0.20331
# Poissons Ratio (z) = 0.17776 0.20866
#
# Static dielectric constant tensor:
#      x y z
#    x 1.792220 0.000000 0.000000 
#    y 0.000000 1.824830 0.000000 
#    z 0.000000 0.000000 1.830600 
# 
# From -- ./inp_files/22833.got.cif
#   From: 2010.05.17/outbox.cif.g08.bks.cpg/sg57_12_cif.got.tgz:22833.got - 2010.06.03 13:58:18.
