data_PCOD9437628
_publ_section_title
;
Structure prediction by ZEFSAII (Michael W. Deem and Ramdas Pophale) SiO2 
 PCOD9437628
Probable space group: P B C M
;
_chemical_formula_sum "Si O2"
_cell_formula_units_Z 36
_cell_length_a 12.052172
_cell_length_b 5.030961
_cell_length_c 27.082098
_cell_angle_alpha 90.000000
_cell_angle_beta 90.000000
_cell_angle_gamma 90.000000
_cell_volume 1642.096128
_symmetry_space_group_name_H-M "P B C M"
_symmetry_group_IT_number 57
_symmetry_cell_setting 'orthorhombic'
loop_
_space_group_symop_operation_xyz
x,y,z
-x,-y,1/2+z
x,1/2-y,-z
-x,1/2+y,1/2-z
-x,-y,-z
x,y,1/2-z
-x,1/2+y,z
x,1/2-y,1/2+z
loop_
_atom_site_type_symbol
_atom_site_label
_atom_site_fract_x
_atom_site_fract_y
_atom_site_fract_z
Si Si1 0.079936 0.077060 0.250000
Si Si2 0.266177 0.995088 0.966764
Si Si3 0.574782 0.542544 0.624598
Si Si4 0.925025 0.326551 0.607407
Si Si5 0.220228 0.059087 0.694182
O O1 0.157563 0.160577 0.295918
O O2 0.983984 0.303660 0.250000
O O3 0.357446 0.074375 0.926160
O O4 0.158666 0.891820 0.937087
O O5 0.239935 0.250000 0.000000
O O6 0.307101 0.750000 0.000000
O O7 0.474209 0.747834 0.627224
O O8 0.662132 0.591407 0.668376
O O9 0.857233 0.394471 0.657178
O O10 0.027828 0.530755 0.605188
O O11 0.232092 0.947015 0.750000
#
# Coordination Sequence:
#
# PCOD9437628 Si02
#       5
#     4   8   8   8   8
#     4  10  20  36  60  88 120 158 198 238 288 352
#     4  11  24  42  64  93 124 159 209 259 309 377
#     4  11  25  44  65  92 124 161 209 263 317 364
#     4  11  23  39  62  93 129 166 203 250 308 370
#     4   9  23  42  62  96 124 168 209 257 297 371
#
# _framework density 21.923197999999999
#
# number of rings (size 3 to 8) (size 9 to 14) (size 15 to 20)
#    0.667    0.889    0.000    4.000    0.000   13.333 
#    0.000    0.000    0.000    0.000    0.000    0.000 
#    0.000    0.000    0.000    0.000    0.000    0.000 
#
# Total GULP energy -201459.292503 kJ/mol
# GULP energy per Si atom -5596.091458 kJ/mol
# Density = 2.187330 g / cm^3
# Si number density = 21.923198 Si / 1000 Ang^3
#
#
#
# Elastic Constant Matrix: (Units=GPa)
#
#
# Indices 1 2 3 4 5 6 
#
# 1 73.1811 -15.0928 43.3958 0.0000 0.0000 0.0000
# 2 -15.0928 58.7450 19.3201 0.0000 0.0000 0.0000
# 3 43.3958 19.3201 128.6248 0.0000 0.0000 0.0000
# 4 0.0000 0.0000 0.0000 25.2012 0.0000 0.0000
# 5 0.0000 0.0000 0.0000 0.0000 12.7064 0.0000
# 6 0.0000 0.0000 0.0000 0.0000 0.0000 18.2830
#
#
#
# Elastic Compliance Matrix: (Units=1/GPa)
#
#
# Indices 1 2 3 4 5 6 
#
# 1 0.019930 0.007713 -0.007882 0.000000 0.000000 0.000000
# 2 0.007713 0.020892 -0.005740 0.000000 0.000000 0.000000
# 3 -0.007882 -0.005740 0.011296 0.000000 0.000000 0.000000
# 4 0.000000 0.000000 0.000000 0.039681 0.000000 0.000000
# 5 0.000000 0.000000 0.000000 0.000000 0.078701 0.000000
# 6 0.000000 0.000000 0.000000 0.000000 0.000000 0.054696
#
#
# Mechanical properties :
#
#
# Convention : Reuss Voigt Hill
#
# Bulk Modulus (GPa) = 24.81519 39.53303 32.17411
# Shear Modulus (GPa) = 19.96429 25.43330 22.69880
#
# Velocity S-wave (km/s) = 3.02097 3.40973 3.22122
# Velocity P-wave (km/s) = 4.84892 5.79425 5.34254
#
# Compressibility (1/GPa) = 0.04029789
#
# Stress axis : x y z
#
# Youngs Moduli (GPa) = 50.17679 47.86502 88.52589
#
# Poissons Ratio (x) = -0.36917 0.69779
# Poissons Ratio (y) = -0.38700 0.50816
# Poissons Ratio (z) = 0.39551 0.27476
#
# Static dielectric constant tensor:
#      x y z
#    x 1.769620 0.000000 0.000000 
#    y 0.000000 1.786920 0.000000 
#    z 0.000000 0.000000 1.826810 
# 
# From -- ./inp_files/29670.got.cif
#   From: 2010.05.17/outbox.cif.g08.bks.cpg/sg57_15_cif.got.tgz:29670.got - 2010.06.03 13:58:18.
