data_PCOD9437377
_publ_section_title
;
Structure prediction by ZEFSAII (Michael W. Deem and Ramdas Pophale) SiO2 
 PCOD9437377
Probable space group: P B C M
;
_chemical_formula_sum "Si O2"
_cell_formula_units_Z 48
_cell_length_a 9.524238
_cell_length_b 32.108002
_cell_length_c 9.011956
_cell_angle_alpha 90.000000
_cell_angle_beta 90.000000
_cell_angle_gamma 90.000000
_cell_volume 2755.894470
_symmetry_space_group_name_H-M "P B C M"
_symmetry_group_IT_number 57
_symmetry_cell_setting 'orthorhombic'
loop_
_space_group_symop_operation_xyz
x,y,z
-x,-y,1/2+z
x,1/2-y,-z
-x,1/2+y,1/2-z
-x,-y,-z
x,y,1/2-z
-x,1/2+y,z
x,1/2-y,1/2+z
loop_
_atom_site_type_symbol
_atom_site_label
_atom_site_fract_x
_atom_site_fract_y
_atom_site_fract_z
Si Si1 0.805828 0.793885 0.928014
Si Si2 0.634492 0.631123 0.927111
Si Si3 0.340501 0.453914 0.919787
Si Si4 0.681385 0.463063 0.920391
Si Si5 0.863391 0.206894 0.426983
Si Si6 0.672842 0.128775 0.430005
O O1 0.787201 0.792998 0.750000
O O2 0.971869 0.798793 0.961153
O O3 0.760814 0.750000 0.000000
O O4 0.722539 0.831861 0.999728
O O5 0.634990 0.633756 0.750000
O O6 0.691659 0.586166 0.980726
O O7 0.476218 0.634010 0.990448
O O8 0.299206 0.446314 0.750000
O O9 0.510785 0.458948 0.922583
O O10 0.280819 0.497349 0.980744
O O11 0.722697 0.470730 0.750000
O O12 0.731959 0.417219 0.967804
O O13 0.814795 0.250000 0.500000
O O14 0.850850 0.211150 0.250000
O O15 0.774459 0.166560 0.471339
O O16 0.652096 0.128801 0.250000
#
# Coordination Sequence:
#
# PCOD9437377 Si02
#       6
#     8   8   8   8   8   8
#     4  10  20  36  55  74  97 128 165 203 245 294
#     4  11  21  32  49  75 103 132 166 204 245 288
#     4   9  16  27  44  67  97 130 162 200 244 289
#     4   8  14  25  43  67  96 128 160 196 241 292
#     4   9  19  35  55  75  97 128 164 201 244 295
#     4   9  18  33  51  74 103 132 163 203 249 293
#
# _framework density 17.417211999999999
#
# number of rings (size 3 to 8) (size 9 to 14) (size 15 to 20)
#    0.000    2.667    0.000    3.500    0.000    6.000 
#    0.000    1.667    0.000    1.000    0.000    0.000 
#    0.000    0.000    0.000    0.000    0.000    0.000 
#
# Total GULP energy -267575.624121 kJ/mol
# GULP energy per Si atom -5574.492169 kJ/mol
# Density = 1.737757 g / cm^3
# Si number density = 17.417212 Si / 1000 Ang^3
#
#
#
# Elastic Constant Matrix: (Units=GPa)
#
#
# Indices 1 2 3 4 5 6 
#
# 1 26.7091 52.4131 31.0156 0.0000 0.0000 0.0000
# 2 52.4131 180.1012 73.5681 0.0000 0.0000 0.0000
# 3 31.0156 73.5681 81.1586 0.0000 0.0000 0.0000
# 4 0.0000 0.0000 0.0000 35.7144 0.0000 0.0000
# 5 0.0000 0.0000 0.0000 0.0000 11.3276 0.0000
# 6 0.0000 0.0000 0.0000 0.0000 0.0000 -21.6863
#
#
#
# Elastic Compliance Matrix: (Units=1/GPa)
#
#
# Indices 1 2 3 4 5 6 
#
# 1 0.103623 -0.022201 -0.019476 0.000000 0.000000 0.000000
# 2 -0.022201 0.013574 -0.003820 0.000000 0.000000 0.000000
# 3 -0.019476 -0.003820 0.023227 0.000000 0.000000 0.000000
# 4 0.000000 0.000000 0.000000 0.028000 0.000000 0.000000
# 5 0.000000 0.000000 0.000000 0.000000 0.088280 0.000000
# 6 0.000000 0.000000 0.000000 0.000000 0.000000 -0.046112
#
#
# Mechanical properties :
#
#
# Convention : Reuss Voigt Hill
#
# Bulk Modulus (GPa) = 20.23064 66.88474 43.55769
# Shear Modulus (GPa) = 15.72023 13.80261 14.76142
#
# Velocity S-wave (km/s) = 3.00754 2.81814 2.91438
# Velocity P-wave (km/s) = 4.86836 7.00529 6.03220
#
# Compressibility (1/GPa) = 0.04942999
#
# Stress axis : x y z
#
# Youngs Moduli (GPa) = 9.65040 73.67213 43.05281
#
# Poissons Ratio (x) = 1.63557 0.83851
# Poissons Ratio (y) = 0.21424 0.16446
# Poissons Ratio (z) = 0.18795 0.28142
#
# Static dielectric constant tensor:
#      x y z
#    x 1.576780 0.000000 0.000000 
#    y 0.000000 1.601930 0.000000 
#    z 0.000000 0.000000 1.585490 
# 
# From -- ./inp_files/2114.got.cif
#   From: 2010.05.17/outbox.cif.g08.bks.cpg/sg57_2_cif.got.tgz:2114.got - 2010.06.03 13:58:18.
