data_PCOD9437085
_publ_section_title
;
Structure prediction by ZEFSAII (Michael W. Deem and Ramdas Pophale) SiO2 
 PCOD9437085
Probable space group: P B C M
;
_chemical_formula_sum "Si O2"
_cell_formula_units_Z 48
_cell_length_a 32.014586
_cell_length_b 9.424569
_cell_length_c 8.611529
_cell_angle_alpha 90.000000
_cell_angle_beta 90.000000
_cell_angle_gamma 90.000000
_cell_volume 2598.302175
_symmetry_space_group_name_H-M "P B C M"
_symmetry_group_IT_number 57
_symmetry_cell_setting 'orthorhombic'
loop_
_space_group_symop_operation_xyz
x,y,z
-x,-y,1/2+z
x,1/2-y,-z
-x,1/2+y,1/2-z
-x,-y,-z
x,y,1/2-z
-x,1/2+y,z
x,1/2-y,1/2+z
loop_
_atom_site_type_symbol
_atom_site_label
_atom_site_fract_x
_atom_site_fract_y
_atom_site_fract_z
Si Si1 0.379513 0.909338 0.562777
Si Si2 0.130631 0.591129 0.937187
Si Si3 0.460978 0.089629 0.936928
Si Si4 0.299037 0.089997 0.936744
Si Si5 0.209957 0.408949 0.936845
Si Si6 0.961930 0.409305 0.063913
O O1 0.382607 0.750000 0.500000
O O2 0.379640 0.902621 0.750000
O O3 0.418867 0.006253 0.515483
O O4 0.336887 0.988235 0.514410
O O5 0.131511 0.595372 0.750000
O O6 0.169945 0.498791 0.989175
O O7 0.084438 0.536224 0.982885
O O8 0.134487 0.750000 0.000000
O O9 0.462669 0.094194 0.750000
O O10 0.461374 0.250000 0.000000
O O11 0.500000 0.000000 0.000000
O O12 0.297729 0.096727 0.750000
O O13 0.305433 0.250000 0.000000
O O14 0.254367 0.037268 0.999416
O O15 0.211509 0.406918 0.750000
O O16 0.205527 0.250000 0.000000
O O17 0.963821 0.406882 0.250000
O O18 0.965188 0.250000 0.000000
O O19 0.000000 0.500000 0.000000
#
# Coordination Sequence:
#
# PCOD9437085 Si02
#       6
#     8   8   8   8   8   8
#     4  10  23  39  57  82 113 146 184 225 271 323
#     4   9  20  36  54  76 105 138 175 215 263 317
#     4  11  23  40  61  87 116 150 188 230 277 328
#     4  10  20  36  56  80 107 140 179 221 267 318
#     4  10  20  35  54  79 107 139 177 219 264 316
#     4  10  20  36  55  78 106 139 177 220 267 320
#
# _framework density 18.473603000000001
#
# number of rings (size 3 to 8) (size 9 to 14) (size 15 to 20)
#    0.000    2.000    0.000    4.000    0.000    7.333 
#    0.000    5.000    0.000    0.000    0.000    0.000 
#    0.000    0.000    0.000    0.000    0.000    0.000 
#
# Total GULP energy -268012.553349 kJ/mol
# GULP energy per Si atom -5583.594861 kJ/mol
# Density = 1.843156 g / cm^3
# Si number density = 18.473603 Si / 1000 Ang^3
#
#
#
# Elastic Constant Matrix: (Units=GPa)
#
#
# Indices 1 2 3 4 5 6 
#
# 1 228.2559 115.6322 50.7987 0.0000 0.0000 0.0000
# 2 115.6322 117.9138 31.7275 0.0000 0.0000 0.0000
# 3 50.7987 31.7275 46.7462 0.0000 0.0000 0.0000
# 4 0.0000 0.0000 0.0000 33.7186 0.0000 0.0000
# 5 0.0000 0.0000 0.0000 0.0000 27.4426 0.0000
# 6 0.0000 0.0000 0.0000 0.0000 0.0000 42.5842
#
#
#
# Elastic Compliance Matrix: (Units=1/GPa)
#
#
# Indices 1 2 3 4 5 6 
#
# 1 0.009549 -0.008041 -0.004920 0.000000 0.000000 0.000000
# 2 -0.008041 0.017146 -0.002900 0.000000 0.000000 0.000000
# 3 -0.004920 -0.002900 0.028706 0.000000 0.000000 0.000000
# 4 0.000000 0.000000 0.000000 0.029657 0.000000 0.000000
# 5 0.000000 0.000000 0.000000 0.000000 0.036440 0.000000
# 6 0.000000 0.000000 0.000000 0.000000 0.000000 0.023483
#
#
# Mechanical properties :
#
#
# Convention : Reuss Voigt Hill
#
# Bulk Modulus (GPa) = 42.22680 87.69255 64.95967
# Shear Modulus (GPa) = 27.08622 33.73291 30.40956
#
# Velocity S-wave (km/s) = 3.83327 4.27781 4.06163
# Velocity P-wave (km/s) = 6.51916 8.48362 7.56542
#
# Compressibility (1/GPa) = 0.02368164
#
# Stress axis : x y z
#
# Youngs Moduli (GPa) = 104.71953 58.32213 34.83547
#
# Poissons Ratio (x) = 0.46895 0.17138
# Poissons Ratio (y) = 0.84203 0.10101
# Poissons Ratio (z) = 0.51519 0.16911
#
# Static dielectric constant tensor:
#      x y z
#    x 1.654780 0.000000 0.000000 
#    y 0.000000 1.589920 0.000000 
#    z 0.000000 0.000000 1.628840 
# 
# From -- ./inp_files/9996.got.cif
#   From: 2010.05.17/outbox.cif.g08.bks.cpg/sg57_5_cif.got.tgz:9996.got - 2010.06.03 13:58:18.
