data_PCOD9437933
_publ_section_title
;
Structure prediction by ZEFSAII (Michael W. Deem and Ramdas Pophale) SiO2 
 PCOD9437933
Probable space group: P B C M
;
_chemical_formula_sum "Si O2"
_cell_formula_units_Z 32
_cell_length_a 17.302134
_cell_length_b 10.200573
_cell_length_c 9.908209
_cell_angle_alpha 90.000000
_cell_angle_beta 90.000000
_cell_angle_gamma 90.000000
_cell_volume 1748.716461
_symmetry_space_group_name_H-M "P B C M"
_symmetry_group_IT_number 57
_symmetry_cell_setting 'orthorhombic'
loop_
_space_group_symop_operation_xyz
x,y,z
-x,-y,1/2+z
x,1/2-y,-z
-x,1/2+y,1/2-z
-x,-y,-z
x,y,1/2-z
-x,1/2+y,z
x,1/2-y,1/2+z
loop_
_atom_site_type_symbol
_atom_site_label
_atom_site_fract_x
_atom_site_fract_y
_atom_site_fract_z
Si Si1 0.468379 0.121240 0.587956
Si Si2 0.915272 0.451333 0.250000
Si Si3 0.282796 0.366556 0.401868
Si Si4 0.051529 0.844975 0.750000
Si Si5 0.175593 0.602957 0.018160
O O1 0.490715 0.250000 0.500000
O O2 0.490780 0.123669 0.750000
O O3 0.374968 0.114662 0.586219
O O4 0.500000 0.000000 0.500000
O O5 0.960711 0.311656 0.250000
O O6 0.860929 0.448121 0.379989
O O7 0.974150 0.571141 0.250000
O O8 0.258355 0.250000 0.500000
O O9 0.265125 0.325205 0.250000
O O10 0.238612 0.500829 0.431695
O O11 0.104755 0.881161 0.877724
O O12 0.208115 0.750000 0.000000
#
# Coordination Sequence:
#
# PCOD9437933 Si02
#       5
#     8   4   8   4   8
#     4  10  21  39  61  89 121 157 197 242 293 349
#     4  10  22  34  56  84 109 148 189 236 291 346
#     4  10  22  39  60  86 118 152 192 239 285 340
#     4  10  20  38  56  78 113 146 189 240 289 344
#     4  10  21  38  57  82 115 151 191 238 289 341
#
# _framework density 18.299136000000001
#
# number of rings (size 3 to 8) (size 9 to 14) (size 15 to 20)
#    0.000    2.000    1.250    1.500    1.750    4.000 
#    0.000    0.000    0.000    0.000    0.000    0.000 
#    0.000    0.000    0.000    0.000    0.000    0.000 
#
# Total GULP energy -178525.371303 kJ/mol
# GULP energy per Si atom -5578.917853 kJ/mol
# Density = 1.825749 g / cm^3
# Si number density = 18.299136 Si / 1000 Ang^3
#
#
#
# Elastic Constant Matrix: (Units=GPa)
#
#
# Indices 1 2 3 4 5 6 
#
# 1 16.0578 34.1616 26.5939 0.0000 0.0000 0.0000
# 2 34.1616 113.6430 51.9160 0.0000 0.0000 0.0000
# 3 26.5939 51.9160 151.8235 0.0000 0.0000 0.0000
# 4 0.0000 0.0000 0.0000 31.4794 0.0000 0.0000
# 5 0.0000 0.0000 0.0000 0.0000 22.9577 0.0000
# 6 0.0000 0.0000 0.0000 0.0000 0.0000 47.5720
#
#
#
# Elastic Compliance Matrix: (Units=1/GPa)
#
#
# Indices 1 2 3 4 5 6 
#
# 1 0.206347 -0.053944 -0.017698 0.000000 0.000000 0.000000
# 2 -0.053944 0.024531 0.001061 0.000000 0.000000 0.000000
# 3 -0.017698 0.001061 0.009324 0.000000 0.000000 0.000000
# 4 0.000000 0.000000 0.000000 0.031767 0.000000 0.000000
# 5 0.000000 0.000000 0.000000 0.000000 0.043558 0.000000
# 6 0.000000 0.000000 0.000000 0.000000 0.000000 0.021021
#
#
# Mechanical properties :
#
#
# Convention : Reuss Voigt Hill
#
# Bulk Modulus (GPa) = 10.09703 56.31858 33.20781
# Shear Modulus (GPa) = 9.79004 31.65867 20.72435
#
# Velocity S-wave (km/s) = 2.31552 4.16392 3.36896
# Velocity P-wave (km/s) = 3.56070 7.34582 5.77233
#
# Compressibility (1/GPa) = 0.09903899
#
# Stress axis : x y z
#
# Youngs Moduli (GPa) = 4.84621 40.76534 107.25019
#
# Poissons Ratio (x) = 2.19903 1.89815
# Poissons Ratio (y) = 0.26142 -0.11376
# Poissons Ratio (z) = 0.08577 -0.04324
#
# Static dielectric constant tensor:
#      x y z
#    x 1.587950 0.000000 0.000000 
#    y 0.000000 1.610890 0.000000 
#    z 0.000000 0.000000 1.586380 
# 
# From -- ./inp_files/4072.got.cif
#   From: 2010.05.17/outbox.cif.g08.bks.cpg/sg57_3_cif.got.tgz:4072.got - 2010.06.03 13:58:18.
