data_PCOD9437053
_publ_section_title
;
Structure prediction by ZEFSAII (Michael W. Deem and Ramdas Pophale) SiO2 
 PCOD9437053
Probable space group: P B C M
;
_chemical_formula_sum "Si O2"
_cell_formula_units_Z 64
_cell_length_a 20.539662
_cell_length_b 20.645399
_cell_length_c 8.070597
_cell_angle_alpha 90.000000
_cell_angle_beta 90.000000
_cell_angle_gamma 90.000000
_cell_volume 3422.332762
_symmetry_space_group_name_H-M "P B C M"
_symmetry_group_IT_number 57
_symmetry_cell_setting 'orthorhombic'
loop_
_space_group_symop_operation_xyz
x,y,z
-x,-y,1/2+z
x,1/2-y,-z
-x,1/2+y,1/2-z
-x,-y,-z
x,y,1/2-z
-x,1/2+y,z
x,1/2-y,1/2+z
loop_
_atom_site_type_symbol
_atom_site_label
_atom_site_fract_x
_atom_site_fract_y
_atom_site_fract_z
Si Si1 0.146489 0.418367 0.945868
Si Si2 0.478713 0.927422 0.050126
Si Si3 0.386383 0.112226 0.949083
Si Si4 0.342926 0.967768 0.049072
Si Si5 0.195800 0.943693 0.046698
Si Si6 0.036251 0.321057 0.446315
Si Si7 0.111874 0.678340 0.549937
Si Si8 0.259156 0.178313 0.948405
O O1 0.139484 0.423693 0.750000
O O2 0.159499 0.490796 0.010549
O O3 0.084288 0.378920 0.008401
O O4 0.209579 0.374969 0.984440
O O5 0.478123 0.923123 0.250000
O O6 0.539021 0.883748 0.988370
O O7 0.403752 0.922675 0.994070
O O8 0.500000 0.000000 0.000000
O O9 0.388890 0.118032 0.750000
O O10 0.332132 0.162180 0.010688
O O11 0.359084 0.040570 0.990264
O O12 0.342799 0.969091 0.250000
O O13 0.271265 0.946834 0.993875
O O14 0.195902 0.944155 0.250000
O O15 0.158009 0.879596 0.991768
O O16 0.061012 0.250000 0.500000
O O17 0.031807 0.319168 0.250000
O O18 0.962627 0.329386 0.512947
O O19 0.134274 0.750000 0.500000
O O20 0.110356 0.675428 0.750000
O O21 0.258039 0.174044 0.750000
O O22 0.239302 0.250000 0.000000
#
# Coordination Sequence:
#
# PCOD9437053 Si02
#       8
#     8   8   8   8   8   8   8   8
#     4  11  21  34  52  74 102 131 164 205 249 299
#     4   8  14  24  42  67  92 120 155 194 236 282
#     4   9  17  29  44  66  96 125 159 207 249 281
#     4   9  15  27  48  72  97 127 160 193 239 296
#     4   9  18  32  52  77 104 132 161 201 249 296
#     4  10  20  35  54  74  99 132 169 206 244 290
#     4   9  19  37  57  76  99 128 164 203 245 297
#     4  11  22  34  48  67  97 136 175 211 250 297
#
# _framework density 18.700695
#
# number of rings (size 3 to 8) (size 9 to 14) (size 15 to 20)
#    0.000    2.500    1.250    1.500    0.000    1.500 
#    0.000    1.875    0.000    0.750    0.000    0.000 
#    0.000    0.000    0.000    0.000    0.000    0.000 
#
# Total GULP energy -356693.941836 kJ/mol
# GULP energy per Si atom -5573.342841 kJ/mol
# Density = 1.865813 g / cm^3
# Si number density = 18.700695 Si / 1000 Ang^3
#
#
#
# Elastic Constant Matrix: (Units=GPa)
#
#
# Indices 1 2 3 4 5 6 
#
# 1 120.2533 74.5418 4.7492 0.0000 0.0000 0.0000
# 2 74.5418 113.4758 -0.5286 0.0000 0.0000 0.0000
# 3 4.7492 -0.5286 10.4485 0.0000 0.0000 0.0000
# 4 0.0000 0.0000 0.0000 15.4022 0.0000 0.0000
# 5 0.0000 0.0000 0.0000 0.0000 -19.4685 0.0000
# 6 0.0000 0.0000 0.0000 0.0000 0.0000 20.5448
#
#
#
# Elastic Compliance Matrix: (Units=1/GPa)
#
#
# Indices 1 2 3 4 5 6 
#
# 1 0.014535 -0.009581 -0.007091 0.000000 0.000000 0.000000
# 2 -0.009581 0.015130 0.005120 0.000000 0.000000 0.000000
# 3 -0.007091 0.005120 0.099190 0.000000 0.000000 0.000000
# 4 0.000000 0.000000 0.000000 0.064926 0.000000 0.000000
# 5 0.000000 0.000000 0.000000 0.000000 -0.051365 0.000000
# 6 0.000000 0.000000 0.000000 0.000000 0.000000 0.048674
#
#
# Mechanical properties :
#
#
# Convention : Reuss Voigt Hill
#
# Bulk Modulus (GPa) = 9.45621 44.63361 27.04491
# Shear Modulus (GPa) = 20.04466 14.32338 17.18402
#
# Velocity S-wave (km/s) = 3.27749 2.77054 3.03462
# Velocity P-wave (km/s) = 4.40343 5.84412 5.17416
#
# Compressibility (1/GPa) = 0.10575061
#
# Stress axis : x y z
#
# Youngs Moduli (GPa) = 68.80072 66.09424 10.08170
#
# Poissons Ratio (x) = 0.63324 0.07149
# Poissons Ratio (y) = 0.65917 -0.05162
# Poissons Ratio (z) = 0.48788 -0.33841
#
# Static dielectric constant tensor:
#      x y z
#    x 1.705220 0.000000 0.000000 
#    y 0.000000 1.619710 0.000000 
#    z 0.000000 0.000000 1.655380 
# 
# From -- ./inp_files/8505.got.cif
#   From: 2010.05.17/outbox.cif.g08.bks.cpg/sg57_5_cif.got.tgz:8505.got - 2010.06.03 13:58:18.
