data_PCOD9437005
_publ_section_title
;
Structure prediction by ZEFSAII (Michael W. Deem and Ramdas Pophale) SiO2 
 PCOD9437005
Probable space group: P B C M
;
_chemical_formula_sum "Si O2"
_cell_formula_units_Z 64
_cell_length_a 11.165717
_cell_length_b 15.013264
_cell_length_c 15.906183
_cell_angle_alpha 90.000000
_cell_angle_beta 90.000000
_cell_angle_gamma 90.000000
_cell_volume 2666.414808
_symmetry_space_group_name_H-M "P B C M"
_symmetry_group_IT_number 57
_symmetry_cell_setting 'orthorhombic'
loop_
_space_group_symop_operation_xyz
x,y,z
-x,-y,1/2+z
x,1/2-y,-z
-x,1/2+y,1/2-z
-x,-y,-z
x,y,1/2-z
-x,1/2+y,z
x,1/2-y,1/2+z
loop_
_atom_site_type_symbol
_atom_site_label
_atom_site_fract_x
_atom_site_fract_y
_atom_site_fract_z
Si Si1 0.414128 0.374245 0.158130
Si Si2 0.766603 0.126804 0.655855
Si Si3 0.552456 0.645470 0.022139
Si Si4 0.005318 0.935471 0.658727
Si Si5 0.715958 0.937277 0.658964
Si Si6 0.052516 0.844108 0.481787
Si Si7 0.407172 0.789786 0.658695
Si Si8 0.872414 0.630614 0.657294
O O1 0.436394 0.418108 0.250000
O O2 0.479825 0.278149 0.164524
O O3 0.270414 0.367287 0.150313
O O4 0.454760 0.406751 0.065696
O O5 0.821879 0.128265 0.750000
O O6 0.858395 0.108464 0.581958
O O7 0.699737 0.219878 0.644276
O O8 0.680568 0.041544 0.656527
O O9 0.659045 0.611798 0.080852
O O10 0.434371 0.645648 0.081333
O O11 0.571387 0.750000 0.000000
O O12 0.039521 0.893433 0.750000
O O13 0.860439 0.937480 0.659099
O O14 0.035893 0.890789 0.570298
O O15 0.073872 0.030311 0.657771
O O16 0.677233 0.899766 0.750000
O O17 0.109847 0.750000 0.500000
O O18 0.934589 0.826937 0.424491
O O19 0.389925 0.833203 0.750000
O O20 0.901531 0.670567 0.750000
#
# Coordination Sequence:
#
# PCOD9437005 Si02
#       8
#     8   8   8   8   8   8   8   8
#     4   9  19  33  56  85 116 159 202 246 306 373
#     4  10  22  42  67  89 122 169 215 261 314 384
#     4  10  20  34  57  90 127 154 195 260 320 367
#     4  10  22  39  61  91 129 169 211 262 315 373
#     4  10  20  37  65  96 122 162 218 266 312 375
#     4  12  25  37  60  94 129 168 210 257 317 384
#     4   9  19  38  61  86 120 158 199 255 318 371
#     4  10  20  38  62  87 123 167 207 256 321 376
#
# _framework density 24.002265000000001
#
# number of rings (size 3 to 8) (size 9 to 14) (size 15 to 20)
#    0.000    2.000    1.250    1.875    1.750    7.000 
#    0.000    7.500    2.750    0.750    0.000    0.000 
#    0.000    0.000    0.000    0.000    0.000    0.000 
#
# Total GULP energy -357120.210594 kJ/mol
# GULP energy per Si atom -5580.003291 kJ/mol
# Density = 2.394763 g / cm^3
# Si number density = 24.002265 Si / 1000 Ang^3
#
#
#
# Elastic Constant Matrix: (Units=GPa)
#
#
# Indices 1 2 3 4 5 6 
#
# 1 70.1660 0.9161 55.3713 0.0000 0.0000 0.0000
# 2 0.9161 22.3374 36.9484 0.0000 0.0000 0.0000
# 3 55.3713 36.9484 268.6948 0.0000 0.0000 0.0000
# 4 0.0000 0.0000 0.0000 19.6397 0.0000 0.0000
# 5 0.0000 0.0000 0.0000 0.0000 31.4557 0.0000
# 6 0.0000 0.0000 0.0000 0.0000 0.0000 -357.5207
#
#
#
# Elastic Compliance Matrix: (Units=1/GPa)
#
#
# Indices 1 2 3 4 5 6 
#
# 1 0.017808 0.006912 -0.004620 0.000000 0.000000 0.000000
# 2 0.006912 0.060632 -0.009762 0.000000 0.000000 0.000000
# 3 -0.004620 -0.009762 0.006016 0.000000 0.000000 0.000000
# 4 0.000000 0.000000 0.000000 0.050917 0.000000 0.000000
# 5 0.000000 0.000000 0.000000 0.000000 0.031791 0.000000
# 6 0.000000 0.000000 0.000000 0.000000 0.000000 -0.002797
#
#
# Mechanical properties :
#
#
# Convention : Reuss Voigt Hill
#
# Bulk Modulus (GPa) = 14.38529 60.85219 37.61874
# Shear Modulus (GPa) = 24.69396 -43.42090 -9.36347
#
# Velocity S-wave (km/s) = 3.21100 -4.25789 -1.97726
# Velocity P-wave (km/s) = 4.44451 1.11127 3.23949
#
# Compressibility (1/GPa) = 0.06951546
#
# Stress axis : x y z
#
# Youngs Moduli (GPa) = 56.15549 16.49299 166.21877
#
# Poissons Ratio (x) = -0.11400 0.76796
# Poissons Ratio (y) = -0.38815 1.62261
# Poissons Ratio (z) = 0.25945 0.16100
#
# Static dielectric constant tensor:
#      x y z
#    x 1.931690 0.000000 0.000000 
#    y 0.000000 1.943380 0.000000 
#    z 0.000000 0.000000 2.012370 
# 
# From -- ./inp_files/17976.got.cif
#   From: 2010.05.17/outbox.cif.g08.bks.cpg/sg57_9_cif.got.tgz:17976.got - 2010.06.03 13:58:18.
