data_PCOD9437409
_publ_section_title
;
Structure prediction by ZEFSAII (Michael W. Deem and Ramdas Pophale) SiO2 
 PCOD9437409
Probable space group: P B C M
;
_chemical_formula_sum "Si O2"
_cell_formula_units_Z 64
_cell_length_a 26.424187
_cell_length_b 12.478677
_cell_length_c 8.176491
_cell_angle_alpha 90.000000
_cell_angle_beta 90.000000
_cell_angle_gamma 90.000000
_cell_volume 2696.107104
_symmetry_space_group_name_H-M "P B C M"
_symmetry_group_IT_number 57
_symmetry_cell_setting 'orthorhombic'
loop_
_space_group_symop_operation_xyz
x,y,z
-x,-y,1/2+z
x,1/2-y,-z
-x,1/2+y,1/2-z
-x,-y,-z
x,y,1/2-z
-x,1/2+y,z
x,1/2-y,1/2+z
loop_
_atom_site_type_symbol
_atom_site_label
_atom_site_fract_x
_atom_site_fract_y
_atom_site_fract_z
Si Si1 0.133078 0.923665 0.558689
Si Si2 0.088467 0.372272 0.946383
Si Si3 0.275700 0.140689 0.055126
Si Si4 0.386797 0.087798 0.562352
Si Si5 0.647569 0.137624 0.553608
Si Si6 0.240158 0.589060 0.555178
Si Si7 0.508375 0.627518 0.065295
Si Si8 0.977572 0.127926 0.448358
O O1 0.130745 0.904363 0.750000
O O2 0.130438 0.050151 0.520199
O O3 0.185290 0.873515 0.499206
O O4 0.079397 0.887462 0.483339
O O5 0.089759 0.377754 0.750000
O O6 0.032861 0.418160 0.004361
O O7 0.095037 0.250000 0.000000
O O8 0.282273 0.138244 0.250000
O O9 0.245380 0.035361 0.007294
O O10 0.250499 0.250000 0.000000
O O11 0.331176 0.133042 0.975157
O O12 0.400633 0.107544 0.750000
O O13 0.430655 0.132362 0.448779
O O14 0.380684 0.961425 0.526768
O O15 0.625490 0.250000 0.500000
O O16 0.646437 0.124441 0.750000
O O17 0.706431 0.135714 0.494938
O O18 0.241352 0.598818 0.750000
O O19 0.489813 0.623791 0.250000
O O20 0.492711 0.750000 0.000000
O O21 0.500000 0.500000 0.000000
O O22 0.987324 0.250000 0.500000
O O23 0.976512 0.116200 0.250000
#
# Coordination Sequence:
#
# PCOD9437409 Si02
#       8
#     8   8   8   8   8   8   8   8
#     4  11  22  35  53  78 107 138 176 220 273 335
#     4  10  20  36  56  76 101 132 170 216 270 330
#     4  10  20  36  58  84 113 148 191 241 293 350
#     4  11  22  39  64  95 128 167 214 265 320 379
#     4  10  21  39  62  89 121 160 206 259 314 374
#     4   9  21  38  53  75 110 148 188 231 282 343
#     4  12  26  47  72 104 145 191 241 295 354 416
#     4   9  20  36  54  77 101 130 169 215 265 325
#
# _framework density 23.737929000000001
#
# number of rings (size 3 to 8) (size 9 to 14) (size 15 to 20)
#    0.000    1.750    0.000    5.250    0.000    6.000 
#    0.000    6.250    0.000    0.000    0.000    0.000 
#    0.000    0.000    0.000    0.000    0.000    0.000 
#
# Total GULP energy -356982.702168 kJ/mol
# GULP energy per Si atom -5577.854721 kJ/mol
# Density = 2.368390 g / cm^3
# Si number density = 23.737929 Si / 1000 Ang^3
#
#
#
# Elastic Constant Matrix: (Units=GPa)
#
#
# Indices 1 2 3 4 5 6 
#
# 1 118.2118 13.3713 2.6815 0.0000 0.0000 0.0000
# 2 13.3713 119.4219 9.5558 0.0000 0.0000 0.0000
# 3 2.6815 9.5558 51.5330 0.0000 0.0000 0.0000
# 4 0.0000 0.0000 0.0000 26.4864 0.0000 0.0000
# 5 0.0000 0.0000 0.0000 0.0000 20.9078 0.0000
# 6 0.0000 0.0000 0.0000 0.0000 0.0000 154.3505
#
#
#
# Elastic Compliance Matrix: (Units=1/GPa)
#
#
# Indices 1 2 3 4 5 6 
#
# 1 0.008572 -0.000938 -0.000272 0.000000 0.000000 0.000000
# 2 -0.000938 0.008602 -0.001546 0.000000 0.000000 0.000000
# 3 -0.000272 -0.001546 0.019706 0.000000 0.000000 0.000000
# 4 0.000000 0.000000 0.000000 0.037755 0.000000 0.000000
# 5 0.000000 0.000000 0.000000 0.000000 0.047829 0.000000
# 6 0.000000 0.000000 0.000000 0.000000 0.000000 0.006479
#
#
# Mechanical properties :
#
#
# Convention : Reuss Voigt Hill
#
# Bulk Modulus (GPa) = 31.88044 37.82044 34.85044
# Shear Modulus (GPa) = 34.50380 57.91949 46.21165
#
# Velocity S-wave (km/s) = 3.81666 4.94495 4.41698
# Velocity P-wave (km/s) = 5.73427 6.96925 6.38170
#
# Compressibility (1/GPa) = 0.03136720
#
# Stress axis : x y z
#
# Youngs Moduli (GPa) = 116.66353 116.24622 50.74612
#
# Poissons Ratio (x) = 0.10904 0.01381
# Poissons Ratio (y) = 0.10943 0.07847
# Poissons Ratio (z) = 0.03174 0.17976
#
# Static dielectric constant tensor:
#      x y z
#    x 1.903900 0.000000 0.000000 
#    y 0.000000 2.031140 0.000000 
#    z 0.000000 0.000000 1.848120 
# 
# From -- ./inp_files/10315.got.cif
#   From: 2010.05.17/outbox.cif.g08.bks.cpg/sg57_6_cif.got.tgz:10315.got - 2010.06.03 13:58:18.
