data_PCOD9437365
_publ_section_title
;
Structure prediction by ZEFSAII (Michael W. Deem and Ramdas Pophale) SiO2 
 PCOD9437365
Probable space group: P B C M
;
_chemical_formula_sum "Si O2"
_cell_formula_units_Z 40
_cell_length_a 8.756825
_cell_length_b 23.113789
_cell_length_c 10.248784
_cell_angle_alpha 90.000000
_cell_angle_beta 90.000000
_cell_angle_gamma 90.000000
_cell_volume 2074.388782
_symmetry_space_group_name_H-M "P B C M"
_symmetry_group_IT_number 57
_symmetry_cell_setting 'orthorhombic'
loop_
_space_group_symop_operation_xyz
x,y,z
-x,-y,1/2+z
x,1/2-y,-z
-x,1/2+y,1/2-z
-x,-y,-z
x,y,1/2-z
-x,1/2+y,z
x,1/2-y,1/2+z
loop_
_atom_site_type_symbol
_atom_site_label
_atom_site_fract_x
_atom_site_fract_y
_atom_site_fract_z
Si Si1 0.315459 0.797759 0.250000
Si Si2 0.325758 0.327730 0.250000
Si Si3 0.655017 0.874669 0.531466
Si Si4 0.845455 0.326286 0.750000
Si Si5 0.642590 0.000623 0.900971
Si Si6 0.800777 0.796520 0.750000
Si Si7 0.290017 0.877864 0.005110
O O1 0.499788 0.803453 0.250000
O O2 0.255807 0.732474 0.250000
O O3 0.262978 0.832025 0.379174
O O4 0.303983 0.364140 0.381104
O O5 0.220534 0.271860 0.250000
O O6 0.720449 0.824973 0.623917
O O7 0.469786 0.873854 0.535196
O O8 0.712752 0.937014 0.581375
O O9 0.805255 0.362183 0.621246
O O10 0.021954 0.310685 0.750000
O O11 0.594290 0.007561 0.750000
O O12 0.736377 0.057427 0.940973
O O13 0.500000 0.000000 0.000000
#
# Coordination Sequence:
#
# PCOD9437365 Si02
#       7
#     4   4   8   4   8   4   8
#     4  10  20  39  60  88 120 151 201 252 303 354
#     4  10  22  37  62  92 116 155 201 248 305 356
#     4  10  21  38  65  89 122 151 195 251 302 357
#     4  12  26  37  58  86 122 167 205 242 297 352
#     4  10  20  35  64  97 123 150 190 248 306 358
#     4  12  24  41  56  84 124 165 205 242 293 358
#     4  10  21  38  62  93 119 153 197 250 300 359
#
# _framework density 19.282788
#
# number of rings (size 3 to 8) (size 9 to 14) (size 15 to 20)
#    0.000    1.600    2.000    3.000    8.400    6.400 
#    0.000    1.000    0.000    0.000    0.000    0.000 
#    0.000    0.000    0.000    0.000    0.000    0.000 
#
# Total GULP energy -223423.512144 kJ/mol
# GULP energy per Si atom -5585.587804 kJ/mol
# Density = 1.923890 g / cm^3
# Si number density = 19.282788 Si / 1000 Ang^3
#
#
#
# Elastic Constant Matrix: (Units=GPa)
#
#
# Indices 1 2 3 4 5 6 
#
# 1 28.7496 16.0449 41.1700 0.0000 0.0000 0.0000
# 2 16.0449 68.5930 19.3779 0.0000 0.0000 0.0000
# 3 41.1700 19.3779 140.4599 0.0000 0.0000 0.0000
# 4 0.0000 0.0000 0.0000 68.1636 0.0000 0.0000
# 5 0.0000 0.0000 0.0000 0.0000 -11.1427 0.0000
# 6 0.0000 0.0000 0.0000 0.0000 0.0000 1.9735
#
#
#
# Elastic Compliance Matrix: (Units=1/GPa)
#
#
# Indices 1 2 3 4 5 6 
#
# 1 0.066434 -0.010446 -0.018031 0.000000 0.000000 0.000000
# 2 -0.010446 0.016812 0.000742 0.000000 0.000000 0.000000
# 3 -0.018031 0.000742 0.012302 0.000000 0.000000 0.000000
# 4 0.000000 0.000000 0.000000 0.014671 0.000000 0.000000
# 5 0.000000 0.000000 0.000000 0.000000 -0.089745 0.000000
# 6 0.000000 0.000000 0.000000 0.000000 0.000000 0.506718
#
#
# Mechanical properties :
#
#
# Convention : Reuss Voigt Hill
#
# Bulk Modulus (GPa) = 24.95074 43.44313 34.19694
# Shear Modulus (GPa) = 8.38896 22.54619 15.46757
#
# Velocity S-wave (km/s) = 2.08805 3.42312 2.83529
# Velocity P-wave (km/s) = 4.33367 6.18078 5.33773
#
# Compressibility (1/GPa) = 0.04007898
#
# Stress axis : x y z
#
# Youngs Moduli (GPa) = 15.05252 59.47959 81.28650
#
# Poissons Ratio (x) = 0.62132 1.46570
# Poissons Ratio (y) = 0.15724 -0.06034
# Poissons Ratio (z) = 0.27142 -0.04415
#
# Static dielectric constant tensor:
#      x y z
#    x 1.647820 0.000000 0.000000 
#    y 0.000000 1.694930 0.000000 
#    z 0.000000 0.000000 1.674390 
# 
# From -- ./inp_files/1593.got.cif
#   From: 2010.05.17/outbox.cif.g08.bks.cpg/sg57_1_cif.got.tgz:1593.got - 2010.06.03 13:58:18.
