data_PCOD9437168
_publ_section_title
;
Structure prediction by ZEFSAII (Michael W. Deem and Ramdas Pophale) SiO2 
 PCOD9437168
Probable space group: P B C M
;
_chemical_formula_sum "Si O2"
_cell_formula_units_Z 48
_cell_length_a 19.752361
_cell_length_b 15.297723
_cell_length_c 7.834886
_cell_angle_alpha 90.000000
_cell_angle_beta 90.000000
_cell_angle_gamma 90.000000
_cell_volume 2367.437316
_symmetry_space_group_name_H-M "P B C M"
_symmetry_group_IT_number 57
_symmetry_cell_setting 'orthorhombic'
loop_
_space_group_symop_operation_xyz
x,y,z
-x,-y,1/2+z
x,1/2-y,-z
-x,1/2+y,1/2-z
-x,-y,-z
x,y,1/2-z
-x,1/2+y,z
x,1/2-y,1/2+z
loop_
_atom_site_type_symbol
_atom_site_label
_atom_site_fract_x
_atom_site_fract_y
_atom_site_fract_z
Si Si1 0.497819 0.853050 0.453387
Si Si2 0.604896 0.501622 0.044510
Si Si3 0.757198 0.991579 0.548615
Si Si4 0.141381 0.345227 0.955331
Si Si5 0.153235 0.847006 0.546244
Si Si6 0.004809 0.898265 0.544857
O O1 0.496685 0.750000 0.500000
O O2 0.494779 0.855102 0.250000
O O3 0.436533 0.915961 0.519387
O O4 0.563951 0.909257 0.505997
O O5 0.607560 0.493368 0.250000
O O6 0.681431 0.505842 0.976996
O O7 0.750219 0.972174 0.750000
O O8 0.795759 0.082627 0.528661
O O9 0.808192 0.918849 0.475992
O O10 0.137598 0.354769 0.750000
O O11 0.064451 0.355541 0.021862
O O12 0.167354 0.250000 0.000000
O O13 0.174661 0.750000 0.500000
O O14 0.152416 0.858234 0.750000
O O15 0.076341 0.861902 0.479847
O O16 0.005666 0.888427 0.750000
O O17 0.000000 0.000000 0.500000
#
# Coordination Sequence:
#
# PCOD9437168 Si02
#       6
#     8   8   8   8   8   8
#     4  10  20  36  60  87 115 147 185 228 274 328
#     4   9  20  38  59  85 115 149 187 228 276 328
#     4  10  21  39  59  81 115 150 184 230 280 331
#     4  10  21  36  55  79 108 144 184 229 280 329
#     4  11  23  37  56  82 111 147 191 235 283 336
#     4  10  20  35  56  80 105 141 187 236 285 332
#
# _framework density 20.275086999999999
#
# number of rings (size 3 to 8) (size 9 to 14) (size 15 to 20)
#    0.000    2.000    1.667    1.500    0.000    4.667 
#    0.000    3.333    0.000    0.000    0.000    0.000 
#    0.000    0.000    0.000    0.000    0.000    0.000 
#
# Total GULP energy -267906.706857 kJ/mol
# GULP energy per Si atom -5581.389726 kJ/mol
# Density = 2.022894 g / cm^3
# Si number density = 20.275087 Si / 1000 Ang^3
#
#
#
# Elastic Constant Matrix: (Units=GPa)
#
#
# Indices 1 2 3 4 5 6 
#
# 1 162.0394 65.8193 7.3129 0.0000 0.0000 0.0000
# 2 65.8193 148.7587 -20.5663 0.0000 0.0000 0.0000
# 3 7.3129 -20.5663 19.5167 0.0000 0.0000 0.0000
# 4 0.0000 0.0000 0.0000 24.5175 0.0000 0.0000
# 5 0.0000 0.0000 0.0000 0.0000 -6.7375 0.0000
# 6 0.0000 0.0000 0.0000 0.0000 0.0000 -25.4018
#
#
#
# Elastic Compliance Matrix: (Units=1/GPa)
#
#
# Indices 1 2 3 4 5 6 
#
# 1 0.008564 -0.004955 -0.008431 0.000000 0.000000 0.000000
# 2 -0.004955 0.010735 0.013169 0.000000 0.000000 0.000000
# 3 -0.008431 0.013169 0.068275 0.000000 0.000000 0.000000
# 4 0.000000 0.000000 0.000000 0.040787 0.000000 0.000000
# 5 0.000000 0.000000 0.000000 0.000000 -0.148424 0.000000
# 6 0.000000 0.000000 0.000000 0.000000 0.000000 -0.039367
#
#
# Mechanical properties :
#
#
# Convention : Reuss Voigt Hill
#
# Bulk Modulus (GPa) = 11.47552 48.38295 29.92923
# Shear Modulus (GPa) = -166.94594 16.99224 -74.97685
#
# Velocity S-wave (km/s) = -9.08401 2.89811 -6.08770
# Velocity P-wave (km/s) = 10.21535 5.92569 5.88386
#
# Compressibility (1/GPa) = 0.08714204
#
# Stress axis : x y z
#
# Youngs Moduli (GPa) = 116.76133 93.15028 14.64674
#
# Poissons Ratio (x) = 0.46156 0.12348
# Poissons Ratio (y) = 0.57855 -0.19289
# Poissons Ratio (z) = 0.98436 -1.22672
#
# Static dielectric constant tensor:
#      x y z
#    x 1.743660 0.000000 0.000000 
#    y 0.000000 1.682820 0.000000 
#    z 0.000000 0.000000 1.764960 
# 
# From -- ./inp_files/6498.got.cif
#   From: 2010.05.17/outbox.cif.g08.bks.cpg/sg57_4_cif.got.tgz:6498.got - 2010.06.03 13:58:18.
