data_PCOD9437160
_publ_section_title
;
Structure prediction by ZEFSAII (Michael W. Deem and Ramdas Pophale) SiO2 
 PCOD9437160
Probable space group: P B C M
;
_chemical_formula_sum "Si O2"
_cell_formula_units_Z 60
_cell_length_a 18.727594
_cell_length_b 18.081170
_cell_length_c 9.612259
_cell_angle_alpha 90.000000
_cell_angle_beta 90.000000
_cell_angle_gamma 90.000000
_cell_volume 3254.872487
_symmetry_space_group_name_H-M "P B C M"
_symmetry_group_IT_number 57
_symmetry_cell_setting 'orthorhombic'
loop_
_space_group_symop_operation_xyz
x,y,z
-x,-y,1/2+z
x,1/2-y,-z
-x,1/2+y,1/2-z
-x,-y,-z
x,y,1/2-z
-x,1/2+y,z
x,1/2-y,1/2+z
loop_
_atom_site_type_symbol
_atom_site_label
_atom_site_fract_x
_atom_site_fract_y
_atom_site_fract_z
Si Si1 0.437021 0.577108 0.502246
Si Si2 0.302902 0.675280 0.086083
Si Si3 0.070296 0.021159 0.085257
Si Si4 0.198060 0.957210 0.911107
Si Si5 0.572328 0.824431 0.412487
Si Si6 0.854803 0.677868 0.415270
Si Si7 0.525681 0.508527 0.250000
Si Si8 0.274332 0.109877 0.586824
O O1 0.372242 0.629567 0.461545
O O2 0.502168 0.627630 0.560011
O O3 0.468384 0.535250 0.369879
O O4 0.420772 0.521292 0.626681
O O5 0.309564 0.691431 0.250000
O O6 0.235908 0.620713 0.065995
O O7 0.296641 0.750000 0.000000
O O8 0.062523 0.007028 0.250000
O O9 0.092717 0.107492 0.068196
O O10 0.135288 0.975270 0.017599
O O11 0.000000 0.000000 0.000000
O O12 0.172290 0.960907 0.750000
O O13 0.256210 0.023219 0.925294
O O14 0.570287 0.750000 0.500000
O O15 0.574467 0.805826 0.250000
O O16 0.644289 0.869537 0.445733
O O17 0.879493 0.750000 0.500000
O O18 0.846375 0.692219 0.250000
O O19 0.779966 0.653189 0.486451
O O20 0.261290 0.130057 0.750000
#
# Coordination Sequence:
#
# PCOD9437160 Si02
#       8
#     8   8   8   8   8   8   4   8
#     4  11  23  41  59  84 113 148 199 253 314 363
#     4  11  25  42  62  86 120 160 205 256 310 368
#     4  10  21  39  63  94 124 154 192 238 284 344
#     4   9  20  39  63  87 114 152 192 237 287 345
#     4  11  24  37  52  77 113 150 190 237 291 348
#     4  10  20  35  55  86 120 152 190 230 279 342
#     4  10  24  38  62  86 108 144 196 262 308 366
#     4   9  19  35  57  80 110 149 189 234 286 341
#
# _framework density 18.433902
#
# number of rings (size 3 to 8) (size 9 to 14) (size 15 to 20)
#    0.000    1.867    1.333    1.600    5.600    4.800 
#    0.000    0.667    0.000    0.000    0.000    0.000 
#    0.000    0.000    0.000    0.000    0.000    0.000 
#
# Total GULP energy -334043.836246 kJ/mol
# GULP energy per Si atom -5567.397271 kJ/mol
# Density = 1.839195 g / cm^3
# Si number density = 18.433902 Si / 1000 Ang^3
#
#
#
# Elastic Constant Matrix: (Units=GPa)
#
#
# Indices 1 2 3 4 5 6 
#
# 1 64.0671 25.1799 31.1336 0.0000 0.0000 0.0000
# 2 25.1799 84.7492 62.8378 0.0000 0.0000 0.0000
# 3 31.1336 62.8378 128.0018 0.0000 0.0000 0.0000
# 4 0.0000 0.0000 0.0000 -131.5070 0.0000 0.0000
# 5 0.0000 0.0000 0.0000 0.0000 32.9655 0.0000
# 6 0.0000 0.0000 0.0000 0.0000 0.0000 18.0027
#
#
#
# Elastic Compliance Matrix: (Units=1/GPa)
#
#
# Indices 1 2 3 4 5 6 
#
# 1 0.018289 -0.003358 -0.002800 0.000000 0.000000 0.000000
# 2 -0.003358 0.019169 -0.008594 0.000000 0.000000 0.000000
# 3 -0.002800 -0.008594 0.012712 0.000000 0.000000 0.000000
# 4 0.000000 0.000000 0.000000 -0.007604 0.000000 0.000000
# 5 0.000000 0.000000 0.000000 0.000000 0.030335 0.000000
# 6 0.000000 0.000000 0.000000 0.000000 0.000000 0.055547
#
#
# Mechanical properties :
#
#
# Convention : Reuss Voigt Hill
#
# Bulk Modulus (GPa) = 48.38556 57.23563 52.81059
# Shear Modulus (GPa) = 30.33254 -5.59663 12.36796
#
# Velocity S-wave (km/s) = 4.06085 -1.74432 2.59305
# Velocity P-wave (km/s) = 6.94928 5.20189 6.13808
#
# Compressibility (1/GPa) = 0.02066732
#
# Stress axis : x y z
#
# Youngs Moduli (GPa) = 54.67773 52.16780 78.66504
#
# Poissons Ratio (x) = 0.17517 0.22026
# Poissons Ratio (y) = 0.18359 0.67601
# Poissons Ratio (z) = 0.15310 0.44831
#
# Static dielectric constant tensor:
#      x y z
#    x 1.616140 0.000000 0.000000 
#    y 0.000000 1.694070 0.000000 
#    z 0.000000 0.000000 1.622810 
# 
# From -- ./inp_files/6950.got.cif
#   From: 2010.05.17/outbox.cif.g08.bks.cpg/sg57_4_cif.got.tgz:6950.got - 2010.06.03 13:58:18.
