data_PCOD9437820
_publ_section_title
;
Structure prediction by ZEFSAII (Michael W. Deem and Ramdas Pophale) SiO2 
 PCOD9437820
Probable space group: P B C M
;
_chemical_formula_sum "Si O2"
_cell_formula_units_Z 56
_cell_length_a 9.509117
_cell_length_b 16.584213
_cell_length_c 19.314921
_cell_angle_alpha 90.000000
_cell_angle_beta 90.000000
_cell_angle_gamma 90.000000
_cell_volume 3045.986640
_symmetry_space_group_name_H-M "P B C M"
_symmetry_group_IT_number 57
_symmetry_cell_setting 'orthorhombic'
loop_
_space_group_symop_operation_xyz
x,y,z
-x,-y,1/2+z
x,1/2-y,-z
-x,1/2+y,1/2-z
-x,-y,-z
x,y,1/2-z
-x,1/2+y,z
x,1/2-y,1/2+z
loop_
_atom_site_type_symbol
_atom_site_label
_atom_site_fract_x
_atom_site_fract_y
_atom_site_fract_z
Si Si1 0.456404 0.657875 0.169873
Si Si2 0.305309 0.548274 0.630843
Si Si3 0.852786 0.457270 0.984847
Si Si4 0.228717 0.365501 0.828690
Si Si5 0.421913 0.997130 0.925327
Si Si6 0.790794 0.283208 0.326264
Si Si7 0.994746 0.297637 0.931031
O O1 0.436726 0.628217 0.250000
O O2 0.620956 0.678820 0.164187
O O3 0.428625 0.589444 0.112733
O O4 0.349281 0.730891 0.159553
O O5 0.230378 0.555294 0.556222
O O6 0.263768 0.460488 0.660056
O O7 0.474589 0.551434 0.621212
O O8 0.249669 0.623558 0.672788
O O9 0.743618 0.509944 0.938658
O O10 0.892499 0.371852 0.951263
O O11 0.000000 0.500000 0.000000
O O12 0.176363 0.354612 0.750000
O O13 0.121470 0.334600 0.886261
O O14 0.500000 0.000000 0.000000
O O15 0.842541 0.259531 0.250000
O O16 0.906241 0.262450 0.383010
O O17 0.039960 0.250000 0.000000
#
# Coordination Sequence:
#
# PCOD9437820 Si02
#       7
#     8   8   8   8   8   8   8
#     4   9  19  37  60  84 115 153 196 244 296 355
#     4  10  20  37  60  89 116 152 200 246 294 349
#     4  11  20  37  58  82 120 153 196 242 290 354
#     4  10  21  40  62  85 118 160 199 238 297 367
#     4   9  19  35  59  85 113 151 193 243 294 354
#     4  11  22  38  61  88 118 156 201 250 300 356
#     4  12  23  38  59  88 121 158 199 248 302 354
#
# _framework density 18.384848000000002
#
# number of rings (size 3 to 8) (size 9 to 14) (size 15 to 20)
#    0.000    1.714    4.286    0.857    0.000    0.571 
#    2.571    0.714    0.000    0.000    0.000    0.000 
#    0.000    0.000    0.000    0.000    0.000    0.000 
#
# Total GULP energy -312073.187543 kJ/mol
# GULP energy per Si atom -5572.735492 kJ/mol
# Density = 1.834300 g / cm^3
# Si number density = 18.384848 Si / 1000 Ang^3
#
#
#
# Elastic Constant Matrix: (Units=GPa)
#
#
# Indices 1 2 3 4 5 6 
#
# 1 114.8926 34.2868 49.9724 0.0000 0.0000 0.0000
# 2 34.2868 58.9029 30.9500 0.0000 0.0000 0.0000
# 3 49.9724 30.9500 102.1614 0.0000 0.0000 0.0000
# 4 0.0000 0.0000 0.0000 26.9937 0.0000 0.0000
# 5 0.0000 0.0000 0.0000 0.0000 14.6540 0.0000
# 6 0.0000 0.0000 0.0000 0.0000 0.0000 25.0457
#
#
#
# Elastic Compliance Matrix: (Units=1/GPa)
#
#
# Indices 1 2 3 4 5 6 
#
# 1 0.012042 -0.004655 -0.004480 0.000000 0.000000 0.000000
# 2 -0.004655 0.021991 -0.004385 0.000000 0.000000 0.000000
# 3 -0.004480 -0.004385 0.013308 0.000000 0.000000 0.000000
# 4 0.000000 0.000000 0.000000 0.037046 0.000000 0.000000
# 5 0.000000 0.000000 0.000000 0.000000 0.068241 0.000000
# 6 0.000000 0.000000 0.000000 0.000000 0.000000 0.039927
#
#
# Mechanical properties :
#
#
# Convention : Reuss Voigt Hill
#
# Bulk Modulus (GPa) = 49.26027 56.26391 52.76209
# Shear Modulus (GPa) = 22.08856 24.05519 23.07187
#
# Velocity S-wave (km/s) = 3.46996 3.62114 3.54636
# Velocity P-wave (km/s) = 6.55029 6.93926 6.74758
#
# Compressibility (1/GPa) = 0.02030034
#
# Stress axis : x y z
#
# Youngs Moduli (GPa) = 83.04587 45.47305 75.14181
#
# Poissons Ratio (x) = 0.21170 0.33662
# Poissons Ratio (y) = 0.38661 0.32950
# Poissons Ratio (z) = 0.37203 0.19940
#
# Static dielectric constant tensor:
#      x y z
#    x 1.636170 0.000000 0.000000 
#    y 0.000000 1.615200 0.000000 
#    z 0.000000 0.000000 1.656970 
# 
# From -- ./inp_files/24427.got.cif
#   From: 2010.05.17/outbox.cif.g08.bks.cpg/sg57_13_cif.got.tgz:24427.got - 2010.06.03 13:58:18.
