data_PCOD9437905
_publ_section_title
;
Structure prediction by ZEFSAII (Michael W. Deem and Ramdas Pophale) SiO2 
 PCOD9437905
Probable space group: P B C M
;
_chemical_formula_sum "Si O2"
_cell_formula_units_Z 64
_cell_length_a 24.470088
_cell_length_b 15.428156
_cell_length_c 8.574914
_cell_angle_alpha 90.000000
_cell_angle_beta 90.000000
_cell_angle_gamma 90.000000
_cell_volume 3237.273005
_symmetry_space_group_name_H-M "P B C M"
_symmetry_group_IT_number 57
_symmetry_cell_setting 'orthorhombic'
loop_
_space_group_symop_operation_xyz
x,y,z
-x,-y,1/2+z
x,1/2-y,-z
-x,1/2+y,1/2-z
-x,-y,-z
x,y,1/2-z
-x,1/2+y,z
x,1/2-y,1/2+z
loop_
_atom_site_type_symbol
_atom_site_label
_atom_site_fract_x
_atom_site_fract_y
_atom_site_fract_z
Si Si1 0.501178 0.340390 0.935689
Si Si2 0.079848 0.491099 0.938151
Si Si3 0.600656 0.919721 0.069448
Si Si4 0.378915 0.621714 0.068097
Si Si5 0.205645 0.487168 0.936896
Si Si6 0.741084 0.339591 0.937747
Si Si7 0.011120 0.849939 0.562591
Si Si8 0.712430 0.842695 0.437175
O O1 0.504723 0.339749 0.750000
O O2 0.562625 0.351488 0.001587
O O3 0.478942 0.250000 0.000000
O O4 0.456812 0.410918 0.984125
O O5 0.076077 0.498164 0.750000
O O6 0.142511 0.474388 0.982047
O O7 0.042225 0.408294 0.984408
O O8 0.058575 0.582977 0.006859
O O9 0.590820 0.896280 0.250000
O O10 0.650635 0.862995 0.005350
O O11 0.621410 0.017963 0.065013
O O12 0.379495 0.649242 0.250000
O O13 0.321749 0.653555 0.000641
O O14 0.209255 0.485054 0.750000
O O15 0.226000 0.579258 0.999017
O O16 0.245888 0.415273 0.005744
O O17 0.740184 0.342042 0.750000
O O18 0.764696 0.250000 0.000000
O O19 0.012578 0.750000 0.500000
O O20 0.012358 0.844237 0.750000
O O21 0.729827 0.750000 0.500000
O O22 0.710531 0.844173 0.250000
#
# Coordination Sequence:
#
# PCOD9437905 Si02
#       8
#     8   8   8   8   8   8   8   8
#     4  11  22  35  53  79 109 142 183 235 292 358
#     4   9  21  40  61  89 125 162 203 250 295 345
#     4  10  20  38  59  80 109 145 186 239 297 356
#     4   9  19  37  58  80 110 144 186 239 296 356
#     4  11  23  41  63  90 123 159 204 253 300 353
#     4  11  22  40  62  87 118 157 201 248 303 360
#     4  10  20  37  63  93 126 164 202 244 293 347
#     4  11  23  40  62  86 118 158 200 249 302 359
#
# _framework density 19.769725000000001
#
# number of rings (size 3 to 8) (size 9 to 14) (size 15 to 20)
#    0.000    1.750    1.250    3.000    0.000    4.500 
#    0.000    3.750    0.000    0.000    0.000    0.000 
#    0.000    0.000    0.000    0.000    0.000    0.000 
#
# Total GULP energy -357215.917167 kJ/mol
# GULP energy per Si atom -5581.498706 kJ/mol
# Density = 1.972473 g / cm^3
# Si number density = 19.769725 Si / 1000 Ang^3
#
#
#
# Elastic Constant Matrix: (Units=GPa)
#
#
# Indices 1 2 3 4 5 6 
#
# 1 83.3911 22.9096 21.4382 0.0000 0.0000 0.0000
# 2 22.9096 99.8221 14.7809 0.0000 0.0000 0.0000
# 3 21.4382 14.7809 38.8254 0.0000 0.0000 0.0000
# 4 0.0000 0.0000 0.0000 29.9538 0.0000 0.0000
# 5 0.0000 0.0000 0.0000 0.0000 37.4982 0.0000
# 6 0.0000 0.0000 0.0000 0.0000 0.0000 -29.9212
#
#
#
# Elastic Compliance Matrix: (Units=1/GPa)
#
#
# Indices 1 2 3 4 5 6 
#
# 1 0.014442 -0.002261 -0.007113 0.000000 0.000000 0.000000
# 2 -0.002261 0.010970 -0.002928 0.000000 0.000000 0.000000
# 3 -0.007113 -0.002928 0.030799 0.000000 0.000000 0.000000
# 4 0.000000 0.000000 0.000000 0.033385 0.000000 0.000000
# 5 0.000000 0.000000 0.000000 0.000000 0.026668 0.000000
# 6 0.000000 0.000000 0.000000 0.000000 0.000000 -0.033421
#
#
# Mechanical properties :
#
#
# Convention : Reuss Voigt Hill
#
# Bulk Modulus (GPa) = 31.63967 37.81066 34.72516
# Shear Modulus (GPa) = 42.37922 18.36682 30.37302
#
# Velocity S-wave (km/s) = 4.63497 3.05132 3.92387
# Velocity P-wave (km/s) = 6.68452 5.61971 6.17511
#
# Compressibility (1/GPa) = 0.03160590
#
# Stress axis : x y z
#
# Youngs Moduli (GPa) = 69.24448 91.15520 32.46878
#
# Poissons Ratio (x) = 0.20611 0.23096
# Poissons Ratio (y) = 0.15657 0.09507
# Poissons Ratio (z) = 0.49256 0.26689
#
# Static dielectric constant tensor:
#      x y z
#    x 1.714140 0.000000 0.000000 
#    y 0.000000 1.680300 0.000000 
#    z 0.000000 0.000000 1.687100 
# 
# From -- ./inp_files/9366.got.cif
#   From: 2010.05.17/outbox.cif.g08.bks.cpg/sg57_5_cif.got.tgz:9366.got - 2010.06.03 13:58:18.
