data_PCOD9437497
_publ_section_title
;
Structure prediction by ZEFSAII (Michael W. Deem and Ramdas Pophale) SiO2 
 PCOD9437497
Probable space group: P B C M
;
_chemical_formula_sum "Si O2"
_cell_formula_units_Z 48
_cell_length_a 28.790177
_cell_length_b 9.078699
_cell_length_c 9.528608
_cell_angle_alpha 90.000000
_cell_angle_beta 90.000000
_cell_angle_gamma 90.000000
_cell_volume 2490.562319
_symmetry_space_group_name_H-M "P B C M"
_symmetry_group_IT_number 57
_symmetry_cell_setting 'orthorhombic'
loop_
_space_group_symop_operation_xyz
x,y,z
-x,-y,1/2+z
x,1/2-y,-z
-x,1/2+y,1/2-z
-x,-y,-z
x,y,1/2-z
-x,1/2+y,z
x,1/2-y,1/2+z
loop_
_atom_site_type_symbol
_atom_site_label
_atom_site_fract_x
_atom_site_fract_y
_atom_site_fract_z
Si Si1 0.141920 0.397381 0.412284
Si Si2 0.961631 0.905812 0.419327
Si Si3 0.700868 0.601604 0.412421
Si Si4 0.466014 0.592214 0.750000
Si Si5 0.406176 0.422259 0.524188
Si Si6 0.768541 0.399086 0.917172
Si Si7 0.563791 0.063285 0.250000
O O1 0.147577 0.250000 0.500000
O O2 0.141373 0.352900 0.250000
O O3 0.090992 0.466176 0.439530
O O4 0.185289 0.502968 0.433888
O O5 0.961542 0.750000 0.500000
O O6 0.970114 0.894108 0.250000
O O7 0.000000 0.000000 0.500000
O O8 0.710194 0.750000 0.500000
O O9 0.716734 0.610139 0.250000
O O10 0.645318 0.579536 0.412367
O O11 0.726324 0.476880 0.501536
O O12 0.442740 0.508372 0.619516
O O13 0.454189 0.767129 0.750000
O O14 0.519952 0.549211 0.750000
O O15 0.419312 0.250000 0.500000
O O16 0.406084 0.517062 0.383059
O O17 0.759567 0.380821 0.750000
O O18 0.777015 0.250000 0.000000
#
# Coordination Sequence:
#
# PCOD9437497 Si02
#       7
#     8   8   8   4   8   8   4
#     4   9  20  38  60  86 117 158 206 257 308 372
#     4  10  20  36  57  85 120 159 206 255 312 371
#     4  11  24  43  68  94 125 162 206 253 310 377
#     4  12  24  46  62  98 128 168 210 258 315 374
#     4  11  24  43  67  94 127 164 210 258 313 375
#     4  11  24  41  62  91 127 164 206 256 312 366
#     4  12  26  40  70  92 130 168 210 260 313 374
#
# _framework density 19.272756000000001
#
# number of rings (size 3 to 8) (size 9 to 14) (size 15 to 20)
#    0.000    1.333    0.833    4.500    4.667    5.333 
#    0.000    1.667    0.000    0.000    0.000    0.000 
#    0.000    0.000    0.000    0.000    0.000    0.000 
#
# Total GULP energy -267984.402681 kJ/mol
# GULP energy per Si atom -5583.008389 kJ/mol
# Density = 1.922889 g / cm^3
# Si number density = 19.272756 Si / 1000 Ang^3
#
#
#
# Elastic Constant Matrix: (Units=GPa)
#
#
# Indices 1 2 3 4 5 6 
#
# 1 41.3787 30.8650 36.2441 0.0000 0.0000 0.0000
# 2 30.8650 96.3175 45.9210 0.0000 0.0000 0.0000
# 3 36.2441 45.9210 134.1663 0.0000 0.0000 0.0000
# 4 0.0000 0.0000 0.0000 31.0622 0.0000 0.0000
# 5 0.0000 0.0000 0.0000 0.0000 1.3060 0.0000
# 6 0.0000 0.0000 0.0000 0.0000 0.0000 -2.2727
#
#
#
# Elastic Compliance Matrix: (Units=1/GPa)
#
#
# Indices 1 2 3 4 5 6 
#
# 1 0.036550 -0.008371 -0.007009 0.000000 0.000000 0.000000
# 2 -0.008371 0.014324 -0.002641 0.000000 0.000000 0.000000
# 3 -0.007009 -0.002641 0.010251 0.000000 0.000000 0.000000
# 4 0.000000 0.000000 0.000000 0.032194 0.000000 0.000000
# 5 0.000000 0.000000 0.000000 0.000000 0.765701 0.000000
# 6 0.000000 0.000000 0.000000 0.000000 0.000000 -0.440013
#
#
# Mechanical properties :
#
#
# Convention : Reuss Voigt Hill
#
# Bulk Modulus (GPa) = 39.86753 55.32476 47.59614
# Shear Modulus (GPa) = 10.78959 16.60792 13.69875
#
# Velocity S-wave (km/s) = 2.36865 2.93871 2.66894
# Velocity P-wave (km/s) = 5.31145 6.34691 5.85213
#
# Compressibility (1/GPa) = 0.02508307
#
# Stress axis : x y z
#
# Youngs Moduli (GPa) = 27.35973 69.81229 97.55318
#
# Poissons Ratio (x) = 0.58440 0.68371
# Poissons Ratio (y) = 0.22903 0.25767
# Poissons Ratio (z) = 0.19175 0.18440
#
# Static dielectric constant tensor:
#      x y z
#    x 1.676470 0.000000 0.000000 
#    y 0.000000 1.392550 0.000000 
#    z 0.000000 0.000000 1.738710 
# 
# From -- ./inp_files/10115.got.cif
#   From: 2010.05.17/outbox.cif.g08.bks.cpg/sg57_6_cif.got.tgz:10115.got - 2010.06.03 13:58:18.
