data_PCOD9437023
_publ_section_title
;
Structure prediction by ZEFSAII (Michael W. Deem and Ramdas Pophale) SiO2 
 PCOD9437023
Probable space group: P B C M
;
_chemical_formula_sum "Si O2"
_cell_formula_units_Z 56
_cell_length_a 11.736598
_cell_length_b 20.807188
_cell_length_c 11.071444
_cell_angle_alpha 90.000000
_cell_angle_beta 90.000000
_cell_angle_gamma 90.000000
_cell_volume 2703.708637
_symmetry_space_group_name_H-M "P B C M"
_symmetry_group_IT_number 57
_symmetry_cell_setting 'orthorhombic'
loop_
_space_group_symop_operation_xyz
x,y,z
-x,-y,1/2+z
x,1/2-y,-z
-x,1/2+y,1/2-z
-x,-y,-z
x,y,1/2-z
-x,1/2+y,z
x,1/2-y,1/2+z
loop_
_atom_site_type_symbol
_atom_site_label
_atom_site_fract_x
_atom_site_fract_y
_atom_site_fract_z
Si Si1 0.886587 0.043084 0.883736
Si Si2 0.425258 0.510053 0.381058
Si Si3 0.290874 0.118754 0.884415
Si Si4 0.917540 0.598800 0.463127
Si Si5 0.523791 0.199484 0.610086
Si Si6 0.293083 0.623766 0.470773
Si Si7 0.090047 0.705687 0.383264
O O1 0.858973 0.064426 0.750000
O O2 0.794697 0.072865 0.973114
O O3 0.007850 0.071601 0.924859
O O4 0.889727 0.966125 0.891130
O O5 0.500000 0.500000 0.500000
O O6 0.483469 0.500015 0.250000
O O7 0.326583 0.456268 0.387238
O O8 0.375933 0.581639 0.388327
O O9 0.245909 0.133496 0.750000
O O10 0.196632 0.130643 0.985383
O O11 0.408251 0.157602 0.899052
O O12 0.997567 0.648501 0.393185
O O13 0.519585 0.250000 0.500000
O O14 0.531527 0.222927 0.750000
O O15 0.632693 0.156113 0.576072
O O16 0.215726 0.675378 0.401678
O O17 0.070160 0.750000 0.500000
O O18 0.082251 0.736176 0.250000
#
# Coordination Sequence:
#
# PCOD9437023 Si02
#       7
#     8   8   8   8   8   8   8
#     4  10  20  34  59  95 129 161 202 257 319 381
#     4  11  22  39  63  96 134 168 206 258 322 387
#     4  10  21  40  63  91 129 170 212 259 318 381
#     4  10  21  39  61  91 126 167 212 257 316 379
#     4  11  25  44  65  91 127 170 218 266 313 377
#     4  11  22  40  67  97 127 163 210 260 326 382
#     4  11  26  45  66  93 128 171 219 267 315 374
#
# _framework density 20.712289999999999
#
# number of rings (size 3 to 8) (size 9 to 14) (size 15 to 20)
#    0.000    1.429    2.857    2.143    0.000    6.857 
#    0.000    2.857    0.000    0.000    0.000    0.000 
#    0.000    0.000    0.000    0.000    0.000    0.000 
#
# Total GULP energy -312646.748644 kJ/mol
# GULP energy per Si atom -5582.977654 kJ/mol
# Density = 2.066515 g / cm^3
# Si number density = 20.712290 Si / 1000 Ang^3
#
#
#
# Elastic Constant Matrix: (Units=GPa)
#
#
# Indices 1 2 3 4 5 6 
#
# 1 75.6603 6.4436 33.5676 0.0000 0.0000 0.0000
# 2 6.4436 63.6960 31.9409 0.0000 0.0000 0.0000
# 3 33.5676 31.9409 147.3809 0.0000 0.0000 0.0000
# 4 0.0000 0.0000 0.0000 18.1885 0.0000 0.0000
# 5 0.0000 0.0000 0.0000 0.0000 4.7588 0.0000
# 6 0.0000 0.0000 0.0000 0.0000 0.0000 22.5332
#
#
#
# Elastic Compliance Matrix: (Units=1/GPa)
#
#
# Indices 1 2 3 4 5 6 
#
# 1 0.014705 0.000215 -0.003396 0.000000 0.000000 0.000000
# 2 0.000215 0.017617 -0.003867 0.000000 0.000000 0.000000
# 3 -0.003396 -0.003867 0.008397 0.000000 0.000000 0.000000
# 4 0.000000 0.000000 0.000000 0.054980 0.000000 0.000000
# 5 0.000000 0.000000 0.000000 0.000000 0.210135 0.000000
# 6 0.000000 0.000000 0.000000 0.000000 0.000000 0.044379
#
#
# Mechanical properties :
#
#
# Convention : Reuss Voigt Hill
#
# Bulk Modulus (GPa) = 37.56073 47.84906 42.70489
# Shear Modulus (GPa) = 13.39826 23.41513 18.40669
#
# Velocity S-wave (km/s) = 2.54613 3.36593 2.98432
# Velocity P-wave (km/s) = 5.17857 6.18530 5.70419
#
# Compressibility (1/GPa) = 0.02662355
#
# Stress axis : x y z
#
# Youngs Moduli (GPa) = 68.00277 56.76347 119.09464
#
# Poissons Ratio (x) = -0.01222 0.40444
# Poissons Ratio (y) = -0.01464 0.46054
# Poissons Ratio (z) = 0.23093 0.21951
#
# Static dielectric constant tensor:
#      x y z
#    x 1.735490 0.000000 0.000000 
#    y 0.000000 1.757830 0.000000 
#    z 0.000000 0.000000 1.757690 
# 
# From -- ./inp_files/13104.got.cif
#   From: 2010.05.17/outbox.cif.g08.bks.cpg/sg57_7_cif.got.tgz:13104.got - 2010.06.03 13:58:18.
