data_PCOD9437535
_publ_section_title
;
Structure prediction by ZEFSAII (Michael W. Deem and Ramdas Pophale) SiO2 
 PCOD9437535
Probable space group: P B C M
;
_chemical_formula_sum "Si O2"
_cell_formula_units_Z 64
_cell_length_a 11.965312
_cell_length_b 14.995829
_cell_length_c 15.569726
_cell_angle_alpha 90.000000
_cell_angle_beta 90.000000
_cell_angle_gamma 90.000000
_cell_volume 2793.672397
_symmetry_space_group_name_H-M "P B C M"
_symmetry_group_IT_number 57
_symmetry_cell_setting 'orthorhombic'
loop_
_space_group_symop_operation_xyz
x,y,z
-x,-y,1/2+z
x,1/2-y,-z
-x,1/2+y,1/2-z
-x,-y,-z
x,y,1/2-z
-x,1/2+y,z
x,1/2-y,1/2+z
loop_
_atom_site_type_symbol
_atom_site_label
_atom_site_fract_x
_atom_site_fract_y
_atom_site_fract_z
Si Si1 0.779347 0.173507 0.938962
Si Si2 0.814548 0.069458 0.396873
Si Si3 0.428793 0.637590 0.344310
Si Si4 0.947764 0.547947 0.343158
Si Si5 0.165886 0.383103 0.481502
Si Si6 0.007801 0.834290 0.151882
Si Si7 0.421409 0.353257 0.500952
Si Si8 0.436445 0.855060 0.153781
O O1 0.683582 0.123149 0.887555
O O2 0.875959 0.210748 0.877746
O O3 0.727828 0.250000 0.000000
O O4 0.834878 0.110533 0.009046
O O5 0.698129 0.106497 0.361593
O O6 0.925576 0.084068 0.343001
O O7 0.809067 0.964823 0.416595
O O8 0.463938 0.606587 0.250000
O O9 0.511087 0.605679 0.419613
O O10 0.432933 0.746148 0.342241
O O11 0.894417 0.569325 0.250000
O O12 0.893185 0.585016 0.430440
O O13 0.959677 0.440129 0.348471
O O14 0.086657 0.320997 0.421390
O O15 0.289025 0.353385 0.508202
O O16 0.975676 0.811133 0.250000
O O17 0.455323 0.250000 0.500000
O O18 0.467561 0.387833 0.410186
O O19 0.449030 0.888046 0.250000
#
# Coordination Sequence:
#
# PCOD9437535 Si02
#       8
#     8   8   8   8   8   8   8   8
#     4  12  19  34  61  87 117 148 186 242 297 341
#     4  11  19  37  60  85 115 146 192 238 294 342
#     4  10  20  37  60  83 112 147 189 241 294 344
#     4  10  20  37  59  84 116 155 192 234 289 348
#     4  11  22  38  61  82 117 160 195 236 284 346
#     4  10  21  38  59  84 116 156 194 231 288 352
#     4  10  22  40  59  80 112 155 195 236 286 342
#     4  10  20  36  58  84 111 150 192 235 292 345
#
# _framework density 22.908915
#
# number of rings (size 3 to 8) (size 9 to 14) (size 15 to 20)
#    0.000    1.500    5.000    1.875    0.000    2.500 
#    0.000    0.000    0.000    0.000    0.000    0.000 
#    0.000    0.000    0.000    0.000    0.000    0.000 
#
# Total GULP energy -357399.059449 kJ/mol
# GULP energy per Si atom -5584.360304 kJ/mol
# Density = 2.285677 g / cm^3
# Si number density = 22.908915 Si / 1000 Ang^3
#
#
#
# Elastic Constant Matrix: (Units=GPa)
#
#
# Indices 1 2 3 4 5 6 
#
# 1 140.5493 -1.9469 81.0693 0.0000 0.0000 0.0000
# 2 -1.9469 28.0822 -0.0831 0.0000 0.0000 0.0000
# 3 81.0693 -0.0831 208.3173 0.0000 0.0000 0.0000
# 4 0.0000 0.0000 0.0000 6.4766 0.0000 0.0000
# 5 0.0000 0.0000 0.0000 0.0000 -5.3137 0.0000
# 6 0.0000 0.0000 0.0000 0.0000 0.0000 13.3703
#
#
#
# Elastic Compliance Matrix: (Units=1/GPa)
#
#
# Indices 1 2 3 4 5 6 
#
# 1 0.009185 0.000626 -0.003574 0.000000 0.000000 0.000000
# 2 0.000626 0.035652 -0.000229 0.000000 0.000000 0.000000
# 3 -0.003574 -0.000229 0.006191 0.000000 0.000000 0.000000
# 4 0.000000 0.000000 0.000000 0.154402 0.000000 0.000000
# 5 0.000000 0.000000 0.000000 0.000000 -0.188192 0.000000
# 6 0.000000 0.000000 0.000000 0.000000 0.000000 0.074793
#
#
# Mechanical properties :
#
#
# Convention : Reuss Voigt Hill
#
# Bulk Modulus (GPa) = 22.38447 59.44750 40.91599
# Shear Modulus (GPa) = 44.13927 22.76727 33.45327
#
# Velocity S-wave (km/s) = 4.39421 3.15591 3.82550
# Velocity P-wave (km/s) = 5.96136 6.26781 6.11651
#
# Compressibility (1/GPa) = 0.04467382
#
# Stress axis : x y z
#
# Youngs Moduli (GPa) = 108.86961 28.04859 161.51767
#
# Poissons Ratio (x) = -0.01756 0.57732
# Poissons Ratio (y) = -0.06818 0.03706
# Poissons Ratio (z) = 0.38914 0.00644
#
# Static dielectric constant tensor:
#      x y z
#    x 1.819380 0.000000 0.000000 
#    y 0.000000 1.934480 0.000000 
#    z 0.000000 0.000000 1.857800 
# 
# From -- ./inp_files/17970.got.cif
#   From: 2010.05.17/outbox.cif.g08.bks.cpg/sg57_9_cif.got.tgz:17970.got - 2010.06.03 13:58:18.
