data_PCOD9437312
_publ_section_title
;
Structure prediction by ZEFSAII (Michael W. Deem and Ramdas Pophale) SiO2 
 PCOD9437312
Probable space group: P B C M
;
_chemical_formula_sum "Si O2"
_cell_formula_units_Z 44
_cell_length_a 9.259593
_cell_length_b 14.362049
_cell_length_c 17.300618
_cell_angle_alpha 90.000000
_cell_angle_beta 90.000000
_cell_angle_gamma 90.000000
_cell_volume 2300.752587
_symmetry_space_group_name_H-M "P B C M"
_symmetry_group_IT_number 57
_symmetry_cell_setting 'orthorhombic'
loop_
_space_group_symop_operation_xyz
x,y,z
-x,-y,1/2+z
x,1/2-y,-z
-x,1/2+y,1/2-z
-x,-y,-z
x,y,1/2-z
-x,1/2+y,z
x,1/2-y,1/2+z
loop_
_atom_site_type_symbol
_atom_site_label
_atom_site_fract_x
_atom_site_fract_y
_atom_site_fract_z
Si Si1 0.269640 0.104969 0.525004
Si Si2 0.502943 0.250000 0.500000
Si Si3 0.709137 0.099430 0.522521
Si Si4 0.080706 0.034893 0.834780
Si Si5 0.164046 0.809880 0.162081
Si Si6 0.010644 0.641166 0.072010
O O1 0.390603 0.181577 0.543280
O O2 0.196147 0.069871 0.603334
O O3 0.144195 0.147023 0.469374
O O4 0.327226 0.009526 0.484288
O O5 0.611877 0.168921 0.470183
O O6 0.711071 0.145718 0.607748
O O7 0.873638 0.109366 0.492686
O O8 0.144879 0.021156 0.750000
O O9 0.954655 0.109832 0.830565
O O10 0.009596 0.940699 0.865740
O O11 0.206821 0.782117 0.250000
O O12 0.080692 0.729345 0.114499
#
# Coordination Sequence:
#
# PCOD9437312 Si02
#       6
#     8   4   8   8   8   8
#     4  11  22  38  62  90 118 157 202 252 297 354
#     4  12  24  36  62  84 122 158 208 242 288 358
#     4  11  21  40  60  85 115 158 205 244 288 357
#     4  10  20  35  58  91 118 145 190 254 310 350
#     4  11  20  33  58  88 119 147 188 248 307 350
#     4  11  19  37  63  87 114 150 201 252 297 352
#
# _framework density 19.124175999999999
#
# number of rings (size 3 to 8) (size 9 to 14) (size 15 to 20)
#    0.000    1.091    5.455    3.273    0.000    0.000 
#    0.000    0.909    0.000    3.273    0.000    0.000 
#    0.000    0.000    0.000    0.000    0.000    0.000 
#
# Total GULP energy -245055.388865 kJ/mol
# GULP energy per Si atom -5569.440656 kJ/mol
# Density = 1.908065 g / cm^3
# Si number density = 19.124176 Si / 1000 Ang^3
#
#
#
# Elastic Constant Matrix: (Units=GPa)
#
#
# Indices 1 2 3 4 5 6 
#
# 1 75.4624 22.2555 10.9077 0.0000 0.0000 0.0000
# 2 22.2555 101.0036 25.6611 0.0000 0.0000 0.0000
# 3 10.9077 25.6611 110.7383 0.0000 0.0000 0.0000
# 4 0.0000 0.0000 0.0000 65.9588 0.0000 0.0000
# 5 0.0000 0.0000 0.0000 0.0000 7.0831 0.0000
# 6 0.0000 0.0000 0.0000 0.0000 0.0000 35.6007
#
#
#
# Elastic Compliance Matrix: (Units=1/GPa)
#
#
# Indices 1 2 3 4 5 6 
#
# 1 0.014226 -0.002952 -0.000717 0.000000 0.000000 0.000000
# 2 -0.002952 0.011133 -0.002289 0.000000 0.000000 0.000000
# 3 -0.000717 -0.002289 0.009631 0.000000 0.000000 0.000000
# 4 0.000000 0.000000 0.000000 0.015161 0.000000 0.000000
# 5 0.000000 0.000000 0.000000 0.000000 0.141182 0.000000
# 6 0.000000 0.000000 0.000000 0.000000 0.000000 0.028089
#
#
# Mechanical properties :
#
#
# Convention : Reuss Voigt Hill
#
# Bulk Modulus (GPa) = 43.34045 44.98367 44.16206
# Shear Modulus (GPa) = 20.91788 36.95385 28.93587
#
# Velocity S-wave (km/s) = 3.31084 4.40057 3.89402
# Velocity P-wave (km/s) = 6.10962 7.02802 6.58485
#
# Compressibility (1/GPa) = 0.02307313
#
# Stress axis : x y z
#
# Youngs Moduli (GPa) = 70.29376 89.82530 103.82771
#
# Poissons Ratio (x) = 0.26520 0.07445
# Poissons Ratio (y) = 0.20754 0.23766
# Poissons Ratio (z) = 0.05041 0.20561
#
# Static dielectric constant tensor:
#      x y z
#    x 1.688180 0.000000 0.000000 
#    y 0.000000 1.720690 0.000000 
#    z 0.000000 0.000000 1.709400 
# 
# From -- ./inp_files/20831.got.cif
#   From: 2010.05.17/outbox.cif.g08.bks.cpg/sg57_11_cif.got.tgz:20831.got - 2010.06.03 13:58:18.
