data_PCOD9437391
_publ_section_title
;
Structure prediction by ZEFSAII (Michael W. Deem and Ramdas Pophale) SiO2 
 PCOD9437391
Probable space group: P B C M
;
_chemical_formula_sum "Si O2"
_cell_formula_units_Z 40
_cell_length_a 14.557558
_cell_length_b 9.318240
_cell_length_c 14.281018
_cell_angle_alpha 90.000000
_cell_angle_beta 90.000000
_cell_angle_gamma 90.000000
_cell_volume 1937.231792
_symmetry_space_group_name_H-M "P B C M"
_symmetry_group_IT_number 57
_symmetry_cell_setting 'orthorhombic'
loop_
_space_group_symop_operation_xyz
x,y,z
-x,-y,1/2+z
x,1/2-y,-z
-x,1/2+y,1/2-z
-x,-y,-z
x,y,1/2-z
-x,1/2+y,z
x,1/2-y,1/2+z
loop_
_atom_site_type_symbol
_atom_site_label
_atom_site_fract_x
_atom_site_fract_y
_atom_site_fract_z
Si Si1 0.296569 0.363146 0.649385
Si Si2 0.718315 0.282583 0.750000
Si Si3 0.644338 0.595300 0.750000
Si Si4 0.962856 0.552090 0.600309
Si Si5 0.176639 0.250000 0.500000
Si Si6 0.122652 0.754081 0.613175
Si Si7 0.571330 0.448471 0.250000
O O1 0.245662 0.392733 0.750000
O O2 0.330403 0.198847 0.662843
O O3 0.236569 0.365945 0.557183
O O4 0.385306 0.463984 0.661735
O O5 0.702474 0.451862 0.750000
O O6 0.779357 0.236313 0.838732
O O7 0.620701 0.204530 0.750000
O O8 0.536896 0.560955 0.750000
O O9 0.886189 0.670974 0.576569
O O10 0.918298 0.409577 0.642164
O O11 0.000000 0.500000 0.500000
O O12 0.049784 0.632939 0.643510
O O13 0.129793 0.750000 0.500000
#
# Coordination Sequence:
#
# PCOD9437391 Si02
#       7
#     8   4   4   8   4   8   4
#     4   8  22  36  59  88 107 157 191 231 290 352
#     4  12  22  36  64  86 114 152 194 244 282 352
#     4   9  19  45  59  85 117 149 180 245 313 341
#     4  10  20  36  55  78 117 160 183 239 276 320
#     4  12  18  38  62  78 122 154 200 228 280 340
#     4  10  23  38  54  86 117 157 196 233 286 323
#     4   9  21  39  65  83 117 145 190 249 297 343
#
# _framework density 20.648019000000001
#
# number of rings (size 3 to 8) (size 9 to 14) (size 15 to 20)
#    1.200    0.800    3.000    2.400    5.600    0.800 
#    1.800    1.000    4.400    0.000    0.000    0.000 
#    0.000    0.000    0.000    0.000    0.000    0.000 
#
# Total GULP energy -222885.171344 kJ/mol
# GULP energy per Si atom -5572.129284 kJ/mol
# Density = 2.060102 g / cm^3
# Si number density = 20.648019 Si / 1000 Ang^3
#
#
#
# Elastic Constant Matrix: (Units=GPa)
#
#
# Indices 1 2 3 4 5 6 
#
# 1 81.4057 8.3320 13.6064 0.0000 0.0000 0.0000
# 2 8.3320 80.8967 -6.5593 0.0000 0.0000 0.0000
# 3 13.6064 -6.5593 68.3658 0.0000 0.0000 0.0000
# 4 0.0000 0.0000 0.0000 1.5703 0.0000 0.0000
# 5 0.0000 0.0000 0.0000 0.0000 17.7819 0.0000
# 6 0.0000 0.0000 0.0000 0.0000 0.0000 30.9102
#
#
#
# Elastic Compliance Matrix: (Units=1/GPa)
#
#
# Indices 1 2 3 4 5 6 
#
# 1 0.012896 -0.001548 -0.002715 0.000000 0.000000 0.000000
# 2 -0.001548 0.012644 0.001521 0.000000 0.000000 0.000000
# 3 -0.002715 0.001521 0.015314 0.000000 0.000000 0.000000
# 4 0.000000 0.000000 0.000000 0.636828 0.000000 0.000000
# 5 0.000000 0.000000 0.000000 0.000000 0.056237 0.000000
# 6 0.000000 0.000000 0.000000 0.000000 0.000000 0.032352
#
#
# Mechanical properties :
#
#
# Convention : Reuss Voigt Hill
#
# Bulk Modulus (GPa) = 28.27291 29.04738 28.66015
# Shear Modulus (GPa) = 6.38125 24.40506 15.39316
#
# Velocity S-wave (km/s) = 1.75989 3.44169 2.73335
# Velocity P-wave (km/s) = 4.22518 5.46736 4.88591
#
# Compressibility (1/GPa) = 0.03536954
#
# Stress axis : x y z
#
# Youngs Moduli (GPa) = 77.54052 79.08712 65.30158
#
# Poissons Ratio (x) = 0.12246 0.17731
# Poissons Ratio (y) = 0.12007 -0.09934
# Poissons Ratio (z) = 0.21054 -0.12032
#
# Static dielectric constant tensor:
#      x y z
#    x 1.725450 0.000000 0.000000 
#    y 0.000000 1.453680 0.000000 
#    z 0.000000 0.000000 1.727670 
# 
# From -- ./inp_files/18301.got.cif
#   From: 2010.05.17/outbox.cif.g08.bks.cpg/sg57_10_cif.got.tgz:18301.got - 2010.06.03 13:58:18.
