data_PCOD9437080
_publ_section_title
;
Structure prediction by ZEFSAII (Michael W. Deem and Ramdas Pophale) SiO2 
 PCOD9437080
Probable space group: P B C M
;
_chemical_formula_sum "Si O2"
_cell_formula_units_Z 48
_cell_length_a 31.727803
_cell_length_b 9.546932
_cell_length_c 8.609907
_cell_angle_alpha 90.000000
_cell_angle_beta 90.000000
_cell_angle_gamma 90.000000
_cell_volume 2607.968190
_symmetry_space_group_name_H-M "P B C M"
_symmetry_group_IT_number 57
_symmetry_cell_setting 'orthorhombic'
loop_
_space_group_symop_operation_xyz
x,y,z
-x,-y,1/2+z
x,1/2-y,-z
-x,1/2+y,1/2-z
-x,-y,-z
x,y,1/2-z
-x,1/2+y,z
x,1/2-y,1/2+z
loop_
_atom_site_type_symbol
_atom_site_label
_atom_site_fract_x
_atom_site_fract_y
_atom_site_fract_z
Si Si1 0.128572 0.407243 0.563005
Si Si2 0.367749 0.593120 0.937416
Si Si3 0.711044 0.592797 0.437900
Si Si4 0.462583 0.906141 0.064021
Si Si5 0.791238 0.092737 0.562676
Si Si6 0.037859 0.092904 0.564244
O O1 0.136328 0.250000 0.500000
O O2 0.126255 0.400860 0.750000
O O3 0.166322 0.510362 0.516742
O O4 0.083591 0.455851 0.496599
O O5 0.366459 0.600110 0.750000
O O6 0.331627 0.486216 0.988928
O O7 0.415156 0.548145 0.983273
O O8 0.360276 0.750000 0.000000
O O9 0.713696 0.750000 0.500000
O O10 0.711187 0.598069 0.250000
O O11 0.750934 0.498895 0.487657
O O12 0.464247 0.904952 0.250000
O O13 0.467810 0.750000 0.000000
O O14 0.500000 0.000000 0.000000
O O15 0.789753 0.250000 0.500000
O O16 0.790517 0.098838 0.750000
O O17 0.032750 0.250000 0.500000
O O18 0.037721 0.094117 0.750000
O O19 0.000000 0.000000 0.500000
#
# Coordination Sequence:
#
# PCOD9437080 Si02
#       6
#     8   8   8   8   8   8
#     4  10  20  36  56  81 110 143 182 224 268 320
#     4   9  19  35  55  78 106 138 178 221 267 319
#     4  10  21  37  55  80 109 140 177 219 264 317
#     4  10  20  35  54  78 107 142 180 224 272 324
#     4  10  22  37  56  81 110 141 178 220 265 317
#     4  11  22  38  59  84 113 148 186 228 275 325
#
# _framework density 18.405131000000001
#
# number of rings (size 3 to 8) (size 9 to 14) (size 15 to 20)
#    0.000    2.000    0.000    4.500    0.000    4.667 
#    0.000    3.333    0.000    0.000    0.000    0.000 
#    0.000    0.000    0.000    0.000    0.000    0.000 
#
# Total GULP energy -268066.361397 kJ/mol
# GULP energy per Si atom -5584.715862 kJ/mol
# Density = 1.836324 g / cm^3
# Si number density = 18.405131 Si / 1000 Ang^3
#
#
#
# Elastic Constant Matrix: (Units=GPa)
#
#
# Indices 1 2 3 4 5 6 
#
# 1 217.2837 133.3529 55.5916 0.0000 0.0000 0.0000
# 2 133.3529 133.3573 36.6021 0.0000 0.0000 0.0000
# 3 55.5916 36.6021 59.1249 0.0000 0.0000 0.0000
# 4 0.0000 0.0000 0.0000 37.1179 0.0000 0.0000
# 5 0.0000 0.0000 0.0000 0.0000 24.6504 0.0000
# 6 0.0000 0.0000 0.0000 0.0000 0.0000 43.0162
#
#
#
# Elastic Compliance Matrix: (Units=1/GPa)
#
#
# Indices 1 2 3 4 5 6 
#
# 1 0.013057 -0.011670 -0.005052 0.000000 0.000000 0.000000
# 2 -0.011670 0.019464 -0.001077 0.000000 0.000000 0.000000
# 3 -0.005052 -0.001077 0.022330 0.000000 0.000000 0.000000
# 4 0.000000 0.000000 0.000000 0.026941 0.000000 0.000000
# 5 0.000000 0.000000 0.000000 0.000000 0.040567 0.000000
# 6 0.000000 0.000000 0.000000 0.000000 0.000000 0.023247
#
#
# Mechanical properties :
#
#
# Convention : Reuss Voigt Hill
#
# Bulk Modulus (GPa) = 51.93978 95.65102 73.79540
# Shear Modulus (GPa) = 26.64927 33.23819 29.94373
#
# Velocity S-wave (km/s) = 3.80929 4.25422 4.03789
# Velocity P-wave (km/s) = 6.90139 8.73005 7.86902
#
# Compressibility (1/GPa) = 0.01925307
#
# Stress axis : x y z
#
# Youngs Moduli (GPa) = 76.58687 51.37757 44.78214
#
# Poissons Ratio (x) = 0.59957 0.22625
# Poissons Ratio (y) = 0.89376 0.04822
# Poissons Ratio (z) = 0.38694 0.05532
#
# Static dielectric constant tensor:
#      x y z
#    x 1.645470 0.000000 0.000000 
#    y 0.000000 1.577400 0.000000 
#    z 0.000000 0.000000 1.629490 
# 
# From -- ./inp_files/9921.got.cif
#   From: 2010.05.17/outbox.cif.g08.bks.cpg/sg57_5_cif.got.tgz:9921.got - 2010.06.03 13:58:18.
