data_PCOD9437918
_publ_section_title
;
Structure prediction by ZEFSAII (Michael W. Deem and Ramdas Pophale) SiO2 
 PCOD9437918
Probable space group: P B C M
;
_chemical_formula_sum "Si O2"
_cell_formula_units_Z 64
_cell_length_a 14.393025
_cell_length_b 12.108949
_cell_length_c 18.002912
_cell_angle_alpha 90.000000
_cell_angle_beta 90.000000
_cell_angle_gamma 90.000000
_cell_volume 3137.626818
_symmetry_space_group_name_H-M "P B C M"
_symmetry_group_IT_number 57
_symmetry_cell_setting 'orthorhombic'
loop_
_space_group_symop_operation_xyz
x,y,z
-x,-y,1/2+z
x,1/2-y,-z
-x,1/2+y,1/2-z
-x,-y,-z
x,y,1/2-z
-x,1/2+y,z
x,1/2-y,1/2+z
loop_
_atom_site_type_symbol
_atom_site_label
_atom_site_fract_x
_atom_site_fract_y
_atom_site_fract_z
Si Si1 0.875822 0.060291 0.335640
Si Si2 0.795754 0.601446 0.339338
Si Si3 0.358749 0.269945 0.161357
Si Si4 0.163737 0.731236 0.917564
Si Si5 0.656158 0.027432 0.337456
Si Si6 0.544227 0.274674 0.913198
Si Si7 0.676620 0.385374 0.337023
Si Si8 0.038302 0.983096 0.082488
O O1 0.890810 0.088376 0.250000
O O2 0.891583 0.163601 0.389378
O O3 0.767811 0.032178 0.345639
O O4 0.950999 0.972450 0.362222
O O5 0.814799 0.594584 0.250000
O O6 0.741606 0.715348 0.355235
O O7 0.720902 0.503665 0.357386
O O8 0.889076 0.574364 0.385090
O O9 0.372838 0.254600 0.250000
O O10 0.366652 0.400176 0.145245
O O11 0.440279 0.209904 0.116960
O O12 0.243875 0.702694 0.859120
O O13 0.096928 0.627944 0.919559
O O14 0.203829 0.750000 0.000000
O O15 0.634348 0.049452 0.250000
O O16 0.604603 0.119018 0.387172
O O17 0.586628 0.163711 0.876029
O O18 0.546087 0.250000 0.000000
O O19 0.659813 0.386550 0.250000
O O20 0.000000 0.000000 0.000000
#
# Coordination Sequence:
#
# PCOD9437918 Si02
#       8
#     8   8   8   8   8   8   8   8
#     4  11  23  40  64  93 126 168 218 271 330 399
#     4   9  21  41  67  97 129 169 225 277 333 399
#     4  10  23  45  67  93 132 176 220 275 335 395
#     4  11  21  38  61  92 128 163 215 269 335 389
#     4  10  23  43  68  97 129 170 222 276 335 400
#     4  12  25  40  63  98 133 170 220 275 335 405
#     4  10  20  37  64  93 122 166 217 273 328 389
#     4  11  23  40  63  97 131 175 217 271 333 401
#
# _framework density 20.397580999999999
#
# number of rings (size 3 to 8) (size 9 to 14) (size 15 to 20)
#    0.000    1.500    2.500    2.250    1.750    3.000 
#    2.250    1.250    0.000    0.000    0.000    0.000 
#    0.000    0.000    0.000    0.000    0.000    0.000 
#
# Total GULP energy -357338.340593 kJ/mol
# GULP energy per Si atom -5583.411572 kJ/mol
# Density = 2.035116 g / cm^3
# Si number density = 20.397581 Si / 1000 Ang^3
#
#
#
# Elastic Constant Matrix: (Units=GPa)
#
#
# Indices 1 2 3 4 5 6 
#
# 1 90.2889 28.6139 46.0200 0.0000 0.0000 0.0000
# 2 28.6139 66.3030 31.9530 0.0000 0.0000 0.0000
# 3 46.0200 31.9530 86.1314 0.0000 0.0000 0.0000
# 4 0.0000 0.0000 0.0000 21.3939 0.0000 0.0000
# 5 0.0000 0.0000 0.0000 0.0000 -41.3975 0.0000
# 6 0.0000 0.0000 0.0000 0.0000 0.0000 19.5372
#
#
#
# Elastic Compliance Matrix: (Units=1/GPa)
#
#
# Indices 1 2 3 4 5 6 
#
# 1 0.015809 -0.003351 -0.007204 0.000000 0.000000 0.000000
# 2 -0.003351 0.019076 -0.005286 0.000000 0.000000 0.000000
# 3 -0.007204 -0.005286 0.017420 0.000000 0.000000 0.000000
# 4 0.000000 0.000000 0.000000 0.046742 0.000000 0.000000
# 5 0.000000 0.000000 0.000000 0.000000 -0.024156 0.000000
# 6 0.000000 0.000000 0.000000 0.000000 0.000000 0.051184
#
#
# Mechanical properties :
#
#
# Convention : Reuss Voigt Hill
#
# Bulk Modulus (GPa) = 48.48877 50.65522 49.57199
# Shear Modulus (GPa) = 30.37059 8.98249 19.67654
#
# Velocity S-wave (km/s) = 3.86285 2.10078 3.10925
# Velocity P-wave (km/s) = 6.61203 5.54727 6.10291
#
# Compressibility (1/GPa) = 0.02062333
#
# Stress axis : x y z
#
# Youngs Moduli (GPa) = 63.25396 52.42168 57.40438
#
# Poissons Ratio (x) = 0.17567 0.41353
# Poissons Ratio (y) = 0.21197 0.30346
# Poissons Ratio (z) = 0.45567 0.27712
#
# Static dielectric constant tensor:
#      x y z
#    x 1.729650 0.000000 0.000000 
#    y 0.000000 1.800380 0.000000 
#    z 0.000000 0.000000 1.702090 
# 
# From -- ./inp_files/22633.got.cif
#   From: 2010.05.17/outbox.cif.g08.bks.cpg/sg57_12_cif.got.tgz:22633.got - 2010.06.03 13:58:18.
