data_PCOD9437673
_publ_section_title
;
Structure prediction by ZEFSAII (Michael W. Deem and Ramdas Pophale) SiO2 
 PCOD9437673
Probable space group: P B C M
;
_chemical_formula_sum "Si O2"
_cell_formula_units_Z 64
_cell_length_a 8.034725
_cell_length_b 20.695304
_cell_length_c 15.054774
_cell_angle_alpha 90.000000
_cell_angle_beta 90.000000
_cell_angle_gamma 90.000000
_cell_volume 2503.324026
_symmetry_space_group_name_H-M "P B C M"
_symmetry_group_IT_number 57
_symmetry_cell_setting 'orthorhombic'
loop_
_space_group_symop_operation_xyz
x,y,z
-x,-y,1/2+z
x,1/2-y,-z
-x,1/2+y,1/2-z
-x,-y,-z
x,y,1/2-z
-x,1/2+y,z
x,1/2-y,1/2+z
loop_
_atom_site_type_symbol
_atom_site_label
_atom_site_fract_x
_atom_site_fract_y
_atom_site_fract_z
Si Si1 0.565649 0.917733 0.143515
Si Si2 0.671361 0.725010 0.598583
Si Si3 0.148199 0.087428 0.350860
Si Si4 0.484363 0.140096 0.147646
Si Si5 0.800278 0.100749 0.851088
Si Si6 0.885458 0.992458 0.146183
Si Si7 0.000238 0.229608 0.155670
Si Si8 0.734439 0.185563 0.482892
O O1 0.593633 0.911291 0.250000
O O2 0.586341 0.845157 0.104052
O O3 0.372949 0.938387 0.132153
O O4 0.711567 0.965260 0.109686
O O5 0.713130 0.750000 0.500000
O O6 0.574846 0.784383 0.646029
O O7 0.854423 0.718570 0.643148
O O8 0.166447 0.059854 0.250000
O O9 0.333906 0.095067 0.387050
O O10 0.094723 0.161192 0.341111
O O11 0.993894 0.050842 0.396056
O O12 0.522647 0.123362 0.250000
O O13 0.636546 0.136538 0.080412
O O14 0.783355 0.125198 0.750000
O O15 0.972504 0.062602 0.855785
O O16 0.796196 0.153393 0.927796
O O17 0.851533 0.010514 0.250000
O O18 0.912493 0.238661 0.250000
O O19 0.875949 0.216743 0.077167
O O20 0.623519 0.250000 0.500000
#
# Coordination Sequence:
#
# PCOD9437673 Si02
#       8
#     8   8   8   8   8   8   8   8
#     4  10  20  36  61  91 122 163 207 250 314 383
#     4  11  21  35  58  87 123 164 203 257 313 381
#     4   8  17  39  65  89 118 161 209 259 310 373
#     4  10  20  38  63  87 121 165 209 256 315 373
#     4  10  23  42  62  91 127 163 208 261 316 384
#     4   9  19  38  65  91 122 165 211 256 315 378
#     4  10  22  39  61  88 123 163 213 260 311 380
#     4  12  25  39  57  92 127 163 208 263 320 379
#
# _framework density 25.566006999999999
#
# number of rings (size 3 to 8) (size 9 to 14) (size 15 to 20)
#    0.000    2.000    0.000    4.500    3.500    2.000 
#    2.250    1.250    0.000    0.000    0.000    0.000 
#    0.000    0.000    0.000    0.000    0.000    0.000 
#
# Total GULP energy -357675.764681 kJ/mol
# GULP energy per Si atom -5588.683823 kJ/mol
# Density = 2.550782 g / cm^3
# Si number density = 25.566007 Si / 1000 Ang^3
#
#
#
# Elastic Constant Matrix: (Units=GPa)
#
#
# Indices 1 2 3 4 5 6 
#
# 1 89.7579 -6.8231 27.3198 0.0000 0.0000 0.0000
# 2 -6.8231 45.8932 -2.1763 0.0000 0.0000 0.0000
# 3 27.3198 -2.1763 108.4739 0.0000 0.0000 0.0000
# 4 0.0000 0.0000 0.0000 10.1651 0.0000 0.0000
# 5 0.0000 0.0000 0.0000 0.0000 10.7428 0.0000
# 6 0.0000 0.0000 0.0000 0.0000 0.0000 27.0832
#
#
#
# Elastic Compliance Matrix: (Units=1/GPa)
#
#
# Indices 1 2 3 4 5 6 
#
# 1 0.012192 0.001669 -0.003037 0.000000 0.000000 0.000000
# 2 0.001669 0.022039 0.000022 0.000000 0.000000 0.000000
# 3 -0.003037 0.000022 0.009984 0.000000 0.000000 0.000000
# 4 0.000000 0.000000 0.000000 0.098376 0.000000 0.000000
# 5 0.000000 0.000000 0.000000 0.000000 0.093086 0.000000
# 6 0.000000 0.000000 0.000000 0.000000 0.000000 0.036923
#
#
# Mechanical properties :
#
#
# Convention : Reuss Voigt Hill
#
# Bulk Modulus (GPa) = 24.08361 31.19621 27.63991
# Shear Modulus (GPa) = 17.29299 24.65185 20.97242
#
# Velocity S-wave (km/s) = 2.60360 3.10860 2.86724
# Velocity P-wave (km/s) = 4.29871 5.01131 4.66863
#
# Compressibility (1/GPa) = 0.04152201
#
# Stress axis : x y z
#
# Youngs Moduli (GPa) = 82.01848 45.37447 100.15827
#
# Poissons Ratio (x) = -0.07571 0.30421
# Poissons Ratio (y) = -0.13686 -0.00219
# Poissons Ratio (z) = 0.24911 -0.00099
#
# Static dielectric constant tensor:
#      x y z
#    x 2.081690 0.000000 0.000000 
#    y 0.000000 2.074270 0.000000 
#    z 0.000000 0.000000 2.221620 
# 
# From -- ./inp_files/16978.got.cif
#   From: 2010.05.17/outbox.cif.g08.bks.cpg/sg57_9_cif.got.tgz:16978.got - 2010.06.03 13:58:18.
