data_PCOD9437956
_publ_section_title
;
Structure prediction by ZEFSAII (Michael W. Deem and Ramdas Pophale) SiO2 
 PCOD9437956
Probable space group: P B C M
;
_chemical_formula_sum "Si O2"
_cell_formula_units_Z 48
_cell_length_a 17.415253
_cell_length_b 16.168266
_cell_length_c 7.752991
_cell_angle_alpha 90.000000
_cell_angle_beta 90.000000
_cell_angle_gamma 90.000000
_cell_volume 2183.044122
_symmetry_space_group_name_H-M "P B C M"
_symmetry_group_IT_number 57
_symmetry_cell_setting 'orthorhombic'
loop_
_space_group_symop_operation_xyz
x,y,z
-x,-y,1/2+z
x,1/2-y,-z
-x,1/2+y,1/2-z
-x,-y,-z
x,y,1/2-z
-x,1/2+y,z
x,1/2-y,1/2+z
loop_
_atom_site_type_symbol
_atom_site_label
_atom_site_fract_x
_atom_site_fract_y
_atom_site_fract_z
Si Si1 0.836893 0.620608 0.051207
Si Si2 0.694100 0.155477 0.544050
Si Si3 0.845304 0.062605 0.453179
Si Si4 0.005969 0.843783 0.542537
Si Si5 0.673516 0.661403 0.042225
Si Si6 0.589376 0.003892 0.957381
O O1 0.841091 0.648755 0.250000
O O2 0.760681 0.659322 0.971036
O O3 0.920383 0.638972 0.973149
O O4 0.824033 0.522261 0.045984
O O5 0.674887 0.250000 0.500000
O O6 0.697473 0.149361 0.750000
O O7 0.778028 0.129295 0.476220
O O8 0.633366 0.086376 0.479678
O O9 0.852371 0.044271 0.250000
O O10 0.926784 0.096213 0.520609
O O11 0.026943 0.750000 0.500000
O O12 0.004169 0.853561 0.750000
O O13 0.677578 0.654662 0.250000
O O14 0.629638 0.580229 0.978073
O O15 0.637482 0.750000 0.000000
O O16 0.596290 0.004382 0.750000
O O17 0.500000 0.000000 0.000000
#
# Coordination Sequence:
#
# PCOD9437956 Si02
#       6
#     8   8   8   8   8   8
#     4  10  20  38  59  81 118 160 199 250 304 354
#     4  11  23  42  65  91 124 163 204 250 303 360
#     4  11  22  36  57  88 119 157 208 251 299 358
#     4  10  22  36  53  81 117 157 202 251 301 354
#     4  10  21  39  62  90 121 158 200 242 298 358
#     4  10  23  43  65  90 123 158 196 245 305 364
#
# _framework density 21.987645000000001
#
# number of rings (size 3 to 8) (size 9 to 14) (size 15 to 20)
#    0.000    1.667    1.667    2.500    0.000    6.667 
#    0.000    3.333    0.000    0.000    0.000    0.000 
#    0.000    0.000    0.000    0.000    0.000    0.000 
#
# Total GULP energy -268265.815517 kJ/mol
# GULP energy per Si atom -5588.871157 kJ/mol
# Density = 2.193760 g / cm^3
# Si number density = 21.987645 Si / 1000 Ang^3
#
#
#
# Elastic Constant Matrix: (Units=GPa)
#
#
# Indices 1 2 3 4 5 6 
#
# 1 123.4940 44.9594 1.4891 0.0000 0.0000 0.0000
# 2 44.9594 137.6905 -10.7917 0.0000 0.0000 0.0000
# 3 1.4891 -10.7917 42.6129 0.0000 0.0000 0.0000
# 4 0.0000 0.0000 0.0000 22.4087 0.0000 0.0000
# 5 0.0000 0.0000 0.0000 0.0000 -14.3462 0.0000
# 6 0.0000 0.0000 0.0000 0.0000 0.0000 13.0260
#
#
#
# Elastic Compliance Matrix: (Units=1/GPa)
#
#
# Indices 1 2 3 4 5 6 
#
# 1 0.009241 -0.003104 -0.001109 0.000000 0.000000 0.000000
# 2 -0.003104 0.008453 0.002249 0.000000 0.000000 0.000000
# 3 -0.001109 0.002249 0.024075 0.000000 0.000000 0.000000
# 4 0.000000 0.000000 0.000000 0.044625 0.000000 0.000000
# 5 0.000000 0.000000 0.000000 0.000000 -0.069705 0.000000
# 6 0.000000 0.000000 0.000000 0.000000 0.000000 0.076770
#
#
# Mechanical properties :
#
#
# Convention : Reuss Voigt Hill
#
# Bulk Modulus (GPa) = 26.42683 41.67901 34.05292
# Shear Modulus (GPa) = 45.45388 22.09374 33.77381
#
# Velocity S-wave (km/s) = 4.55163 3.17334 3.92348
# Velocity P-wave (km/s) = 6.29827 5.69417 6.00382
#
# Compressibility (1/GPa) = 0.03784034
#
# Stress axis : x y z
#
# Youngs Moduli (GPa) = 108.21197 118.30680 41.53615
#
# Poissons Ratio (x) = 0.36727 0.04607
# Poissons Ratio (y) = 0.33593 -0.09342
# Poissons Ratio (z) = 0.12002 -0.26608
#
# Static dielectric constant tensor:
#      x y z
#    x 1.804760 0.000000 0.000000 
#    y 0.000000 1.799970 0.000000 
#    z 0.000000 0.000000 1.830950 
# 
# From -- ./inp_files/6485.got.cif
#   From: 2010.05.17/outbox.cif.g08.bks.cpg/sg57_4_cif.got.tgz:6485.got - 2010.06.03 13:58:18.
