data_PCOD9437940
_publ_section_title
;
Structure prediction by ZEFSAII (Michael W. Deem and Ramdas Pophale) SiO2 
 PCOD9437940
Probable space group: P B C M
;
_chemical_formula_sum "Si O2"
_cell_formula_units_Z 48
_cell_length_a 27.916126
_cell_length_b 8.646402
_cell_length_c 10.291268
_cell_angle_alpha 90.000000
_cell_angle_beta 90.000000
_cell_angle_gamma 90.000000
_cell_volume 2484.045013
_symmetry_space_group_name_H-M "P B C M"
_symmetry_group_IT_number 57
_symmetry_cell_setting 'orthorhombic'
loop_
_space_group_symop_operation_xyz
x,y,z
-x,-y,1/2+z
x,1/2-y,-z
-x,1/2+y,1/2-z
-x,-y,-z
x,y,1/2-z
-x,1/2+y,z
x,1/2-y,1/2+z
loop_
_atom_site_type_symbol
_atom_site_label
_atom_site_fract_x
_atom_site_fract_y
_atom_site_fract_z
Si Si1 0.608856 0.566639 0.520211
Si Si2 0.959721 0.077786 0.250000
Si Si3 0.297194 0.885699 0.896989
Si Si4 0.792712 0.887868 0.399058
Si Si5 0.538948 0.878622 0.250000
Si Si6 0.898911 0.565526 0.517611
Si Si7 0.435187 0.485303 0.750000
Si Si8 0.935536 0.440142 0.250000
O O1 0.617165 0.750000 0.500000
O O2 0.656148 0.490135 0.577685
O O3 0.565272 0.553773 0.622607
O O4 0.594705 0.493269 0.381872
O O5 0.949660 0.260309 0.250000
O O6 0.935537 0.001544 0.376791
O O7 0.015827 0.040572 0.250000
O O8 0.299078 0.824953 0.750000
O O9 0.249684 0.989222 0.910311
O O10 0.296501 0.750000 0.000000
O O11 0.784390 0.750000 0.500000
O O12 0.793699 0.830269 0.250000
O O13 0.844878 0.956893 0.431361
O O14 0.548338 0.694755 0.250000
O O15 0.483035 0.913872 0.250000
O O16 0.906105 0.750000 0.500000
O O17 0.906893 0.484017 0.379726
#
# Coordination Sequence:
#
# PCOD9437940 Si02
#       8
#     8   4   8   8   4   8   4   4
#     4  10  21  40  62  88 120 166 209 255 307 369
#     4  12  24  44  63  96 133 172 223 268 324 386
#     4  11  25  43  63  94 129 163 206 261 313 369
#     4  10  23  44  70  97 127 165 209 256 311 381
#     4  10  20  38  57  88 121 160 203 260 304 370
#     4  11  23  43  67  97 129 170 217 269 321 382
#     4  10  22  34  61  88 121 158 207 248 314 370
#     4  12  26  40  67  94 131 178 217 270 326 380
#
# _framework density 19.323321
#
# number of rings (size 3 to 8) (size 9 to 14) (size 15 to 20)
#    0.000    1.333    1.667    3.500    4.667    3.333 
#    0.000    0.000    0.000    0.000    0.000    0.000 
#    0.000    0.000    0.000    0.000    0.000    0.000 
#
# Total GULP energy -268456.802220 kJ/mol
# GULP energy per Si atom -5592.850046 kJ/mol
# Density = 1.927934 g / cm^3
# Si number density = 19.323321 Si / 1000 Ang^3
#
#
#
# Elastic Constant Matrix: (Units=GPa)
#
#
# Indices 1 2 3 4 5 6 
#
# 1 69.3386 27.1841 40.4109 0.0000 0.0000 0.0000
# 2 27.1841 51.8983 37.3099 0.0000 0.0000 0.0000
# 3 40.4109 37.3099 159.5062 0.0000 0.0000 0.0000
# 4 0.0000 0.0000 0.0000 22.5600 0.0000 0.0000
# 5 0.0000 0.0000 0.0000 0.0000 31.4062 0.0000
# 6 0.0000 0.0000 0.0000 0.0000 0.0000 18.0116
#
#
#
# Elastic Compliance Matrix: (Units=1/GPa)
#
#
# Indices 1 2 3 4 5 6 
#
# 1 0.019298 -0.007926 -0.003035 0.000000 0.000000 0.000000
# 2 -0.007926 0.026419 -0.004172 0.000000 0.000000 0.000000
# 3 -0.003035 -0.004172 0.008014 0.000000 0.000000 0.000000
# 4 0.000000 0.000000 0.000000 0.044326 0.000000 0.000000
# 5 0.000000 0.000000 0.000000 0.000000 0.031841 0.000000
# 6 0.000000 0.000000 0.000000 0.000000 0.000000 0.055520
#
#
# Mechanical properties :
#
#
# Convention : Reuss Voigt Hill
#
# Bulk Modulus (GPa) = 42.61587 54.50587 48.56087
# Shear Modulus (GPa) = 22.37067 26.11809 24.24438
#
# Velocity S-wave (km/s) = 3.40620 3.68045 3.54597
# Velocity P-wave (km/s) = 6.12956 6.80658 6.47692
#
# Compressibility (1/GPa) = 0.02346544
#
# Stress axis : x y z
#
# Youngs Moduli (GPa) = 51.81758 37.85122 124.78055
#
# Poissons Ratio (x) = 0.30003 0.37873
# Poissons Ratio (y) = 0.41073 0.52052
# Poissons Ratio (z) = 0.15728 0.15790
#
# Static dielectric constant tensor:
#      x y z
#    x 1.641490 0.000000 0.000000 
#    y 0.000000 1.646520 0.000000 
#    z 0.000000 0.000000 1.663790 
# 
# From -- ./inp_files/10211.got.cif
#   From: 2010.05.17/outbox.cif.g08.bks.cpg/sg57_6_cif.got.tgz:10211.got - 2010.06.03 13:58:18.
