data_PCOD9437100
_publ_section_title
;
Structure prediction by ZEFSAII (Michael W. Deem and Ramdas Pophale) SiO2 
 PCOD9437100
Probable space group: P B C M
;
_chemical_formula_sum "Si O2"
_cell_formula_units_Z 56
_cell_length_a 24.704085
_cell_length_b 14.025426
_cell_length_c 8.247992
_cell_angle_alpha 90.000000
_cell_angle_beta 90.000000
_cell_angle_gamma 90.000000
_cell_volume 2857.808115
_symmetry_space_group_name_H-M "P B C M"
_symmetry_group_IT_number 57
_symmetry_cell_setting 'orthorhombic'
loop_
_space_group_symop_operation_xyz
x,y,z
-x,-y,1/2+z
x,1/2-y,-z
-x,1/2+y,1/2-z
-x,-y,-z
x,y,1/2-z
-x,1/2+y,z
x,1/2-y,1/2+z
loop_
_atom_site_type_symbol
_atom_site_label
_atom_site_fract_x
_atom_site_fract_y
_atom_site_fract_z
Si Si1 0.472266 0.360934 0.445987
Si Si2 0.082134 0.547792 0.056091
Si Si3 0.192887 0.641051 0.943573
Si Si4 0.410869 0.860003 0.053530
Si Si5 0.301705 0.960495 0.055053
Si Si6 0.353369 0.141435 0.555902
Si Si7 0.973420 0.855236 0.056268
O O1 0.473394 0.250000 0.500000
O O2 0.471963 0.365985 0.250000
O O3 0.530499 0.400365 0.503724
O O4 0.413113 0.393898 0.504671
O O5 0.083255 0.546746 0.250000
O O6 0.065046 0.441777 0.997854
O O7 0.139455 0.584336 0.994844
O O8 0.033717 0.617762 0.002277
O O9 0.195296 0.641187 0.750000
O O10 0.247616 0.590463 0.006462
O O11 0.190003 0.750000 0.000000
O O12 0.410860 0.863988 0.250000
O O13 0.356628 0.910389 0.992396
O O14 0.408446 0.750000 0.000000
O O15 0.301872 0.952758 0.250000
O O16 0.308020 0.070575 0.008900
O O17 0.346379 0.250000 0.500000
O O18 0.353631 0.139113 0.750000
O O19 0.973505 0.856791 0.250000
O O20 0.957902 0.750000 0.000000
#
# Coordination Sequence:
#
# PCOD9437100 Si02
#       7
#     8   8   8   8   8   8   8
#     4   8  15  28  47  72  99 129 165 208 263 323
#     4  10  21  37  58  85 117 154 194 230 270 321
#     4  11  23  39  59  82 111 146 184 226 269 316
#     4   9  17  31  50  73 104 136 169 213 265 322
#     4  10  22  37  53  76 105 139 178 221 269 318
#     4  10  20  35  55  76 100 132 172 219 270 326
#     4  10  20  35  58  88 121 154 187 228 275 321
#
# _framework density 19.595438999999999
#
# number of rings (size 3 to 8) (size 9 to 14) (size 15 to 20)
#    0.000    2.286    0.000    2.571    0.000    4.571 
#    0.000    0.714    0.000    1.714    0.000    0.000 
#    0.000    0.000    0.000    0.000    0.000    0.000 
#
# Total GULP energy -312536.120123 kJ/mol
# GULP energy per Si atom -5581.002145 kJ/mol
# Density = 1.955084 g / cm^3
# Si number density = 19.595439 Si / 1000 Ang^3
#
#
#
# Elastic Constant Matrix: (Units=GPa)
#
#
# Indices 1 2 3 4 5 6 
#
# 1 154.3274 82.2843 21.2307 0.0000 0.0000 0.0000
# 2 82.2843 120.6880 7.3862 0.0000 0.0000 0.0000
# 3 21.2307 7.3862 25.1869 0.0000 0.0000 0.0000
# 4 0.0000 0.0000 0.0000 26.1396 0.0000 0.0000
# 5 0.0000 0.0000 0.0000 0.0000 12.6387 0.0000
# 6 0.0000 0.0000 0.0000 0.0000 0.0000 25.4194
#
#
#
# Elastic Compliance Matrix: (Units=1/GPa)
#
#
# Indices 1 2 3 4 5 6 
#
# 1 0.011413 -0.007324 -0.007472 0.000000 0.000000 0.000000
# 2 -0.007324 0.013137 0.002321 0.000000 0.000000 0.000000
# 3 -0.007472 0.002321 0.045321 0.000000 0.000000 0.000000
# 4 0.000000 0.000000 0.000000 0.038256 0.000000 0.000000
# 5 0.000000 0.000000 0.000000 0.000000 0.079122 0.000000
# 6 0.000000 0.000000 0.000000 0.000000 0.000000 0.039340
#
#
# Mechanical properties :
#
#
# Convention : Reuss Voigt Hill
#
# Bulk Modulus (GPa) = 22.26151 58.00051 40.13101
# Shear Modulus (GPa) = 18.76084 25.45961 22.11022
#
# Velocity S-wave (km/s) = 3.09756 3.60844 3.36271
# Velocity P-wave (km/s) = 4.91715 6.85743 5.96669
#
# Compressibility (1/GPa) = 0.04492058
#
# Stress axis : x y z
#
# Youngs Moduli (GPa) = 87.62307 76.12071 22.06475
#
# Poissons Ratio (x) = 0.55748 0.16487
# Poissons Ratio (y) = 0.64172 -0.05121
# Poissons Ratio (z) = 0.65474 -0.17666
#
# Static dielectric constant tensor:
#      x y z
#    x 1.699680 0.000000 0.000000 
#    y 0.000000 1.663480 0.000000 
#    z 0.000000 0.000000 1.674490 
# 
# From -- ./inp_files/8040.got.cif
#   From: 2010.05.17/outbox.cif.g08.bks.cpg/sg57_5_cif.got.tgz:8040.got - 2010.06.03 13:58:18.
