data_PCOD9437399
_publ_section_title
;
Structure prediction by ZEFSAII (Michael W. Deem and Ramdas Pophale) SiO2 
 PCOD9437399
Probable space group: P B C M
;
_chemical_formula_sum "Si O2"
_cell_formula_units_Z 60
_cell_length_a 11.519146
_cell_length_b 26.094964
_cell_length_c 9.650920
_cell_angle_alpha 90.000000
_cell_angle_beta 90.000000
_cell_angle_gamma 90.000000
_cell_volume 2900.986451
_symmetry_space_group_name_H-M "P B C M"
_symmetry_group_IT_number 57
_symmetry_cell_setting 'orthorhombic'
loop_
_space_group_symop_operation_xyz
x,y,z
-x,-y,1/2+z
x,1/2-y,-z
-x,1/2+y,1/2-z
-x,-y,-z
x,y,1/2-z
-x,1/2+y,z
x,1/2-y,1/2+z
loop_
_atom_site_type_symbol
_atom_site_label
_atom_site_fract_x
_atom_site_fract_y
_atom_site_fract_z
Si Si1 0.504358 0.902012 0.408938
Si Si2 0.359524 0.704053 0.911293
Si Si3 0.684717 0.047765 0.089130
Si Si4 0.066279 0.141721 0.911312
Si Si5 0.165512 0.846983 0.912648
Si Si6 0.638639 0.758216 0.750000
Si Si7 0.892965 0.520944 0.589222
Si Si8 0.316372 0.174370 0.985083
O O1 0.514563 0.918939 0.250000
O O2 0.429688 0.848995 0.413190
O O3 0.429344 0.941381 0.499031
O O4 0.627491 0.881838 0.463576
O O5 0.346470 0.719328 0.750000
O O6 0.414270 0.750000 0.000000
O O7 0.242190 0.691243 0.994597
O O8 0.652890 0.040378 0.250000
O O9 0.767338 0.098406 0.081391
O O10 0.769452 0.002026 0.041947
O O11 0.039734 0.155242 0.750000
O O12 0.100072 0.081941 0.913570
O O13 0.177963 0.172282 0.963975
O O14 0.957982 0.149160 0.012753
O O15 0.158110 0.832540 0.750000
O O16 0.648914 0.802249 0.630138
O O17 0.638860 0.712606 0.632487
O O18 0.906545 0.503993 0.750000
O O19 0.000000 0.500000 0.500000
#
# Coordination Sequence:
#
# PCOD9437399 Si02
#       8
#     8   8   8   8   8   4   8   8
#     4  10  21  36  60  85 119 151 193 246 294 353
#     4  10  21  35  53  80 110 147 191 237 298 355
#     4   9  19  36  56  87 120 153 196 243 297 345
#     4  11  22  38  61  86 124 157 195 248 299 354
#     4  10  20  36  55  79 113 150 191 245 293 350
#     4  10  24  42  66  82 118 156 208 250 282 362
#     4  10  20  36  61  90 120 161 202 244 292 359
#     4  11  23  43  61  92 116 157 202 247 302 347
#
# _framework density 20.682618999999999
#
# number of rings (size 3 to 8) (size 9 to 14) (size 15 to 20)
#    0.000    1.867    2.667    0.800    3.733    1.600 
#    2.400    0.667    0.000    0.000    0.000    0.000 
#    0.000    0.000    0.000    0.000    0.000    0.000 
#
# Total GULP energy -334135.394380 kJ/mol
# GULP energy per Si atom -5568.923240 kJ/mol
# Density = 2.063554 g / cm^3
# Si number density = 20.682619 Si / 1000 Ang^3
#
#
#
# Elastic Constant Matrix: (Units=GPa)
#
#
# Indices 1 2 3 4 5 6 
#
# 1 78.2979 12.8013 39.1381 0.0000 0.0000 0.0000
# 2 12.8013 41.1956 22.6291 0.0000 0.0000 0.0000
# 3 39.1381 22.6291 153.0320 0.0000 0.0000 0.0000
# 4 0.0000 0.0000 0.0000 19.9032 0.0000 0.0000
# 5 0.0000 0.0000 0.0000 0.0000 -64.5531 0.0000
# 6 0.0000 0.0000 0.0000 0.0000 0.0000 21.4139
#
#
#
# Elastic Compliance Matrix: (Units=1/GPa)
#
#
# Indices 1 2 3 4 5 6 
#
# 1 0.014928 -0.002766 -0.003409 0.000000 0.000000 0.000000
# 2 -0.002766 0.026933 -0.003275 0.000000 0.000000 0.000000
# 3 -0.003409 -0.003275 0.007891 0.000000 0.000000 0.000000
# 4 0.000000 0.000000 0.000000 0.050243 0.000000 0.000000
# 5 0.000000 0.000000 0.000000 0.000000 -0.015491 0.000000
# 6 0.000000 0.000000 0.000000 0.000000 0.000000 0.046699
#
#
# Mechanical properties :
#
#
# Convention : Reuss Voigt Hill
#
# Bulk Modulus (GPa) = 32.41360 46.85138 39.63249
# Shear Modulus (GPa) = 31.17469 8.54995 19.86232
#
# Velocity S-wave (km/s) = 3.88659 2.03540 3.10230
# Velocity P-wave (km/s) = 5.98721 5.31277 5.66005
#
# Compressibility (1/GPa) = 0.03085125
#
# Stress axis : x y z
#
# Youngs Moduli (GPa) = 66.98855 37.12900 126.73180
#
# Poissons Ratio (x) = 0.10271 0.43200
# Poissons Ratio (y) = 0.18531 0.41507
# Poissons Ratio (z) = 0.22835 0.12160
#
# Static dielectric constant tensor:
#      x y z
#    x 1.798830 0.000000 0.000000 
#    y 0.000000 1.764930 0.000000 
#    z 0.000000 0.000000 1.696310 
# 
# From -- ./inp_files/3670.got.cif
#   From: 2010.05.17/outbox.cif.g08.bks.cpg/sg57_2_cif.got.tgz:3670.got - 2010.06.03 13:58:18.
