data_PCOD9437590
_publ_section_title
;
Structure prediction by ZEFSAII (Michael W. Deem and Ramdas Pophale) SiO2 
 PCOD9437590
Probable space group: P B C M
;
_chemical_formula_sum "Si O2"
_cell_formula_units_Z 64
_cell_length_a 12.202038
_cell_length_b 31.751195
_cell_length_c 9.116556
_cell_angle_alpha 90.000000
_cell_angle_beta 90.000000
_cell_angle_gamma 90.000000
_cell_volume 3532.020800
_symmetry_space_group_name_H-M "P B C M"
_symmetry_group_IT_number 57
_symmetry_cell_setting 'orthorhombic'
loop_
_space_group_symop_operation_xyz
x,y,z
-x,-y,1/2+z
x,1/2-y,-z
-x,1/2+y,1/2-z
-x,-y,-z
x,y,1/2-z
-x,1/2+y,z
x,1/2-y,1/2+z
loop_
_atom_site_type_symbol
_atom_site_label
_atom_site_fract_x
_atom_site_fract_y
_atom_site_fract_z
Si Si1 0.889318 0.485864 0.920222
Si Si2 0.499633 0.705920 0.925523
Si Si3 0.631991 0.121446 0.574107
Si Si4 0.756620 0.793771 0.424996
Si Si5 0.753235 0.948213 0.922643
Si Si6 0.894704 0.866481 0.573550
Si Si7 0.501580 0.546169 0.075043
Si Si8 0.141390 0.885916 0.921828
O O1 0.899409 0.496514 0.750000
O O2 0.873002 0.436207 0.933778
O O3 0.787836 0.510734 0.988701
O O4 0.000000 0.500000 0.000000
O O5 0.489760 0.710853 0.750000
O O6 0.433542 0.664006 0.968062
O O7 0.628125 0.698972 0.960325
O O8 0.465294 0.750000 0.000000
O O9 0.625678 0.116396 0.750000
O O10 0.579576 0.080132 0.497579
O O11 0.756483 0.126688 0.520606
O O12 0.788415 0.750000 0.500000
O O13 0.767278 0.791297 0.250000
O O14 0.829957 0.830431 0.490716
O O15 0.768587 0.956850 0.750000
O O16 0.835655 0.910673 0.963564
O O17 0.626361 0.937206 0.945150
O O18 0.884935 0.861611 0.750000
O O19 0.023273 0.867069 0.537084
O O20 0.479965 0.542411 0.250000
O O21 0.500000 0.500000 0.000000
O O22 0.163191 0.876189 0.750000
#
# Coordination Sequence:
#
# PCOD9437590 Si02
#       8
#     8   8   8   8   8   8   8   8
#     4  11  21  35  55  79 110 148 190 236 282 331
#     4   9  20  38  61  89 118 147 185 235 288 344
#     4  11  23  39  59  85 119 154 194 243 292 349
#     4  10  20  36  59  87 115 143 177 220 277 338
#     4  10  21  37  56  81 110 144 187 233 281 333
#     4  10  20  37  57  80 111 143 182 230 277 327
#     4  11  23  38  58  83 115 154 195 239 290 347
#     4  10  22  39  57  79 112 153 194 236 280 334
#
# _framework density 18.119938999999999
#
# number of rings (size 3 to 8) (size 9 to 14) (size 15 to 20)
#    0.000    1.750    1.250    3.000    0.000    6.500 
#    0.000    0.625    0.000    1.500    0.000    0.000 
#    0.000    0.000    0.000    0.000    0.000    0.000 
#
# Total GULP energy -357481.479552 kJ/mol
# GULP energy per Si atom -5585.648118 kJ/mol
# Density = 1.807870 g / cm^3
# Si number density = 18.119939 Si / 1000 Ang^3
#
#
#
# Elastic Constant Matrix: (Units=GPa)
#
#
# Indices 1 2 3 4 5 6 
#
# 1 90.7653 49.0676 49.7921 0.0000 0.0000 0.0000
# 2 49.0676 92.9575 48.4174 0.0000 0.0000 0.0000
# 3 49.7921 48.4174 52.0159 0.0000 0.0000 0.0000
# 4 0.0000 0.0000 0.0000 33.4578 0.0000 0.0000
# 5 0.0000 0.0000 0.0000 0.0000 29.7955 0.0000
# 6 0.0000 0.0000 0.0000 0.0000 0.0000 30.0776
#
#
#
# Elastic Compliance Matrix: (Units=1/GPa)
#
#
# Indices 1 2 3 4 5 6 
#
# 1 0.023284 -0.001323 -0.021058 0.000000 0.000000 0.000000
# 2 -0.001323 0.020956 -0.018241 0.000000 0.000000 0.000000
# 3 -0.021058 -0.018241 0.056361 0.000000 0.000000 0.000000
# 4 0.000000 0.000000 0.000000 0.029888 0.000000 0.000000
# 5 0.000000 0.000000 0.000000 0.000000 0.033562 0.000000
# 6 0.000000 0.000000 0.000000 0.000000 0.000000 0.033247
#
#
# Mechanical properties :
#
#
# Convention : Reuss Voigt Hill
#
# Bulk Modulus (GPa) = 51.65308 58.92144 55.28726
# Shear Modulus (GPa) = 17.54415 24.56363 21.05389
#
# Velocity S-wave (km/s) = 3.11500 3.68586 3.41239
# Velocity P-wave (km/s) = 6.44250 7.12054 6.78999
#
# Compressibility (1/GPa) = 0.01935993
#
# Stress axis : x y z
#
# Youngs Moduli (GPa) = 42.94744 47.71792 17.74268
#
# Poissons Ratio (x) = 0.06311 0.37362
# Poissons Ratio (y) = 0.05680 0.32364
# Poissons Ratio (z) = 0.90438 0.87041
#
# Static dielectric constant tensor:
#      x y z
#    x 1.629940 0.000000 0.000000 
#    y 0.000000 1.636340 0.000000 
#    z 0.000000 0.000000 1.606120 
# 
# From -- ./inp_files/3809.got.cif
#   From: 2010.05.17/outbox.cif.g08.bks.cpg/sg57_2_cif.got.tgz:3809.got - 2010.06.03 13:58:18.
