data_PCOD9437663
_publ_section_title
;
Structure prediction by ZEFSAII (Michael W. Deem and Ramdas Pophale) SiO2 
 PCOD9437663
Probable space group: P B C M
;
_chemical_formula_sum "Si O2"
_cell_formula_units_Z 48
_cell_length_a 15.569293
_cell_length_b 19.530878
_cell_length_c 8.456507
_cell_angle_alpha 90.000000
_cell_angle_beta 90.000000
_cell_angle_gamma 90.000000
_cell_volume 2571.471241
_symmetry_space_group_name_H-M "P B C M"
_symmetry_group_IT_number 57
_symmetry_cell_setting 'orthorhombic'
loop_
_space_group_symop_operation_xyz
x,y,z
-x,-y,1/2+z
x,1/2-y,-z
-x,1/2+y,1/2-z
-x,-y,-z
x,y,1/2-z
-x,1/2+y,z
x,1/2-y,1/2+z
loop_
_atom_site_type_symbol
_atom_site_label
_atom_site_fract_x
_atom_site_fract_y
_atom_site_fract_z
Si Si1 0.721359 0.424422 0.057306
Si Si2 0.372555 0.172760 0.939509
Si Si3 0.970020 0.574254 0.939798
Si Si4 0.778664 0.577025 0.060314
Si Si5 0.526691 0.424989 0.441282
Si Si6 0.124286 0.672744 0.941101
O O1 0.722169 0.424220 0.250000
O O2 0.749109 0.500869 0.007790
O O3 0.624032 0.409855 0.006005
O O4 0.791687 0.369363 0.004471
O O5 0.372612 0.173170 0.750000
O O6 0.456415 0.130259 0.994670
O O7 0.373797 0.250000 0.000000
O O8 0.288807 0.132167 0.997720
O O9 0.969213 0.572845 0.750000
O O10 0.039931 0.630489 0.991728
O O11 0.874987 0.589458 0.001652
O O12 0.000000 0.500000 0.000000
O O13 0.777770 0.577899 0.250000
O O14 0.500000 0.500000 0.500000
O O15 0.526335 0.425953 0.250000
O O16 0.125150 0.673062 0.750000
O O17 0.123956 0.750000 0.000000
#
# Coordination Sequence:
#
# PCOD9437663 Si02
#       6
#     8   8   8   8   8   8
#     4   9  18  36  60  86 118 154 191 239 299 355
#     4  11  24  40  59  89 124 160 201 249 302 361
#     4  11  22  38  61  90 122 157 204 250 297 361
#     4  11  21  38  64  89 118 158 199 250 308 357
#     4  10  20  36  61  89 118 153 197 244 294 355
#     4  10  22  40  59  85 120 156 192 239 296 352
#
# _framework density 18.666357999999999
#
# number of rings (size 3 to 8) (size 9 to 14) (size 15 to 20)
#    0.000    1.667    3.333    1.500    0.000    3.333 
#    0.000    2.500    0.000    0.000    0.000    0.000 
#    0.000    0.000    0.000    0.000    0.000    0.000 
#
# Total GULP energy -268169.410304 kJ/mol
# GULP energy per Si atom -5586.862715 kJ/mol
# Density = 1.862387 g / cm^3
# Si number density = 18.666358 Si / 1000 Ang^3
#
#
#
# Elastic Constant Matrix: (Units=GPa)
#
#
# Indices 1 2 3 4 5 6 
#
# 1 231.7331 126.9422 35.1620 0.0000 0.0000 0.0000
# 2 126.9422 198.1889 31.3116 0.0000 0.0000 0.0000
# 3 35.1620 31.3116 29.9608 0.0000 0.0000 0.0000
# 4 0.0000 0.0000 0.0000 31.3085 0.0000 0.0000
# 5 0.0000 0.0000 0.0000 0.0000 22.6049 0.0000
# 6 0.0000 0.0000 0.0000 0.0000 0.0000 35.6179
#
#
#
# Elastic Compliance Matrix: (Units=1/GPa)
#
#
# Indices 1 2 3 4 5 6 
#
# 1 0.007077 -0.003858 -0.004274 0.000000 0.000000 0.000000
# 2 -0.003858 0.008146 -0.003986 0.000000 0.000000 0.000000
# 3 -0.004274 -0.003986 0.042559 0.000000 0.000000 0.000000
# 4 0.000000 0.000000 0.000000 0.031940 0.000000 0.000000
# 5 0.000000 0.000000 0.000000 0.000000 0.044238 0.000000
# 6 0.000000 0.000000 0.000000 0.000000 0.000000 0.028076
#
#
# Mechanical properties :
#
#
# Convention : Reuss Voigt Hill
#
# Bulk Modulus (GPa) = 29.80944 94.07937 61.94440
# Shear Modulus (GPa) = 25.32226 35.67071 30.49648
#
# Velocity S-wave (km/s) = 3.68716 4.37620 4.04637
# Velocity P-wave (km/s) = 5.84219 8.72036 7.42213
#
# Compressibility (1/GPa) = 0.03354642
#
# Stress axis : x y z
#
# Youngs Moduli (GPa) = 141.30193 122.75425 23.49681
#
# Poissons Ratio (x) = 0.47355 0.10043
# Poissons Ratio (y) = 0.54510 0.09366
# Poissons Ratio (z) = 0.60393 0.48933
#
# Static dielectric constant tensor:
#      x y z
#    x 1.640960 0.000000 0.000000 
#    y 0.000000 1.603140 0.000000 
#    z 0.000000 0.000000 1.646850 
# 
# From -- ./inp_files/4611.got.cif
#   From: 2010.05.17/outbox.cif.g08.bks.cpg/sg57_3_cif.got.tgz:4611.got - 2010.06.03 13:58:18.
