data_PCOD9437635
_publ_section_title
;
Structure prediction by ZEFSAII (Michael W. Deem and Ramdas Pophale) SiO2 
 PCOD9437635
Probable space group: P B C M
;
_chemical_formula_sum "Si O2"
_cell_formula_units_Z 36
_cell_length_a 15.934686
_cell_length_b 4.972364
_cell_length_c 21.592238
_cell_angle_alpha 90.000000
_cell_angle_beta 90.000000
_cell_angle_gamma 90.000000
_cell_volume 1710.819068
_symmetry_space_group_name_H-M "P B C M"
_symmetry_group_IT_number 57
_symmetry_cell_setting 'orthorhombic'
loop_
_space_group_symop_operation_xyz
x,y,z
-x,-y,1/2+z
x,1/2-y,-z
-x,1/2+y,1/2-z
-x,-y,-z
x,y,1/2-z
-x,1/2+y,z
x,1/2-y,1/2+z
loop_
_atom_site_type_symbol
_atom_site_label
_atom_site_fract_x
_atom_site_fract_y
_atom_site_fract_z
Si Si1 0.556230 0.149689 0.677772
Si Si2 0.270926 0.992002 0.119554
Si Si3 0.810530 0.250000 0.000000
Si Si4 0.944709 0.932339 0.080364
Si Si5 0.814342 0.506370 0.677770
O O1 0.583068 0.120449 0.750000
O O2 0.522028 0.449211 0.668667
O O3 0.632766 0.069981 0.634342
O O4 0.216554 0.793566 0.163234
O O5 0.245603 0.291322 0.139420
O O6 0.243898 0.912839 0.050193
O O7 0.870516 0.044879 0.037379
O O8 0.023175 0.131554 0.070725
O O9 0.906604 0.957343 0.148999
O O10 0.809694 0.564634 0.750000
#
# Coordination Sequence:
#
# PCOD9437635 Si02
#       5
#     8   8   4   8   8
#     4  10  20  36  60  89 119 152 193 243 300 359
#     4  11  23  40  62  89 122 160 202 248 294 361
#     4  10  24  42  62  88 120 166 212 248 296 358
#     4  11  23  39  61  86 116 155 201 252 296 348
#     4  11  23  39  61  89 120 158 200 249 312 364
#
# _framework density 21.042552000000001
#
# number of rings (size 3 to 8) (size 9 to 14) (size 15 to 20)
#    0.000    1.333    0.000    6.667    0.000    9.778 
#    0.000    1.111    0.000    0.000    0.000    0.000 
#    0.000    0.000    0.000    0.000    0.000    0.000 
#
# Total GULP energy -201498.399971 kJ/mol
# GULP energy per Si atom -5597.177777 kJ/mol
# Density = 2.099466 g / cm^3
# Si number density = 21.042552 Si / 1000 Ang^3
#
#
#
# Elastic Constant Matrix: (Units=GPa)
#
#
# Indices 1 2 3 4 5 6 
#
# 1 63.3185 -20.3400 25.6008 0.0000 0.0000 0.0000
# 2 -20.3400 45.4395 -15.4678 0.0000 0.0000 0.0000
# 3 25.6008 -15.4678 100.4194 0.0000 0.0000 0.0000
# 4 0.0000 0.0000 0.0000 24.2967 0.0000 0.0000
# 5 0.0000 0.0000 0.0000 0.0000 29.9639 0.0000
# 6 0.0000 0.0000 0.0000 0.0000 0.0000 20.0216
#
#
#
# Elastic Compliance Matrix: (Units=1/GPa)
#
#
# Indices 1 2 3 4 5 6 
#
# 1 0.019783 0.007534 -0.003883 0.000000 0.000000 0.000000
# 2 0.007534 0.026094 0.002099 0.000000 0.000000 0.000000
# 3 -0.003883 0.002099 0.011271 0.000000 0.000000 0.000000
# 4 0.000000 0.000000 0.000000 0.041158 0.000000 0.000000
# 5 0.000000 0.000000 0.000000 0.000000 0.033374 0.000000
# 6 0.000000 0.000000 0.000000 0.000000 0.000000 0.049946
#
#
# Mechanical properties :
#
#
# Convention : Reuss Voigt Hill
#
# Bulk Modulus (GPa) = 14.56722 20.97371 17.77046
# Shear Modulus (GPa) = 25.90543 29.48209 27.69376
#
# Velocity S-wave (km/s) = 3.51251 3.74715 3.63172
# Velocity P-wave (km/s) = 4.83612 5.35821 5.10384
#
# Compressibility (1/GPa) = 0.06864728
#
# Stress axis : x y z
#
# Youngs Moduli (GPa) = 50.54785 38.32303 88.71972
#
# Poissons Ratio (x) = -0.28871 0.34451
# Poissons Ratio (y) = -0.38081 -0.18619
# Poissons Ratio (z) = 0.19628 -0.08043
#
# Static dielectric constant tensor:
#      x y z
#    x 1.745470 0.000000 0.000000 
#    y 0.000000 1.732050 0.000000 
#    z 0.000000 0.000000 1.764560 
# 
# From -- ./inp_files/25199.got.cif
#   From: 2010.05.17/outbox.cif.g08.bks.cpg/sg57_13_cif.got.tgz:25199.got - 2010.06.03 13:58:18.
