data_PCOD9437210
_publ_section_title
;
Structure prediction by ZEFSAII (Michael W. Deem and Ramdas Pophale) SiO2 
 PCOD9437210
Probable space group: P B C M
;
_chemical_formula_sum "Si O2"
_cell_formula_units_Z 64
_cell_length_a 22.666166
_cell_length_b 16.469681
_cell_length_c 9.164922
_cell_angle_alpha 90.000000
_cell_angle_beta 90.000000
_cell_angle_gamma 90.000000
_cell_volume 3421.306840
_symmetry_space_group_name_H-M "P B C M"
_symmetry_group_IT_number 57
_symmetry_cell_setting 'orthorhombic'
loop_
_space_group_symop_operation_xyz
x,y,z
-x,-y,1/2+z
x,1/2-y,-z
-x,1/2+y,1/2-z
-x,-y,-z
x,y,1/2-z
-x,1/2+y,z
x,1/2-y,1/2+z
loop_
_atom_site_type_symbol
_atom_site_label
_atom_site_fract_x
_atom_site_fract_y
_atom_site_fract_z
Si Si1 0.944292 0.333742 0.920375
Si Si2 0.597693 0.637289 0.416889
Si Si3 0.376266 0.553322 0.915103
Si Si4 0.716520 0.670246 0.577325
Si Si5 0.537464 0.331224 0.923146
Si Si6 0.913153 0.666766 0.419846
Si Si7 0.118121 0.515923 0.576393
Si Si8 0.748380 0.505071 0.077278
O O1 0.927707 0.331086 0.750000
O O2 0.015562 0.336418 0.928356
O O3 0.925510 0.250000 0.000000
O O4 0.918696 0.414904 0.994685
O O5 0.607947 0.668013 0.250000
O O6 0.605007 0.540548 0.410128
O O7 0.647901 0.665956 0.527279
O O8 0.531238 0.656040 0.463753
O O9 0.381069 0.586567 0.750000
O O10 0.307549 0.551153 0.960724
O O11 0.420464 0.598137 0.021249
O O12 0.742159 0.750000 0.500000
O O13 0.722209 0.674568 0.750000
O O14 0.744104 0.588142 0.512815
O O15 0.539466 0.324875 0.750000
O O16 0.558664 0.250000 0.000000
O O17 0.894307 0.750000 0.500000
O O18 0.895391 0.673019 0.250000
O O19 0.892137 0.577758 0.473643
O O20 0.103862 0.517982 0.750000
O O21 0.187637 0.533206 0.558045
O O22 0.741158 0.525393 0.250000
#
# Coordination Sequence:
#
# PCOD9437210 Si02
#       8
#     8   8   8   8   8   8   8   8
#     4  10  20  35  56  83 114 147 185 228 274 325
#     4   9  19  35  54  77 103 130 163 205 256 313
#     4   9  18  35  55  73  98 131 165 205 254 305
#     4  11  21  33  52  76 105 140 176 215 260 312
#     4  11  22  34  51  76 103 130 163 206 256 310
#     4   9  19  34  54  83 118 152 183 220 268 324
#     4  10  20  36  58  83 112 146 184 229 279 325
#     4   9  20  38  56  75 103 138 177 220 264 312
#
# _framework density 18.706302000000001
#
# number of rings (size 3 to 8) (size 9 to 14) (size 15 to 20)
#    0.000    2.250    0.000    3.750    0.000    6.000 
#    0.000    1.875    0.000    0.000    0.000    0.000 
#    0.000    0.000    0.000    0.000    0.000    0.000 
#
# Total GULP energy -357103.226446 kJ/mol
# GULP energy per Si atom -5579.737913 kJ/mol
# Density = 1.866373 g / cm^3
# Si number density = 18.706302 Si / 1000 Ang^3
#
#
#
# Elastic Constant Matrix: (Units=GPa)
#
#
# Indices 1 2 3 4 5 6 
#
# 1 43.1053 20.9036 23.0866 0.0000 0.0000 0.0000
# 2 20.9036 77.3118 26.2117 0.0000 0.0000 0.0000
# 3 23.0866 26.2117 60.4205 0.0000 0.0000 0.0000
# 4 0.0000 0.0000 0.0000 33.0777 0.0000 0.0000
# 5 0.0000 0.0000 0.0000 0.0000 15.8766 0.0000
# 6 0.0000 0.0000 0.0000 0.0000 0.0000 -7.3950
#
#
#
# Elastic Compliance Matrix: (Units=1/GPa)
#
#
# Indices 1 2 3 4 5 6 
#
# 1 0.030782 -0.005083 -0.009557 0.000000 0.000000 0.000000
# 2 -0.005083 0.016004 -0.005001 0.000000 0.000000 0.000000
# 3 -0.009557 -0.005001 0.022372 0.000000 0.000000 0.000000
# 4 0.000000 0.000000 0.000000 0.030232 0.000000 0.000000
# 5 0.000000 0.000000 0.000000 0.000000 0.062986 0.000000
# 6 0.000000 0.000000 0.000000 0.000000 0.000000 -0.135227
#
#
# Mechanical properties :
#
#
# Convention : Reuss Voigt Hill
#
# Bulk Modulus (GPa) = 33.47006 35.69349 34.58177
# Shear Modulus (GPa) = 65.45361 15.68759 40.57060
#
# Velocity S-wave (km/s) = 5.92166 2.89905 4.66211
# Velocity P-wave (km/s) = 8.04276 5.50712 6.89255
#
# Compressibility (1/GPa) = 0.02987745
#
# Stress axis : x y z
#
# Youngs Moduli (GPa) = 32.48606 62.48268 44.69905
#
# Poissons Ratio (x) = 0.31759 0.42718
# Poissons Ratio (y) = 0.16512 0.22354
# Poissons Ratio (z) = 0.31047 0.31247
#
# Static dielectric constant tensor:
#      x y z
#    x 1.653610 0.000000 0.000000 
#    y 0.000000 1.660350 0.000000 
#    z 0.000000 0.000000 1.640200 
# 
# From -- ./inp_files/9404.got.cif
#   From: 2010.05.17/outbox.cif.g08.bks.cpg/sg57_5_cif.got.tgz:9404.got - 2010.06.03 13:58:18.
