data_PCOD9437341
_publ_section_title
;
Structure prediction by ZEFSAII (Michael W. Deem and Ramdas Pophale) SiO2 
 PCOD9437341
Probable space group: P B C M
;
_chemical_formula_sum "Si O2"
_cell_formula_units_Z 56
_cell_length_a 15.255236
_cell_length_b 22.976384
_cell_length_c 7.702071
_cell_angle_alpha 90.000000
_cell_angle_beta 90.000000
_cell_angle_gamma 90.000000
_cell_volume 2699.654141
_symmetry_space_group_name_H-M "P B C M"
_symmetry_group_IT_number 57
_symmetry_cell_setting 'orthorhombic'
loop_
_space_group_symop_operation_xyz
x,y,z
-x,-y,1/2+z
x,1/2-y,-z
-x,1/2+y,1/2-z
-x,-y,-z
x,y,1/2-z
-x,1/2+y,z
x,1/2-y,1/2+z
loop_
_atom_site_type_symbol
_atom_site_label
_atom_site_fract_x
_atom_site_fract_y
_atom_site_fract_z
Si Si1 0.891479 0.840968 0.951427
Si Si2 0.095520 0.473981 0.042289
Si Si3 0.399216 0.554448 0.544476
Si Si4 0.792010 0.082422 0.459539
Si Si5 0.083057 0.814133 0.541244
Si Si6 0.590940 0.576393 0.047253
Si Si7 0.700435 0.813990 0.540593
O O1 0.891950 0.822603 0.750000
O O2 0.800183 0.818886 0.028665
O O3 0.983867 0.820476 0.029573
O O4 0.892016 0.910971 0.960119
O O5 0.102398 0.467420 0.250000
O O6 0.166822 0.521075 0.981350
O O7 0.000000 0.500000 0.000000
O O8 0.414895 0.550444 0.750000
O O9 0.308570 0.586908 0.512369
O O10 0.390159 0.488108 0.472862
O O11 0.486195 0.583181 0.467138
O O12 0.795793 0.082305 0.250000
O O13 0.853857 0.134663 0.523092
O O14 0.116564 0.750000 0.500000
O O15 0.078152 0.820885 0.750000
O O16 0.615015 0.573074 0.250000
O O17 0.643703 0.631325 0.974081
O O18 0.664674 0.750000 0.500000
O O19 0.703780 0.818748 0.750000
#
# Coordination Sequence:
#
# PCOD9437341 Si02
#       7
#     8   8   8   8   8   8   8
#     4  10  20  37  56  79 114 148 183 229 277 326
#     4  11  21  34  54  81 112 146 183 224 275 327
#     4  10  20  35  60  88 108 137 181 227 275 334
#     4  10  21  37  54  78 113 147 176 221 277 322
#     4  10  21  37  54  74 106 146 186 226 268 315
#     4   9  19  37  57  82 114 145 174 220 284 333
#     4  10  21  36  57  82 114 152 188 230 278 329
#
# _framework density 20.743396000000001
#
# number of rings (size 3 to 8) (size 9 to 14) (size 15 to 20)
#    0.000    2.000    1.429    2.143    0.000    5.143 
#    0.000    0.714    0.000    0.000    0.000    0.000 
#    0.000    0.000    0.000    0.000    0.000    0.000 
#
# Total GULP energy -312792.536217 kJ/mol
# GULP energy per Si atom -5585.581004 kJ/mol
# Density = 2.069618 g / cm^3
# Si number density = 20.743396 Si / 1000 Ang^3
#
#
#
# Elastic Constant Matrix: (Units=GPa)
#
#
# Indices 1 2 3 4 5 6 
#
# 1 110.9405 40.7050 -4.6411 0.0000 0.0000 0.0000
# 2 40.7050 93.6122 -7.0712 0.0000 0.0000 0.0000
# 3 -4.6411 -7.0712 39.3511 0.0000 0.0000 0.0000
# 4 0.0000 0.0000 0.0000 22.8028 0.0000 0.0000
# 5 0.0000 0.0000 0.0000 0.0000 8.5603 0.0000
# 6 0.0000 0.0000 0.0000 0.0000 0.0000 15.8780
#
#
#
# Elastic Compliance Matrix: (Units=1/GPa)
#
#
# Indices 1 2 3 4 5 6 
#
# 1 0.010732 -0.004634 0.000433 0.000000 0.000000 0.000000
# 2 -0.004634 0.012830 0.001759 0.000000 0.000000 0.000000
# 3 0.000433 0.001759 0.025779 0.000000 0.000000 0.000000
# 4 0.000000 0.000000 0.000000 0.043854 0.000000 0.000000
# 5 0.000000 0.000000 0.000000 0.000000 0.116819 0.000000
# 6 0.000000 0.000000 0.000000 0.000000 0.000000 0.062980
#
#
# Mechanical properties :
#
#
# Convention : Reuss Voigt Hill
#
# Bulk Modulus (GPa) = 22.49311 33.54322 28.01816
# Shear Modulus (GPa) = 17.08245 23.77563 20.42904
#
# Velocity S-wave (km/s) = 2.87280 3.38920 3.14163
# Velocity P-wave (km/s) = 4.67665 5.61438 5.16683
#
# Compressibility (1/GPa) = 0.04445807
#
# Stress axis : x y z
#
# Youngs Moduli (GPa) = 93.17774 77.94125 38.79069
#
# Poissons Ratio (x) = 0.36117 -0.01680
# Poissons Ratio (y) = 0.43178 -0.06823
# Poissons Ratio (z) = -0.04035 -0.13710
#
# Static dielectric constant tensor:
#      x y z
#    x 1.737210 0.000000 0.000000 
#    y 0.000000 1.413250 0.000000 
#    z 0.000000 0.000000 1.777650 
# 
# From -- ./inp_files/5127.got.cif
#   From: 2010.05.17/outbox.cif.g08.bks.cpg/sg57_3_cif.got.tgz:5127.got - 2010.06.03 13:58:18.
