data_PCOD9437831
_publ_section_title
;
Structure prediction by ZEFSAII (Michael W. Deem and Ramdas Pophale) SiO2 
 PCOD9437831
Probable space group: P B C M
;
_chemical_formula_sum "Si O2"
_cell_formula_units_Z 64
_cell_length_a 15.685117
_cell_length_b 12.349003
_cell_length_c 15.664760
_cell_angle_alpha 90.000000
_cell_angle_beta 90.000000
_cell_angle_gamma 90.000000
_cell_volume 3034.194412
_symmetry_space_group_name_H-M "P B C M"
_symmetry_group_IT_number 57
_symmetry_cell_setting 'orthorhombic'
loop_
_space_group_symop_operation_xyz
x,y,z
-x,-y,1/2+z
x,1/2-y,-z
-x,1/2+y,1/2-z
-x,-y,-z
x,y,1/2-z
-x,1/2+y,z
x,1/2-y,1/2+z
loop_
_atom_site_type_symbol
_atom_site_label
_atom_site_fract_x
_atom_site_fract_y
_atom_site_fract_z
Si Si1 0.732000 0.078244 0.084883
Si Si2 0.330102 0.961190 0.105095
Si Si3 0.885425 0.274911 0.646363
Si Si4 0.414173 0.741709 0.104506
Si Si5 0.082599 0.310950 0.645372
Si Si6 0.763518 0.837363 0.349265
Si Si7 0.603937 0.801052 0.594923
Si Si8 0.147422 0.534590 0.654664
O O1 0.818706 0.141860 0.105981
O O2 0.653758 0.147332 0.125920
O O3 0.741161 0.953507 0.111626
O O4 0.709393 0.074034 0.985520
O O5 0.381467 0.857468 0.137222
O O6 0.247634 0.987117 0.160286
O O7 0.383471 0.069939 0.092725
O O8 0.875247 0.282321 0.750000
O O9 0.864228 0.153175 0.617046
O O10 0.984288 0.292002 0.625395
O O11 0.510633 0.721055 0.132877
O O12 0.417019 0.750000 0.000000
O O13 0.090202 0.312822 0.750000
O O14 0.151543 0.222139 0.615328
O O15 0.107728 0.429650 0.611521
O O16 0.779347 0.857624 0.250000
O O17 0.683593 0.756334 0.359531
O O18 0.605653 0.750000 0.500000
O O19 0.109116 0.542036 0.750000
#
# Coordination Sequence:
#
# PCOD9437831 Si02
#       8
#     8   8   8   8   8   8   8   8
#     4  11  22  38  61  86 121 155 193 249 295 349
#     4  11  21  39  64  87 119 153 201 246 293 350
#     4  10  21  37  60  86 116 158 199 240 295 352
#     4   9  22  37  61  89 113 156 203 238 287 356
#     4   9  20  37  59  85 114 156 205 241 284 356
#     4  11  23  39  60  89 122 155 194 245 297 345
#     4  11  22  39  64  87 116 158 202 240 291 356
#     4  10  20  37  61  84 115 155 201 247 290 347
#
# _framework density 21.092912999999999
#
# number of rings (size 3 to 8) (size 9 to 14) (size 15 to 20)
#    0.000    1.750    3.750    0.375    3.500    1.500 
#    0.000    2.500    5.500    0.000    0.000    0.000 
#    0.000    0.000    0.000    0.000    0.000    0.000 
#
# Total GULP energy -357314.102996 kJ/mol
# GULP energy per Si atom -5583.032859 kJ/mol
# Density = 2.104490 g / cm^3
# Si number density = 21.092913 Si / 1000 Ang^3
#
#
#
# Elastic Constant Matrix: (Units=GPa)
#
#
# Indices 1 2 3 4 5 6 
#
# 1 165.2454 82.0507 13.8324 0.0000 0.0000 0.0000
# 2 82.0507 167.5693 14.3441 0.0000 0.0000 0.0000
# 3 13.8324 14.3441 27.1734 0.0000 0.0000 0.0000
# 4 0.0000 0.0000 0.0000 -71.6095 0.0000 0.0000
# 5 0.0000 0.0000 0.0000 0.0000 18.7367 0.0000
# 6 0.0000 0.0000 0.0000 0.0000 0.0000 28.3819
#
#
#
# Elastic Compliance Matrix: (Units=1/GPa)
#
#
# Indices 1 2 3 4 5 6 
#
# 1 0.008111 -0.003790 -0.002129 0.000000 0.000000 0.000000
# 2 -0.003790 0.008021 -0.002305 0.000000 0.000000 0.000000
# 3 -0.002129 -0.002305 0.039101 0.000000 0.000000 0.000000
# 4 0.000000 0.000000 0.000000 -0.013965 0.000000 0.000000
# 5 0.000000 0.000000 0.000000 0.000000 0.053371 0.000000
# 6 0.000000 0.000000 0.000000 0.000000 0.000000 0.035234
#
#
# Mechanical properties :
#
#
# Convention : Reuss Voigt Hill
#
# Bulk Modulus (GPa) = 25.78191 64.49361 45.13776
# Shear Modulus (GPa) = 31.39752 11.75254 21.57503
#
# Velocity S-wave (km/s) = 3.86234 2.36303 3.20168
# Velocity P-wave (km/s) = 5.66919 6.17151 5.92568
#
# Compressibility (1/GPa) = 0.03878688
#
# Stress axis : x y z
#
# Youngs Moduli (GPa) = 123.28228 124.67973 25.57486
#
# Poissons Ratio (x) = 0.47248 0.05444
# Poissons Ratio (y) = 0.46719 0.05894
# Poissons Ratio (z) = 0.26243 0.28736
#
# Static dielectric constant tensor:
#      x y z
#    x 1.743610 0.000000 0.000000 
#    y 0.000000 1.760520 0.000000 
#    z 0.000000 0.000000 1.918480 
# 
# From -- ./inp_files/22636.got.cif
#   From: 2010.05.17/outbox.cif.g08.bks.cpg/sg57_12_cif.got.tgz:22636.got - 2010.06.03 13:58:18.
