data_PCOD9437500
_publ_section_title
;
Structure prediction by ZEFSAII (Michael W. Deem and Ramdas Pophale) SiO2 
 PCOD9437500
Probable space group: P B C M
;
_chemical_formula_sum "Si O2"
_cell_formula_units_Z 48
_cell_length_a 14.120496
_cell_length_b 9.207273
_cell_length_c 18.752041
_cell_angle_alpha 90.000000
_cell_angle_beta 90.000000
_cell_angle_gamma 90.000000
_cell_volume 2437.976507
_symmetry_space_group_name_H-M "P B C M"
_symmetry_group_IT_number 57
_symmetry_cell_setting 'orthorhombic'
loop_
_space_group_symop_operation_xyz
x,y,z
-x,-y,1/2+z
x,1/2-y,-z
-x,1/2+y,1/2-z
-x,-y,-z
x,y,1/2-z
-x,1/2+y,z
x,1/2-y,1/2+z
loop_
_atom_site_type_symbol
_atom_site_label
_atom_site_fract_x
_atom_site_fract_y
_atom_site_fract_z
Si Si1 0.306353 0.362752 0.166702
Si Si2 0.591451 0.914722 0.027281
Si Si3 0.115404 0.999049 0.604024
Si Si4 0.992266 0.741971 0.332171
Si Si5 0.223747 0.584939 0.974103
Si Si6 0.202641 0.060348 0.329781
O O1 0.326595 0.386103 0.250000
O O2 0.389257 0.406531 0.112381
O O3 0.211837 0.451342 0.143818
O O4 0.276267 0.193408 0.156983
O O5 0.588267 0.750000 0.000000
O O6 0.500000 0.000000 0.000000
O O7 0.682497 0.996877 0.995720
O O8 0.139511 0.984983 0.520952
O O9 0.077529 0.848826 0.635341
O O10 0.037864 0.120446 0.621573
O O11 0.009623 0.785901 0.250000
O O12 0.899807 0.637824 0.331971
O O13 0.209253 0.558552 0.890878
O O14 0.232816 0.750000 0.000000
O O15 0.218160 0.003790 0.250000
#
# Coordination Sequence:
#
# PCOD9437500 Si02
#       6
#     8   8   8   8   8   8
#     4   9  18  38  65  92 124 167 210 256 314 376
#     4  11  22  41  68  95 125 162 202 258 319 384
#     4  10  22  36  59  88 126 170 215 268 315 371
#     4  10  20  36  57  88 122 163 215 262 313 369
#     4  11  24  42  60  93 126 164 214 261 319 385
#     4   9  19  38  63  86 118 165 214 260 312 365
#
# _framework density 19.688459000000002
#
# number of rings (size 3 to 8) (size 9 to 14) (size 15 to 20)
#    0.000    2.000    1.667    3.000    2.333    0.667 
#    0.000    5.833    0.000    0.000    0.000    0.000 
#    0.000    0.000    0.000    0.000    0.000    0.000 
#
# Total GULP energy -268224.678934 kJ/mol
# GULP energy per Si atom -5588.014144 kJ/mol
# Density = 1.964365 g / cm^3
# Si number density = 19.688459 Si / 1000 Ang^3
#
#
#
# Elastic Constant Matrix: (Units=GPa)
#
#
# Indices 1 2 3 4 5 6 
#
# 1 64.1056 53.0915 55.5436 0.0000 0.0000 0.0000
# 2 53.0915 131.6097 77.2749 0.0000 0.0000 0.0000
# 3 55.5436 77.2749 183.4758 0.0000 0.0000 0.0000
# 4 0.0000 0.0000 0.0000 19.1092 0.0000 0.0000
# 5 0.0000 0.0000 0.0000 0.0000 23.5162 0.0000
# 6 0.0000 0.0000 0.0000 0.0000 0.0000 23.1591
#
#
#
# Elastic Compliance Matrix: (Units=1/GPa)
#
#
# Indices 1 2 3 4 5 6 
#
# 1 0.026050 -0.007809 -0.004597 0.000000 0.000000 0.000000
# 2 -0.007809 0.012436 -0.002873 0.000000 0.000000 0.000000
# 3 -0.004597 -0.002873 0.008052 0.000000 0.000000 0.000000
# 4 0.000000 0.000000 0.000000 0.052331 0.000000 0.000000
# 5 0.000000 0.000000 0.000000 0.000000 0.042524 0.000000
# 6 0.000000 0.000000 0.000000 0.000000 0.000000 0.043179
#
#
# Mechanical properties :
#
#
# Convention : Reuss Voigt Hill
#
# Bulk Modulus (GPa) = 62.58557 83.44566 73.01562
# Shear Modulus (GPa) = 22.68010 26.04233 24.36121
#
# Velocity S-wave (km/s) = 3.39772 3.64087 3.52139
# Velocity P-wave (km/s) = 6.87384 7.75562 7.32800
#
# Compressibility (1/GPa) = 0.01597812
#
# Stress axis : x y z
#
# Youngs Moduli (GPa) = 38.38779 80.41368 124.19040
#
# Poissons Ratio (x) = 0.62799 0.57090
# Poissons Ratio (y) = 0.29979 0.35685
# Poissons Ratio (z) = 0.17647 0.23106
#
# Static dielectric constant tensor:
#      x y z
#    x 1.678310 0.000000 0.000000 
#    y 0.000000 1.695720 0.000000 
#    z 0.000000 0.000000 1.696620 
# 
# From -- ./inp_files/22449.got.cif
#   From: 2010.05.17/outbox.cif.g08.bks.cpg/sg57_12_cif.got.tgz:22449.got - 2010.06.03 13:58:18.
