data_PCOD9437175
_publ_section_title
;
Structure prediction by ZEFSAII (Michael W. Deem and Ramdas Pophale) SiO2 
 PCOD9437175
Probable space group: P B C M
;
_chemical_formula_sum "Si O2"
_cell_formula_units_Z 64
_cell_length_a 16.781958
_cell_length_b 21.830276
_cell_length_c 9.244870
_cell_angle_alpha 90.000000
_cell_angle_beta 90.000000
_cell_angle_gamma 90.000000
_cell_volume 3386.902268
_symmetry_space_group_name_H-M "P B C M"
_symmetry_group_IT_number 57
_symmetry_cell_setting 'orthorhombic'
loop_
_space_group_symop_operation_xyz
x,y,z
-x,-y,1/2+z
x,1/2-y,-z
-x,1/2+y,1/2-z
-x,-y,-z
x,y,1/2-z
-x,1/2+y,z
x,1/2-y,1/2+z
loop_
_atom_site_type_symbol
_atom_site_label
_atom_site_fract_x
_atom_site_fract_y
_atom_site_fract_z
Si Si1 0.056473 0.815072 0.422817
Si Si2 0.701307 0.694888 0.915310
Si Si3 0.381192 0.611510 0.077192
Si Si4 0.221176 0.437750 0.416656
Si Si5 0.445409 0.356191 0.580939
Si Si6 0.366313 0.489121 0.918635
Si Si7 0.244193 0.685125 0.577294
Si Si8 0.966591 0.560277 0.577140
O O1 0.038095 0.750000 0.500000
O O2 0.044962 0.807008 0.250000
O O3 0.150541 0.828967 0.447289
O O4 0.005963 0.874832 0.469770
O O5 0.692132 0.712127 0.750000
O O6 0.750448 0.632465 0.925104
O O7 0.741600 0.750000 0.000000
O O8 0.615421 0.681697 0.984938
O O9 0.369835 0.611930 0.250000
O O10 0.461773 0.649200 0.043570
O O11 0.396686 0.543291 0.019482
O O12 0.304397 0.637401 0.995078
O O13 0.235518 0.458606 0.250000
O O14 0.276971 0.474321 0.526644
O O15 0.128088 0.439990 0.447262
O O16 0.435061 0.340725 0.750000
O O17 0.417135 0.426986 0.564644
O O18 0.367432 0.506641 0.750000
O O19 0.259632 0.750000 0.500000
O O20 0.257001 0.688853 0.750000
O O21 0.980779 0.555711 0.750000
O O22 0.000000 0.500000 0.500000
#
# Coordination Sequence:
#
# PCOD9437175 Si02
#       8
#     8   8   8   8   8   8   8   8
#     4   9  20  39  61  84 114 150 192 237 284 343
#     4  10  20  35  57  81 110 147 186 230 280 332
#     4  11  22  35  55  81 109 144 184 228 279 334
#     4   9  20  38  56  80 113 148 184 227 277 334
#     4   9  20  37  54  77 109 144 185 230 277 332
#     4  10  20  35  56  80 109 144 184 228 275 331
#     4  10  21  38  57  80 109 143 185 232 278 330
#     4  10  22  39  59  88 122 153 190 239 290 346
#
# _framework density 18.896322000000001
#
# number of rings (size 3 to 8) (size 9 to 14) (size 15 to 20)
#    0.000    2.250    0.000    1.875    1.750    4.500 
#    0.000    0.000    0.000    0.000    0.000    0.000 
#    0.000    0.000    0.000    0.000    0.000    0.000 
#
# Total GULP energy -357198.718742 kJ/mol
# GULP energy per Si atom -5581.229980 kJ/mol
# Density = 1.885331 g / cm^3
# Si number density = 18.896322 Si / 1000 Ang^3
#
#
#
# Elastic Constant Matrix: (Units=GPa)
#
#
# Indices 1 2 3 4 5 6 
#
# 1 80.7626 31.2024 39.4571 0.0000 0.0000 0.0000
# 2 31.2024 59.0163 28.2007 0.0000 0.0000 0.0000
# 3 39.4571 28.2007 58.4717 0.0000 0.0000 0.0000
# 4 0.0000 0.0000 0.0000 36.7156 0.0000 0.0000
# 5 0.0000 0.0000 0.0000 0.0000 21.7258 0.0000
# 6 0.0000 0.0000 0.0000 0.0000 0.0000 2.6619
#
#
#
# Elastic Compliance Matrix: (Units=1/GPa)
#
#
# Indices 1 2 3 4 5 6 
#
# 1 0.019656 -0.005268 -0.010723 0.000000 0.000000 0.000000
# 2 -0.005268 0.023431 -0.007746 0.000000 0.000000 0.000000
# 3 -0.010723 -0.007746 0.028074 0.000000 0.000000 0.000000
# 4 0.000000 0.000000 0.000000 0.027236 0.000000 0.000000
# 5 0.000000 0.000000 0.000000 0.000000 0.046028 0.000000
# 6 0.000000 0.000000 0.000000 0.000000 0.000000 0.375678
#
#
# Mechanical properties :
#
#
# Convention : Reuss Voigt Hill
#
# Bulk Modulus (GPa) = 42.21728 43.99679 43.10703
# Shear Modulus (GPa) = 8.68849 18.84669 13.76759
#
# Velocity S-wave (km/s) = 2.14662 3.16155 2.70216
# Velocity P-wave (km/s) = 5.34172 6.05483 5.70942
#
# Compressibility (1/GPa) = 0.02368698
#
# Stress axis : x y z
#
# Youngs Moduli (GPa) = 50.87413 42.67833 35.62001
#
# Poissons Ratio (x) = 0.22485 0.38196
# Poissons Ratio (y) = 0.26802 0.27590
# Poissons Ratio (z) = 0.54554 0.33057
#
# Static dielectric constant tensor:
#      x y z
#    x 1.641960 0.000000 0.000000 
#    y 0.000000 1.677990 0.000000 
#    z 0.000000 0.000000 1.647040 
# 
# From -- ./inp_files/5711.got.cif
#   From: 2010.05.17/outbox.cif.g08.bks.cpg/sg57_3_cif.got.tgz:5711.got - 2010.06.03 13:58:18.
