data_PCOD9437837
_publ_section_title
;
Structure prediction by ZEFSAII (Michael W. Deem and Ramdas Pophale) SiO2 
 PCOD9437837
Probable space group: P B C M
;
_chemical_formula_sum "Si O2"
_cell_formula_units_Z 48
_cell_length_a 9.817511
_cell_length_b 31.001283
_cell_length_c 8.729962
_cell_angle_alpha 90.000000
_cell_angle_beta 90.000000
_cell_angle_gamma 90.000000
_cell_volume 2657.011398
_symmetry_space_group_name_H-M "P B C M"
_symmetry_group_IT_number 57
_symmetry_cell_setting 'orthorhombic'
loop_
_space_group_symop_operation_xyz
x,y,z
-x,-y,1/2+z
x,1/2-y,-z
-x,1/2+y,1/2-z
-x,-y,-z
x,y,1/2-z
-x,1/2+y,z
x,1/2-y,1/2+z
loop_
_atom_site_type_symbol
_atom_site_label
_atom_site_fract_x
_atom_site_fract_y
_atom_site_fract_z
Si Si1 0.805177 0.702252 0.566951
Si Si2 0.356408 0.516211 0.431801
Si Si3 0.699715 0.110304 0.567119
Si Si4 0.784628 0.936928 0.931458
Si Si5 0.421921 0.142139 0.067484
Si Si6 0.009756 0.867978 0.566006
O O1 0.817330 0.750000 0.500000
O O2 0.808148 0.703015 0.750000
O O3 0.666171 0.679876 0.508468
O O4 0.925343 0.671692 0.503499
O O5 0.500000 0.500000 0.500000
O O6 0.369145 0.521704 0.250000
O O7 0.317451 0.561435 0.507326
O O8 0.246860 0.479437 0.473122
O O9 0.700145 0.110944 0.750000
O O10 0.570070 0.136317 0.503471
O O11 0.840355 0.128571 0.501339
O O12 0.784836 0.947236 0.750000
O O13 0.663632 0.902143 0.958046
O O14 0.922790 0.911347 0.969712
O O15 0.429041 0.148626 0.250000
O O16 0.012245 0.864012 0.750000
#
# Coordination Sequence:
#
# PCOD9437837 Si02
#       6
#     8   8   8   8   8   8
#     4  11  22  40  66  94 121 152 194 237 288 352
#     4  12  23  35  55  82 116 157 204 252 298 345
#     4  12  24  38  58  86 120 158 200 245 298 353
#     4   9  19  36  58  82 112 153 201 244 290 345
#     4  10  20  37  61  87 118 153 193 240 293 346
#     4  10  22  41  62  86 120 158 196 243 301 356
#
# _framework density 18.06541
#
# number of rings (size 3 to 8) (size 9 to 14) (size 15 to 20)
#    0.000    1.333    1.667    6.500    0.000    4.000 
#    0.000    0.833    0.000    0.000    0.000    0.000 
#    0.000    0.000    0.000    0.000    0.000    0.000 
#
# Total GULP energy -268388.637538 kJ/mol
# GULP energy per Si atom -5591.429949 kJ/mol
# Density = 1.802429 g / cm^3
# Si number density = 18.065410 Si / 1000 Ang^3
#
#
#
# Elastic Constant Matrix: (Units=GPa)
#
#
# Indices 1 2 3 4 5 6 
#
# 1 163.9395 65.8950 74.5788 0.0000 0.0000 0.0000
# 2 65.8950 116.3569 62.0078 0.0000 0.0000 0.0000
# 3 74.5788 62.0078 141.3208 0.0000 0.0000 0.0000
# 4 0.0000 0.0000 0.0000 30.5325 0.0000 0.0000
# 5 0.0000 0.0000 0.0000 0.0000 32.5599 0.0000
# 6 0.0000 0.0000 0.0000 0.0000 0.0000 14.9426
#
#
#
# Elastic Compliance Matrix: (Units=1/GPa)
#
#
# Indices 1 2 3 4 5 6 
#
# 1 0.008910 -0.003315 -0.003247 0.000000 0.000000 0.000000
# 2 -0.003315 0.012451 -0.003714 0.000000 0.000000 0.000000
# 3 -0.003247 -0.003714 0.010419 0.000000 0.000000 0.000000
# 4 0.000000 0.000000 0.000000 0.032752 0.000000 0.000000
# 5 0.000000 0.000000 0.000000 0.000000 0.030713 0.000000
# 6 0.000000 0.000000 0.000000 0.000000 0.000000 0.066923
#
#
# Mechanical properties :
#
#
# Convention : Reuss Voigt Hill
#
# Bulk Modulus (GPa) = 89.06653 91.84227 90.45440
# Shear Modulus (GPa) = 26.81523 30.21603 28.51563
#
# Velocity S-wave (km/s) = 3.85689 4.09417 3.97730
# Velocity P-wave (km/s) = 8.32127 8.56147 8.44222
#
# Compressibility (1/GPa) = 0.01122756
#
# Stress axis : x y z
#
# Youngs Moduli (GPa) = 112.23934 80.31708 95.97733
#
# Poissons Ratio (x) = 0.26626 0.31166
# Poissons Ratio (y) = 0.37209 0.35641
# Poissons Ratio (z) = 0.36446 0.29826
#
# Static dielectric constant tensor:
#      x y z
#    x 1.613030 0.000000 0.000000 
#    y 0.000000 1.595080 0.000000 
#    z 0.000000 0.000000 1.599650 
# 
# From -- ./inp_files/1985.got.cif
#   From: 2010.05.17/outbox.cif.g08.bks.cpg/sg57_1_cif.got.tgz:1985.got - 2010.06.03 13:58:18.
