data_PCOD9437332
_publ_section_title
;
Structure prediction by ZEFSAII (Michael W. Deem and Ramdas Pophale) SiO2 
 PCOD9437332
Probable space group: P B C M
;
_chemical_formula_sum "Si O2"
_cell_formula_units_Z 64
_cell_length_a 24.434428
_cell_length_b 15.459464
_cell_length_c 8.783012
_cell_angle_alpha 90.000000
_cell_angle_beta 90.000000
_cell_angle_gamma 90.000000
_cell_volume 3317.722707
_symmetry_space_group_name_H-M "P B C M"
_symmetry_group_IT_number 57
_symmetry_cell_setting 'orthorhombic'
loop_
_space_group_symop_operation_xyz
x,y,z
-x,-y,1/2+z
x,1/2-y,-z
-x,1/2+y,1/2-z
-x,-y,-z
x,y,1/2-z
-x,1/2+y,z
x,1/2-y,1/2+z
loop_
_atom_site_type_symbol
_atom_site_label
_atom_site_fract_x
_atom_site_fract_y
_atom_site_fract_z
Si Si1 0.509094 0.849091 0.933521
Si Si2 0.878962 0.622021 0.074789
Si Si3 0.420178 0.995667 0.933964
Si Si4 0.896832 0.081055 0.575508
Si Si5 0.235269 0.162373 0.930533
Si Si6 0.705505 0.010754 0.064481
Si Si7 0.210275 0.841641 0.932136
Si Si8 0.002231 0.659324 0.067429
O O1 0.512416 0.842080 0.750000
O O2 0.455856 0.909606 0.972339
O O3 0.509077 0.750000 0.000000
O O4 0.556265 0.915077 0.994513
O O5 0.872708 0.652348 0.250000
O O6 0.878771 0.518353 0.074895
O O7 0.939235 0.647857 0.018336
O O8 0.828106 0.653526 0.977672
O O9 0.422943 0.005107 0.750000
O O10 0.357442 0.981564 0.981443
O O11 0.901037 0.110860 0.750000
O O12 0.850215 0.133740 0.488938
O O13 0.955674 0.089654 0.497020
O O14 0.239010 0.165332 0.750000
O O15 0.268070 0.079148 0.987561
O O16 0.257920 0.250000 0.000000
O O17 0.706184 0.010881 0.250000
O O18 0.745880 0.087034 0.015344
O O19 0.209976 0.839180 0.750000
O O20 0.225832 0.750000 0.000000
O O21 0.003224 0.658188 0.250000
O O22 0.022268 0.750000 0.000000
#
# Coordination Sequence:
#
# PCOD9437332 Si02
#       8
#     8   8   8   8   8   8   8   8
#     4  10  20  35  59  90 124 162 199 243 293 345
#     4  10  22  39  59  83 110 142 186 236 290 351
#     4   9  19  38  61  86 120 159 202 248 291 342
#     4  11  22  38  59  83 110 143 186 237 291 349
#     4  11  22  38  60  85 114 152 193 238 291 348
#     4   9  20  39  61  85 117 156 197 242 292 341
#     4  11  22  39  60  85 115 152 195 238 292 350
#     4  11  23  38  55  79 109 142 182 232 288 351
#
# _framework density 19.290338999999999
#
# number of rings (size 3 to 8) (size 9 to 14) (size 15 to 20)
#    0.000    1.750    1.250    3.000    0.000    4.000 
#    0.000    3.750    0.000    0.000    0.000    0.000 
#    0.000    0.000    0.000    0.000    0.000    0.000 
#
# Total GULP energy -357300.423751 kJ/mol
# GULP energy per Si atom -5582.819121 kJ/mol
# Density = 1.924643 g / cm^3
# Si number density = 19.290339 Si / 1000 Ang^3
#
#
#
# Elastic Constant Matrix: (Units=GPa)
#
#
# Indices 1 2 3 4 5 6 
#
# 1 107.4150 41.5514 23.1033 0.0000 0.0000 0.0000
# 2 41.5514 130.3508 30.5514 0.0000 0.0000 0.0000
# 3 23.1033 30.5514 52.1955 0.0000 0.0000 0.0000
# 4 0.0000 0.0000 0.0000 28.3049 0.0000 0.0000
# 5 0.0000 0.0000 0.0000 0.0000 22.0674 0.0000
# 6 0.0000 0.0000 0.0000 0.0000 0.0000 -10.1206
#
#
#
# Elastic Compliance Matrix: (Units=1/GPa)
#
#
# Indices 1 2 3 4 5 6 
#
# 1 0.011086 -0.002763 -0.003290 0.000000 0.000000 0.000000
# 2 -0.002763 0.009580 -0.004385 0.000000 0.000000 0.000000
# 3 -0.003290 -0.004385 0.023181 0.000000 0.000000 0.000000
# 4 0.000000 0.000000 0.000000 0.035330 0.000000 0.000000
# 5 0.000000 0.000000 0.000000 0.000000 0.045316 0.000000
# 6 0.000000 0.000000 0.000000 0.000000 0.000000 -0.098809
#
#
# Mechanical properties :
#
#
# Convention : Reuss Voigt Hill
#
# Bulk Modulus (GPa) = 43.52946 53.37483 48.45215
# Shear Modulus (GPa) = 92.22429 21.03402 56.62916
#
# Velocity S-wave (km/s) = 6.92187 3.30569 5.42402
# Velocity P-wave (km/s) = 9.30040 6.50380 8.02486
#
# Compressibility (1/GPa) = 0.02297295
#
# Stress axis : x y z
#
# Youngs Moduli (GPa) = 90.20379 104.38512 43.13818
#
# Poissons Ratio (x) = 0.28839 0.14192
# Poissons Ratio (y) = 0.24921 0.18914
# Poissons Ratio (z) = 0.29676 0.45768
#
# Static dielectric constant tensor:
#      x y z
#    x 1.660460 0.000000 0.000000 
#    y 0.000000 1.675860 0.000000 
#    z 0.000000 0.000000 1.668830 
# 
# From -- ./inp_files/9395.got.cif
#   From: 2010.05.17/outbox.cif.g08.bks.cpg/sg57_5_cif.got.tgz:9395.got - 2010.06.03 13:58:18.
