data_PCOD9437443
_publ_section_title
;
Structure prediction by ZEFSAII (Michael W. Deem and Ramdas Pophale) SiO2 
 PCOD9437443
Probable space group: P B C M
;
_chemical_formula_sum "Si O2"
_cell_formula_units_Z 40
_cell_length_a 25.988443
_cell_length_b 9.802967
_cell_length_c 8.588830
_cell_angle_alpha 90.000000
_cell_angle_beta 90.000000
_cell_angle_gamma 90.000000
_cell_volume 2188.123390
_symmetry_space_group_name_H-M "P B C M"
_symmetry_group_IT_number 57
_symmetry_cell_setting 'orthorhombic'
loop_
_space_group_symop_operation_xyz
x,y,z
-x,-y,1/2+z
x,1/2-y,-z
-x,1/2+y,1/2-z
-x,-y,-z
x,y,1/2-z
-x,1/2+y,z
x,1/2-y,1/2+z
loop_
_atom_site_type_symbol
_atom_site_label
_atom_site_fract_x
_atom_site_fract_y
_atom_site_fract_z
Si Si1 0.342866 0.402490 0.063407
Si Si2 0.043513 0.098872 0.063497
Si Si3 0.160371 0.098431 0.437563
Si Si4 0.544046 0.901709 0.936629
Si Si5 0.253437 0.596156 0.937629
O O1 0.343334 0.398233 0.250000
O O2 0.331081 0.250000 0.000000
O O3 0.399536 0.440069 0.000744
O O4 0.301371 0.510016 0.002555
O O5 0.041998 0.099426 0.250000
O O6 0.102000 0.061763 0.014273
O O7 0.033989 0.250000 0.000000
O O8 0.000000 0.000000 0.000000
O O9 0.172356 0.250000 0.500000
O O10 0.161367 0.105589 0.250000
O O11 0.202216 0.987157 0.486553
O O12 0.544998 0.901410 0.750000
O O13 0.533902 0.750000 0.000000
O O14 0.500000 0.000000 0.000000
O O15 0.255688 0.598222 0.750000
O O16 0.253205 0.750000 0.000000
#
# Coordination Sequence:
#
# PCOD9437443 Si02
#       5
#     8   8   8   8   8
#     4  11  22  39  61  86 114 150 190 231 277 334
#     4  10  20  36  56  82 112 147 186 230 278 332
#     4   9  20  37  58  81 109 144 187 229 276 334
#     4  11  22  39  61  88 118 152 191 234 280 332
#     4  11  23  39  57  83 114 147 185 232 283 334
#
# _framework density 18.280505999999999
#
# number of rings (size 3 to 8) (size 9 to 14) (size 15 to 20)
#    0.000    1.600    0.000    6.600    0.000    5.600 
#    0.000    6.000    0.000    0.000    0.000    0.000 
#    0.000    0.000    0.000    0.000    0.000    0.000 
#
# Total GULP energy -223534.401069 kJ/mol
# GULP energy per Si atom -5588.360027 kJ/mol
# Density = 1.823890 g / cm^3
# Si number density = 18.280506 Si / 1000 Ang^3
#
#
#
# Elastic Constant Matrix: (Units=GPa)
#
#
# Indices 1 2 3 4 5 6 
#
# 1 184.7634 149.8923 70.9129 0.0000 0.0000 0.0000
# 2 149.8923 151.9003 62.7930 0.0000 0.0000 0.0000
# 3 70.9129 62.7930 123.0789 0.0000 0.0000 0.0000
# 4 0.0000 0.0000 0.0000 37.0806 0.0000 0.0000
# 5 0.0000 0.0000 0.0000 0.0000 26.6567 0.0000
# 6 0.0000 0.0000 0.0000 0.0000 0.0000 41.2775
#
#
#
# Elastic Compliance Matrix: (Units=1/GPa)
#
#
# Indices 1 2 3 4 5 6 
#
# 1 0.027756 -0.026332 -0.002558 0.000000 0.000000 0.000000
# 2 -0.026332 0.033324 -0.001830 0.000000 0.000000 0.000000
# 3 -0.002558 -0.001830 0.010532 0.000000 0.000000 0.000000
# 4 0.000000 0.000000 0.000000 0.026968 0.000000 0.000000
# 5 0.000000 0.000000 0.000000 0.000000 0.037514 0.000000
# 6 0.000000 0.000000 0.000000 0.000000 0.000000 0.024226
#
#
# Mechanical properties :
#
#
# Convention : Reuss Voigt Hill
#
# Bulk Modulus (GPa) = 98.30185 114.10435 106.20310
# Shear Modulus (GPa) = 22.20731 32.74591 27.47661
#
# Velocity S-wave (km/s) = 3.48919 4.23697 3.88113
# Velocity P-wave (km/s) = 8.37398 9.30000 8.84911
#
# Compressibility (1/GPa) = 0.01017275
#
# Stress axis : x y z
#
# Youngs Moduli (GPa) = 36.02778 30.00870 94.94773
#
# Poissons Ratio (x) = 0.79019 0.24286
# Poissons Ratio (y) = 0.94869 0.17374
# Poissons Ratio (z) = 0.09215 0.05491
#
# Static dielectric constant tensor:
#      x y z
#    x 1.629870 0.000000 0.000000 
#    y 0.000000 1.571950 0.000000 
#    z 0.000000 0.000000 1.615090 
# 
# From -- ./inp_files/8849.got.cif
#   From: 2010.05.17/outbox.cif.g08.bks.cpg/sg57_5_cif.got.tgz:8849.got - 2010.06.03 13:58:18.
