data_PCOD9437504
_publ_section_title
;
Structure prediction by ZEFSAII (Michael W. Deem and Ramdas Pophale) SiO2 
 PCOD9437504
Probable space group: P B C M
;
_chemical_formula_sum "Si O2"
_cell_formula_units_Z 64
_cell_length_a 21.246132
_cell_length_b 16.870679
_cell_length_c 7.542255
_cell_angle_alpha 90.000000
_cell_angle_beta 90.000000
_cell_angle_gamma 90.000000
_cell_volume 2703.420789
_symmetry_space_group_name_H-M "P B C M"
_symmetry_group_IT_number 57
_symmetry_cell_setting 'orthorhombic'
loop_
_space_group_symop_operation_xyz
x,y,z
-x,-y,1/2+z
x,1/2-y,-z
-x,1/2+y,1/2-z
-x,-y,-z
x,y,1/2-z
-x,1/2+y,z
x,1/2-y,1/2+z
loop_
_atom_site_type_symbol
_atom_site_label
_atom_site_fract_x
_atom_site_fract_y
_atom_site_fract_z
Si Si1 0.302868 0.616273 0.467103
Si Si2 0.039218 0.340844 0.039762
Si Si3 0.061310 0.947658 0.943080
Si Si4 0.294994 0.066866 0.963039
Si Si5 0.173357 0.343437 0.037432
Si Si6 0.833926 0.161274 0.463316
Si Si7 0.561723 0.113116 0.047407
Si Si8 0.431560 0.071839 0.460952
O O1 0.304969 0.618990 0.250000
O O2 0.295971 0.524357 0.521401
O O3 0.238666 0.657660 0.525819
O O4 0.372181 0.643683 0.530894
O O5 0.029187 0.352559 0.250000
O O6 0.105721 0.378842 0.977989
O O7 0.050094 0.250000 0.000000
O O8 0.977746 0.366070 0.937651
O O9 0.079242 0.978628 0.750000
O O10 0.124788 0.913916 0.032913
O O11 0.000000 0.000000 0.000000
O O12 0.290762 0.065972 0.750000
O O13 0.233940 0.111564 0.032771
O O14 0.362064 0.105223 0.009433
O O15 0.171315 0.350698 0.250000
O O16 0.179232 0.250000 0.000000
O O17 0.858304 0.250000 0.500000
O O18 0.833751 0.151266 0.250000
O O19 0.559575 0.141674 0.250000
O O20 0.491425 0.122031 0.970749
O O21 0.568287 0.016413 0.045269
O O22 0.440217 0.060738 0.250000
#
# Coordination Sequence:
#
# PCOD9437504 Si02
#       8
#     8   8   8   8   8   8   8   8
#     4   8  15  30  53  75  96 130 174 212 249 306
#     4  10  20  36  58  80 106 140 179 220 263 318
#     4  11  24  39  58  84 111 142 177 221 271 319
#     4   9  17  30  49  71  99 136 175 212 260 316
#     4   9  19  33  52  74  99 135 173 212 257 310
#     4  10  22  39  60  81 107 142 179 217 263 320
#     4   8  14  26  44  66  96 132 170 208 254 313
#     4   9  15  23  40  69 100 130 165 213 264 303
#
# _framework density 23.673708999999999
#
# number of rings (size 3 to 8) (size 9 to 14) (size 15 to 20)
#    0.000    2.750    0.000    2.250    1.750    3.500 
#    0.000    2.500    0.000    0.750    0.000    3.500 
#    0.000    0.000    0.000    0.000    0.000    0.000 
#
# Total GULP energy -356473.219993 kJ/mol
# GULP energy per Si atom -5569.894062 kJ/mol
# Density = 2.361983 g / cm^3
# Si number density = 23.673709 Si / 1000 Ang^3
#
#
#
# Elastic Constant Matrix: (Units=GPa)
#
#
# Indices 1 2 3 4 5 6 
#
# 1 144.0379 17.2522 -2.1819 0.0000 0.0000 0.0000
# 2 17.2522 33.0001 -3.4403 0.0000 0.0000 0.0000
# 3 -2.1819 -3.4403 70.5444 0.0000 0.0000 0.0000
# 4 0.0000 0.0000 0.0000 12.8139 0.0000 0.0000
# 5 0.0000 0.0000 0.0000 0.0000 16.7790 0.0000
# 6 0.0000 0.0000 0.0000 0.0000 0.0000 22.0333
#
#
#
# Elastic Compliance Matrix: (Units=1/GPa)
#
#
# Indices 1 2 3 4 5 6 
#
# 1 0.007407 -0.003868 0.000040 0.000000 0.000000 0.000000
# 2 -0.003868 0.032478 0.001464 0.000000 0.000000 0.000000
# 3 0.000040 0.001464 0.014248 0.000000 0.000000 0.000000
# 4 0.000000 0.000000 0.000000 0.078040 0.000000 0.000000
# 5 0.000000 0.000000 0.000000 0.000000 0.059598 0.000000
# 6 0.000000 0.000000 0.000000 0.000000 0.000000 0.045386
#
#
# Mechanical properties :
#
#
# Convention : Reuss Voigt Hill
#
# Bulk Modulus (GPa) = 20.24049 30.09362 25.16705
# Shear Modulus (GPa) = 19.35345 26.05539 22.70442
#
# Velocity S-wave (km/s) = 2.86231 3.32113 3.10022
# Velocity P-wave (km/s) = 4.41499 5.23889 4.84449
#
# Compressibility (1/GPa) = 0.04940592
#
# Stress axis : x y z
#
# Youngs Moduli (GPa) = 135.01642 30.79039 70.18471
#
# Poissons Ratio (x) = 0.11909 -0.00284
# Poissons Ratio (y) = 0.52222 -0.10277
# Poissons Ratio (z) = -0.00546 -0.04508
#
# Static dielectric constant tensor:
#      x y z
#    x 2.009590 0.000000 0.000000 
#    y 0.000000 2.001320 0.000000 
#    z 0.000000 0.000000 1.984960 
# 
# From -- ./inp_files/8495.got.cif
#   From: 2010.05.17/outbox.cif.g08.bks.cpg/sg57_5_cif.got.tgz:8495.got - 2010.06.03 13:58:18.
