data_PCOD9437491
_publ_section_title
;
Structure prediction by ZEFSAII (Michael W. Deem and Ramdas Pophale) SiO2 
 PCOD9437491
Probable space group: P B C M
;
_chemical_formula_sum "Si O2"
_cell_formula_units_Z 64
_cell_length_a 25.255791
_cell_length_b 14.611546
_cell_length_c 8.907696
_cell_angle_alpha 90.000000
_cell_angle_beta 90.000000
_cell_angle_gamma 90.000000
_cell_volume 3287.172778
_symmetry_space_group_name_H-M "P B C M"
_symmetry_group_IT_number 57
_symmetry_cell_setting 'orthorhombic'
loop_
_space_group_symop_operation_xyz
x,y,z
-x,-y,1/2+z
x,1/2-y,-z
-x,1/2+y,1/2-z
-x,-y,-z
x,y,1/2-z
-x,1/2+y,z
x,1/2-y,1/2+z
loop_
_atom_site_type_symbol
_atom_site_label
_atom_site_fract_x
_atom_site_fract_y
_atom_site_fract_z
Si Si1 0.562361 0.097565 0.579909
Si Si2 0.781336 0.350359 0.070223
Si Si3 0.027117 0.653624 0.429856
Si Si4 0.541494 0.621206 0.081601
Si Si5 0.875040 0.468942 0.930359
Si Si6 0.325378 0.962711 0.430193
Si Si7 0.649984 0.843586 0.427143
Si Si8 0.903969 0.652897 0.430137
O O1 0.560400 0.134281 0.750000
O O2 0.517178 0.141032 0.477481
O O3 0.622573 0.095137 0.521681
O O4 0.547965 0.989183 0.588696
O O5 0.788553 0.344455 0.250000
O O6 0.727852 0.407453 0.040067
O O7 0.777403 0.250000 0.000000
O O8 0.829991 0.403792 0.995761
O O9 0.044306 0.750000 0.500000
O O10 0.028475 0.661774 0.250000
O O11 0.068148 0.575190 0.473631
O O12 0.966042 0.638048 0.473525
O O13 0.550688 0.656735 0.250000
O O14 0.587649 0.652114 0.970388
O O15 0.871968 0.473375 0.750000
O O16 0.871733 0.569055 0.001777
O O17 0.331156 0.975597 0.250000
O O18 0.326377 0.062734 0.504852
O O19 0.671402 0.750000 0.500000
O O20 0.656953 0.841962 0.250000
O O21 0.888136 0.750000 0.500000
O O22 0.900326 0.655019 0.250000
#
# Coordination Sequence:
#
# PCOD9437491 Si02
#       8
#     8   8   8   8   8   8   8   8
#     4   8  14  27  48  73 102 138 178 221 271 325
#     4  11  24  43  65  88 114 145 185 236 289 340
#     4   9  19  33  53  83 119 157 196 238 284 336
#     4   9  16  27  45  73 108 143 180 221 266 320
#     4  11  22  37  58  86 118 154 196 240 287 339
#     4   9  20  39  60  81 109 146 188 234 284 335
#     4  11  21  34  55  82 114 149 186 228 276 334
#     4  10  20  36  57  84 119 158 196 236 284 339
#
# _framework density 19.469619999999999
#
# number of rings (size 3 to 8) (size 9 to 14) (size 15 to 20)
#    0.000    2.250    0.000    4.125    0.000    6.500 
#    0.000    1.250    0.000    4.500    0.000    0.000 
#    0.000    0.000    0.000    0.000    0.000    0.000 
#
# Total GULP energy -357375.207533 kJ/mol
# GULP energy per Si atom -5583.987618 kJ/mol
# Density = 1.942531 g / cm^3
# Si number density = 19.469620 Si / 1000 Ang^3
#
#
#
# Elastic Constant Matrix: (Units=GPa)
#
#
# Indices 1 2 3 4 5 6 
#
# 1 46.5193 49.4960 33.4327 0.0000 0.0000 0.0000
# 2 49.4960 135.2625 54.0990 0.0000 0.0000 0.0000
# 3 33.4327 54.0990 70.3002 0.0000 0.0000 0.0000
# 4 0.0000 0.0000 0.0000 31.2590 0.0000 0.0000
# 5 0.0000 0.0000 0.0000 0.0000 24.3153 0.0000
# 6 0.0000 0.0000 0.0000 0.0000 0.0000 9.8188
#
#
#
# Elastic Compliance Matrix: (Units=1/GPa)
#
#
# Indices 1 2 3 4 5 6 
#
# 1 0.040673 -0.010325 -0.011398 0.000000 0.000000 0.000000
# 2 -0.010325 0.013301 -0.005326 0.000000 0.000000 0.000000
# 3 -0.011398 -0.005326 0.023743 0.000000 0.000000 0.000000
# 4 0.000000 0.000000 0.000000 0.031991 0.000000 0.000000
# 5 0.000000 0.000000 0.000000 0.000000 0.041126 0.000000
# 6 0.000000 0.000000 0.000000 0.000000 0.000000 0.101846
#
#
# Mechanical properties :
#
#
# Convention : Reuss Voigt Hill
#
# Bulk Modulus (GPa) = 42.33404 58.45972 50.39688
# Shear Modulus (GPa) = 15.89065 20.74891 18.31978
#
# Velocity S-wave (km/s) = 2.85998 3.26806 3.07081
# Velocity P-wave (km/s) = 5.71811 6.65820 6.20598
#
# Compressibility (1/GPa) = 0.02362165
#
# Stress axis : x y z
#
# Youngs Moduli (GPa) = 24.58624 75.18135 42.11704
#
# Poissons Ratio (x) = 0.77623 0.48003
# Poissons Ratio (y) = 0.25385 0.22430
# Poissons Ratio (z) = 0.28022 0.40039
#
# Static dielectric constant tensor:
#      x y z
#    x 1.685690 0.000000 0.000000 
#    y 0.000000 1.690440 0.000000 
#    z 0.000000 0.000000 1.655560 
# 
# From -- ./inp_files/9416.got.cif
#   From: 2010.05.17/outbox.cif.g08.bks.cpg/sg57_5_cif.got.tgz:9416.got - 2010.06.03 13:58:18.
