data_PCOD9437763
_publ_section_title
;
Structure prediction by ZEFSAII (Michael W. Deem and Ramdas Pophale) SiO2 
 PCOD9437763
Probable space group: P B C M
;
_chemical_formula_sum "Si O2"
_cell_formula_units_Z 48
_cell_length_a 17.979795
_cell_length_b 15.940362
_cell_length_c 7.853517
_cell_angle_alpha 90.000000
_cell_angle_beta 90.000000
_cell_angle_gamma 90.000000
_cell_volume 2250.852850
_symmetry_space_group_name_H-M "P B C M"
_symmetry_group_IT_number 57
_symmetry_cell_setting 'orthorhombic'
loop_
_space_group_symop_operation_xyz
x,y,z
-x,-y,1/2+z
x,1/2-y,-z
-x,1/2+y,1/2-z
-x,-y,-z
x,y,1/2-z
-x,1/2+y,z
x,1/2-y,1/2+z
loop_
_atom_site_type_symbol
_atom_site_label
_atom_site_fract_x
_atom_site_fract_y
_atom_site_fract_z
Si Si1 0.681001 0.842069 0.045124
Si Si2 0.162047 0.096202 0.546813
Si Si3 0.681592 0.158040 0.454663
Si Si4 0.413758 0.999771 0.955306
Si Si5 0.000927 0.400983 0.952212
Si Si6 0.159344 0.900771 0.541539
O O1 0.682979 0.847617 0.250000
O O2 0.765558 0.855912 0.980151
O O3 0.628941 0.917251 0.982238
O O4 0.653729 0.750000 0.000000
O O5 0.168347 0.092674 0.750000
O O6 0.080532 0.132947 0.510336
O O7 0.164982 0.998825 0.488754
O O8 0.653861 0.250000 0.500000
O O9 0.684225 0.151605 0.250000
O O10 0.766435 0.145439 0.517718
O O11 0.629475 0.082913 0.517948
O O12 0.408146 0.999619 0.750000
O O13 0.500000 0.000000 0.000000
O O14 0.000248 0.394639 0.750000
O O15 0.921331 0.367189 0.016976
O O16 0.000000 0.500000 0.000000
O O17 0.159088 0.899507 0.750000
#
# Coordination Sequence:
#
# PCOD9437763 Si02
#       6
#     8   8   8   8   8   8
#     4  10  21  38  60  85 113 150 188 229 281 338
#     4   9  16  31  53  75 105 146 189 231 276 326
#     4  10  20  37  59  83 111 147 185 225 273 328
#     4  10  22  41  64  85 112 147 182 223 280 340
#     4   9  16  26  46  76 107 144 189 233 276 324
#     4   8  14  29  52  73 102 145 186 221 267 323
#
# _framework density 21.32525
#
# number of rings (size 3 to 8) (size 9 to 14) (size 15 to 20)
#    0.000    2.667    1.667    1.500    0.000    2.667 
#    0.000    8.333    0.000    4.000    0.000    0.000 
#    0.000    0.000    0.000    0.000    0.000    0.000 
#
# Total GULP energy -267776.151873 kJ/mol
# GULP energy per Si atom -5578.669831 kJ/mol
# Density = 2.127671 g / cm^3
# Si number density = 21.325250 Si / 1000 Ang^3
#
#
#
# Elastic Constant Matrix: (Units=GPa)
#
#
# Indices 1 2 3 4 5 6 
#
# 1 183.3924 88.9825 7.7242 0.0000 0.0000 0.0000
# 2 88.9825 135.7824 4.7673 0.0000 0.0000 0.0000
# 3 7.7242 4.7673 21.4599 0.0000 0.0000 0.0000
# 4 0.0000 0.0000 0.0000 17.0715 0.0000 0.0000
# 5 0.0000 0.0000 0.0000 0.0000 26.0712 0.0000
# 6 0.0000 0.0000 0.0000 0.0000 0.0000 -4.0758
#
#
#
# Elastic Compliance Matrix: (Units=1/GPa)
#
#
# Indices 1 2 3 4 5 6 
#
# 1 0.008059 -0.005220 -0.001741 0.000000 0.000000 0.000000
# 2 -0.005220 0.010804 -0.000521 0.000000 0.000000 0.000000
# 3 -0.001741 -0.000521 0.047341 0.000000 0.000000 0.000000
# 4 0.000000 0.000000 0.000000 0.058577 0.000000 0.000000
# 5 0.000000 0.000000 0.000000 0.000000 0.038356 0.000000
# 6 0.000000 0.000000 0.000000 0.000000 0.000000 -0.245348
#
#
# Mechanical properties :
#
#
# Convention : Reuss Voigt Hill
#
# Bulk Modulus (GPa) = 19.51637 60.39807 39.95722
# Shear Modulus (GPa) = -99.66853 23.75744 -37.95555
#
# Velocity S-wave (km/s) = -6.84389 3.34136 -4.22339
# Velocity P-wave (km/s) = 7.29932 6.57800 2.23719
#
# Compressibility (1/GPa) = 0.05123904
#
# Stress axis : x y z
#
# Youngs Moduli (GPa) = 124.08565 92.55865 21.12339
#
# Poissons Ratio (x) = 0.48317 0.03678
# Poissons Ratio (y) = 0.64775 0.01101
# Poissons Ratio (z) = 0.21604 0.04824
#
# Static dielectric constant tensor:
#      x y z
#    x 1.793210 0.000000 0.000000 
#    y 0.000000 1.763190 0.000000 
#    z 0.000000 0.000000 1.783420 
# 
# From -- ./inp_files/6523.got.cif
#   From: 2010.05.17/outbox.cif.g08.bks.cpg/sg57_4_cif.got.tgz:6523.got - 2010.06.03 13:58:18.
