data_PCOD9437699
_publ_section_title
;
Structure prediction by ZEFSAII (Michael W. Deem and Ramdas Pophale) SiO2 
 PCOD9437699
Probable space group: P B C M
;
_chemical_formula_sum "Si O2"
_cell_formula_units_Z 32
_cell_length_a 10.712161
_cell_length_b 8.456361
_cell_length_c 15.824863
_cell_angle_alpha 90.000000
_cell_angle_beta 90.000000
_cell_angle_gamma 90.000000
_cell_volume 1433.509465
_symmetry_space_group_name_H-M "P B C M"
_symmetry_group_IT_number 57
_symmetry_cell_setting 'orthorhombic'
loop_
_space_group_symop_operation_xyz
x,y,z
-x,-y,1/2+z
x,1/2-y,-z
-x,1/2+y,1/2-z
-x,-y,-z
x,y,1/2-z
-x,1/2+y,z
x,1/2-y,1/2+z
loop_
_atom_site_type_symbol
_atom_site_label
_atom_site_fract_x
_atom_site_fract_y
_atom_site_fract_z
Si Si1 0.906727 0.820459 0.906446
Si Si2 0.142477 0.847697 0.155523
Si Si3 0.349363 0.188903 0.902897
Si Si4 0.391069 0.814750 0.903525
O O1 0.784152 0.738512 0.865885
O O2 0.034114 0.780035 0.858990
O O3 0.879872 0.006682 0.907654
O O4 0.921349 0.750000 0.000000
O O5 0.132605 0.912799 0.250000
O O6 0.276925 0.771112 0.141846
O O7 0.473092 0.271562 0.866586
O O8 0.369860 0.001880 0.902662
O O9 0.342625 0.250000 0.000000
O O10 0.389741 0.750000 0.000000
#
# Coordination Sequence:
#
# PCOD9437699 Si02
#       4
#     8   8   8   8
#     4  11  22  41  65  92 123 166 216 261 313 378
#     4  12  25  41  61  93 130 166 207 263 323 380
#     4  10  20  36  63  94 120 154 207 259 303 357
#     4  11  20  38  64  91 123 160 204 253 305 371
#
# _framework density 22.322838000000001
#
# number of rings (size 3 to 8) (size 9 to 14) (size 15 to 20)
#    0.000    1.000    0.000   11.250    0.000    0.000 
#    0.000    7.500    0.000    0.000    0.000    0.000 
#    0.000    0.000    0.000    0.000    0.000    0.000 
#
# Total GULP energy -179063.027317 kJ/mol
# GULP energy per Si atom -5595.719604 kJ/mol
# Density = 2.227203 g / cm^3
# Si number density = 22.322838 Si / 1000 Ang^3
#
#
#
# Elastic Constant Matrix: (Units=GPa)
#
#
# Indices 1 2 3 4 5 6 
#
# 1 113.0152 -42.6180 14.2881 0.0000 0.0000 0.0000
# 2 -42.6180 66.3138 -4.7149 0.0000 0.0000 0.0000
# 3 14.2881 -4.7149 43.9539 0.0000 0.0000 0.0000
# 4 0.0000 0.0000 0.0000 10.6358 0.0000 0.0000
# 5 0.0000 0.0000 0.0000 0.0000 -6.4283 0.0000
# 6 0.0000 0.0000 0.0000 0.0000 0.0000 30.0474
#
#
#
# Elastic Compliance Matrix: (Units=1/GPa)
#
#
# Indices 1 2 3 4 5 6 
#
# 1 0.012089 0.007547 -0.003120 0.000000 0.000000 0.000000
# 2 0.007547 0.019908 -0.000318 0.000000 0.000000 0.000000
# 3 -0.003120 -0.000318 0.023731 0.000000 0.000000 0.000000
# 4 0.000000 0.000000 0.000000 0.094022 0.000000 0.000000
# 5 0.000000 0.000000 0.000000 0.000000 -0.155562 0.000000
# 6 0.000000 0.000000 0.000000 0.000000 0.000000 0.033281
#
#
# Mechanical properties :
#
#
# Convention : Reuss Voigt Hill
#
# Bulk Modulus (GPa) = 15.63808 17.46593 16.55201
# Shear Modulus (GPa) = 123.25455 23.93948 73.59702
#
# Velocity S-wave (km/s) = 7.43871 3.27834 5.74813
# Velocity P-wave (km/s) = 8.98887 4.70863 7.17534
#
# Compressibility (1/GPa) = 0.06394646
#
# Stress axis : x y z
#
# Youngs Moduli (GPa) = 82.72015 50.23186 42.13844
#
# Poissons Ratio (x) = -0.37912 0.13148
# Poissons Ratio (y) = -0.62432 0.01340
# Poissons Ratio (z) = 0.25810 0.01597
#
# Static dielectric constant tensor:
#      x y z
#    x 1.845230 0.000000 0.000000 
#    y 0.000000 1.775180 0.000000 
#    z 0.000000 0.000000 1.912350 
# 
# From -- ./inp_files/17255.got.cif
#   From: 2010.05.17/outbox.cif.g08.bks.cpg/sg57_9_cif.got.tgz:17255.got - 2010.06.03 13:58:18.
