data_PCOD9437876
_publ_section_title
;
Structure prediction by ZEFSAII (Michael W. Deem and Ramdas Pophale) SiO2 
 PCOD9437876
Probable space group: P B C M
;
_chemical_formula_sum "Si O2"
_cell_formula_units_Z 56
_cell_length_a 18.800593
_cell_length_b 9.025731
_cell_length_c 16.600434
_cell_angle_alpha 90.000000
_cell_angle_beta 90.000000
_cell_angle_gamma 90.000000
_cell_volume 2816.912623
_symmetry_space_group_name_H-M "P B C M"
_symmetry_group_IT_number 57
_symmetry_cell_setting 'orthorhombic'
loop_
_space_group_symop_operation_xyz
x,y,z
-x,-y,1/2+z
x,1/2-y,-z
-x,1/2+y,1/2-z
-x,-y,-z
x,y,1/2-z
-x,1/2+y,z
x,1/2-y,1/2+z
loop_
_atom_site_type_symbol
_atom_site_label
_atom_site_fract_x
_atom_site_fract_y
_atom_site_fract_z
Si Si1 0.075426 0.836001 0.347285
Si Si2 0.536935 0.274049 0.904668
Si Si3 0.341917 0.936868 0.374925
Si Si4 0.773770 0.307083 0.840947
Si Si5 0.334699 0.991030 0.564489
Si Si6 0.617992 0.746902 0.162634
Si Si7 0.036724 0.123098 0.058547
O O1 0.065771 0.838859 0.250000
O O2 0.150805 0.758442 0.366418
O O3 0.017204 0.727250 0.389453
O O4 0.075323 0.005513 0.381462
O O5 0.580258 0.136538 0.867973
O O6 0.595151 0.404796 0.902041
O O7 0.463196 0.291622 0.859707
O O8 0.521874 0.250000 0.000000
O O9 0.282956 0.826167 0.343145
O O10 0.332188 0.958735 0.470464
O O11 0.340240 0.094410 0.334993
O O12 0.780388 0.364484 0.750000
O O13 0.737262 0.428568 0.897036
O O14 0.348824 0.155911 0.592181
O O15 0.621307 0.822873 0.250000
O O16 0.072589 0.250000 0.000000
O O17 0.000000 0.000000 0.000000
#
# Coordination Sequence:
#
# PCOD9437876 Si02
#       7
#     8   8   8   8   8   8   8
#     4  10  20  37  62  89 121 157 188 227 284 339
#     4   9  19  35  54  74  99 136 181 226 280 341
#     4  10  21  37  55  75 104 142 181 224 275 333
#     4  10  21  38  59  82 110 144 181 223 272 329
#     4  10  21  37  56  77 104 143 186 226 273 337
#     4  12  23  33  50  77 107 137 178 236 287 327
#     4   9  19  35  58  90 122 151 190 235 270 317
#
# _framework density 19.879923000000002
#
# number of rings (size 3 to 8) (size 9 to 14) (size 15 to 20)
#    0.000    2.000    0.000    4.714    0.000   10.286 
#    0.000    4.286    0.000    8.571    0.000    0.000 
#    0.000    0.000    0.000    0.000    0.000    0.000 
#
# Total GULP energy -312228.571241 kJ/mol
# GULP energy per Si atom -5575.510201 kJ/mol
# Density = 1.983468 g / cm^3
# Si number density = 19.879923 Si / 1000 Ang^3
#
#
#
# Elastic Constant Matrix: (Units=GPa)
#
#
# Indices 1 2 3 4 5 6 
#
# 1 67.9682 9.2311 23.6097 0.0000 0.0000 0.0000
# 2 9.2311 83.3358 17.6403 0.0000 0.0000 0.0000
# 3 23.6097 17.6403 58.6785 0.0000 0.0000 0.0000
# 4 0.0000 0.0000 0.0000 29.3176 0.0000 0.0000
# 5 0.0000 0.0000 0.0000 0.0000 -123.0523 0.0000
# 6 0.0000 0.0000 0.0000 0.0000 0.0000 -8.5166
#
#
#
# Elastic Compliance Matrix: (Units=1/GPa)
#
#
# Indices 1 2 3 4 5 6 
#
# 1 0.017120 -0.000468 -0.006748 0.000000 0.000000 0.000000
# 2 -0.000468 0.012828 -0.003668 0.000000 0.000000 0.000000
# 3 -0.006748 -0.003668 0.020860 0.000000 0.000000 0.000000
# 4 0.000000 0.000000 0.000000 0.034109 0.000000 0.000000
# 5 0.000000 0.000000 0.000000 0.000000 -0.008127 0.000000
# 6 0.000000 0.000000 0.000000 0.000000 0.000000 -0.117418
#
#
# Mechanical properties :
#
#
# Convention : Reuss Voigt Hill
#
# Bulk Modulus (GPa) = 34.43508 34.54941 34.49225
# Shear Modulus (GPa) = -544.65598 -9.81682 -277.23640
#
# Velocity S-wave (km/s) = -16.57008 -2.22458 -11.82194
# Velocity P-wave (km/s) = 18.67434 3.28913 12.99832
#
# Compressibility (1/GPa) = 0.02904015
#
# Stress axis : x y z
#
# Youngs Moduli (GPa) = 58.41041 77.95482 47.93923
#
# Poissons Ratio (x) = 0.03649 0.32348
# Poissons Ratio (y) = 0.02734 0.17585
# Poissons Ratio (z) = 0.39414 0.28595
#
# Static dielectric constant tensor:
#      x y z
#    x 1.668870 0.000000 0.000000 
#    y 0.000000 1.728490 0.000000 
#    z 0.000000 0.000000 1.742940 
# 
# From -- ./inp_files/19376.got.cif
#   From: 2010.05.17/outbox.cif.g08.bks.cpg/sg57_10_cif.got.tgz:19376.got - 2010.06.03 13:58:18.
