data_PCOD9437429
_publ_section_title
;
Structure prediction by ZEFSAII (Michael W. Deem and Ramdas Pophale) SiO2 
 PCOD9437429
Probable space group: P B C M
;
_chemical_formula_sum "Si O2"
_cell_formula_units_Z 48
_cell_length_a 10.226390
_cell_length_b 31.254758
_cell_length_c 8.476772
_cell_angle_alpha 90.000000
_cell_angle_beta 90.000000
_cell_angle_gamma 90.000000
_cell_volume 2709.374219
_symmetry_space_group_name_H-M "P B C M"
_symmetry_group_IT_number 57
_symmetry_cell_setting 'orthorhombic'
loop_
_space_group_symop_operation_xyz
x,y,z
-x,-y,1/2+z
x,1/2-y,-z
-x,1/2+y,1/2-z
-x,-y,-z
x,y,1/2-z
-x,1/2+y,z
x,1/2-y,1/2+z
loop_
_atom_site_type_symbol
_atom_site_label
_atom_site_fract_x
_atom_site_fract_y
_atom_site_fract_z
Si Si1 0.900207 0.797022 0.940791
Si Si2 0.400570 0.202986 0.440503
Si Si3 0.898327 0.131073 0.441891
Si Si4 0.599229 0.370504 0.558923
Si Si5 0.895091 0.466272 0.560766
Si Si6 0.396948 0.534406 0.562269
O O1 0.902164 0.796782 0.750000
O O2 0.749800 0.804830 0.990809
O O3 0.998547 0.833762 0.997553
O O4 0.938559 0.750000 0.000000
O O5 0.439308 0.250000 0.500000
O O6 0.402750 0.203519 0.250000
O O7 0.497681 0.165616 0.494167
O O8 0.901406 0.131746 0.250000
O O9 0.748464 0.140214 0.488871
O O10 0.929060 0.082379 0.490524
O O11 0.596324 0.372304 0.750000
O O12 0.568656 0.417828 0.496670
O O13 0.892741 0.466930 0.750000
O O14 0.748959 0.475416 0.500111
O O15 0.000000 0.500000 0.500000
O O16 0.500000 0.500000 0.500000
O O17 0.395544 0.533794 0.750000
#
# Coordination Sequence:
#
# PCOD9437429 Si02
#       6
#     8   8   8   8   8   8
#     4   9  17  31  48  69  95 127 163 201 246 298
#     4   9  18  31  49  71  99 132 167 207 254 306
#     4   8  16  31  50  69  96 130 164 201 248 302
#     4   9  18  34  52  72  99 133 170 212 259 310
#     4  10  20  36  56  80 108 140 177 219 264 316
#     4  11  22  37  56  79 107 140 176 220 269 322
#
# _framework density 17.716267999999999
#
# number of rings (size 3 to 8) (size 9 to 14) (size 15 to 20)
#    0.000    2.667    0.000    3.000    0.000    2.667 
#    0.000    7.500    0.000    0.000    0.000    0.000 
#    0.000    0.000    0.000    0.000    0.000    0.000 
#
# Total GULP energy -267713.341061 kJ/mol
# GULP energy per Si atom -5577.361272 kJ/mol
# Density = 1.767595 g / cm^3
# Si number density = 17.716268 Si / 1000 Ang^3
#
#
#
# Elastic Constant Matrix: (Units=GPa)
#
#
# Indices 1 2 3 4 5 6 
#
# 1 135.8412 145.0902 31.8968 0.0000 0.0000 0.0000
# 2 145.0902 182.3250 34.2787 0.0000 0.0000 0.0000
# 3 31.8968 34.2787 35.8622 0.0000 0.0000 0.0000
# 4 0.0000 0.0000 0.0000 30.7578 0.0000 0.0000
# 5 0.0000 0.0000 0.0000 0.0000 20.4957 0.0000
# 6 0.0000 0.0000 0.0000 0.0000 0.0000 45.7009
#
#
#
# Elastic Compliance Matrix: (Units=1/GPa)
#
#
# Indices 1 2 3 4 5 6 
#
# 1 0.050874 -0.038983 -0.007987 0.000000 0.000000 0.000000
# 2 -0.038983 0.036557 -0.000271 0.000000 0.000000 0.000000
# 3 -0.007987 -0.000271 0.035247 0.000000 0.000000 0.000000
# 4 0.000000 0.000000 0.000000 0.032512 0.000000 0.000000
# 5 0.000000 0.000000 0.000000 0.000000 0.048791 0.000000
# 6 0.000000 0.000000 0.000000 0.000000 0.000000 0.021881
#
#
# Mechanical properties :
#
#
# Convention : Reuss Voigt Hill
#
# Bulk Modulus (GPa) = 35.46458 86.28443 60.87451
# Shear Modulus (GPa) = 15.16332 28.90838 22.03585
#
# Velocity S-wave (km/s) = 2.92875 4.04387 3.53061
# Velocity P-wave (km/s) = 5.61233 8.40316 7.14532
#
# Compressibility (1/GPa) = 0.02819715
#
# Stress axis : x y z
#
# Youngs Moduli (GPa) = 19.65644 27.35442 28.37088
#
# Poissons Ratio (x) = 1.06635 0.22661
# Poissons Ratio (y) = 0.76626 0.00768
# Poissons Ratio (z) = 0.15700 0.00740
#
# Static dielectric constant tensor:
#      x y z
#    x 1.591350 0.000000 0.000000 
#    y 0.000000 1.581040 0.000000 
#    z 0.000000 0.000000 1.606800 
# 
# From -- ./inp_files/1967.got.cif
#   From: 2010.05.17/outbox.cif.g08.bks.cpg/sg57_1_cif.got.tgz:1967.got - 2010.06.03 13:58:18.
