data_PCOD9437689
_publ_section_title
;
Structure prediction by ZEFSAII (Michael W. Deem and Ramdas Pophale) SiO2 
 PCOD9437689
Probable space group: P B C M
;
_chemical_formula_sum "Si O2"
_cell_formula_units_Z 48
_cell_length_a 5.332835
_cell_length_b 28.095225
_cell_length_c 14.332914
_cell_angle_alpha 90.000000
_cell_angle_beta 90.000000
_cell_angle_gamma 90.000000
_cell_volume 2147.460361
_symmetry_space_group_name_H-M "P B C M"
_symmetry_group_IT_number 57
_symmetry_cell_setting 'orthorhombic'
loop_
_space_group_symop_operation_xyz
x,y,z
-x,-y,1/2+z
x,1/2-y,-z
-x,1/2+y,1/2-z
-x,-y,-z
x,y,1/2-z
-x,1/2+y,z
x,1/2-y,1/2+z
loop_
_atom_site_type_symbol
_atom_site_label
_atom_site_fract_x
_atom_site_fract_y
_atom_site_fract_z
Si Si1 0.615378 0.099963 0.853335
Si Si2 0.928634 0.496259 0.352514
Si Si3 0.664274 0.728252 0.897946
Si Si4 0.028396 0.846331 0.030045
Si Si5 0.836133 0.217976 0.350684
Si Si6 0.231813 0.057582 0.995834
O O1 0.496215 0.107102 0.750000
O O2 0.801480 0.055154 0.842809
O O3 0.772098 0.145188 0.887730
O O4 0.450647 0.082964 0.940039
O O5 0.007744 0.512377 0.250000
O O6 0.743795 0.532781 0.404387
O O7 0.149834 0.484765 0.425012
O O8 0.400187 0.745790 0.856155
O O9 0.780151 0.676205 0.921030
O O10 0.901227 0.753924 0.850266
O O11 0.646426 0.750000 0.000000
O O12 0.964872 0.899046 0.992415
O O13 0.137988 0.814390 0.944928
O O14 0.812691 0.192172 0.250000
#
# Coordination Sequence:
#
# PCOD9437689 Si02
#       6
#     8   8   8   8   8   8
#     4  10  21  37  60  91 126 165 215 271 326 390
#     4   9  19  37  58  89 126 166 213 260 323 399
#     4  10  22  42  65  88 124 174 217 269 330 390
#     4  10  24  40  62  93 131 163 217 277 331 393
#     4  11  24  42  66  95 129 173 219 269 332 400
#     4  10  20  36  62  89 124 171 210 267 329 393
#
# _framework density 22.351986
#
# number of rings (size 3 to 8) (size 9 to 14) (size 15 to 20)
#    0.000    2.000    0.000    3.000    7.000    2.667 
#    0.000    0.833    0.000    0.000    0.000    0.000 
#    0.000    0.000    0.000    0.000    0.000    0.000 
#
# Total GULP energy -267272.823103 kJ/mol
# GULP energy per Si atom -5568.183815 kJ/mol
# Density = 2.230111 g / cm^3
# Si number density = 22.351986 Si / 1000 Ang^3
#
#
#
# Elastic Constant Matrix: (Units=GPa)
#
#
# Indices 1 2 3 4 5 6 
#
# 1 90.4473 11.2988 18.0784 0.0000 0.0000 0.0000
# 2 11.2988 71.8977 41.4726 0.0000 0.0000 0.0000
# 3 18.0784 41.4726 118.5587 0.0000 0.0000 0.0000
# 4 0.0000 0.0000 0.0000 -13.3787 0.0000 0.0000
# 5 0.0000 0.0000 0.0000 0.0000 12.3714 0.0000
# 6 0.0000 0.0000 0.0000 0.0000 0.0000 -1.5537
#
#
#
# Elastic Compliance Matrix: (Units=1/GPa)
#
#
# Indices 1 2 3 4 5 6 
#
# 1 0.011460 -0.000993 -0.001400 0.000000 0.000000 0.000000
# 2 -0.000993 0.017511 -0.005974 0.000000 0.000000 0.000000
# 3 -0.001400 -0.005974 0.010738 0.000000 0.000000 0.000000
# 4 0.000000 0.000000 0.000000 -0.074746 0.000000 0.000000
# 5 0.000000 0.000000 0.000000 0.000000 0.080832 0.000000
# 6 0.000000 0.000000 0.000000 0.000000 0.000000 -0.643631
#
#
# Mechanical properties :
#
#
# Convention : Reuss Voigt Hill
#
# Bulk Modulus (GPa) = 43.52739 46.95591 45.24165
# Shear Modulus (GPa) = -8.71926 13.49140 2.38607
#
# Velocity S-wave (km/s) = -1.97721 2.45947 1.03432
# Velocity P-wave (km/s) = 3.78199 5.39615 4.65950
#
# Compressibility (1/GPa) = 0.02297404
#
# Stress axis : x y z
#
# Youngs Moduli (GPa) = 87.25938 57.10812 93.12882
#
# Poissons Ratio (x) = 0.05673 0.13038
# Poissons Ratio (y) = 0.08668 0.55634
# Poissons Ratio (z) = 0.12216 0.34116
#
# Static dielectric constant tensor:
#      x y z
#    x 1.924260 0.000000 0.000000 
#    y 0.000000 1.866930 0.000000 
#    z 0.000000 0.000000 1.804810 
# 
# From -- ./inp_files/15119.got.cif
#   From: 2010.05.17/outbox.cif.g08.bks.cpg/sg57_8_cif.got.tgz:15119.got - 2010.06.03 13:58:18.
