data_PCOD9437709
_publ_section_title
;
Structure prediction by ZEFSAII (Michael W. Deem and Ramdas Pophale) SiO2 
 PCOD9437709
Probable space group: P B C M
;
_chemical_formula_sum "Si O2"
_cell_formula_units_Z 60
_cell_length_a 8.612241
_cell_length_b 17.211456
_cell_length_c 21.130803
_cell_angle_alpha 90.000000
_cell_angle_beta 90.000000
_cell_angle_gamma 90.000000
_cell_volume 3132.202173
_symmetry_space_group_name_H-M "P B C M"
_symmetry_group_IT_number 57
_symmetry_cell_setting 'orthorhombic'
loop_
_space_group_symop_operation_xyz
x,y,z
-x,-y,1/2+z
x,1/2-y,-z
-x,1/2+y,1/2-z
-x,-y,-z
x,y,1/2-z
-x,1/2+y,z
x,1/2-y,1/2+z
loop_
_atom_site_type_symbol
_atom_site_label
_atom_site_fract_x
_atom_site_fract_y
_atom_site_fract_z
Si Si1 0.220664 0.023893 0.750000
Si Si2 0.743730 0.092575 0.822912
Si Si3 0.113041 0.755095 0.675637
Si Si4 0.610559 0.865640 0.151047
Si Si5 0.251036 0.202356 0.176189
Si Si6 0.825049 0.415676 0.627171
Si Si7 0.655036 0.971704 0.033935
Si Si8 0.181707 0.442032 0.905296
O O1 0.267268 0.088701 0.695077
O O2 0.188142 0.959117 0.805765
O O3 0.790061 0.073917 0.750000
O O4 0.837837 0.168838 0.843951
O O5 0.561427 0.112174 0.825186
O O6 0.777005 0.020508 0.867823
O O7 0.154041 0.761313 0.750000
O O8 0.197653 0.823947 0.638130
O O9 0.928278 0.769040 0.670527
O O10 0.641635 0.774537 0.157627
O O11 0.627760 0.899201 0.080565
O O12 0.276732 0.181033 0.250000
O O13 0.268360 0.128522 0.130683
O O14 0.713755 0.457839 0.577762
O O15 0.999763 0.427322 0.602671
O O16 0.772435 0.949830 0.978066
O O17 0.500000 0.000000 0.000000
#
# Coordination Sequence:
#
# PCOD9437709 Si02
#       8
#     4   8   8   8   8   8   8   8
#     4  10  20  36  66  94 118 160 208 260 330 366
#     4  11  22  37  61  95 127 159 207 261 317 375
#     4   9  20  37  61  94 127 154 202 264 325 376
#     4  11  22  40  62  89 127 167 211 258 312 384
#     4  10  21  40  64  94 126 159 209 264 323 376
#     4  10  22  40  66  93 124 164 211 270 319 379
#     4  11  24  43  63  87 127 173 220 253 310 388
#     4  11  24  41  63  93 126 169 213 258 318 385
#
# _framework density 19.155850999999998
#
# number of rings (size 3 to 8) (size 9 to 14) (size 15 to 20)
#    0.000    1.600    3.333    0.800    5.600    1.600 
#    0.000    0.667    0.000    0.000    0.000    0.000 
#    0.000    0.000    0.000    0.000    0.000    0.000 
#
# Total GULP energy -334191.096065 kJ/mol
# GULP energy per Si atom -5569.851601 kJ/mol
# Density = 1.911225 g / cm^3
# Si number density = 19.155851 Si / 1000 Ang^3
#
#
#
# Elastic Constant Matrix: (Units=GPa)
#
#
# Indices 1 2 3 4 5 6 
#
# 1 16.5300 4.4913 20.2129 0.0000 0.0000 0.0000
# 2 4.4913 66.2009 31.6244 0.0000 0.0000 0.0000
# 3 20.2129 31.6244 134.4187 0.0000 0.0000 0.0000
# 4 0.0000 0.0000 0.0000 21.3446 0.0000 0.0000
# 5 0.0000 0.0000 0.0000 0.0000 23.4974 0.0000
# 6 0.0000 0.0000 0.0000 0.0000 0.0000 49.1724
#
#
#
# Elastic Compliance Matrix: (Units=1/GPa)
#
#
# Indices 1 2 3 4 5 6 
#
# 1 0.074133 0.000333 -0.011226 0.000000 0.000000 0.000000
# 2 0.000333 0.017020 -0.004054 0.000000 0.000000 0.000000
# 3 -0.011226 -0.004054 0.010081 0.000000 0.000000 0.000000
# 4 0.000000 0.000000 0.000000 0.046850 0.000000 0.000000
# 5 0.000000 0.000000 0.000000 0.000000 0.042558 0.000000
# 6 0.000000 0.000000 0.000000 0.000000 0.000000 0.020337
#
#
# Mechanical properties :
#
#
# Convention : Reuss Voigt Hill
#
# Bulk Modulus (GPa) = 14.01742 36.64519 25.33130
# Shear Modulus (GPa) = 18.89271 29.52428 24.20849
#
# Velocity S-wave (km/s) = 3.14389 3.93016 3.55880
# Velocity P-wave (km/s) = 4.52904 6.30606 5.48993
#
# Compressibility (1/GPa) = 0.07133981
#
# Stress axis : x y z
#
# Youngs Moduli (GPa) = 13.48932 58.75556 99.19307
#
# Poissons Ratio (x) = -0.01958 1.11353
# Poissons Ratio (y) = -0.00450 0.40216
# Poissons Ratio (z) = 0.15143 0.23821
#
# Static dielectric constant tensor:
#      x y z
#    x 1.704910 0.000000 0.000000 
#    y 0.000000 1.658440 0.000000 
#    z 0.000000 0.000000 1.644210 
# 
# From -- ./inp_files/21258.got.cif
#   From: 2010.05.17/outbox.cif.g08.bks.cpg/sg57_11_cif.got.tgz:21258.got - 2010.06.03 13:58:18.
