data_PCOD9437059
_publ_section_title
;
Structure prediction by ZEFSAII (Michael W. Deem and Ramdas Pophale) SiO2 
 PCOD9437059
Probable space group: P B C M
;
_chemical_formula_sum "Si O2"
_cell_formula_units_Z 48
_cell_length_a 18.758259
_cell_length_b 14.838165
_cell_length_c 7.847353
_cell_angle_alpha 90.000000
_cell_angle_beta 90.000000
_cell_angle_gamma 90.000000
_cell_volume 2184.217655
_symmetry_space_group_name_H-M "P B C M"
_symmetry_group_IT_number 57
_symmetry_cell_setting 'orthorhombic'
loop_
_space_group_symop_operation_xyz
x,y,z
-x,-y,1/2+z
x,1/2-y,-z
-x,1/2+y,1/2-z
-x,-y,-z
x,y,1/2-z
-x,1/2+y,z
x,1/2-y,1/2+z
loop_
_atom_site_type_symbol
_atom_site_label
_atom_site_fract_x
_atom_site_fract_y
_atom_site_fract_z
Si Si1 0.417430 0.499649 0.044231
Si Si2 0.154346 0.643654 0.547144
Si Si3 0.998166 0.356818 0.455796
Si Si4 0.690571 0.354330 0.950482
Si Si5 0.305779 0.145265 0.955434
Si Si6 0.150732 0.143498 0.544653
O O1 0.414099 0.499566 0.250000
O O2 0.373062 0.585572 0.976625
O O3 0.372057 0.413510 0.982974
O O4 0.500000 0.500000 0.000000
O O5 0.155544 0.750000 0.500000
O O6 0.153580 0.636558 0.750000
O O7 0.078310 0.607526 0.479113
O O8 0.230326 0.607526 0.487297
O O9 0.997995 0.250000 0.500000
O O10 0.998080 0.364935 0.250000
O O11 0.074457 0.392956 0.520924
O O12 0.682964 0.356648 0.750000
O O13 0.687118 0.250000 0.000000
O O14 0.303688 0.138626 0.750000
O O15 0.227919 0.111371 0.018929
O O16 0.313427 0.250000 0.000000
O O17 0.150532 0.250000 0.500000
O O18 0.150018 0.134165 0.750000
#
# Coordination Sequence:
#
# PCOD9437059 Si02
#       6
#     8   8   8   8   8   8
#     4  10  23  40  57  78 103 131 165 206 255 310
#     4   9  15  24  41  67  98 131 167 205 245 289
#     4   8  13  20  34  61  94 127 163 200 238 281
#     4  10  20  35  54  76 102 134 171 209 251 299
#     4   9  18  34  55  79 105 134 168 205 249 301
#     4   8  13  23  41  65  95 129 163 199 239 285
#
# _framework density 21.975830999999999
#
# number of rings (size 3 to 8) (size 9 to 14) (size 15 to 20)
#    0.000    3.000    0.000    2.000    0.000    3.333 
#    0.000    3.333    0.000    1.000    0.000    0.000 
#    0.000    0.000    0.000    0.000    0.000    7.167 
#
# Total GULP energy -267509.935225 kJ/mol
# GULP energy per Si atom -5573.123651 kJ/mol
# Density = 2.192581 g / cm^3
# Si number density = 21.975831 Si / 1000 Ang^3
#
#
#
# Elastic Constant Matrix: (Units=GPa)
#
#
# Indices 1 2 3 4 5 6 
#
# 1 281.8457 81.1054 11.3253 0.0000 0.0000 0.0000
# 2 81.1054 89.9535 -1.0773 0.0000 0.0000 0.0000
# 3 11.3253 -1.0773 35.3747 0.0000 0.0000 0.0000
# 4 0.0000 0.0000 0.0000 4.7351 0.0000 0.0000
# 5 0.0000 0.0000 0.0000 0.0000 29.3776 0.0000
# 6 0.0000 0.0000 0.0000 0.0000 0.0000 64.7080
#
#
#
# Elastic Compliance Matrix: (Units=1/GPa)
#
#
# Indices 1 2 3 4 5 6 
#
# 1 0.004891 -0.004431 -0.001701 0.000000 0.000000 0.000000
# 2 -0.004431 0.015134 0.001879 0.000000 0.000000 0.000000
# 3 -0.001701 0.001879 0.028871 0.000000 0.000000 0.000000
# 4 0.000000 0.000000 0.000000 0.211188 0.000000 0.000000
# 5 0.000000 0.000000 0.000000 0.000000 0.034039 0.000000
# 6 0.000000 0.000000 0.000000 0.000000 0.000000 0.015454
#
#
# Mechanical properties :
#
#
# Convention : Reuss Voigt Hill
#
# Bulk Modulus (GPa) = 24.75753 65.54231 45.14992
# Shear Modulus (GPa) = 15.08088 40.81886 27.94987
#
# Velocity S-wave (km/s) = 2.62248 4.31448 3.57016
# Velocity P-wave (km/s) = 4.52328 7.39656 6.13063
#
# Compressibility (1/GPa) = 0.04039175
#
# Stress axis : x y z
#
# Youngs Moduli (GPa) = 204.44221 66.07574 34.63736
#
# Poissons Ratio (x) = 0.29275 0.05891
# Poissons Ratio (y) = 0.90580 -0.06510
# Poissons Ratio (z) = 0.34774 -0.12418
#
# Static dielectric constant tensor:
#      x y z
#    x 1.871760 0.000000 0.000000 
#    y 0.000000 1.997630 0.000000 
#    z 0.000000 0.000000 1.825770 
# 
# From -- ./inp_files/6722.got.cif
#   From: 2010.05.17/outbox.cif.g08.bks.cpg/sg57_4_cif.got.tgz:6722.got - 2010.06.03 13:58:18.
