data_PCOD9437384
_publ_section_title
;
Structure prediction by ZEFSAII (Michael W. Deem and Ramdas Pophale) SiO2 
 PCOD9437384
Probable space group: P B C M
;
_chemical_formula_sum "Si O2"
_cell_formula_units_Z 64
_cell_length_a 12.572039
_cell_length_b 32.306164
_cell_length_c 7.553037
_cell_angle_alpha 90.000000
_cell_angle_beta 90.000000
_cell_angle_gamma 90.000000
_cell_volume 3067.698862
_symmetry_space_group_name_H-M "P B C M"
_symmetry_group_IT_number 57
_symmetry_cell_setting 'orthorhombic'
loop_
_space_group_symop_operation_xyz
x,y,z
-x,-y,1/2+z
x,1/2-y,-z
-x,1/2+y,1/2-z
-x,-y,-z
x,y,1/2-z
-x,1/2+y,z
x,1/2-y,1/2+z
loop_
_atom_site_type_symbol
_atom_site_label
_atom_site_fract_x
_atom_site_fract_y
_atom_site_fract_z
Si Si1 0.633286 0.363843 0.534259
Si Si2 0.015696 0.200935 0.463430
Si Si3 0.316570 0.493786 0.955773
Si Si4 0.500817 0.940789 0.965300
Si Si5 0.128718 0.625047 0.039131
Si Si6 0.096543 0.968924 0.459973
Si Si7 0.250693 0.200984 0.038180
Si Si8 0.479000 0.201759 0.462195
O O1 0.639635 0.364886 0.750000
O O2 0.542456 0.396364 0.483746
O O3 0.750308 0.374914 0.468477
O O4 0.585112 0.320519 0.473998
O O5 0.994059 0.250000 0.500000
O O6 0.017586 0.198540 0.250000
O O7 0.935200 0.165326 0.528691
O O8 0.134357 0.188844 0.529752
O O9 0.293835 0.484539 0.750000
O O10 0.382443 0.454530 0.029408
O O11 0.207412 0.511735 0.034314
O O12 0.408241 0.528541 0.968503
O O13 0.501609 0.943645 0.750000
O O14 0.134683 0.630882 0.250000
O O15 0.081153 0.578981 0.014696
O O16 0.108492 0.966987 0.250000
O O17 0.000000 0.000000 0.500000
O O18 0.249440 0.194369 0.250000
O O19 0.364553 0.184860 0.970606
O O20 0.254421 0.250000 0.000000
O O21 0.483953 0.250000 0.500000
O O22 0.476332 0.196270 0.250000
#
# Coordination Sequence:
#
# PCOD9437384 Si02
#       8
#     8   8   8   8   8   8   8   8
#     4   9  17  30  50  73 100 134 168 205 253 311
#     4   9  18  32  52  78 105 138 180 223 266 312
#     4   9  18  32  52  79 102 126 167 213 254 307
#     4   9  16  30  53  77 100 131 165 204 256 308
#     4  10  20  36  55  77 106 142 182 220 264 322
#     4  11  23  39  57  79 108 143 181 224 274 325
#     4   8  14  27  46  67  91 125 165 209 256 303
#     4   9  17  30  47  70  98 131 169 206 251 306
#
# _framework density 20.862544
#
# number of rings (size 3 to 8) (size 9 to 14) (size 15 to 20)
#    0.000    2.750    1.250    0.375    0.000    1.500 
#    2.250    1.250    0.000    0.000    0.000    0.000 
#    0.000    0.000    0.000    0.000    0.000    0.000 
#
# Total GULP energy -356291.704682 kJ/mol
# GULP energy per Si atom -5567.057886 kJ/mol
# Density = 2.081506 g / cm^3
# Si number density = 20.862544 Si / 1000 Ang^3
#
#
#
# Elastic Constant Matrix: (Units=GPa)
#
#
# Indices 1 2 3 4 5 6 
#
# 1 106.7458 74.8644 -0.7109 0.0000 0.0000 0.0000
# 2 74.8644 108.5674 -5.7068 0.0000 0.0000 0.0000
# 3 -0.7109 -5.7068 49.5388 0.0000 0.0000 0.0000
# 4 0.0000 0.0000 0.0000 15.5610 0.0000 0.0000
# 5 0.0000 0.0000 0.0000 0.0000 5.6935 0.0000
# 6 0.0000 0.0000 0.0000 0.0000 0.0000 29.6944
#
#
#
# Elastic Compliance Matrix: (Units=1/GPa)
#
#
# Indices 1 2 3 4 5 6 
#
# 1 0.018211 -0.012621 -0.001193 0.000000 0.000000 0.000000
# 2 -0.012621 0.018013 0.001894 0.000000 0.000000 0.000000
# 3 -0.001193 0.001894 0.020387 0.000000 0.000000 0.000000
# 4 0.000000 0.000000 0.000000 0.064263 0.000000 0.000000
# 5 0.000000 0.000000 0.000000 0.000000 0.175638 0.000000
# 6 0.000000 0.000000 0.000000 0.000000 0.000000 0.033676
#
#
# Mechanical properties :
#
#
# Convention : Reuss Voigt Hill
#
# Bulk Modulus (GPa) = 30.51247 44.63837 37.57542
# Shear Modulus (GPa) = 13.70042 23.28346 18.49194
#
# Velocity S-wave (km/s) = 2.56539 3.34434 2.98043
# Velocity P-wave (km/s) = 4.84068 6.02957 5.46754
#
# Compressibility (1/GPa) = 0.03277349
#
# Stress axis : x y z
#
# Youngs Moduli (GPa) = 54.91066 55.51480 49.05016
#
# Poissons Ratio (x) = 0.70063 0.05850
# Poissons Ratio (y) = 0.69301 -0.09290
# Poissons Ratio (z) = 0.06548 -0.10515
#
# Static dielectric constant tensor:
#      x y z
#    x 1.805580 0.000000 0.000000 
#    y 0.000000 1.771340 0.000000 
#    z 0.000000 0.000000 1.666880 
# 
# From -- ./inp_files/3774.got.cif
#   From: 2010.05.17/outbox.cif.g08.bks.cpg/sg57_2_cif.got.tgz:3774.got - 2010.06.03 13:58:18.
