data_PCOD9437117
_publ_section_title
;
Structure prediction by ZEFSAII (Michael W. Deem and Ramdas Pophale) SiO2 
 PCOD9437117
Probable space group: P B C M
;
_chemical_formula_sum "Si O2"
_cell_formula_units_Z 64
_cell_length_a 20.835065
_cell_length_b 18.712760
_cell_length_c 7.709580
_cell_angle_alpha 90.000000
_cell_angle_beta 90.000000
_cell_angle_gamma 90.000000
_cell_volume 3005.823162
_symmetry_space_group_name_H-M "P B C M"
_symmetry_group_IT_number 57
_symmetry_cell_setting 'orthorhombic'
loop_
_space_group_symop_operation_xyz
x,y,z
-x,-y,1/2+z
x,1/2-y,-z
-x,1/2+y,1/2-z
-x,-y,-z
x,y,1/2-z
-x,1/2+y,z
x,1/2-y,1/2+z
loop_
_atom_site_type_symbol
_atom_site_label
_atom_site_fract_x
_atom_site_fract_y
_atom_site_fract_z
Si Si1 0.942784 0.403916 0.455440
Si Si2 0.289480 0.934147 0.452800
Si Si3 0.549961 0.832589 0.541240
Si Si4 0.180508 0.669754 0.540854
Si Si5 0.674111 0.587880 0.455344
Si Si6 0.405202 0.667122 0.042453
Si Si7 0.915559 0.934237 0.460781
Si Si8 0.199060 0.332060 0.043287
O O1 0.948570 0.391425 0.250000
O O2 0.890774 0.348450 0.525935
O O3 0.914027 0.483374 0.481963
O O4 0.015420 0.404390 0.524271
O O5 0.273774 0.945409 0.250000
O O6 0.230951 0.888299 0.528361
O O7 0.352703 0.885577 0.465482
O O8 0.303036 0.011996 0.530373
O O9 0.564023 0.750000 0.500000
O O10 0.548263 0.838773 0.750000
O O11 0.607275 0.881799 0.472578
O O12 0.477734 0.848482 0.478703
O O13 0.200508 0.750000 0.500000
O O14 0.179442 0.663834 0.750000
O O15 0.663195 0.577045 0.250000
O O16 0.731603 0.644085 0.475080
O O17 0.403535 0.659212 0.250000
O O18 0.391217 0.750000 0.000000
O O19 0.915805 0.934052 0.250000
O O20 0.856208 0.886189 0.521322
O O21 0.201225 0.338856 0.250000
O O22 0.184682 0.250000 0.000000
#
# Coordination Sequence:
#
# PCOD9437117 Si02
#       8
#     8   8   8   8   8   8   8   8
#     4   9  18  35  57  79 105 138 175 214 259 311
#     4  10  21  36  54  78 107 139 175 217 265 316
#     4   9  19  35  55  79 106 137 174 216 261 312
#     4  10  21  35  52  75 103 136 174 215 258 305
#     4  10  21  38  58  79 106 140 178 220 267 318
#     4  10  20  35  55  79 107 139 175 215 261 313
#     4   9  19  35  55  80 108 137 172 215 260 309
#     4  11  23  37  54  79 110 142 179 222 267 316
#
# _framework density 21.292003999999999
#
# number of rings (size 3 to 8) (size 9 to 14) (size 15 to 20)
#    0.000    2.250    0.000    2.250    0.000    7.500 
#    0.000    0.000    0.000    0.000    0.000    0.000 
#    0.000    0.000    0.000    0.000    0.000    0.000 
#
# Total GULP energy -357424.532077 kJ/mol
# GULP energy per Si atom -5584.758314 kJ/mol
# Density = 2.124354 g / cm^3
# Si number density = 21.292004 Si / 1000 Ang^3
#
#
#
# Elastic Constant Matrix: (Units=GPa)
#
#
# Indices 1 2 3 4 5 6 
#
# 1 60.0550 6.9535 -11.3539 0.0000 0.0000 0.0000
# 2 6.9535 25.5708 -14.5981 0.0000 0.0000 0.0000
# 3 -11.3539 -14.5981 34.1769 0.0000 0.0000 0.0000
# 4 0.0000 0.0000 0.0000 22.4471 0.0000 0.0000
# 5 0.0000 0.0000 0.0000 0.0000 1.2392 0.0000
# 6 0.0000 0.0000 0.0000 0.0000 0.0000 7.2597
#
#
#
# Elastic Compliance Matrix: (Units=1/GPa)
#
#
# Indices 1 2 3 4 5 6 
#
# 1 0.017840 -0.001941 0.005097 0.000000 0.000000 0.000000
# 2 -0.001941 0.051930 0.021536 0.000000 0.000000 0.000000
# 3 0.005097 0.021536 0.040152 0.000000 0.000000 0.000000
# 4 0.000000 0.000000 0.000000 0.044549 0.000000 0.000000
# 5 0.000000 0.000000 0.000000 0.000000 0.806975 0.000000
# 6 0.000000 0.000000 0.000000 0.000000 0.000000 0.137747
#
#
# Mechanical properties :
#
#
# Convention : Reuss Voigt Hill
#
# Bulk Modulus (GPa) = 6.27725 9.08954 7.68340
# Shear Modulus (GPa) = 4.53346 15.44260 9.98803
#
# Velocity S-wave (km/s) = 1.46076 2.69602 2.16822
# Velocity P-wave (km/s) = 2.40825 3.73759 3.14398
#
# Compressibility (1/GPa) = 0.15930533
#
# Stress axis : x y z
#
# Youngs Moduli (GPa) = 56.05420 19.25687 24.90560
#
# Poissons Ratio (x) = 0.03738 -0.12695
# Poissons Ratio (y) = 0.10881 -0.53636
# Poissons Ratio (z) = -0.28573 -0.41471
#
# Static dielectric constant tensor:
#      x y z
#    x 1.785290 0.000000 0.000000 
#    y 0.000000 1.741130 0.000000 
#    z 0.000000 0.000000 1.791980 
# 
# From -- ./inp_files/8483.got.cif
#   From: 2010.05.17/outbox.cif.g08.bks.cpg/sg57_5_cif.got.tgz:8483.got - 2010.06.03 13:58:18.
