data_PCOD9437293
_publ_section_title
;
Structure prediction by ZEFSAII (Michael W. Deem and Ramdas Pophale) SiO2 
 PCOD9437293
Probable space group: P B C M
;
_chemical_formula_sum "Si O2"
_cell_formula_units_Z 64
_cell_length_a 21.023847
_cell_length_b 9.905231
_cell_length_c 16.056128
_cell_angle_alpha 90.000000
_cell_angle_beta 90.000000
_cell_angle_gamma 90.000000
_cell_volume 3343.625412
_symmetry_space_group_name_H-M "P B C M"
_symmetry_group_IT_number 57
_symmetry_cell_setting 'orthorhombic'
loop_
_space_group_symop_operation_xyz
x,y,z
-x,-y,1/2+z
x,1/2-y,-z
-x,1/2+y,1/2-z
-x,-y,-z
x,y,1/2-z
-x,1/2+y,z
x,1/2-y,1/2+z
loop_
_atom_site_type_symbol
_atom_site_label
_atom_site_fract_x
_atom_site_fract_y
_atom_site_fract_z
Si Si1 0.177524 0.882574 0.046556
Si Si2 0.939793 0.500616 0.351163
Si Si3 0.190187 0.367192 0.070246
Si Si4 0.560928 0.414950 0.347467
Si Si5 0.546076 0.784946 0.597165
Si Si6 0.703679 0.077125 0.650902
Si Si7 0.056587 0.187789 0.650090
Si Si8 0.687792 0.734350 0.100613
O O1 0.123893 0.946973 0.105537
O O2 0.239910 0.852076 0.101281
O O3 0.153608 0.750000 0.000000
O O4 0.196753 0.993078 0.977892
O O5 0.933529 0.494834 0.250000
O O6 0.950979 0.656210 0.376007
O O7 0.999038 0.407752 0.377687
O O8 0.124789 0.364024 0.120163
O O9 0.253124 0.330140 0.123166
O O10 0.184643 0.250000 0.000000
O O11 0.564856 0.448877 0.250000
O O12 0.541406 0.553971 0.392112
O O13 0.510630 0.296992 0.360930
O O14 0.632682 0.376070 0.373563
O O15 0.543445 0.750000 0.500000
O O16 0.615933 0.741713 0.631489
O O17 0.712046 0.091598 0.750000
O O18 0.705538 0.917654 0.627264
O O19 0.055595 0.186443 0.750000
O O20 0.683144 0.750000 0.000000
#
# Coordination Sequence:
#
# PCOD9437293 Si02
#       8
#     8   8   8   8   8   8   8   8
#     4  12  25  39  58  90 117 154 192 245 295 337
#     4  10  22  41  62  86 117 153 194 234 285 350
#     4  11  20  39  61  84 117 146 192 240 283 342
#     4  10  21  37  58  85 117 152 193 241 289 344
#     4  10  20  35  58  86 115 152 193 235 291 348
#     4  10  20  38  62  83 112 159 199 231 287 360
#     4  10  22  39  62  89 117 154 192 236 288 343
#     4   9  17  35  61  86 114 142 192 243 286 338
#
# _framework density 19.140899999999998
#
# number of rings (size 3 to 8) (size 9 to 14) (size 15 to 20)
#    0.000    1.750    3.750    1.125    1.750    3.500 
#    2.250    0.625    0.000    0.000    0.000    0.000 
#    0.000    0.000    0.000    0.000    0.000    0.000 
#
# Total GULP energy -357206.354820 kJ/mol
# GULP energy per Si atom -5581.349294 kJ/mol
# Density = 1.909733 g / cm^3
# Si number density = 19.140900 Si / 1000 Ang^3
#
#
#
# Elastic Constant Matrix: (Units=GPa)
#
#
# Indices 1 2 3 4 5 6 
#
# 1 134.2122 26.9916 11.3173 0.0000 0.0000 0.0000
# 2 26.9916 42.5034 10.6536 0.0000 0.0000 0.0000
# 3 11.3173 10.6536 19.5384 0.0000 0.0000 0.0000
# 4 0.0000 0.0000 0.0000 9.5873 0.0000 0.0000
# 5 0.0000 0.0000 0.0000 0.0000 30.1449 0.0000
# 6 0.0000 0.0000 0.0000 0.0000 0.0000 32.4410
#
#
#
# Elastic Compliance Matrix: (Units=1/GPa)
#
#
# Indices 1 2 3 4 5 6 
#
# 1 0.008632 -0.004898 -0.002329 0.000000 0.000000 0.000000
# 2 -0.004898 0.030031 -0.013538 0.000000 0.000000 0.000000
# 3 -0.002329 -0.013538 0.059912 0.000000 0.000000 0.000000
# 4 0.000000 0.000000 0.000000 0.104305 0.000000 0.000000
# 5 0.000000 0.000000 0.000000 0.000000 0.033173 0.000000
# 6 0.000000 0.000000 0.000000 0.000000 0.000000 0.030825
#
#
# Mechanical properties :
#
#
# Convention : Reuss Voigt Hill
#
# Bulk Modulus (GPa) = 17.52995 32.68656 25.10825
# Shear Modulus (GPa) = 15.27064 24.25406 19.76235
#
# Velocity S-wave (km/s) = 2.82760 3.56354 3.21669
# Velocity P-wave (km/s) = 4.45407 5.83487 5.19059
#
# Compressibility (1/GPa) = 0.05704523
#
# Stress axis : x y z
#
# Youngs Moduli (GPa) = 115.84306 33.29847 16.69103
#
# Poissons Ratio (x) = 0.16310 0.03888
# Poissons Ratio (y) = 0.56741 0.22596
# Poissons Ratio (z) = 0.26984 0.45080
#
# Static dielectric constant tensor:
#      x y z
#    x 1.694650 0.000000 0.000000 
#    y 0.000000 1.650940 0.000000 
#    z 0.000000 0.000000 1.674280 
# 
# From -- ./inp_files/23073.got.cif
#   From: 2010.05.17/outbox.cif.g08.bks.cpg/sg57_12_cif.got.tgz:23073.got - 2010.06.03 13:58:18.
