data_PCOD9437770
_publ_section_title
;
Structure prediction by ZEFSAII (Michael W. Deem and Ramdas Pophale) SiO2 
 PCOD9437770
Probable space group: P B C M
;
_chemical_formula_sum "Si O2"
_cell_formula_units_Z 64
_cell_length_a 15.794512
_cell_length_b 9.459489
_cell_length_c 22.824889
_cell_angle_alpha 90.000000
_cell_angle_beta 90.000000
_cell_angle_gamma 90.000000
_cell_volume 3410.221302
_symmetry_space_group_name_H-M "P B C M"
_symmetry_group_IT_number 57
_symmetry_cell_setting 'orthorhombic'
loop_
_space_group_symop_operation_xyz
x,y,z
-x,-y,1/2+z
x,1/2-y,-z
-x,1/2+y,1/2-z
-x,-y,-z
x,y,1/2-z
-x,1/2+y,z
x,1/2-y,1/2+z
loop_
_atom_site_type_symbol
_atom_site_label
_atom_site_fract_x
_atom_site_fract_y
_atom_site_fract_z
Si Si1 0.492453 0.256473 0.352506
Si Si2 0.613410 0.497847 0.312478
Si Si3 0.624274 0.173307 0.446904
Si Si4 0.643788 0.849617 0.445528
Si Si5 0.752554 0.404531 0.404392
Si Si6 0.069825 0.323436 0.817626
Si Si7 0.821027 0.798360 0.935430
Si Si8 0.102203 0.844840 0.184282
O O1 0.544927 0.372822 0.317499
O O2 0.437918 0.142570 0.317930
O O3 0.563180 0.176529 0.391195
O O4 0.426248 0.330767 0.395924
O O5 0.658517 0.490857 0.250000
O O6 0.680631 0.478669 0.364142
O O7 0.576467 0.250000 0.500000
O O8 0.703873 0.276980 0.435955
O O9 0.647179 0.013816 0.462289
O O10 0.621271 0.750000 0.500000
O O11 0.735716 0.792981 0.426497
O O12 0.794904 0.535136 0.439143
O O13 0.823996 0.336723 0.363065
O O14 0.098322 0.282895 0.750000
O O15 0.124194 0.281783 0.875612
O O16 0.069209 0.493536 0.817926
O O17 0.976849 0.258052 0.825333
O O18 0.855557 0.750000 0.000000
O O19 0.135371 0.818661 0.250000
#
# Coordination Sequence:
#
# PCOD9437770 Si02
#       8
#     8   8   8   8   8   8   8   8
#     4  11  22  37  56  80 109 148 194 239 293 341
#     4  11  22  38  57  80 113 151 195 245 291 344
#     4  11  23  36  56  82 112 146 192 240 291 349
#     4  11  22  36  57  81 112 149 191 242 289 342
#     4  10  21  38  58  84 112 154 192 234 296 350
#     4   9  19  36  59  86 115 150 194 239 289 351
#     4  10  20  37  59  84 118 152 195 241 297 353
#     4   9  18  36  61  86 114 151 194 235 282 349
#
# _framework density 18.767111
#
# number of rings (size 3 to 8) (size 9 to 14) (size 15 to 20)
#    0.000    1.750    2.500    2.625    1.750    2.500 
#    0.000    3.125    0.000    0.000    0.000    0.000 
#    0.000    0.000    0.000    0.000    0.000    0.000 
#
# Total GULP energy -356866.888460 kJ/mol
# GULP energy per Si atom -5576.045132 kJ/mol
# Density = 1.872440 g / cm^3
# Si number density = 18.767111 Si / 1000 Ang^3
#
#
#
# Elastic Constant Matrix: (Units=GPa)
#
#
# Indices 1 2 3 4 5 6 
#
# 1 60.9844 15.5971 30.8748 0.0000 0.0000 0.0000
# 2 15.5971 91.2030 33.6325 0.0000 0.0000 0.0000
# 3 30.8748 33.6325 99.5281 0.0000 0.0000 0.0000
# 4 0.0000 0.0000 0.0000 9.0914 0.0000 0.0000
# 5 0.0000 0.0000 0.0000 0.0000 17.7321 0.0000
# 6 0.0000 0.0000 0.0000 0.0000 0.0000 20.6853
#
#
#
# Elastic Compliance Matrix: (Units=1/GPa)
#
#
# Indices 1 2 3 4 5 6 
#
# 1 0.019580 -0.001266 -0.005646 0.000000 0.000000 0.000000
# 2 -0.001266 0.012607 -0.003867 0.000000 0.000000 0.000000
# 3 -0.005646 -0.003867 0.013106 0.000000 0.000000 0.000000
# 4 0.000000 0.000000 0.000000 0.109994 0.000000 0.000000
# 5 0.000000 0.000000 0.000000 0.000000 0.056395 0.000000
# 6 0.000000 0.000000 0.000000 0.000000 0.000000 0.048344
#
#
# Mechanical properties :
#
#
# Convention : Reuss Voigt Hill
#
# Bulk Modulus (GPa) = 42.13478 45.76936 43.95207
# Shear Modulus (GPa) = 17.27141 20.94252 19.10696
#
# Velocity S-wave (km/s) = 3.03694 3.34416 3.19424
# Velocity P-wave (km/s) = 5.89894 6.27313 6.08891
#
# Compressibility (1/GPa) = 0.02373336
#
# Stress axis : x y z
#
# Youngs Moduli (GPa) = 51.07271 79.31928 76.30253
#
# Poissons Ratio (x) = 0.10045 0.43080
# Poissons Ratio (y) = 0.06468 0.29509
# Poissons Ratio (z) = 0.28836 0.30676
#
# Static dielectric constant tensor:
#      x y z
#    x 1.623400 0.000000 0.000000 
#    y 0.000000 1.636820 0.000000 
#    z 0.000000 0.000000 1.825170 
# 
# From -- ./inp_files/27497.got.cif
#   From: 2010.05.17/outbox.cif.g08.bks.cpg/sg57_14_cif.got.tgz:27497.got - 2010.06.03 13:58:18.
