data_PCOD9437049
_publ_section_title
;
Structure prediction by ZEFSAII (Michael W. Deem and Ramdas Pophale) SiO2 
 PCOD9437049
Probable space group: P B C M
;
_chemical_formula_sum "Si O2"
_cell_formula_units_Z 64
_cell_length_a 13.345020
_cell_length_b 29.998846
_cell_length_c 8.827416
_cell_angle_alpha 90.000000
_cell_angle_beta 90.000000
_cell_angle_gamma 90.000000
_cell_volume 3533.925348
_symmetry_space_group_name_H-M "P B C M"
_symmetry_group_IT_number 57
_symmetry_cell_setting 'orthorhombic'
loop_
_space_group_symop_operation_xyz
x,y,z
-x,-y,1/2+z
x,1/2-y,-z
-x,1/2+y,1/2-z
-x,-y,-z
x,y,1/2-z
-x,1/2+y,z
x,1/2-y,1/2+z
loop_
_atom_site_type_symbol
_atom_site_label
_atom_site_fract_x
_atom_site_fract_y
_atom_site_fract_z
Si Si1 0.519923 0.365352 0.566731
Si Si2 0.870359 0.799500 0.432674
Si Si3 0.954245 0.367929 0.431875
Si Si4 0.949884 0.956328 0.567753
Si Si5 0.643906 0.799589 0.432088
Si Si6 0.760633 0.006687 0.920946
Si Si7 0.254546 0.895027 0.931733
Si Si8 0.449564 0.459864 0.917509
O O1 0.514245 0.360353 0.750000
O O2 0.450555 0.327315 0.494630
O O3 0.638059 0.372229 0.527405
O O4 0.467477 0.411562 0.515297
O O5 0.879898 0.750000 0.500000
O O6 0.872306 0.796993 0.250000
O O7 0.757366 0.816697 0.474024
O O8 0.965594 0.829727 0.479365
O O9 0.946376 0.367017 0.250000
O O10 0.841873 0.369114 0.500719
O O11 0.004491 0.413612 0.488386
O O12 0.961635 0.952354 0.750000
O O13 0.837188 0.968911 0.525467
O O14 0.000000 0.000000 0.500000
O O15 0.638476 0.750000 0.500000
O O16 0.638831 0.798259 0.250000
O O17 0.792050 0.020636 0.750000
O O18 0.661497 0.977763 0.909761
O O19 0.749319 0.053072 0.011662
O O20 0.247128 0.895473 0.750000
O O21 0.494840 0.456579 0.750000
O O22 0.500000 0.500000 0.000000
#
# Coordination Sequence:
#
# PCOD9437049 Si02
#       8
#     8   8   8   8   8   8   8   8
#     4  10  22  38  57  85 118 152 192 238 284 339
#     4   9  21  41  64  90 117 145 182 231 288 344
#     4  11  23  39  58  84 117 152 192 238 287 343
#     4  11  22  35  53  80 111 151 196 238 283 335
#     4  10  21  40  65  91 116 146 182 228 286 344
#     4  10  21  35  52  75 110 152 194 238 287 337
#     4  11  22  37  57  81 113 155 198 237 283 334
#     4  10  20  35  53  78 112 152 194 236 282 332
#
# _framework density 18.110173
#
# number of rings (size 3 to 8) (size 9 to 14) (size 15 to 20)
#    0.000    1.750    2.500    1.500    1.750    3.500 
#    0.000    0.625    0.000    1.500    0.000    0.000 
#    0.000    0.000    0.000    0.000    0.000    0.000 
#
# Total GULP energy -356385.549530 kJ/mol
# GULP energy per Si atom -5568.524211 kJ/mol
# Density = 1.806895 g / cm^3
# Si number density = 18.110173 Si / 1000 Ang^3
#
#
#
# Elastic Constant Matrix: (Units=GPa)
#
#
# Indices 1 2 3 4 5 6 
#
# 1 151.6411 67.2032 48.1049 0.0000 0.0000 0.0000
# 2 67.2032 91.6034 29.0796 0.0000 0.0000 0.0000
# 3 48.1049 29.0796 41.5851 0.0000 0.0000 0.0000
# 4 0.0000 0.0000 0.0000 28.5902 0.0000 0.0000
# 5 0.0000 0.0000 0.0000 0.0000 23.6407 0.0000
# 6 0.0000 0.0000 0.0000 0.0000 0.0000 35.5376
#
#
#
# Elastic Compliance Matrix: (Units=1/GPa)
#
#
# Indices 1 2 3 4 5 6 
#
# 1 0.012471 -0.005873 -0.010319 0.000000 0.000000 0.000000
# 2 -0.005873 0.016797 -0.004952 0.000000 0.000000 0.000000
# 3 -0.010319 -0.004952 0.039447 0.000000 0.000000 0.000000
# 4 0.000000 0.000000 0.000000 0.034977 0.000000 0.000000
# 5 0.000000 0.000000 0.000000 0.000000 0.042300 0.000000
# 6 0.000000 0.000000 0.000000 0.000000 0.000000 0.028139
#
#
# Mechanical properties :
#
#
# Convention : Reuss Voigt Hill
#
# Bulk Modulus (GPa) = 37.84087 63.73391 50.78739
# Shear Modulus (GPa) = 22.19964 26.91649 24.55807
#
# Velocity S-wave (km/s) = 3.50496 3.85939 3.68644
# Velocity P-wave (km/s) = 6.10899 7.42486 6.79884
#
# Compressibility (1/GPa) = 0.02642645
#
# Stress axis : x y z
#
# Youngs Moduli (GPa) = 80.18680 59.53278 25.35059
#
# Poissons Ratio (x) = 0.34965 0.26159
# Poissons Ratio (y) = 0.47096 0.12554
# Poissons Ratio (z) = 0.82745 0.29481
#
# Static dielectric constant tensor:
#      x y z
#    x 1.626980 0.000000 0.000000 
#    y 0.000000 1.610730 0.000000 
#    z 0.000000 0.000000 1.662400 
# 
# From -- ./inp_files/3758.got.cif
#   From: 2010.05.17/outbox.cif.g08.bks.cpg/sg57_2_cif.got.tgz:3758.got - 2010.06.03 13:58:18.
