data_PCOD9437783
_publ_section_title
;
Structure prediction by ZEFSAII (Michael W. Deem and Ramdas Pophale) SiO2 
 PCOD9437783
Probable space group: P B C M
;
_chemical_formula_sum "Si O2"
_cell_formula_units_Z 56
_cell_length_a 15.661697
_cell_length_b 20.163275
_cell_length_c 8.717478
_cell_angle_alpha 90.000000
_cell_angle_beta 90.000000
_cell_angle_gamma 90.000000
_cell_volume 2752.901998
_symmetry_space_group_name_H-M "P B C M"
_symmetry_group_IT_number 57
_symmetry_cell_setting 'orthorhombic'
loop_
_space_group_symop_operation_xyz
x,y,z
-x,-y,1/2+z
x,1/2-y,-z
-x,1/2+y,1/2-z
-x,-y,-z
x,y,1/2-z
-x,1/2+y,z
x,1/2-y,1/2+z
loop_
_atom_site_type_symbol
_atom_site_label
_atom_site_fract_x
_atom_site_fract_y
_atom_site_fract_z
Si Si1 0.743811 0.961127 0.932697
Si Si2 0.924720 0.955068 0.067494
Si Si3 0.807272 0.178013 0.434001
Si Si4 0.345193 0.580777 0.065666
Si Si5 0.518639 0.320283 0.066623
Si Si6 0.994952 0.677482 0.434442
Si Si7 0.671979 0.817962 0.933291
O O1 0.749411 0.969285 0.750000
O O2 0.724455 0.884206 0.966219
O O3 0.833033 0.979934 0.010507
O O4 0.669832 0.007923 0.998866
O O5 0.928159 0.956720 0.250000
O O6 0.939050 0.880846 0.005045
O O7 0.000000 0.000000 0.000000
O O8 0.785130 0.250000 0.500000
O O9 0.804963 0.181731 0.250000
O O10 0.738329 0.123731 0.481874
O O11 0.905518 0.163383 0.477052
O O12 0.349917 0.578777 0.250000
O O13 0.425767 0.619638 0.998665
O O14 0.521586 0.318587 0.250000
O O15 0.552059 0.250000 0.000000
O O16 0.421411 0.325638 0.008538
O O17 0.973993 0.750000 0.500000
O O18 0.987637 0.677372 0.250000
O O19 0.662237 0.811499 0.750000
O O20 0.710284 0.750000 0.000000
#
# Coordination Sequence:
#
# PCOD9437783 Si02
#       7
#     8   8   8   8   8   8   8
#     4  11  25  43  63  90 121 156 199 248 305 366
#     4  12  25  42  64  89 120 160 204 252 305 362
#     4   9  19  33  53  81 114 153 194 239 291 347
#     4  11  22  37  58  87 123 161 203 248 296 356
#     4  11  22  38  62  91 124 162 203 247 297 353
#     4  10  20  37  59  86 118 153 198 250 304 361
#     4  10  22  42  67  92 120 155 199 250 303 360
#
# _framework density 20.342168999999998
#
# number of rings (size 3 to 8) (size 9 to 14) (size 15 to 20)
#    0.000    1.429    0.000    6.429    0.000    7.429 
#    0.000    1.429    0.000    0.000    0.000    0.000 
#    0.000    0.000    0.000    0.000    0.000    0.000 
#
# Total GULP energy -313290.971117 kJ/mol
# GULP energy per Si atom -5594.481627 kJ/mol
# Density = 2.029587 g / cm^3
# Si number density = 20.342169 Si / 1000 Ang^3
#
#
#
# Elastic Constant Matrix: (Units=GPa)
#
#
# Indices 1 2 3 4 5 6 
#
# 1 49.7562 27.2193 34.1723 0.0000 0.0000 0.0000
# 2 27.2193 93.4702 49.6670 0.0000 0.0000 0.0000
# 3 34.1723 49.6670 102.7216 0.0000 0.0000 0.0000
# 4 0.0000 0.0000 0.0000 36.8839 0.0000 0.0000
# 5 0.0000 0.0000 0.0000 0.0000 26.1480 0.0000
# 6 0.0000 0.0000 0.0000 0.0000 0.0000 32.9306
#
#
#
# Elastic Compliance Matrix: (Units=1/GPa)
#
#
# Indices 1 2 3 4 5 6 
#
# 1 0.027218 -0.004192 -0.007028 0.000000 0.000000 0.000000
# 2 -0.004192 0.015043 -0.005879 0.000000 0.000000 0.000000
# 3 -0.007028 -0.005879 0.014916 0.000000 0.000000 0.000000
# 4 0.000000 0.000000 0.000000 0.027112 0.000000 0.000000
# 5 0.000000 0.000000 0.000000 0.000000 0.038244 0.000000
# 6 0.000000 0.000000 0.000000 0.000000 0.000000 0.030367
#
#
# Mechanical properties :
#
#
# Convention : Reuss Voigt Hill
#
# Bulk Modulus (GPa) = 43.51731 52.00727 47.76229
# Shear Modulus (GPa) = 25.67312 28.18513 26.92913
#
# Velocity S-wave (km/s) = 3.55641 3.72634 3.64236
# Velocity P-wave (km/s) = 6.18895 6.64348 6.42024
#
# Compressibility (1/GPa) = 0.02297936
#
# Stress axis : x y z
#
# Youngs Moduli (GPa) = 36.74079 66.47510 67.04391
#
# Poissons Ratio (x) = 0.27864 0.47117
# Poissons Ratio (y) = 0.15401 0.39416
# Poissons Ratio (z) = 0.25821 0.39082
#
# Static dielectric constant tensor:
#      x y z
#    x 1.717560 0.000000 0.000000 
#    y 0.000000 1.733520 0.000000 
#    z 0.000000 0.000000 1.671710 
# 
# From -- ./inp_files/5177.got.cif
#   From: 2010.05.17/outbox.cif.g08.bks.cpg/sg57_3_cif.got.tgz:5177.got - 2010.06.03 13:58:18.
