data_PCOD9437674
_publ_section_title
;
Structure prediction by ZEFSAII (Michael W. Deem and Ramdas Pophale) SiO2 
 PCOD9437674
Probable space group: P B C M
;
_chemical_formula_sum "Si O2"
_cell_formula_units_Z 64
_cell_length_a 24.096498
_cell_length_b 15.273977
_cell_length_c 9.124824
_cell_angle_alpha 90.000000
_cell_angle_beta 90.000000
_cell_angle_gamma 90.000000
_cell_volume 3358.385599
_symmetry_space_group_name_H-M "P B C M"
_symmetry_group_IT_number 57
_symmetry_cell_setting 'orthorhombic'
loop_
_space_group_symop_operation_xyz
x,y,z
-x,-y,1/2+z
x,1/2-y,-z
-x,1/2+y,1/2-z
-x,-y,-z
x,y,1/2-z
-x,1/2+y,z
x,1/2-y,1/2+z
loop_
_atom_site_type_symbol
_atom_site_label
_atom_site_fract_x
_atom_site_fract_y
_atom_site_fract_z
Si Si1 0.493004 0.338719 0.923881
Si Si2 0.076903 0.521547 0.923979
Si Si3 0.620823 0.882381 0.081767
Si Si4 0.392699 0.587514 0.082636
Si Si5 0.206352 0.504490 0.923947
Si Si6 0.710367 0.338169 0.076595
Si Si7 0.991318 0.847579 0.573295
Si Si8 0.744647 0.836804 0.425200
O O1 0.488658 0.329499 0.750000
O O2 0.542331 0.406814 0.956907
O O3 0.512681 0.250000 0.000000
O O4 0.432646 0.358630 0.987754
O O5 0.065408 0.533982 0.750000
O O6 0.142444 0.528680 0.948935
O O7 0.056569 0.421549 0.959024
O O8 0.044197 0.596961 0.012488
O O9 0.611420 0.853271 0.250000
O O10 0.679801 0.846646 0.029740
O O11 0.625285 0.987021 0.081052
O O12 0.387161 0.620912 0.250000
O O13 0.351342 0.639582 0.979331
O O14 0.212897 0.485330 0.750000
O O15 0.248360 0.582687 0.961337
O O16 0.223209 0.420677 0.016998
O O17 0.710112 0.327575 0.250000
O O18 0.729604 0.250000 0.000000
O O19 0.985891 0.750000 0.500000
O O20 0.994112 0.836500 0.750000
O O21 0.767561 0.750000 0.500000
O O22 0.746362 0.831619 0.250000
#
# Coordination Sequence:
#
# PCOD9437674 Si02
#       8
#     8   8   8   8   8   8   8   8
#     4  11  23  36  54  79 109 143 183 235 290 354
#     4   9  20  39  61  88 124 161 202 250 295 346
#     4  10  21  38  59  82 110 144 186 238 295 355
#     4  10  21  39  59  82 111 143 186 238 294 355
#     4  10  22  41  62  88 121 157 201 249 296 346
#     4  11  23  38  60  86 115 154 196 242 294 353
#     4  10  20  36  61  91 125 164 202 245 294 347
#     4  11  23  39  61  86 117 156 197 246 298 355
#
# _framework density 19.056777
#
# number of rings (size 3 to 8) (size 9 to 14) (size 15 to 20)
#    0.000    1.750    1.250    2.625    0.000    7.000 
#    0.000    2.500    0.000    0.000    0.000    0.000 
#    0.000    0.000    0.000    0.000    0.000    0.000 
#
# Total GULP energy -357239.005620 kJ/mol
# GULP energy per Si atom -5581.859463 kJ/mol
# Density = 1.901340 g / cm^3
# Si number density = 19.056777 Si / 1000 Ang^3
#
#
#
# Elastic Constant Matrix: (Units=GPa)
#
#
# Indices 1 2 3 4 5 6 
#
# 1 63.9683 8.5191 31.6415 0.0000 0.0000 0.0000
# 2 8.5191 90.0213 40.1582 0.0000 0.0000 0.0000
# 3 31.6415 40.1582 50.5637 0.0000 0.0000 0.0000
# 4 0.0000 0.0000 0.0000 35.2756 0.0000 0.0000
# 5 0.0000 0.0000 0.0000 0.0000 26.1762 0.0000
# 6 0.0000 0.0000 0.0000 0.0000 0.0000 23.4866
#
#
#
# Elastic Compliance Matrix: (Units=1/GPa)
#
#
# Indices 1 2 3 4 5 6 
#
# 1 0.025367 0.007249 -0.021631 0.000000 0.000000 0.000000
# 2 0.007249 0.019275 -0.019845 0.000000 0.000000 0.000000
# 3 -0.021631 -0.019845 0.049074 0.000000 0.000000 0.000000
# 4 0.000000 0.000000 0.000000 0.028348 0.000000 0.000000
# 5 0.000000 0.000000 0.000000 0.000000 0.038203 0.000000
# 6 0.000000 0.000000 0.000000 0.000000 0.000000 0.042577
#
#
# Mechanical properties :
#
#
# Convention : Reuss Voigt Hill
#
# Bulk Modulus (GPa) = 39.58452 40.57676 40.08064
# Shear Modulus (GPa) = 17.87501 25.26999 21.57250
#
# Velocity S-wave (km/s) = 3.06598 3.64543 3.36819
# Velocity P-wave (km/s) = 5.77500 6.24961 6.01699
#
# Compressibility (1/GPa) = 0.02526240
#
# Stress axis : x y z
#
# Youngs Moduli (GPa) = 39.42105 51.88020 20.37723
#
# Poissons Ratio (x) = -0.37609 0.44079
# Poissons Ratio (y) = -0.28577 0.40438
# Poissons Ratio (z) = 0.85273 1.02955
#
# Static dielectric constant tensor:
#      x y z
#    x 1.653460 0.000000 0.000000 
#    y 0.000000 1.671280 0.000000 
#    z 0.000000 0.000000 1.649130 
# 
# From -- ./inp_files/9365.got.cif
#   From: 2010.05.17/outbox.cif.g08.bks.cpg/sg57_5_cif.got.tgz:9365.got - 2010.06.03 13:58:18.
