data_PCOD9437056
_publ_section_title
;
Structure prediction by ZEFSAII (Michael W. Deem and Ramdas Pophale) SiO2 
 PCOD9437056
Probable space group: P B C M
;
_chemical_formula_sum "Si O2"
_cell_formula_units_Z 40
_cell_length_a 13.299668
_cell_length_b 19.801842
_cell_length_c 8.719040
_cell_angle_alpha 90.000000
_cell_angle_beta 90.000000
_cell_angle_gamma 90.000000
_cell_volume 2296.228277
_symmetry_space_group_name_H-M "P B C M"
_symmetry_group_IT_number 57
_symmetry_cell_setting 'orthorhombic'
loop_
_space_group_symop_operation_xyz
x,y,z
-x,-y,1/2+z
x,1/2-y,-z
-x,1/2+y,1/2-z
-x,-y,-z
x,y,1/2-z
-x,1/2+y,z
x,1/2-y,1/2+z
loop_
_atom_site_type_symbol
_atom_site_label
_atom_site_fract_x
_atom_site_fract_y
_atom_site_fract_z
Si Si1 0.782847 0.325635 0.432337
Si Si2 0.614122 0.421501 0.932890
Si Si3 0.382759 0.070290 0.435035
Si Si4 0.211516 0.174540 0.065321
Si Si5 0.010790 0.673944 0.066139
O O1 0.772863 0.250000 0.500000
O O2 0.787710 0.321192 0.250000
O O3 0.689930 0.370668 0.485950
O O4 0.888112 0.356383 0.494968
O O5 0.626274 0.416438 0.750000
O O6 0.496951 0.407373 0.970747
O O7 0.634266 0.497896 0.987700
O O8 0.376304 0.062183 0.250000
O O9 0.300286 0.124901 0.484467
O O10 0.215036 0.179657 0.250000
O O11 0.099936 0.146425 0.025831
O O12 0.222512 0.250000 0.000000
O O13 0.020629 0.675541 0.250000
O O14 0.008483 0.750000 0.000000
#
# Coordination Sequence:
#
# PCOD9437056 Si02
#       5
#     8   8   8   8   8
#     4  11  21  34  53  76 103 133 168 209 251 296
#     4  10  20  35  54  75 101 134 171 209 252 302
#     4   9  19  36  54  74 102 135 169 207 253 301
#     4   9  18  32  52  77 104 132 164 205 249 297
#     4   9  16  29  49  73 101 131 163 200 247 298
#
# _framework density 17.419871000000001
#
# number of rings (size 3 to 8) (size 9 to 14) (size 15 to 20)
#    0.000    2.400    0.000    4.200    0.000    3.200 
#    0.000    3.000    0.000    0.000    0.000    0.000 
#    0.000    0.000    0.000    0.000    0.000    0.000 
#
# Total GULP energy -223007.182882 kJ/mol
# GULP energy per Si atom -5575.179572 kJ/mol
# Density = 1.738022 g / cm^3
# Si number density = 17.419871 Si / 1000 Ang^3
#
#
#
# Elastic Constant Matrix: (Units=GPa)
#
#
# Indices 1 2 3 4 5 6 
#
# 1 172.2682 87.7190 67.3869 0.0000 0.0000 0.0000
# 2 87.7190 65.9190 38.3108 0.0000 0.0000 0.0000
# 3 67.3869 38.3108 75.0723 0.0000 0.0000 0.0000
# 4 0.0000 0.0000 0.0000 27.1631 0.0000 0.0000
# 5 0.0000 0.0000 0.0000 0.0000 -32.4240 0.0000
# 6 0.0000 0.0000 0.0000 0.0000 0.0000 -281.9094
#
#
#
# Elastic Compliance Matrix: (Units=1/GPa)
#
#
# Indices 1 2 3 4 5 6 
#
# 1 0.019825 -0.022801 -0.006159 0.000000 0.000000 0.000000
# 2 -0.022801 0.047791 -0.003922 0.000000 0.000000 0.000000
# 3 -0.006159 -0.003922 0.020851 0.000000 0.000000 0.000000
# 4 0.000000 0.000000 0.000000 0.036815 0.000000 0.000000
# 5 0.000000 0.000000 0.000000 0.000000 -0.030841 0.000000
# 6 0.000000 0.000000 0.000000 0.000000 0.000000 -0.003547
#
#
# Mechanical properties :
#
#
# Convention : Reuss Voigt Hill
#
# Bulk Modulus (GPa) = 44.04912 77.78808 60.91860
# Shear Modulus (GPa) = 30.44628 -49.44455 -9.49913
#
# Velocity S-wave (km/s) = 4.18519 -5.33344 -2.33771
# Velocity P-wave (km/s) = 6.97826 2.61233 5.26879
#
# Compressibility (1/GPa) = 0.02270193
#
# Stress axis : x y z
#
# Youngs Moduli (GPa) = 50.44246 20.92443 47.96044
#
# Poissons Ratio (x) = 0.47710 0.29540
# Poissons Ratio (y) = 1.15014 0.18809
# Poissons Ratio (z) = 0.31069 0.08206
#
# Static dielectric constant tensor:
#      x y z
#    x 1.633240 0.000000 0.000000 
#    y 0.000000 1.596710 0.000000 
#    z 0.000000 0.000000 1.582190 
# 
# From -- ./inp_files/2865.got.cif
#   From: 2010.05.17/outbox.cif.g08.bks.cpg/sg57_2_cif.got.tgz:2865.got - 2010.06.03 13:58:18.
