data_PCOD9437775
_publ_section_title
;
Structure prediction by ZEFSAII (Michael W. Deem and Ramdas Pophale) SiO2 
 PCOD9437775
Probable space group: P B C M
;
_chemical_formula_sum "Si O2"
_cell_formula_units_Z 48
_cell_length_a 31.509842
_cell_length_b 9.280132
_cell_length_c 8.653851
_cell_angle_alpha 90.000000
_cell_angle_beta 90.000000
_cell_angle_gamma 90.000000
_cell_volume 2530.520107
_symmetry_space_group_name_H-M "P B C M"
_symmetry_group_IT_number 57
_symmetry_cell_setting 'orthorhombic'
loop_
_space_group_symop_operation_xyz
x,y,z
-x,-y,1/2+z
x,1/2-y,-z
-x,1/2+y,1/2-z
-x,-y,-z
x,y,1/2-z
-x,1/2+y,z
x,1/2-y,1/2+z
loop_
_atom_site_type_symbol
_atom_site_label
_atom_site_fract_x
_atom_site_fract_y
_atom_site_fract_z
Si Si1 0.539878 0.588492 0.564019
Si Si2 0.623228 0.089671 0.063923
Si Si3 0.124166 0.910577 0.564384
Si Si4 0.960260 0.588651 0.564812
Si Si5 0.202586 0.411212 0.934841
Si Si6 0.705729 0.910601 0.436188
O O1 0.539275 0.750000 0.500000
O O2 0.500000 0.500000 0.500000
O O3 0.538062 0.591972 0.750000
O O4 0.583176 0.507566 0.516158
O O5 0.622938 0.095986 0.250000
O O6 0.667260 0.014214 0.016845
O O7 0.619513 0.250000 0.000000
O O8 0.119082 0.750000 0.500000
O O9 0.127434 0.906492 0.750000
O O10 0.083150 0.006297 0.522409
O O11 0.165906 0.984628 0.494901
O O12 0.960189 0.750000 0.500000
O O13 0.963028 0.593801 0.750000
O O14 0.000000 0.500000 0.500000
O O15 0.202997 0.405973 0.750000
O O16 0.195023 0.250000 0.000000
O O17 0.248820 0.457270 0.996875
O O18 0.697573 0.750000 0.500000
O O19 0.708161 0.904880 0.250000
#
# Coordination Sequence:
#
# PCOD9437775 Si02
#       6
#     8   8   8   8   8   8
#     4  11  23  40  61  88 118 153 194 239 290 346
#     4  10  23  39  58  84 116 152 193 238 288 345
#     4  11  24  41  61  88 120 157 198 243 292 348
#     4  11  24  41  64  91 122 157 197 242 292 347
#     4  11  22  38  61  88 118 155 196 243 294 349
#     4  10  20  37  59  85 115 150 193 241 290 347
#
# _framework density 18.968433000000001
#
# number of rings (size 3 to 8) (size 9 to 14) (size 15 to 20)
#    0.000    1.333    0.000    6.500    0.000   10.000 
#    0.000    1.667    0.000    0.000    0.000    0.000 
#    0.000    0.000    0.000    0.000    0.000    0.000 
#
# Total GULP energy -268498.778864 kJ/mol
# GULP energy per Si atom -5593.724560 kJ/mol
# Density = 1.892526 g / cm^3
# Si number density = 18.968433 Si / 1000 Ang^3
#
#
#
# Elastic Constant Matrix: (Units=GPa)
#
#
# Indices 1 2 3 4 5 6 
#
# 1 187.2602 137.1396 67.5200 0.0000 0.0000 0.0000
# 2 137.1396 187.2276 60.6505 0.0000 0.0000 0.0000
# 3 67.5200 60.6505 82.1048 0.0000 0.0000 0.0000
# 4 0.0000 0.0000 0.0000 40.0759 0.0000 0.0000
# 5 0.0000 0.0000 0.0000 0.0000 29.0907 0.0000
# 6 0.0000 0.0000 0.0000 0.0000 0.0000 43.2007
#
#
#
# Elastic Compliance Matrix: (Units=1/GPa)
#
#
# Indices 1 2 3 4 5 6 
#
# 1 0.012776 -0.007828 -0.004724 0.000000 0.000000 0.000000
# 2 -0.007828 0.011817 -0.002292 0.000000 0.000000 0.000000
# 3 -0.004724 -0.002292 0.017758 0.000000 0.000000 0.000000
# 4 0.000000 0.000000 0.000000 0.024953 0.000000 0.000000
# 5 0.000000 0.000000 0.000000 0.000000 0.034375 0.000000
# 6 0.000000 0.000000 0.000000 0.000000 0.000000 0.023148
#
#
# Mechanical properties :
#
#
# Convention : Reuss Voigt Hill
#
# Bulk Modulus (GPa) = 78.97093 109.69032 94.33062
# Shear Modulus (GPa) = 31.49865 35.22563 33.36214
#
# Velocity S-wave (km/s) = 4.07945 4.31404 4.19838
# Velocity P-wave (km/s) = 7.99452 9.09769 8.56389
#
# Compressibility (1/GPa) = 0.01266289
#
# Stress axis : x y z
#
# Youngs Moduli (GPa) = 78.26900 84.62099 56.31341
#
# Poissons Ratio (x) = 0.66242 0.26604
# Poissons Ratio (y) = 0.61269 0.12907
# Poissons Ratio (z) = 0.36977 0.19395
#
# Static dielectric constant tensor:
#      x y z
#    x 1.643510 0.000000 0.000000 
#    y 0.000000 1.614610 0.000000 
#    z 0.000000 0.000000 1.639610 
# 
# From -- ./inp_files/9979.got.cif
#   From: 2010.05.17/outbox.cif.g08.bks.cpg/sg57_5_cif.got.tgz:9979.got - 2010.06.03 13:58:18.
