data_PCOD9437963
_publ_section_title
;
Structure prediction by ZEFSAII (Michael W. Deem and Ramdas Pophale) SiO2 
 PCOD9437963
Probable space group: P B C M
;
_chemical_formula_sum "Si O2"
_cell_formula_units_Z 64
_cell_length_a 10.185297
_cell_length_b 16.241070
_cell_length_c 18.753090
_cell_angle_alpha 90.000000
_cell_angle_beta 90.000000
_cell_angle_gamma 90.000000
_cell_volume 3102.138427
_symmetry_space_group_name_H-M "P B C M"
_symmetry_group_IT_number 57
_symmetry_cell_setting 'orthorhombic'
loop_
_space_group_symop_operation_xyz
x,y,z
-x,-y,1/2+z
x,1/2-y,-z
-x,1/2+y,1/2-z
-x,-y,-z
x,y,1/2-z
-x,1/2+y,z
x,1/2-y,1/2+z
loop_
_atom_site_type_symbol
_atom_site_label
_atom_site_fract_x
_atom_site_fract_y
_atom_site_fract_z
Si Si1 0.398585 0.860382 0.910684
Si Si2 0.329069 0.151710 0.043335
Si Si3 0.786670 0.866531 0.394908
Si Si4 0.146492 0.198032 0.327692
Si Si5 0.449134 0.027569 0.833691
Si Si6 0.330244 0.541715 0.945252
Si Si7 0.938421 0.381788 0.453032
Si Si8 0.887370 0.304155 0.601600
O O1 0.532904 0.812362 0.927993
O O2 0.267562 0.813957 0.886187
O O3 0.431983 0.931762 0.854380
O O4 0.362282 0.902508 0.986373
O O5 0.223018 0.158810 0.106009
O O6 0.352000 0.053122 0.034131
O O7 0.277331 0.175925 0.965207
O O8 0.827450 0.795278 0.340047
O O9 0.682325 0.926891 0.360081
O O10 0.918865 0.908233 0.425577
O O11 0.194378 0.171920 0.250000
O O12 0.991674 0.181240 0.336171
O O13 0.468874 0.038755 0.750000
O O14 0.571472 0.059953 0.880490
O O15 0.178591 0.559514 0.928395
O O16 0.929207 0.366398 0.537824
O O17 0.912763 0.289489 0.423517
#
# Coordination Sequence:
#
# PCOD9437963 Si02
#       8
#     8   8   8   8   8   8   8   8
#     4  10  20  38  61  89 116 151 198 238 291 348
#     4  11  20  36  62  88 115 153 197 244 289 349
#     4  11  20  39  59  86 115 155 199 243 289 353
#     4  11  24  39  56  84 121 156 193 244 300 347
#     4  11  22  37  58  85 121 158 193 243 303 353
#     4  10  20  38  59  88 117 149 194 246 289 346
#     4   9  19  35  61  88 113 146 199 240 287 340
#     4   9  19  37  59  85 115 150 190 242 287 350
#
# _framework density 20.630929999999999
#
# number of rings (size 3 to 8) (size 9 to 14) (size 15 to 20)
#    0.000    1.750    3.750    1.500    0.000    5.000 
#    4.500    3.125    0.000    0.000    0.000    0.000 
#    0.000    0.000    0.000    0.000    0.000    0.000 
#
# Total GULP energy -357373.929833 kJ/mol
# GULP energy per Si atom -5583.967654 kJ/mol
# Density = 2.058397 g / cm^3
# Si number density = 20.630930 Si / 1000 Ang^3
#
#
#
# Elastic Constant Matrix: (Units=GPa)
#
#
# Indices 1 2 3 4 5 6 
#
# 1 129.4197 14.6980 29.8115 0.0000 0.0000 0.0000
# 2 14.6980 16.7125 9.6405 0.0000 0.0000 0.0000
# 3 29.8115 9.6405 101.3819 0.0000 0.0000 0.0000
# 4 0.0000 0.0000 0.0000 11.2190 0.0000 0.0000
# 5 0.0000 0.0000 0.0000 0.0000 18.3560 0.0000
# 6 0.0000 0.0000 0.0000 0.0000 0.0000 28.9271
#
#
#
# Elastic Compliance Matrix: (Units=1/GPa)
#
#
# Indices 1 2 3 4 5 6 
#
# 1 0.008949 -0.006721 -0.001992 0.000000 0.000000 0.000000
# 2 -0.006721 0.068356 -0.004524 0.000000 0.000000 0.000000
# 3 -0.001992 -0.004524 0.010880 0.000000 0.000000 0.000000
# 4 0.000000 0.000000 0.000000 0.089134 0.000000 0.000000
# 5 0.000000 0.000000 0.000000 0.000000 0.054478 0.000000
# 6 0.000000 0.000000 0.000000 0.000000 0.000000 0.034570
#
#
# Mechanical properties :
#
#
# Convention : Reuss Voigt Hill
#
# Bulk Modulus (GPa) = 16.20470 39.53491 27.86980
# Shear Modulus (GPa) = 15.95349 24.59137 20.27243
#
# Velocity S-wave (km/s) = 2.78381 3.45623 3.13808
# Velocity P-wave (km/s) = 4.26666 5.92722 5.16412
#
# Compressibility (1/GPa) = 0.06171051
#
# Stress axis : x y z
#
# Youngs Moduli (GPa) = 111.74386 14.62928 91.91410
#
# Poissons Ratio (x) = 0.09832 0.18313
# Poissons Ratio (y) = 0.75104 0.41579
# Poissons Ratio (z) = 0.22263 0.06618
#
# Static dielectric constant tensor:
#      x y z
#    x 1.789630 0.000000 0.000000 
#    y 0.000000 1.779740 0.000000 
#    z 0.000000 0.000000 1.704930 
# 
# From -- ./inp_files/21386.got.cif
#   From: 2010.05.17/outbox.cif.g08.bks.cpg/sg57_11_cif.got.tgz:21386.got - 2010.06.03 13:58:18.
