data_PCOD9437898
_publ_section_title
;
Structure prediction by ZEFSAII (Michael W. Deem and Ramdas Pophale) SiO2 
 PCOD9437898
Probable space group: P B C M
;
_chemical_formula_sum "Si O2"
_cell_formula_units_Z 64
_cell_length_a 12.404661
_cell_length_b 31.965294
_cell_length_c 8.678617
_cell_angle_alpha 90.000000
_cell_angle_beta 90.000000
_cell_angle_gamma 90.000000
_cell_volume 3441.233374
_symmetry_space_group_name_H-M "P B C M"
_symmetry_group_IT_number 57
_symmetry_cell_setting 'orthorhombic'
loop_
_space_group_symop_operation_xyz
x,y,z
-x,-y,1/2+z
x,1/2-y,-z
-x,1/2+y,1/2-z
-x,-y,-z
x,y,1/2-z
-x,1/2+y,z
x,1/2-y,1/2+z
loop_
_atom_site_type_symbol
_atom_site_label
_atom_site_fract_x
_atom_site_fract_y
_atom_site_fract_z
Si Si1 0.385506 0.513530 0.430237
Si Si2 0.360644 0.886832 0.568780
Si Si3 0.000484 0.295697 0.565111
Si Si4 0.986820 0.546875 0.934116
Si Si5 0.249802 0.294908 0.935626
Si Si6 0.755360 0.555113 0.433709
Si Si7 0.129066 0.625612 0.566189
Si Si8 0.401740 0.129971 0.062066
O O1 0.500000 0.500000 0.500000
O O2 0.381403 0.501947 0.250000
O O3 0.372745 0.563104 0.441799
O O4 0.290886 0.489919 0.519925
O O5 0.348347 0.876075 0.750000
O O6 0.253805 0.873629 0.480819
O O7 0.474762 0.869066 0.509843
O O8 0.968653 0.250000 0.500000
O O9 0.995228 0.294264 0.750000
O O10 0.125682 0.302924 0.518336
O O11 0.930948 0.334333 0.504606
O O12 0.993029 0.543857 0.750000
O O13 0.073751 0.581732 0.986960
O O14 0.868998 0.562687 0.985499
O O15 0.000000 0.500000 0.000000
O O16 0.252034 0.294027 0.750000
O O17 0.330400 0.330919 0.988284
O O18 0.281621 0.250000 0.000000
O O19 0.769837 0.558030 0.250000
O O20 0.663545 0.588249 0.481955
O O21 0.117945 0.627208 0.750000
O O22 0.405706 0.129391 0.250000
#
# Coordination Sequence:
#
# PCOD9437898 Si02
#       8
#     8   8   8   8   8   8   8   8
#     4  11  21  35  55  81 113 152 196 239 287 340
#     4  10  21  38  57  78 110 154 198 235 281 344
#     4  10  20  37  63  92 118 150 189 235 292 355
#     4  11  24  40  57  82 116 155 197 245 299 355
#     4   9  18  34  58  85 113 141 175 219 275 336
#     4  11  21  36  58  83 111 144 188 239 290 345
#     4  11  24  40  58  84 118 154 197 249 299 351
#     4   9  18  35  56  80 109 145 184 223 274 336
#
# _framework density 18.597981000000001
#
# number of rings (size 3 to 8) (size 9 to 14) (size 15 to 20)
#    0.000    1.750    1.250    3.375    0.000    6.500 
#    0.000    2.500    0.000    1.500    0.000    0.000 
#    0.000    0.000    0.000    0.000    0.000    0.000 
#
# Total GULP energy -357472.181322 kJ/mol
# GULP energy per Si atom -5585.502833 kJ/mol
# Density = 1.855565 g / cm^3
# Si number density = 18.597981 Si / 1000 Ang^3
#
#
#
# Elastic Constant Matrix: (Units=GPa)
#
#
# Indices 1 2 3 4 5 6 
#
# 1 118.3964 61.4469 25.9706 0.0000 0.0000 0.0000
# 2 61.4469 107.3575 36.3758 0.0000 0.0000 0.0000
# 3 25.9706 36.3758 38.3542 0.0000 0.0000 0.0000
# 4 0.0000 0.0000 0.0000 28.6739 0.0000 0.0000
# 5 0.0000 0.0000 0.0000 0.0000 29.4605 0.0000
# 6 0.0000 0.0000 0.0000 0.0000 0.0000 35.4801
#
#
#
# Elastic Compliance Matrix: (Units=1/GPa)
#
#
# Indices 1 2 3 4 5 6 
#
# 1 0.012164 -0.006147 -0.002407 0.000000 0.000000 0.000000
# 2 -0.006147 0.016831 -0.011801 0.000000 0.000000 0.000000
# 3 -0.002407 -0.011801 0.038895 0.000000 0.000000 0.000000
# 4 0.000000 0.000000 0.000000 0.034875 0.000000 0.000000
# 5 0.000000 0.000000 0.000000 0.000000 0.033944 0.000000
# 6 0.000000 0.000000 0.000000 0.000000 0.000000 0.028185
#
#
# Mechanical properties :
#
#
# Convention : Reuss Voigt Hill
#
# Bulk Modulus (GPa) = 36.79048 56.85495 46.82271
# Shear Modulus (GPa) = 23.29219 28.07722 25.68471
#
# Velocity S-wave (km/s) = 3.54277 3.88969 3.72028
# Velocity P-wave (km/s) = 6.04648 7.12810 6.60945
#
# Compressibility (1/GPa) = 0.02718094
#
# Stress axis : x y z
#
# Youngs Moduli (GPa) = 82.20756 59.41291 25.71024
#
# Poissons Ratio (x) = 0.36520 0.06189
# Poissons Ratio (y) = 0.50531 0.30341
# Poissons Ratio (z) = 0.19788 0.70113
#
# Static dielectric constant tensor:
#      x y z
#    x 1.638460 0.000000 0.000000 
#    y 0.000000 1.654990 0.000000 
#    z 0.000000 0.000000 1.635110 
# 
# From -- ./inp_files/3734.got.cif
#   From: 2010.05.17/outbox.cif.g08.bks.cpg/sg57_2_cif.got.tgz:3734.got - 2010.06.03 13:58:18.
