data_PCOD9437090
_publ_section_title
;
Structure prediction by ZEFSAII (Michael W. Deem and Ramdas Pophale) SiO2 
 PCOD9437090
Probable space group: P B C M
;
_chemical_formula_sum "Si O2"
_cell_formula_units_Z 64
_cell_length_a 26.935611
_cell_length_b 15.025199
_cell_length_c 8.677915
_cell_angle_alpha 90.000000
_cell_angle_beta 90.000000
_cell_angle_gamma 90.000000
_cell_volume 3512.064280
_symmetry_space_group_name_H-M "P B C M"
_symmetry_group_IT_number 57
_symmetry_cell_setting 'orthorhombic'
loop_
_space_group_symop_operation_xyz
x,y,z
-x,-y,1/2+z
x,1/2-y,-z
-x,1/2+y,1/2-z
-x,-y,-z
x,y,1/2-z
-x,1/2+y,z
x,1/2-y,1/2+z
loop_
_atom_site_type_symbol
_atom_site_label
_atom_site_fract_x
_atom_site_fract_y
_atom_site_fract_z
Si Si1 0.498908 0.850563 0.565033
Si Si2 0.125936 0.650696 0.435397
Si Si3 0.055342 0.999986 0.433673
Si Si4 0.575549 0.494877 0.434631
Si Si5 0.761611 0.348153 0.564742
Si Si6 0.686047 0.500174 0.563009
Si Si7 0.874128 0.650677 0.564607
Si Si8 0.761728 0.651823 0.564735
O O1 0.501151 0.750000 0.500000
O O2 0.496892 0.845113 0.750000
O O3 0.452299 0.908780 0.504916
O O4 0.545481 0.914767 0.521449
O O5 0.119371 0.750000 0.500000
O O6 0.122090 0.650535 0.250000
O O7 0.085815 0.584985 0.505942
O O8 0.182407 0.622212 0.477714
O O9 0.053625 0.999903 0.250000
O O10 0.085731 0.085086 0.493889
O O11 0.000000 0.000000 0.500000
O O12 0.573765 0.487875 0.250000
O O13 0.631591 0.499775 0.493037
O O14 0.753885 0.250000 0.500000
O O15 0.760643 0.344633 0.750000
O O16 0.718803 0.415188 0.514815
O O17 0.682414 0.500172 0.750000
O O18 0.718833 0.585024 0.514605
O O19 0.880585 0.750000 0.500000
O O20 0.878016 0.650521 0.750000
O O21 0.817682 0.621990 0.522399
O O22 0.754145 0.750000 0.500000
O O23 0.760729 0.655296 0.750000
#
# Coordination Sequence:
#
# PCOD9437090 Si02
#       8
#     8   8   8   8   8   8   8   8
#     4  10  21  39  62  83 107 143 186 231 279 330
#     4  10  20  38  61  85 113 146 185 230 277 330
#     4  12  25  40  58  83 111 144 185 230 282 337
#     4  10  22  38  56  83 114 145 185 230 276 327
#     4   9  19  35  56  81 110 145 184 222 267 323
#     4  10  20  35  54  79 115 154 184 221 273 324
#     4  10  20  38  61  85 113 147 186 230 277 329
#     4   9  19  35  56  81 111 147 186 225 270 325
#
# _framework density 18.222901
#
# number of rings (size 3 to 8) (size 9 to 14) (size 15 to 20)
#    0.000    2.000    0.000    3.375    0.000    7.000 
#    0.000    7.500    0.000    0.000    0.000    0.000 
#    0.000    0.000    0.000    0.000    0.000    0.000 
#
# Total GULP energy -357389.843310 kJ/mol
# GULP energy per Si atom -5584.216302 kJ/mol
# Density = 1.818142 g / cm^3
# Si number density = 18.222901 Si / 1000 Ang^3
#
#
#
# Elastic Constant Matrix: (Units=GPa)
#
#
# Indices 1 2 3 4 5 6 
#
# 1 200.0061 114.8211 62.3510 0.0000 0.0000 0.0000
# 2 114.8211 141.3471 50.5994 0.0000 0.0000 0.0000
# 3 62.3510 50.5994 70.2281 0.0000 0.0000 0.0000
# 4 0.0000 0.0000 0.0000 33.8105 0.0000 0.0000
# 5 0.0000 0.0000 0.0000 0.0000 31.9221 0.0000
# 6 0.0000 0.0000 0.0000 0.0000 0.0000 -210.5652
#
#
#
# Elastic Compliance Matrix: (Units=1/GPa)
#
#
# Indices 1 2 3 4 5 6 
#
# 1 0.010197 -0.006795 -0.004157 0.000000 0.000000 0.000000
# 2 -0.006795 0.014062 -0.004099 0.000000 0.000000 0.000000
# 3 -0.004157 -0.004099 0.020883 0.000000 0.000000 0.000000
# 4 0.000000 0.000000 0.000000 0.029577 0.000000 0.000000
# 5 0.000000 0.000000 0.000000 0.000000 0.031326 0.000000
# 6 0.000000 0.000000 0.000000 0.000000 0.000000 -0.004749
#
#
# Mechanical properties :
#
#
# Convention : Reuss Voigt Hill
#
# Bulk Modulus (GPa) = 66.48910 96.34714 81.41812
# Shear Modulus (GPa) = 36.65388 -16.71256 9.97066
#
# Velocity S-wave (km/s) = 4.48975 -3.03168 2.34166
# Velocity P-wave (km/s) = 7.96511 6.38212 7.21714
#
# Compressibility (1/GPa) = 0.01504006
#
# Stress axis : x y z
#
# Youngs Moduli (GPa) = 98.07026 71.11442 47.88482
#
# Poissons Ratio (x) = 0.48322 0.19907
# Poissons Ratio (y) = 0.66638 0.19627
# Poissons Ratio (z) = 0.40771 0.29148
#
# Static dielectric constant tensor:
#      x y z
#    x 1.608710 0.000000 0.000000 
#    y 0.000000 1.651300 0.000000 
#    z 0.000000 0.000000 1.613590 
# 
# From -- ./inp_files/9442.got.cif
#   From: 2010.05.17/outbox.cif.g08.bks.cpg/sg57_5_cif.got.tgz:9442.got - 2010.06.03 13:58:18.
