data_PCOD9437254
_publ_section_title
;
Structure prediction by ZEFSAII (Michael W. Deem and Ramdas Pophale) SiO2 
 PCOD9437254
Probable space group: P B C M
;
_chemical_formula_sum "Si O2"
_cell_formula_units_Z 64
_cell_length_a 24.374918
_cell_length_b 15.573312
_cell_length_c 8.377383
_cell_angle_alpha 90.000000
_cell_angle_beta 90.000000
_cell_angle_gamma 90.000000
_cell_volume 3180.039533
_symmetry_space_group_name_H-M "P B C M"
_symmetry_group_IT_number 57
_symmetry_cell_setting 'orthorhombic'
loop_
_space_group_symop_operation_xyz
x,y,z
-x,-y,1/2+z
x,1/2-y,-z
-x,1/2+y,1/2-z
-x,-y,-z
x,y,1/2-z
-x,1/2+y,z
x,1/2-y,1/2+z
loop_
_atom_site_type_symbol
_atom_site_label
_atom_site_fract_x
_atom_site_fract_y
_atom_site_fract_z
Si Si1 0.929434 0.340257 0.437643
Si Si2 0.364978 0.484089 0.942428
Si Si3 0.818553 0.152854 0.060358
Si Si4 0.759168 0.988436 0.556348
Si Si5 0.850519 0.651641 0.443642
Si Si6 0.967079 0.581954 0.064896
Si Si7 0.548533 0.655189 0.559247
Si Si8 0.577232 0.155569 0.557459
O O1 0.908231 0.250000 0.500000
O O2 0.939789 0.345931 0.250000
O O3 0.874364 0.391120 0.483048
O O4 0.985279 0.349877 0.534380
O O5 0.365839 0.484613 0.750000
O O6 0.302737 0.464549 0.991245
O O7 0.384253 0.578330 0.998059
O O8 0.408985 0.414909 0.998925
O O9 0.827316 0.158647 0.250000
O O10 0.803411 0.250000 0.000000
O O11 0.773813 0.081405 0.015753
O O12 0.761973 0.995670 0.750000
O O13 0.802361 0.914080 0.508403
O O14 0.843669 0.750000 0.500000
O O15 0.852411 0.653737 0.250000
O O16 0.909323 0.613567 0.503282
O O17 0.957833 0.565336 0.250000
O O18 0.000000 0.500000 0.000000
O O19 0.563956 0.750000 0.500000
O O20 0.548242 0.654574 0.750000
O O21 0.485751 0.638932 0.503802
O O22 0.593547 0.250000 0.500000
O O23 0.577338 0.156201 0.750000
#
# Coordination Sequence:
#
# PCOD9437254 Si02
#       8
#     8   8   8   8   8   8   8   8
#     4  11  21  35  55  80 109 139 174 221 277 341
#     4  10  21  37  58  84 117 153 193 242 295 346
#     4  11  22  38  61  87 116 153 194 240 295 358
#     4  10  22  41  60  83 116 154 197 247 295 344
#     4  10  23  41  61  83 113 154 198 243 293 344
#     4  11  22  36  56  84 113 144 183 232 291 353
#     4  10  20  35  57  84 116 151 192 238 289 348
#     4   9  19  35  56  85 118 154 190 233 289 350
#
# _framework density 20.125537999999999
#
# number of rings (size 3 to 8) (size 9 to 14) (size 15 to 20)
#    0.000    1.750    0.000    5.250    0.000    6.000 
#    0.000    2.500    0.000    0.000    0.000    0.000 
#    0.000    0.000    0.000    0.000    0.000    0.000 
#
# Total GULP energy -356890.150374 kJ/mol
# GULP energy per Si atom -5576.408600 kJ/mol
# Density = 2.007973 g / cm^3
# Si number density = 20.125538 Si / 1000 Ang^3
#
#
#
# Elastic Constant Matrix: (Units=GPa)
#
#
# Indices 1 2 3 4 5 6 
#
# 1 71.5639 48.9458 26.2163 0.0000 0.0000 0.0000
# 2 48.9458 114.7537 22.0559 0.0000 0.0000 0.0000
# 3 26.2163 22.0559 30.5484 0.0000 0.0000 0.0000
# 4 0.0000 0.0000 0.0000 34.9255 0.0000 0.0000
# 5 0.0000 0.0000 0.0000 0.0000 14.5364 0.0000
# 6 0.0000 0.0000 0.0000 0.0000 0.0000 0.3091
#
#
#
# Elastic Compliance Matrix: (Units=1/GPa)
#
#
# Indices 1 2 3 4 5 6 
#
# 1 0.025033 -0.007603 -0.015993 0.000000 0.000000 0.000000
# 2 -0.007603 0.012428 -0.002448 0.000000 0.000000 0.000000
# 3 -0.015993 -0.002448 0.048227 0.000000 0.000000 0.000000
# 4 0.000000 0.000000 0.000000 0.028632 0.000000 0.000000
# 5 0.000000 0.000000 0.000000 0.000000 0.068793 0.000000
# 6 0.000000 0.000000 0.000000 0.000000 0.000000 3.235314
#
#
# Mechanical properties :
#
#
# Convention : Reuss Voigt Hill
#
# Bulk Modulus (GPa) = 29.76249 45.70023 37.73136
# Shear Modulus (GPa) = 1.43607 17.93074 9.68341
#
# Velocity S-wave (km/s) = 0.84564 2.98811 2.19589
# Velocity P-wave (km/s) = 3.97165 5.88744 5.02175
#
# Compressibility (1/GPa) = 0.03359934
#
# Stress axis : x y z
#
# Youngs Moduli (GPa) = 39.94801 80.46490 20.73509
#
# Poissons Ratio (x) = 0.61179 0.33162
# Poissons Ratio (y) = 0.30373 0.05076
# Poissons Ratio (z) = 0.63889 0.19697
#
# Static dielectric constant tensor:
#      x y z
#    x 1.967670 0.000000 0.000000 
#    y 0.000000 1.661290 0.000000 
#    z 0.000000 0.000000 1.743240 
# 
# From -- ./inp_files/9440.got.cif
#   From: 2010.05.17/outbox.cif.g08.bks.cpg/sg57_5_cif.got.tgz:9440.got - 2010.06.03 13:58:18.
