data_PCOD9437545
_publ_section_title
;
Structure prediction by ZEFSAII (Michael W. Deem and Ramdas Pophale) SiO2 
 PCOD9437545
Probable space group: P B C M
;
_chemical_formula_sum "Si O2"
_cell_formula_units_Z 40
_cell_length_a 7.726829
_cell_length_b 12.568219
_cell_length_c 20.367538
_cell_angle_alpha 90.000000
_cell_angle_beta 90.000000
_cell_angle_gamma 90.000000
_cell_volume 1977.942107
_symmetry_space_group_name_H-M "P B C M"
_symmetry_group_IT_number 57
_symmetry_cell_setting 'orthorhombic'
loop_
_space_group_symop_operation_xyz
x,y,z
-x,-y,1/2+z
x,1/2-y,-z
-x,1/2+y,1/2-z
-x,-y,-z
x,y,1/2-z
-x,1/2+y,z
x,1/2-y,1/2+z
loop_
_atom_site_type_symbol
_atom_site_label
_atom_site_fract_x
_atom_site_fract_y
_atom_site_fract_z
Si Si1 0.697530 0.749959 0.676679
Si Si2 0.478411 0.331482 0.443548
Si Si3 0.064265 0.671313 0.172262
Si Si4 0.180516 0.454234 0.389256
Si Si5 0.871756 0.331534 0.441806
O O1 0.632491 0.764889 0.750000
O O2 0.549364 0.739423 0.622595
O O3 0.793167 0.635350 0.667533
O O4 0.853888 0.832081 0.663292
O O5 0.422328 0.250000 0.500000
O O6 0.350077 0.430652 0.433115
O O7 0.675127 0.365054 0.454515
O O8 0.094755 0.684852 0.250000
O O9 0.153734 0.566861 0.143402
O O10 0.127306 0.767015 0.126544
O O11 0.013597 0.422152 0.431993
O O12 0.923148 0.250000 0.500000
#
# Coordination Sequence:
#
# PCOD9437545 Si02
#       5
#     8   8   8   8   8
#     4   8  17  33  54  75 107 146 180 225 276 325
#     4   9  19  37  56  80 112 147 185 229 272 329
#     4  10  20  36  58  85 113 147 188 232 281 336
#     4   9  19  35  59  78 112 144 184 229 278 327
#     4  10  21  39  58  84 113 149 190 229 281 334
#
# _framework density 20.223037000000001
#
# number of rings (size 3 to 8) (size 9 to 14) (size 15 to 20)
#    1.200    1.600    0.000    1.200    0.000    2.400 
#    3.600    2.000    0.000    0.000    0.000    0.000 
#    0.000    0.000    0.000    0.000    0.000    0.000 
#
# Total GULP energy -222689.953340 kJ/mol
# GULP energy per Si atom -5567.248833 kJ/mol
# Density = 2.017701 g / cm^3
# Si number density = 20.223037 Si / 1000 Ang^3
#
#
#
# Elastic Constant Matrix: (Units=GPa)
#
#
# Indices 1 2 3 4 5 6 
#
# 1 39.7466 -6.0011 12.9572 0.0000 0.0000 0.0000
# 2 -6.0011 20.4465 7.3128 0.0000 0.0000 0.0000
# 3 12.9572 7.3128 80.0601 0.0000 0.0000 0.0000
# 4 0.0000 0.0000 0.0000 30.8836 0.0000 0.0000
# 5 0.0000 0.0000 0.0000 0.0000 11.1094 0.0000
# 6 0.0000 0.0000 0.0000 0.0000 0.0000 -15.8273
#
#
#
# Elastic Compliance Matrix: (Units=1/GPa)
#
#
# Indices 1 2 3 4 5 6 
#
# 1 0.028539 0.010367 -0.005566 0.000000 0.000000 0.000000
# 2 0.010367 0.054326 -0.006640 0.000000 0.000000 0.000000
# 3 -0.005566 -0.006640 0.013998 0.000000 0.000000 0.000000
# 4 0.000000 0.000000 0.000000 0.032380 0.000000 0.000000
# 5 0.000000 0.000000 0.000000 0.000000 0.090014 0.000000
# 6 0.000000 0.000000 0.000000 0.000000 0.000000 -0.063182
#
#
# Mechanical properties :
#
#
# Convention : Reuss Voigt Hill
#
# Bulk Modulus (GPa) = 10.73135 18.75454 14.74294
# Shear Modulus (GPa) = 26.20357 13.63209 19.91783
#
# Velocity S-wave (km/s) = 3.60353 2.59914 3.14173
# Velocity P-wave (km/s) = 4.75730 4.27800 4.52400
#
# Compressibility (1/GPa) = 0.09318496
#
# Stress axis : x y z
#
# Youngs Moduli (GPa) = 35.03970 18.40752 71.43926
#
# Poissons Ratio (x) = -0.19083 0.39761
# Poissons Ratio (y) = -0.36325 0.47436
# Poissons Ratio (z) = 0.19502 0.12223
#
# Static dielectric constant tensor:
#      x y z
#    x 1.733750 0.000000 0.000000 
#    y 0.000000 1.677100 0.000000 
#    z 0.000000 0.000000 1.704420 
# 
# From -- ./inp_files/24151.got.cif
#   From: 2010.05.17/outbox.cif.g08.bks.cpg/sg57_13_cif.got.tgz:24151.got - 2010.06.03 13:58:18.
