data_PCOD9437420
_publ_section_title
;
Structure prediction by ZEFSAII (Michael W. Deem and Ramdas Pophale) SiO2 
 PCOD9437420
Probable space group: P B C M
;
_chemical_formula_sum "Si O2"
_cell_formula_units_Z 40
_cell_length_a 16.515638
_cell_length_b 14.362450
_cell_length_c 8.696784
_cell_angle_alpha 90.000000
_cell_angle_beta 90.000000
_cell_angle_gamma 90.000000
_cell_volume 2062.920866
_symmetry_space_group_name_H-M "P B C M"
_symmetry_group_IT_number 57
_symmetry_cell_setting 'orthorhombic'
loop_
_space_group_symop_operation_xyz
x,y,z
-x,-y,1/2+z
x,1/2-y,-z
-x,1/2+y,1/2-z
-x,-y,-z
x,y,1/2-z
-x,1/2+y,z
x,1/2-y,1/2+z
loop_
_atom_site_type_symbol
_atom_site_label
_atom_site_fract_x
_atom_site_fract_y
_atom_site_fract_z
Si Si1 0.878131 0.465078 0.433778
Si Si2 0.039321 0.146712 0.565664
Si Si3 0.292261 0.972715 0.565941
Si Si4 0.628520 0.853245 0.934503
Si Si5 0.553738 0.353324 0.935304
O O1 0.874934 0.471489 0.250000
O O2 0.901699 0.566515 0.500743
O O3 0.791625 0.435614 0.499324
O O4 0.949666 0.392811 0.475203
O O5 0.052434 0.250000 0.500000
O O6 0.046404 0.149215 0.750000
O O7 0.289440 0.971486 0.750000
O O8 0.307383 0.076614 0.505600
O O9 0.371022 0.915141 0.512415
O O10 0.633959 0.852575 0.750000
O O11 0.536948 0.884765 0.980352
O O12 0.639089 0.750000 0.000000
O O13 0.555012 0.350588 0.750000
O O14 0.563562 0.250000 0.000000
#
# Coordination Sequence:
#
# PCOD9437420 Si02
#       5
#     8   8   8   8   8
#     4  10  22  39  58  84 114 144 182 224 268 323
#     4  10  21  39  63  86 111 144 179 220 271 326
#     4  11  22  36  55  82 114 146 182 227 276 323
#     4  10  20  36  56  79 108 145 188 231 276 325
#     4   9  20  36  55  79 109 146 187 230 274 323
#
# _framework density 19.389983000000001
#
# number of rings (size 3 to 8) (size 9 to 14) (size 15 to 20)
#    0.000    2.000    0.000    3.000    0.000    6.400 
#    0.000    8.000    0.000    0.000    0.000    0.000 
#    0.000    0.000    0.000    0.000    0.000    0.000 
#
# Total GULP energy -223415.930627 kJ/mol
# GULP energy per Si atom -5585.398266 kJ/mol
# Density = 1.934585 g / cm^3
# Si number density = 19.389983 Si / 1000 Ang^3
#
#
#
# Elastic Constant Matrix: (Units=GPa)
#
#
# Indices 1 2 3 4 5 6 
#
# 1 47.4993 -12.7046 9.7074 0.0000 0.0000 0.0000
# 2 -12.7046 38.4230 1.9839 0.0000 0.0000 0.0000
# 3 9.7074 1.9839 31.4427 0.0000 0.0000 0.0000
# 4 0.0000 0.0000 0.0000 27.9953 0.0000 0.0000
# 5 0.0000 0.0000 0.0000 0.0000 32.2176 0.0000
# 6 0.0000 0.0000 0.0000 0.0000 0.0000 11.8624
#
#
#
# Elastic Compliance Matrix: (Units=1/GPa)
#
#
# Indices 1 2 3 4 5 6 
#
# 1 0.025080 0.008721 -0.008293 0.000000 0.000000 0.000000
# 2 0.008721 0.029144 -0.004531 0.000000 0.000000 0.000000
# 3 -0.008293 -0.004531 0.034650 0.000000 0.000000 0.000000
# 4 0.000000 0.000000 0.000000 0.035720 0.000000 0.000000
# 5 0.000000 0.000000 0.000000 0.000000 0.031039 0.000000
# 6 0.000000 0.000000 0.000000 0.000000 0.000000 0.084300
#
#
# Mechanical properties :
#
#
# Convention : Reuss Voigt Hill
#
# Bulk Modulus (GPa) = 12.39663 12.81538 12.60600
# Shear Modulus (GPa) = 18.17986 22.30697 20.24341
#
# Velocity S-wave (km/s) = 3.06533 3.39549 3.23463
# Velocity P-wave (km/s) = 4.35150 4.69000 4.52392
#
# Compressibility (1/GPa) = 0.08066711
#
# Stress axis : x y z
#
# Youngs Moduli (GPa) = 39.87165 34.31273 28.85979
#
# Poissons Ratio (x) = -0.29924 0.23935
# Poissons Ratio (y) = -0.34772 0.13077
# Poissons Ratio (z) = 0.33067 0.15548
#
# Static dielectric constant tensor:
#      x y z
#    x 1.689790 0.000000 0.000000 
#    y 0.000000 1.678900 0.000000 
#    z 0.000000 0.000000 1.637080 
# 
# From -- ./inp_files/4262.got.cif
#   From: 2010.05.17/outbox.cif.g08.bks.cpg/sg57_3_cif.got.tgz:4262.got - 2010.06.03 13:58:18.
