data_PCOD9438223
_publ_section_title
;
Structure prediction by ZEFSAII (Michael W. Deem and Ramdas Pophale) SiO2 
 PCOD9438223
Probable space group: P B C M
;
_chemical_formula_sum "Si O2"
_cell_formula_units_Z 40
_cell_length_a 9.073901
_cell_length_b 8.584829
_cell_length_c 22.413690
_cell_angle_alpha 90.000000
_cell_angle_beta 90.000000
_cell_angle_gamma 90.000000
_cell_volume 1745.979123
_symmetry_space_group_name_H-M "P B C M"
_symmetry_group_IT_number 57
_symmetry_cell_setting 'orthorhombic'
loop_
_space_group_symop_operation_xyz
x,y,z
-x,-y,1/2+z
x,1/2-y,-z
-x,1/2+y,1/2-z
-x,-y,-z
x,y,1/2-z
-x,1/2+y,z
x,1/2-y,1/2+z
loop_
_atom_site_type_symbol
_atom_site_label
_atom_site_fract_x
_atom_site_fract_y
_atom_site_fract_z
Si Si1 0.387757 0.997778 0.444925
Si Si2 0.861943 0.939095 0.124196
Si Si3 0.606746 0.185478 0.127974
Si Si4 0.087809 0.354252 0.947579
Si Si5 0.756226 0.300341 0.250000
Si Si6 0.010064 0.518653 0.250000
O O1 0.450868 0.109955 0.391981
O O2 0.233225 0.059390 0.469506
O O3 0.500000 0.000000 0.500000
O O4 0.367299 0.825792 0.418257
O O5 0.856891 0.764019 0.102763
O O6 0.712978 0.036494 0.121668
O O7 0.974988 0.029397 0.081644
O O8 0.927097 0.944277 0.190020
O O9 0.654988 0.259031 0.192197
O O10 0.021379 0.250000 0.000000
O O11 0.834531 0.472278 0.250000
O O12 0.901721 0.185786 0.250000
#
# Coordination Sequence:
#
# PCOD9438223 Si02
#       6
#     8   8   8   8   4   4
#     4  12  25  44  65  89 130 177 214 263 326 383
#     4  11  23  41  67  98 127 165 215 266 319 384
#     4  11  24  42  64  94 127 169 218 264 320 384
#     4  12  24  40  63  94 128 167 213 267 321 378
#     4  10  22  40  66  96 130 166 212 266 320 386
#     4  10  20  40  64  92 128 164 198 254 326 376
#
# _framework density 22.909779
#
# number of rings (size 3 to 8) (size 9 to 14) (size 15 to 20)
#    0.000    0.800    0.000    9.600    0.000    2.400 
#    0.000    4.000    0.000    0.000    0.000    0.000 
#    0.000    0.000    0.000    0.000    0.000    0.000 
#
# Total GULP energy -223621.548226 kJ/mol
# GULP energy per Si atom -5590.538706 kJ/mol
# Density = 2.285764 g / cm^3
# Si number density = 22.909779 Si / 1000 Ang^3
#
#
#
# Elastic Constant Matrix: (Units=GPa)
#
#
# Indices 1 2 3 4 5 6 
#
# 1 71.1665 3.7306 33.2475 0.0000 0.0000 0.0000
# 2 3.7306 63.4044 9.7641 0.0000 0.0000 0.0000
# 3 33.2475 9.7641 109.4209 0.0000 0.0000 0.0000
# 4 0.0000 0.0000 0.0000 22.9040 0.0000 0.0000
# 5 0.0000 0.0000 0.0000 0.0000 22.2382 0.0000
# 6 0.0000 0.0000 0.0000 0.0000 0.0000 47.6158
#
#
#
# Elastic Compliance Matrix: (Units=1/GPa)
#
#
# Indices 1 2 3 4 5 6 
#
# 1 0.016379 -0.000200 -0.004959 0.000000 0.000000 0.000000
# 2 -0.000200 0.015994 -0.001366 0.000000 0.000000 0.000000
# 3 -0.004959 -0.001366 0.010768 0.000000 0.000000 0.000000
# 4 0.000000 0.000000 0.000000 0.043660 0.000000 0.000000
# 5 0.000000 0.000000 0.000000 0.000000 0.044968 0.000000
# 6 0.000000 0.000000 0.000000 0.000000 0.000000 0.021001
#
#
# Mechanical properties :
#
#
# Convention : Reuss Voigt Hill
#
# Bulk Modulus (GPa) = 33.23386 37.49733 35.36559
# Shear Modulus (GPa) = 28.43325 31.70157 30.06741
#
# Velocity S-wave (km/s) = 3.52674 3.72392 3.62667
# Velocity P-wave (km/s) = 5.57869 5.90704 5.74521
#
# Compressibility (1/GPa) = 0.03008980
#
# Stress axis : x y z
#
# Youngs Moduli (GPa) = 61.05490 62.52358 92.87045
#
# Poissons Ratio (x) = 0.01251 0.46053
# Poissons Ratio (y) = 0.01221 0.12690
# Poissons Ratio (z) = 0.30276 0.08543
#
# Static dielectric constant tensor:
#      x y z
#    x 1.832250 0.000000 0.000000 
#    y 0.000000 1.860120 0.000000 
#    z 0.000000 0.000000 1.855330 
# 
# From -- ./inp_files/26537.got.cif
#   From: 2010.05.17/outbox.cif.g08.bks.cpg/sg57_14_cif.got.tgz:26537.got - 2010.06.03 13:58:18.
