data_PCOD9438478
_publ_section_title
;
Structure prediction by ZEFSAII (Michael W. Deem and Ramdas Pophale) SiO2 
 PCOD9438478
Probable space group: P B C M
;
_chemical_formula_sum "Si O2"
_cell_formula_units_Z 48
_cell_length_a 8.474572
_cell_length_b 13.907438
_cell_length_c 18.828425
_cell_angle_alpha 90.000000
_cell_angle_beta 90.000000
_cell_angle_gamma 90.000000
_cell_volume 2219.110350
_symmetry_space_group_name_H-M "P B C M"
_symmetry_group_IT_number 57
_symmetry_cell_setting 'orthorhombic'
loop_
_space_group_symop_operation_xyz
x,y,z
-x,-y,1/2+z
x,1/2-y,-z
-x,1/2+y,1/2-z
-x,-y,-z
x,y,1/2-z
-x,1/2+y,z
x,1/2-y,1/2+z
loop_
_atom_site_type_symbol
_atom_site_label
_atom_site_fract_x
_atom_site_fract_y
_atom_site_fract_z
Si Si1 0.453046 0.750000 0.500000
Si Si2 0.305036 0.431555 0.620771
Si Si3 0.267836 0.289267 0.394034
Si Si4 0.837892 0.542553 0.526503
Si Si5 0.212756 0.399331 0.250000
Si Si6 0.108763 0.999144 0.250000
Si Si7 0.811754 0.380127 0.750000
Si Si8 0.333103 0.610370 0.112919
O O1 0.569199 0.706492 0.560557
O O2 0.351574 0.673301 0.457678
O O3 0.235918 0.322708 0.619277
O O4 0.279841 0.465487 0.540155
O O5 0.215141 0.493759 0.679612
O O6 0.490735 0.420988 0.634613
O O7 0.150273 0.348991 0.444533
O O8 0.270516 0.342389 0.318888
O O9 0.773255 0.479800 0.591431
O O10 0.000000 0.500000 0.500000
O O11 0.264851 0.511247 0.250000
O O12 0.020518 0.413447 0.250000
O O13 0.995891 0.094447 0.250000
O O14 0.749764 0.334539 0.677775
#
# Coordination Sequence:
#
# PCOD9438478 Si02
#       8
#     4   8   8   8   4   4   4   8
#     4  10  24  40  64 100 138 168 230 274 340 400
#     4  11  22  38  67  91 127 172 224 270 325 399
#     4  11  20  41  62  95 125 175 216 269 330 396
#     4  12  22  39  63  96 130 171 216 268 333 396
#     4  10  21  36  65  86 131 171 217 269 335 397
#     4  10  22  44  60  98 129 170 226 273 328 401
#     4  10  21  38  65  92 128 167 215 268 335 386
#     4  11  22  42  66  98 130 174 219 277 331 398
#
# _framework density 21.630289000000001
#
# number of rings (size 3 to 8) (size 9 to 14) (size 15 to 20)
#    0.500    0.667    5.000    3.500    0.000    2.000 
#    6.000    0.000    0.000    0.000    0.000    0.000 
#    0.000    0.000    0.000    0.000    0.000    0.000 
#
# Total GULP energy -267996.877066 kJ/mol
# GULP energy per Si atom -5583.268272 kJ/mol
# Density = 2.158106 g / cm^3
# Si number density = 21.630289 Si / 1000 Ang^3
#
#
#
# Elastic Constant Matrix: (Units=GPa)
#
#
# Indices 1 2 3 4 5 6 
#
# 1 58.5267 2.4149 10.8460 0.0000 0.0000 0.0000
# 2 2.4149 57.1975 12.9457 0.0000 0.0000 0.0000
# 3 10.8460 12.9457 136.2344 0.0000 0.0000 0.0000
# 4 0.0000 0.0000 0.0000 28.0930 0.0000 0.0000
# 5 0.0000 0.0000 0.0000 0.0000 21.3864 0.0000
# 6 0.0000 0.0000 0.0000 0.0000 0.0000 9.6770
#
#
#
# Elastic Compliance Matrix: (Units=1/GPa)
#
#
# Indices 1 2 3 4 5 6 
#
# 1 0.017352 -0.000429 -0.001341 0.000000 0.000000 0.000000
# 2 -0.000429 0.017878 -0.001665 0.000000 0.000000 0.000000
# 3 -0.001341 -0.001665 0.007605 0.000000 0.000000 0.000000
# 4 0.000000 0.000000 0.000000 0.035596 0.000000 0.000000
# 5 0.000000 0.000000 0.000000 0.000000 0.046759 0.000000
# 6 0.000000 0.000000 0.000000 0.000000 0.000000 0.103338
#
#
# Mechanical properties :
#
#
# Convention : Reuss Voigt Hill
#
# Bulk Modulus (GPa) = 27.80356 33.81910 30.81133
# Shear Modulus (GPa) = 20.21125 26.88139 23.54632
#
# Velocity S-wave (km/s) = 3.06011 3.52911 3.30294
# Velocity P-wave (km/s) = 5.03662 5.68113 5.36855
#
# Compressibility (1/GPa) = 0.03596661
#
# Stress axis : x y z
#
# Youngs Moduli (GPa) = 57.62903 55.93405 131.48870
#
# Poissons Ratio (x) = 0.02401 0.17629
# Poissons Ratio (y) = 0.02473 0.21889
# Poissons Ratio (z) = 0.07726 0.09311
#
# Static dielectric constant tensor:
#      x y z
#    x 1.773720 0.000000 0.000000 
#    y 0.000000 1.863800 0.000000 
#    z 0.000000 0.000000 1.817260 
# 
# From -- ./inp_files/21017.got.cif
#   From: 2010.05.17/outbox.cif.g08.bks.cpg/sg57_11_cif.got.tgz:21017.got - 2010.06.03 13:58:18.
