data_PCOD9438570
_publ_section_title
;
Structure prediction by ZEFSAII (Michael W. Deem and Ramdas Pophale) SiO2 
 PCOD9438570
Probable space group: P B C M
;
_chemical_formula_sum "Si O2"
_cell_formula_units_Z 64
_cell_length_a 26.390632
_cell_length_b 15.025063
_cell_length_c 8.737309
_cell_angle_alpha 90.000000
_cell_angle_beta 90.000000
_cell_angle_gamma 90.000000
_cell_volume 3464.525702
_symmetry_space_group_name_H-M "P B C M"
_symmetry_group_IT_number 57
_symmetry_cell_setting 'orthorhombic'
loop_
_space_group_symop_operation_xyz
x,y,z
-x,-y,1/2+z
x,1/2-y,-z
-x,1/2+y,1/2-z
-x,-y,-z
x,y,1/2-z
-x,1/2+y,z
x,1/2-y,1/2+z
loop_
_atom_site_type_symbol
_atom_site_label
_atom_site_fract_x
_atom_site_fract_y
_atom_site_fract_z
Si Si1 0.635683 0.649517 0.433932
Si Si2 0.112320 0.343987 0.067329
Si Si3 0.711498 0.995362 0.433614
Si Si4 0.892583 0.158362 0.068034
Si Si5 0.997854 0.098757 0.567390
Si Si6 0.823803 0.003476 0.932033
Si Si7 0.368035 0.850298 0.566215
Si Si8 0.556191 0.495081 0.433675
O O1 0.633080 0.750000 0.500000
O O2 0.639297 0.655172 0.250000
O O3 0.682396 0.590638 0.498283
O O4 0.587553 0.585563 0.472574
O O5 0.119479 0.350321 0.250000
O O6 0.052494 0.358485 0.036422
O O7 0.127392 0.250000 0.000000
O O8 0.145677 0.416513 0.982561
O O9 0.712608 0.987300 0.250000
O O10 0.767602 0.001728 0.499917
O O11 0.680071 0.085734 0.471481
O O12 0.892399 0.157893 0.250000
O O13 0.873133 0.250000 0.000000
O O14 0.857048 0.081921 0.003536
O O15 0.950021 0.145166 0.009941
O O16 0.990116 0.096650 0.750000
O O17 0.000000 0.000000 0.500000
O O18 0.821876 0.011522 0.750000
O O19 0.365284 0.750000 0.500000
O O20 0.371960 0.844572 0.750000
O O21 0.414587 0.909122 0.501144
O O22 0.500000 0.500000 0.500000
O O23 0.555302 0.487916 0.250000
#
# Coordination Sequence:
#
# PCOD9438570 Si02
#       8
#     8   8   8   8   8   8   8   8
#     4  10  21  38  61  89 119 157 203 249 299 354
#     4  11  24  41  62  89 120 155 195 241 293 353
#     4  10  22  41  63  87 118 154 196 247 300 355
#     4  12  25  42  63  89 121 156 198 244 294 356
#     4  11  22  38  63  90 120 157 195 238 291 353
#     4  12  25  42  64  89 120 155 196 246 301 358
#     4  10  21  38  62  89 119 158 201 247 298 354
#     4  10  21  37  58  87 126 165 205 251 297 351
#
# _framework density 18.472946
#
# number of rings (size 3 to 8) (size 9 to 14) (size 15 to 20)
#    0.000    1.250    1.250    4.875    0.000    7.000 
#    0.000    5.000    0.000    0.000    0.000    0.000 
#    0.000    0.000    0.000    0.000    0.000    0.000 
#
# Total GULP energy -357680.696096 kJ/mol
# GULP energy per Si atom -5588.760876 kJ/mol
# Density = 1.843090 g / cm^3
# Si number density = 18.472946 Si / 1000 Ang^3
#
#
#
# Elastic Constant Matrix: (Units=GPa)
#
#
# Indices 1 2 3 4 5 6 
#
# 1 146.7523 75.8739 77.8816 0.0000 0.0000 0.0000
# 2 75.8739 190.9224 76.3364 0.0000 0.0000 0.0000
# 3 77.8816 76.3364 109.3976 0.0000 0.0000 0.0000
# 4 0.0000 0.0000 0.0000 34.6934 0.0000 0.0000
# 5 0.0000 0.0000 0.0000 0.0000 39.3851 0.0000
# 6 0.0000 0.0000 0.0000 0.0000 0.0000 25.9093
#
#
#
# Elastic Compliance Matrix: (Units=1/GPa)
#
#
# Indices 1 2 3 4 5 6 
#
# 1 0.011371 -0.001778 -0.006854 0.000000 0.000000 0.000000
# 2 -0.001778 0.007543 -0.003997 0.000000 0.000000 0.000000
# 3 -0.006854 -0.003997 0.016810 0.000000 0.000000 0.000000
# 4 0.000000 0.000000 0.000000 0.028824 0.000000 0.000000
# 5 0.000000 0.000000 0.000000 0.000000 0.025390 0.000000
# 6 0.000000 0.000000 0.000000 0.000000 0.000000 0.038596
#
#
# Mechanical properties :
#
#
# Convention : Reuss Voigt Hill
#
# Bulk Modulus (GPa) = 95.56637 100.80621 98.18629
# Shear Modulus (GPa) = 31.78999 34.46291 33.12645
#
# Velocity S-wave (km/s) = 4.15287 4.32393 4.23926
# Velocity P-wave (km/s) = 8.65104 8.92281 8.78798
#
# Compressibility (1/GPa) = 0.01046393
#
# Stress axis : x y z
#
# Youngs Moduli (GPa) = 87.94026 132.57948 59.48891
#
# Poissons Ratio (x) = 0.23579 0.40776
# Poissons Ratio (y) = 0.15640 0.23778
# Poissons Ratio (z) = 0.60278 0.52993
#
# Static dielectric constant tensor:
#      x y z
#    x 1.621010 0.000000 0.000000 
#    y 0.000000 1.602800 0.000000 
#    z 0.000000 0.000000 1.614610 
# 
# From -- ./inp_files/9422.got.cif
#   From: 2010.05.17/outbox.cif.g08.bks.cpg/sg57_5_cif.got.tgz:9422.got - 2010.06.03 13:58:18.
