data_PCOD9438235
_publ_section_title
;
Structure prediction by ZEFSAII (Michael W. Deem and Ramdas Pophale) SiO2 
 PCOD9438235
Probable space group: P B C M
;
_chemical_formula_sum "Si O2"
_cell_formula_units_Z 56
_cell_length_a 18.941070
_cell_length_b 8.667935
_cell_length_c 15.974746
_cell_angle_alpha 90.000000
_cell_angle_beta 90.000000
_cell_angle_gamma 90.000000
_cell_volume 2622.733217
_symmetry_space_group_name_H-M "P B C M"
_symmetry_group_IT_number 57
_symmetry_cell_setting 'orthorhombic'
loop_
_space_group_symop_operation_xyz
x,y,z
-x,-y,1/2+z
x,1/2-y,-z
-x,1/2+y,1/2-z
-x,-y,-z
x,y,1/2-z
-x,1/2+y,z
x,1/2-y,1/2+z
loop_
_atom_site_type_symbol
_atom_site_label
_atom_site_fract_x
_atom_site_fract_y
_atom_site_fract_z
Si Si1 0.980099 0.036001 0.403261
Si Si2 0.535755 0.127282 0.059631
Si Si3 0.231180 0.591508 0.534284
Si Si4 0.153146 0.350534 0.419220
Si Si5 0.722571 0.655889 0.153842
Si Si6 0.419428 0.159591 0.848000
Si Si7 0.902061 0.158339 0.846568
O O1 0.949456 0.205245 0.386668
O O2 0.915836 0.922427 0.378274
O O3 0.000000 0.000000 0.500000
O O4 0.049930 0.994587 0.352296
O O5 0.475878 0.228897 0.106143
O O6 0.578248 0.017423 0.121782
O O7 0.574444 0.250000 0.000000
O O8 0.500000 0.000000 0.000000
O O9 0.260974 0.750000 0.500000
O O10 0.198917 0.490019 0.458879
O O11 0.281796 0.483540 0.588488
O O12 0.166265 0.634318 0.596252
O O13 0.130788 0.250000 0.500000
O O14 0.204293 0.245215 0.364075
O O15 0.720220 0.603523 0.250000
O O16 0.657859 0.770375 0.138029
O O17 0.435620 0.164756 0.750000
O O18 0.885044 0.193078 0.750000
#
# Coordination Sequence:
#
# PCOD9438235 Si02
#       7
#     8   8   8   8   8   8   8
#     4  12  22  41  62  85 119 160 209 257 324 390
#     4   9  19  35  64  98 135 172 220 266 306 365
#     4  11  21  43  63  87 117 164 212 259 321 386
#     4  10  21  38  63  86 116 166 208 250 311 389
#     4  10  24  42  65  94 131 167 209 265 322 386
#     4  10  20  40  65  98 138 179 215 263 330 386
#     4  12  25  38  59  90 119 152 203 267 327 381
#
# _framework density 21.351769000000001
#
# number of rings (size 3 to 8) (size 9 to 14) (size 15 to 20)
#    0.000    1.429    2.857    2.571    2.000    6.286 
#    0.000    5.714    0.000    6.857    0.000    0.000 
#    0.000    0.000    0.000    0.000    0.000    0.000 
#
# Total GULP energy -313084.492704 kJ/mol
# GULP energy per Si atom -5590.794513 kJ/mol
# Density = 2.130317 g / cm^3
# Si number density = 21.351769 Si / 1000 Ang^3
#
#
#
# Elastic Constant Matrix: (Units=GPa)
#
#
# Indices 1 2 3 4 5 6 
#
# 1 58.3901 20.7278 33.0346 0.0000 0.0000 0.0000
# 2 20.7278 118.3642 36.9266 0.0000 0.0000 0.0000
# 3 33.0346 36.9266 78.1328 0.0000 0.0000 0.0000
# 4 0.0000 0.0000 0.0000 30.1822 0.0000 0.0000
# 5 0.0000 0.0000 0.0000 0.0000 1.1299 0.0000
# 6 0.0000 0.0000 0.0000 0.0000 0.0000 23.3582
#
#
#
# Elastic Compliance Matrix: (Units=1/GPa)
#
#
# Indices 1 2 3 4 5 6 
#
# 1 0.022643 -0.001148 -0.009031 0.000000 0.000000 0.000000
# 2 -0.001148 0.009968 -0.004226 0.000000 0.000000 0.000000
# 3 -0.009031 -0.004226 0.018614 0.000000 0.000000 0.000000
# 4 0.000000 0.000000 0.000000 0.033132 0.000000 0.000000
# 5 0.000000 0.000000 0.000000 0.000000 0.885008 0.000000
# 6 0.000000 0.000000 0.000000 0.000000 0.000000 0.042812
#
#
# Mechanical properties :
#
#
# Convention : Reuss Voigt Hill
#
# Bulk Modulus (GPa) = 44.61084 48.47391 46.54238
# Shear Modulus (GPa) = 4.76891 21.88059 13.32475
#
# Velocity S-wave (km/s) = 1.49611 3.20467 2.50083
# Velocity P-wave (km/s) = 4.89112 6.03697 5.49400
#
# Compressibility (1/GPa) = 0.02241607
#
# Stress axis : x y z
#
# Youngs Moduli (GPa) = 44.16372 100.32317 53.72261
#
# Poissons Ratio (x) = 0.11515 0.48517
# Poissons Ratio (y) = 0.05069 0.22701
# Poissons Ratio (z) = 0.39884 0.42393
#
# Static dielectric constant tensor:
#      x y z
#    x 1.775980 0.000000 0.000000 
#    y 0.000000 1.804510 0.000000 
#    z 0.000000 0.000000 1.786670 
# 
# From -- ./inp_files/19323.got.cif
#   From: 2010.05.17/outbox.cif.g08.bks.cpg/sg57_10_cif.got.tgz:19323.got - 2010.06.03 13:58:18.
