data_PCOD9438908
_publ_section_title
;
Structure prediction by ZEFSAII (Michael W. Deem and Ramdas Pophale) SiO2 
 PCOD9438908
Probable space group: P B C M
;
_chemical_formula_sum "Si O2"
_cell_formula_units_Z 64
_cell_length_a 24.180772
_cell_length_b 15.363873
_cell_length_c 8.543667
_cell_angle_alpha 90.000000
_cell_angle_beta 90.000000
_cell_angle_gamma 90.000000
_cell_volume 3174.060376
_symmetry_space_group_name_H-M "P B C M"
_symmetry_group_IT_number 57
_symmetry_cell_setting 'orthorhombic'
loop_
_space_group_symop_operation_xyz
x,y,z
-x,-y,1/2+z
x,1/2-y,-z
-x,1/2+y,1/2-z
-x,-y,-z
x,y,1/2-z
-x,1/2+y,z
x,1/2-y,1/2+z
loop_
_atom_site_type_symbol
_atom_site_label
_atom_site_fract_x
_atom_site_fract_y
_atom_site_fract_z
Si Si1 0.499530 0.342947 0.061646
Si Si2 0.078960 0.523325 0.936628
Si Si3 0.622735 0.879556 0.068373
Si Si4 0.394461 0.583555 0.070430
Si Si5 0.200202 0.517601 0.063181
Si Si6 0.714061 0.344121 0.065984
Si Si7 0.985196 0.849975 0.562601
Si Si8 0.743365 0.839414 0.439103
O O1 0.499115 0.347626 0.250000
O O2 0.436742 0.353935 0.000153
O O3 0.519792 0.250000 0.000000
O O4 0.543760 0.410493 0.995492
O O5 0.071334 0.527699 0.750000
O O6 0.059717 0.425011 0.987130
O O7 0.142248 0.537396 0.982428
O O8 0.041318 0.599454 0.011634
O O9 0.621567 0.850162 0.250000
O O10 0.680186 0.847017 0.997976
O O11 0.624513 0.983713 0.068200
O O12 0.393736 0.614323 0.250000
O O13 0.350152 0.636800 0.971381
O O14 0.192654 0.517320 0.250000
O O15 0.222060 0.423010 0.012117
O O16 0.247862 0.585352 0.019119
O O17 0.723436 0.348718 0.250000
O O18 0.728291 0.250000 0.000000
O O19 0.980141 0.750000 0.500000
O O20 0.983264 0.843530 0.750000
O O21 0.767997 0.750000 0.500000
O O22 0.740922 0.839997 0.250000
#
# Coordination Sequence:
#
# PCOD9438908 Si02
#       8
#     8   8   8   8   8   8   8   8
#     4  11  22  36  54  81 112 146 191 242 300 366
#     4  10  22  40  63  94 131 168 213 261 306 359
#     4   9  19  37  59  81 112 149 192 244 302 364
#     4  11  21  39  61  82 113 150 192 245 307 369
#     4  11  23  42  65  90 127 167 208 256 308 360
#     4  12  25  42  64  90 119 156 204 254 309 372
#     4  10  21  39  65  96 132 173 214 257 308 360
#     4  10  21  39  61  87 119 159 202 250 305 363
#
# _framework density 20.163449
#
# number of rings (size 3 to 8) (size 9 to 14) (size 15 to 20)
#    0.000    1.500    1.250    4.125    0.000    3.500 
#    0.000    7.500    0.000    0.000    0.000    0.000 
#    0.000    0.000    0.000    0.000    0.000    0.000 
#
# Total GULP energy -357425.476323 kJ/mol
# GULP energy per Si atom -5584.773068 kJ/mol
# Density = 2.011756 g / cm^3
# Si number density = 20.163449 Si / 1000 Ang^3
#
#
#
# Elastic Constant Matrix: (Units=GPa)
#
#
# Indices 1 2 3 4 5 6 
#
# 1 55.0599 -5.3537 -6.1900 0.0000 0.0000 0.0000
# 2 -5.3537 83.2329 6.7200 0.0000 0.0000 0.0000
# 3 -6.1900 6.7200 31.3137 0.0000 0.0000 0.0000
# 4 0.0000 0.0000 0.0000 27.4278 0.0000 0.0000
# 5 0.0000 0.0000 0.0000 0.0000 12.2439 0.0000
# 6 0.0000 0.0000 0.0000 0.0000 0.0000 3.5315
#
#
#
# Elastic Compliance Matrix: (Units=1/GPa)
#
#
# Indices 1 2 3 4 5 6 
#
# 1 0.018643 0.000918 0.003488 0.000000 0.000000 0.000000
# 2 0.000918 0.012271 -0.002452 0.000000 0.000000 0.000000
# 3 0.003488 -0.002452 0.033151 0.000000 0.000000 0.000000
# 4 0.000000 0.000000 0.000000 0.036459 0.000000 0.000000
# 5 0.000000 0.000000 0.000000 0.000000 0.081673 0.000000
# 6 0.000000 0.000000 0.000000 0.000000 0.000000 0.283163
#
#
# Mechanical properties :
#
#
# Convention : Reuss Voigt Hill
#
# Bulk Modulus (GPa) = 14.71165 17.77325 16.24245
# Shear Modulus (GPa) = 10.32820 20.26932 15.29876
#
# Velocity S-wave (km/s) = 2.26569 3.17401 2.75751
# Velocity P-wave (km/s) = 3.76251 4.71870 4.26747
#
# Compressibility (1/GPa) = 0.06797333
#
# Stress axis : x y z
#
# Youngs Moduli (GPa) = 53.63816 81.48979 30.16529
#
# Poissons Ratio (x) = -0.07477 -0.10523
# Poissons Ratio (y) = -0.04921 0.07397
# Poissons Ratio (z) = -0.18711 0.19982
#
# Static dielectric constant tensor:
#      x y z
#    x 1.705930 0.000000 0.000000 
#    y 0.000000 1.728900 0.000000 
#    z 0.000000 0.000000 1.689100 
# 
# From -- ./inp_files/9368.got.cif
#   From: 2010.05.17/outbox.cif.g08.bks.cpg/sg57_5_cif.got.tgz:9368.got - 2010.06.03 13:58:18.
