data_PCOD9438358
_publ_section_title
;
Structure prediction by ZEFSAII (Michael W. Deem and Ramdas Pophale) SiO2 
 PCOD9438358
Probable space group: P B C M
;
_chemical_formula_sum "Si O2"
_cell_formula_units_Z 64
_cell_length_a 16.221732
_cell_length_b 11.714657
_cell_length_c 14.546286
_cell_angle_alpha 90.000000
_cell_angle_beta 90.000000
_cell_angle_gamma 90.000000
_cell_volume 2764.260204
_symmetry_space_group_name_H-M "P B C M"
_symmetry_group_IT_number 57
_symmetry_cell_setting 'orthorhombic'
loop_
_space_group_symop_operation_xyz
x,y,z
-x,-y,1/2+z
x,1/2-y,-z
-x,1/2+y,1/2-z
-x,-y,-z
x,y,1/2-z
-x,1/2+y,z
x,1/2-y,1/2+z
loop_
_atom_site_type_symbol
_atom_site_label
_atom_site_fract_x
_atom_site_fract_y
_atom_site_fract_z
Si Si1 0.760874 0.622438 0.363117
Si Si2 0.647834 0.815376 0.360076
Si Si3 0.054999 0.182497 0.137650
Si Si4 0.653137 0.325404 0.859898
Si Si5 0.217626 0.998543 0.637712
Si Si6 0.032794 0.442716 0.362526
Si Si7 0.336277 0.577442 0.644855
Si Si8 0.513488 0.987528 0.105641
O O1 0.761768 0.621778 0.250000
O O2 0.682659 0.696793 0.395036
O O3 0.848385 0.674911 0.389182
O O4 0.737716 0.496329 0.396761
O O5 0.651343 0.810104 0.250000
O O6 0.716832 0.905781 0.389938
O O7 0.558942 0.866578 0.379531
O O8 0.050421 0.183514 0.250000
O O9 0.018473 0.308224 0.108951
O O10 0.017358 0.058209 0.108939
O O11 0.659342 0.315679 0.750000
O O12 0.738700 0.381932 0.891749
O O13 0.644320 0.199005 0.899347
O O14 0.576935 0.412165 0.869665
O O15 0.214913 0.998928 0.750000
O O16 0.126257 0.028231 0.608402
O O17 0.027369 0.440727 0.250000
O O18 0.310403 0.595574 0.750000
O O19 0.423282 0.511469 0.648798
O O20 0.500000 0.000000 0.000000
#
# Coordination Sequence:
#
# PCOD9438358 Si02
#       8
#     8   8   8   8   8   8   8   8
#     4   9  17  30  49  71  96 135 183 221 254 310
#     4   9  16  31  54  72  94 135 186 220 250 312
#     4   9  16  25  39  66 103 140 176 212 261 319
#     4   9  19  35  53  74 101 134 180 222 257 315
#     4   8  13  25  45  65  89 129 173 208 245 298
#     4   9  15  23  38  64 100 137 169 206 256 314
#     4  10  21  35  52  73  98 134 177 219 264 317
#     4  11  23  36  52  76 104 133 168 223 277 329
#
# _framework density 23.152667999999998
#
# number of rings (size 3 to 8) (size 9 to 14) (size 15 to 20)
#    0.000    2.750    1.250    1.875    1.750    1.500 
#    0.000    5.000    0.000    0.000    0.000    0.000 
#    0.000    4.000    9.000    0.000    2.500    0.000 
#
# Total GULP energy -356740.743137 kJ/mol
# GULP energy per Si atom -5574.074112 kJ/mol
# Density = 2.309997 g / cm^3
# Si number density = 23.152668 Si / 1000 Ang^3
#
#
#
# Elastic Constant Matrix: (Units=GPa)
#
#
# Indices 1 2 3 4 5 6 
#
# 1 67.3168 60.6417 -5.4184 0.0000 0.0000 0.0000
# 2 60.6417 176.2482 12.2761 0.0000 0.0000 0.0000
# 3 -5.4184 12.2761 41.9354 0.0000 0.0000 0.0000
# 4 0.0000 0.0000 0.0000 5.2052 0.0000 0.0000
# 5 0.0000 0.0000 0.0000 0.0000 -27.0489 0.0000
# 6 0.0000 0.0000 0.0000 0.0000 0.0000 23.9129
#
#
#
# Elastic Compliance Matrix: (Units=1/GPa)
#
#
# Indices 1 2 3 4 5 6 
#
# 1 0.022630 -0.008156 0.005312 0.000000 0.000000 0.000000
# 2 -0.008156 0.008732 -0.003610 0.000000 0.000000 0.000000
# 3 0.005312 -0.003610 0.025589 0.000000 0.000000 0.000000
# 4 0.000000 0.000000 0.000000 0.192114 0.000000 0.000000
# 5 0.000000 0.000000 0.000000 0.000000 -0.036970 0.000000
# 6 0.000000 0.000000 0.000000 0.000000 0.000000 0.041818
#
#
# Mechanical properties :
#
#
# Convention : Reuss Voigt Hill
#
# Bulk Modulus (GPa) = 22.70561 46.72212 34.71386
# Shear Modulus (GPa) = 17.76179 14.94726 16.35453
#
# Velocity S-wave (km/s) = 2.77277 2.54361 2.66066
# Velocity P-wave (km/s) = 4.48098 5.37126 4.94619
#
# Compressibility (1/GPa) = 0.04404198
#
# Stress axis : x y z
#
# Youngs Moduli (GPa) = 44.18861 114.52635 39.07884
#
# Poissons Ratio (x) = 0.93412 -0.20758
# Poissons Ratio (y) = 0.36042 0.14107
# Poissons Ratio (z) = -0.23472 0.41344
#
# Static dielectric constant tensor:
#      x y z
#    x 1.879250 0.000000 0.000000 
#    y 0.000000 1.948030 0.000000 
#    z 0.000000 0.000000 1.894860 
# 
# From -- ./inp_files/22696.got.cif
#   From: 2010.05.17/outbox.cif.g08.bks.cpg/sg57_12_cif.got.tgz:22696.got - 2010.06.03 13:58:18.
