data_PCOD9438454
_publ_section_title
;
Structure prediction by ZEFSAII (Michael W. Deem and Ramdas Pophale) SiO2 
 PCOD9438454
Probable space group: P B C M
;
_chemical_formula_sum "Si O2"
_cell_formula_units_Z 60
_cell_length_a 11.853514
_cell_length_b 26.848103
_cell_length_c 9.706138
_cell_angle_alpha 90.000000
_cell_angle_beta 90.000000
_cell_angle_gamma 90.000000
_cell_volume 3088.923722
_symmetry_space_group_name_H-M "P B C M"
_symmetry_group_IT_number 57
_symmetry_cell_setting 'orthorhombic'
loop_
_space_group_symop_operation_xyz
x,y,z
-x,-y,1/2+z
x,1/2-y,-z
-x,1/2+y,1/2-z
-x,-y,-z
x,y,1/2-z
-x,1/2+y,z
x,1/2-y,1/2+z
loop_
_atom_site_type_symbol
_atom_site_label
_atom_site_fract_x
_atom_site_fract_y
_atom_site_fract_z
Si Si1 0.159843 0.200960 0.589913
Si Si2 0.568306 0.370313 0.594604
Si Si3 0.430466 0.201053 0.909705
Si Si4 0.224006 0.703909 0.092238
Si Si5 0.507176 0.482900 0.250000
Si Si6 0.997453 0.356725 0.911374
Si Si7 0.351951 0.981150 0.975549
Si Si8 0.910200 0.469270 0.587642
O O1 0.131533 0.250000 0.500000
O O2 0.125220 0.206060 0.750000
O O3 0.295225 0.195908 0.587007
O O4 0.099208 0.155345 0.513585
O O5 0.522708 0.362663 0.750000
O O6 0.487038 0.346666 0.480920
O O7 0.684632 0.339818 0.582798
O O8 0.597668 0.427920 0.576281
O O9 0.465830 0.206853 0.750000
O O10 0.460217 0.250000 0.000000
O O11 0.219861 0.720496 0.250000
O O12 0.102219 0.682163 0.055195
O O13 0.257094 0.750000 0.000000
O O14 0.603581 0.488464 0.371325
O O15 0.408736 0.480032 0.371305
O O16 0.029872 0.350380 0.750000
O O17 0.944228 0.411275 0.926201
O O18 0.217479 0.978563 0.962038
O O19 0.916151 0.481703 0.750000
O O20 0.000000 0.500000 0.500000
#
# Coordination Sequence:
#
# PCOD9438454 Si02
#       8
#     8   8   8   8   4   8   8   8
#     4  10  21  39  60  86 123 164 208 260 309 369
#     4  11  21  38  63  88 126 165 203 251 319 382
#     4  10  22  39  58  86 125 166 209 256 313 373
#     4  10  21  36  57  88 122 160 199 245 303 371
#     4  10  24  42  74  96 124 166 214 268 334 398
#     4  10  21  40  62  87 118 164 207 252 313 377
#     4  11  22  47  67  98 129 168 218 275 338 398
#     4  11  24  45  68  93 132 174 217 276 338 399
#
# _framework density 19.424242
#
# number of rings (size 3 to 8) (size 9 to 14) (size 15 to 20)
#    0.000    1.600    2.667    1.600    1.867    5.333 
#    4.800    0.000    0.000    0.000    0.000    0.000 
#    0.000    0.000    0.000    0.000    0.000    0.000 
#
# Total GULP energy -334121.134225 kJ/mol
# GULP energy per Si atom -5568.685570 kJ/mol
# Density = 1.938003 g / cm^3
# Si number density = 19.424242 Si / 1000 Ang^3
#
#
#
# Elastic Constant Matrix: (Units=GPa)
#
#
# Indices 1 2 3 4 5 6 
#
# 1 95.4830 23.7908 61.1677 0.0000 0.0000 0.0000
# 2 23.7908 17.7305 15.2864 0.0000 0.0000 0.0000
# 3 61.1677 15.2864 138.0205 0.0000 0.0000 0.0000
# 4 0.0000 0.0000 0.0000 25.8609 0.0000 0.0000
# 5 0.0000 0.0000 0.0000 0.0000 28.0039 0.0000
# 6 0.0000 0.0000 0.0000 0.0000 0.0000 22.0351
#
#
#
# Elastic Compliance Matrix: (Units=1/GPa)
#
#
# Indices 1 2 3 4 5 6 
#
# 1 0.019873 -0.021086 -0.006472 0.000000 0.000000 0.000000
# 2 -0.021086 0.084727 -0.000039 0.000000 0.000000 0.000000
# 3 -0.006472 -0.000039 0.010118 0.000000 0.000000 0.000000
# 4 0.000000 0.000000 0.000000 0.038668 0.000000 0.000000
# 5 0.000000 0.000000 0.000000 0.000000 0.035709 0.000000
# 6 0.000000 0.000000 0.000000 0.000000 0.000000 0.045382
#
#
# Mechanical properties :
#
#
# Convention : Reuss Voigt Hill
#
# Bulk Modulus (GPa) = 16.79995 50.19153 33.49574
# Shear Modulus (GPa) = 16.15446 25.24590 20.70018
#
# Velocity S-wave (km/s) = 2.88699 3.60906 3.26803
# Velocity P-wave (km/s) = 4.44755 6.57745 5.61442
#
# Compressibility (1/GPa) = 0.05952400
#
# Stress axis : x y z
#
# Youngs Moduli (GPa) = 50.31998 11.80265 98.83536
#
# Poissons Ratio (x) = 0.24887 0.63965
# Poissons Ratio (y) = 1.06103 0.00387
# Poissons Ratio (z) = 0.32566 0.00046
#
# Static dielectric constant tensor:
#      x y z
#    x 1.673990 0.000000 0.000000 
#    y 0.000000 1.746300 0.000000 
#    z 0.000000 0.000000 1.657440 
# 
# From -- ./inp_files/3470.got.cif
#   From: 2010.05.17/outbox.cif.g08.bks.cpg/sg57_2_cif.got.tgz:3470.got - 2010.06.03 13:58:18.
