data_PCOD9438286
_publ_section_title
;
Structure prediction by ZEFSAII (Michael W. Deem and Ramdas Pophale) SiO2 
 PCOD9438286
Probable space group: P B C M
;
_chemical_formula_sum "Si O2"
_cell_formula_units_Z 32
_cell_length_a 4.937940
_cell_length_b 13.919470
_cell_length_c 23.933599
_cell_angle_alpha 90.000000
_cell_angle_beta 90.000000
_cell_angle_gamma 90.000000
_cell_volume 1645.040211
_symmetry_space_group_name_H-M "P B C M"
_symmetry_group_IT_number 57
_symmetry_cell_setting 'orthorhombic'
loop_
_space_group_symop_operation_xyz
x,y,z
-x,-y,1/2+z
x,1/2-y,-z
-x,1/2+y,1/2-z
-x,-y,-z
x,y,1/2-z
-x,1/2+y,z
x,1/2-y,1/2+z
loop_
_atom_site_type_symbol
_atom_site_label
_atom_site_fract_x
_atom_site_fract_y
_atom_site_fract_z
Si Si1 0.191050 0.497728 0.315916
Si Si2 0.532737 0.748158 0.436503
Si Si3 0.043605 0.639549 0.602482
Si Si4 0.723259 0.948213 0.615728
O O1 0.215705 0.503686 0.250000
O O2 0.067500 0.395875 0.337310
O O3 0.472924 0.514165 0.347355
O O4 0.971892 0.571919 0.341897
O O5 0.433011 0.750000 0.500000
O O6 0.288469 0.785946 0.398146
O O7 0.631425 0.643289 0.418503
O O8 0.790320 0.818329 0.430532
O O9 0.165588 0.538443 0.579651
#
# Coordination Sequence:
#
# PCOD9438286 Si02
#       4
#     8   8   8   8
#     4  10  20  42  65  84 122 162 197 255 312 354
#     4  12  24  40  63  92 126 164 205 252 305 364
#     4  10  22  42  60  92 126 152 212 251 296 372
#     4  10  22  40  64  87 127 154 206 252 299 370
#
# _framework density 19.45241
#
# number of rings (size 3 to 8) (size 9 to 14) (size 15 to 20)
#    1.500    0.000    2.500    3.000    0.000    2.000 
#    0.000    7.500    0.000    0.000    0.000    0.000 
#    0.000    0.000    0.000    0.000    0.000    0.000 
#
# Total GULP energy -178249.623977 kJ/mol
# GULP energy per Si atom -5570.300749 kJ/mol
# Density = 1.940814 g / cm^3
# Si number density = 19.452410 Si / 1000 Ang^3
#
#
#
# Elastic Constant Matrix: (Units=GPa)
#
#
# Indices 1 2 3 4 5 6 
#
# 1 115.8811 15.2785 6.3746 0.0000 0.0000 0.0000
# 2 15.2785 78.8874 55.8745 0.0000 0.0000 0.0000
# 3 6.3746 55.8745 192.7917 0.0000 0.0000 0.0000
# 4 0.0000 0.0000 0.0000 20.4542 0.0000 0.0000
# 5 0.0000 0.0000 0.0000 0.0000 12.4313 0.0000
# 6 0.0000 0.0000 0.0000 0.0000 0.0000 31.9844
#
#
#
# Elastic Compliance Matrix: (Units=1/GPa)
#
#
# Indices 1 2 3 4 5 6 
#
# 1 0.008866 -0.001899 0.000257 0.000000 0.000000 0.000000
# 2 -0.001899 0.016357 -0.004678 0.000000 0.000000 0.000000
# 3 0.000257 -0.004678 0.006534 0.000000 0.000000 0.000000
# 4 0.000000 0.000000 0.000000 0.048890 0.000000 0.000000
# 5 0.000000 0.000000 0.000000 0.000000 0.080442 0.000000
# 6 0.000000 0.000000 0.000000 0.000000 0.000000 0.031265
#
#
# Mechanical properties :
#
#
# Convention : Reuss Voigt Hill
#
# Bulk Modulus (GPa) = 52.30782 60.29059 56.29921
# Shear Modulus (GPa) = 23.65560 33.64284 28.64922
#
# Velocity S-wave (km/s) = 3.49101 4.16323 3.84185
# Velocity P-wave (km/s) = 6.57252 7.36011 6.97744
#
# Compressibility (1/GPa) = 0.01911760
#
# Stress axis : x y z
#
# Youngs Moduli (GPa) = 112.79300 61.13440 153.04170
#
# Poissons Ratio (x) = 0.11611 -0.03938
# Poissons Ratio (y) = 0.21423 0.71591
# Poissons Ratio (z) = -0.02902 0.28598
#
# Static dielectric constant tensor:
#      x y z
#    x 1.705280 0.000000 0.000000 
#    y 0.000000 1.712800 0.000000 
#    z 0.000000 0.000000 1.649180 
# 
# From -- ./inp_files/19898.got.cif
#   From: 2010.05.17/outbox.cif.g08.bks.cpg/sg57_10_cif.got.tgz:19898.got - 2010.06.03 13:58:18.
