data_PCOD9438426
_publ_section_title
;
Structure prediction by ZEFSAII (Michael W. Deem and Ramdas Pophale) SiO2 
 PCOD9438426
Probable space group: P B C M
;
_chemical_formula_sum "Si O2"
_cell_formula_units_Z 40
_cell_length_a 12.908445
_cell_length_b 13.251382
_cell_length_c 12.138913
_cell_angle_alpha 90.000000
_cell_angle_beta 90.000000
_cell_angle_gamma 90.000000
_cell_volume 2076.418555
_symmetry_space_group_name_H-M "P B C M"
_symmetry_group_IT_number 57
_symmetry_cell_setting 'orthorhombic'
loop_
_space_group_symop_operation_xyz
x,y,z
-x,-y,1/2+z
x,1/2-y,-z
-x,1/2+y,1/2-z
-x,-y,-z
x,y,1/2-z
-x,1/2+y,z
x,1/2-y,1/2+z
loop_
_atom_site_type_symbol
_atom_site_label
_atom_site_fract_x
_atom_site_fract_y
_atom_site_fract_z
Si Si1 0.468258 0.802602 0.376035
Si Si2 0.289668 0.970202 0.126345
Si Si3 0.902446 0.368982 0.008198
Si Si4 0.309585 0.358643 0.446511
Si Si5 0.098826 0.055002 0.630039
O O1 0.459067 0.750000 0.500000
O O2 0.460168 0.752908 0.250000
O O3 0.378595 0.885880 0.377024
O O4 0.582960 0.849971 0.381742
O O5 0.280311 0.009946 0.250000
O O6 0.181969 0.918775 0.089483
O O7 0.318581 0.059140 0.043341
O O8 0.019004 0.392719 0.046975
O O9 0.885251 0.250000 0.000000
O O10 0.889197 0.436772 0.898956
O O11 0.288944 0.250000 0.500000
O O12 0.210385 0.393787 0.378346
O O13 0.053303 0.067594 0.750000
#
# Coordination Sequence:
#
# PCOD9438426 Si02
#       5
#     8   8   8   8   8
#     4  10  21  38  60  87 117 152 193 238 290 348
#     4  10  21  37  58  84 115 150 190 236 286 342
#     4  10  21  38  57  81 111 145 185 229 280 339
#     4  10  21  37  56  81 112 148 188 232 282 338
#     4  10  21  36  55  81 110 142 183 230 278 332
#
# _framework density 19.263936999999999
#
# number of rings (size 3 to 8) (size 9 to 14) (size 15 to 20)
#    0.000    2.000    0.000    3.000    0.000    5.600 
#    0.000    7.000    0.000    0.000    0.000    0.000 
#    0.000    0.000    0.000    0.000    0.000    0.000 
#
# Total GULP energy -222804.440017 kJ/mol
# GULP energy per Si atom -5570.111000 kJ/mol
# Density = 1.922009 g / cm^3
# Si number density = 19.263937 Si / 1000 Ang^3
#
#
#
# Elastic Constant Matrix: (Units=GPa)
#
#
# Indices 1 2 3 4 5 6 
#
# 1 69.6021 10.1938 7.4689 0.0000 0.0000 0.0000
# 2 10.1938 64.6664 20.7561 0.0000 0.0000 0.0000
# 3 7.4689 20.7561 109.3700 0.0000 0.0000 0.0000
# 4 0.0000 0.0000 0.0000 8.5860 0.0000 0.0000
# 5 0.0000 0.0000 0.0000 0.0000 -5.2336 0.0000
# 6 0.0000 0.0000 0.0000 0.0000 0.0000 25.0068
#
#
#
# Elastic Compliance Matrix: (Units=1/GPa)
#
#
# Indices 1 2 3 4 5 6 
#
# 1 0.014744 -0.002131 -0.000602 0.000000 0.000000 0.000000
# 2 -0.002131 0.016775 -0.003038 0.000000 0.000000 0.000000
# 3 -0.000602 -0.003038 0.009761 0.000000 0.000000 0.000000
# 4 0.000000 0.000000 0.000000 0.116468 0.000000 0.000000
# 5 0.000000 0.000000 0.000000 0.000000 -0.191072 0.000000
# 6 0.000000 0.000000 0.000000 0.000000 0.000000 0.039989
#
#
# Mechanical properties :
#
#
# Convention : Reuss Voigt Hill
#
# Bulk Modulus (GPa) = 33.62771 35.60846 34.61808
# Shear Modulus (GPa) = 177.80567 19.35316 98.57941
#
# Velocity S-wave (km/s) = 9.61770 3.17303 7.16129
# Velocity P-wave (km/s) = 11.86708 5.65233 9.29453
#
# Compressibility (1/GPa) = 0.02973738
#
# Stress axis : x y z
#
# Youngs Moduli (GPa) = 67.82370 59.61252 102.44886
#
# Poissons Ratio (x) = 0.12702 0.06172
# Poissons Ratio (y) = 0.14452 0.31124
# Poissons Ratio (z) = 0.04086 0.18110
#
# Static dielectric constant tensor:
#      x y z
#    x 1.648460 0.000000 0.000000 
#    y 0.000000 1.639680 0.000000 
#    z 0.000000 0.000000 1.714230 
# 
# From -- ./inp_files/12726.got.cif
#   From: 2010.05.17/outbox.cif.g08.bks.cpg/sg57_7_cif.got.tgz:12726.got - 2010.06.03 13:58:18.
