data_PCOD9438160
_publ_section_title
;
Structure prediction by ZEFSAII (Michael W. Deem and Ramdas Pophale) SiO2 
 PCOD9438160
Probable space group: P B C M
;
_chemical_formula_sum "Si O2"
_cell_formula_units_Z 48
_cell_length_a 9.346192
_cell_length_b 15.384734
_cell_length_c 15.909803
_cell_angle_alpha 90.000000
_cell_angle_beta 90.000000
_cell_angle_gamma 90.000000
_cell_volume 2287.649538
_symmetry_space_group_name_H-M "P B C M"
_symmetry_group_IT_number 57
_symmetry_cell_setting 'orthorhombic'
loop_
_space_group_symop_operation_xyz
x,y,z
-x,-y,1/2+z
x,1/2-y,-z
-x,1/2+y,1/2-z
-x,-y,-z
x,y,1/2-z
-x,1/2+y,z
x,1/2-y,1/2+z
loop_
_atom_site_type_symbol
_atom_site_label
_atom_site_fract_x
_atom_site_fract_y
_atom_site_fract_z
Si Si1 0.626022 0.603993 0.653054
Si Si2 0.837364 0.254152 0.152370
Si Si3 0.191220 0.943502 0.604575
Si Si4 0.124431 0.050543 0.151072
Si Si5 0.677914 0.408788 0.076534
Si Si6 0.162752 0.245689 0.148041
O O1 0.580192 0.621169 0.750000
O O2 0.727647 0.519983 0.652364
O O3 0.489280 0.587153 0.595396
O O4 0.719129 0.685648 0.620395
O O5 0.828459 0.280313 0.250000
O O6 0.805053 0.151955 0.145894
O O7 0.732110 0.312426 0.098433
O O8 0.000778 0.268748 0.121851
O O9 0.268800 0.934131 0.515477
O O10 0.022768 0.966255 0.601668
O O11 0.086196 0.055908 0.250000
O O12 0.185538 0.144980 0.125055
O O13 0.238413 0.975743 0.136677
O O14 0.162669 0.250025 0.250000
#
# Coordination Sequence:
#
# PCOD9438160 Si02
#       6
#     8   8   8   8   8   8
#     4  11  22  39  61  88 122 164 203 243 300 372
#     4  10  20  39  64  87 111 154 208 255 299 361
#     4  11  23  40  60  86 121 160 204 258 308 354
#     4  10  20  39  64  90 117 158 211 256 297 360
#     4  12  24  37  57  91 128 157 195 257 316 360
#     4   8  18  36  61  86 111 147 201 251 289 343
#
# _framework density 20.982233999999998
#
# number of rings (size 3 to 8) (size 9 to 14) (size 15 to 20)
#    0.000    1.667    0.000    6.500    0.000    2.667 
#    0.000    7.500    0.000    0.000    0.000    0.000 
#    0.000    0.000    0.000    0.000    0.000    0.000 
#
# Total GULP energy -268322.493946 kJ/mol
# GULP energy per Si atom -5590.051957 kJ/mol
# Density = 2.093448 g / cm^3
# Si number density = 20.982234 Si / 1000 Ang^3
#
#
#
# Elastic Constant Matrix: (Units=GPa)
#
#
# Indices 1 2 3 4 5 6 
#
# 1 136.8968 75.7791 23.9702 0.0000 0.0000 0.0000
# 2 75.7791 87.8243 4.1200 0.0000 0.0000 0.0000
# 3 23.9702 4.1200 62.0444 0.0000 0.0000 0.0000
# 4 0.0000 0.0000 0.0000 -2.4289 0.0000 0.0000
# 5 0.0000 0.0000 0.0000 0.0000 23.7622 0.0000
# 6 0.0000 0.0000 0.0000 0.0000 0.0000 -73.4776
#
#
#
# Elastic Compliance Matrix: (Units=1/GPa)
#
#
# Indices 1 2 3 4 5 6 
#
# 1 0.015439 -0.013082 -0.005096 0.000000 0.000000 0.000000
# 2 -0.013082 0.022507 0.003560 0.000000 0.000000 0.000000
# 3 -0.005096 0.003560 0.017850 0.000000 0.000000 0.000000
# 4 0.000000 0.000000 0.000000 -0.411703 0.000000 0.000000
# 5 0.000000 0.000000 0.000000 0.000000 0.042084 0.000000
# 6 0.000000 0.000000 0.000000 0.000000 0.000000 -0.013610
#
#
# Mechanical properties :
#
#
# Convention : Reuss Voigt Hill
#
# Bulk Modulus (GPa) = 37.65210 54.94487 46.29849
# Shear Modulus (GPa) = -17.28050 1.76423 -7.75813
#
# Velocity S-wave (km/s) = -2.87292 0.91796 -1.92497
# Velocity P-wave (km/s) = 2.64175 5.23132 4.14401
#
# Compressibility (1/GPa) = 0.02655894
#
# Stress axis : x y z
#
# Youngs Moduli (GPa) = 64.77248 44.43003 56.02290
#
# Poissons Ratio (x) = 0.58124 0.28548
# Poissons Ratio (y) = 0.84736 -0.19942
# Poissons Ratio (z) = 0.33007 -0.15815
#
# Static dielectric constant tensor:
#      x y z
#    x 1.710610 0.000000 0.000000 
#    y 0.000000 1.738470 0.000000 
#    z 0.000000 0.000000 1.777050 
# 
# From -- ./inp_files/20979.got.cif
#   From: 2010.05.17/outbox.cif.g08.bks.cpg/sg57_11_cif.got.tgz:20979.got - 2010.06.03 13:58:18.
