data_PCOD9438405
_publ_section_title
;
Structure prediction by ZEFSAII (Michael W. Deem and Ramdas Pophale) SiO2 
 PCOD9438405
Probable space group: P B C M
;
_chemical_formula_sum "Si O2"
_cell_formula_units_Z 56
_cell_length_a 13.586740
_cell_length_b 12.095855
_cell_length_c 14.205051
_cell_angle_alpha 90.000000
_cell_angle_beta 90.000000
_cell_angle_gamma 90.000000
_cell_volume 2334.504063
_symmetry_space_group_name_H-M "P B C M"
_symmetry_group_IT_number 57
_symmetry_cell_setting 'orthorhombic'
loop_
_space_group_symop_operation_xyz
x,y,z
-x,-y,1/2+z
x,1/2-y,-z
-x,1/2+y,1/2-z
-x,-y,-z
x,y,1/2-z
-x,1/2+y,z
x,1/2-y,1/2+z
loop_
_atom_site_type_symbol
_atom_site_label
_atom_site_fract_x
_atom_site_fract_y
_atom_site_fract_z
Si Si1 0.069236 0.853775 0.139237
Si Si2 0.305877 0.140539 0.531414
Si Si3 0.414110 0.905262 0.554015
Si Si4 0.570534 0.043223 0.853723
Si Si5 0.788337 0.943502 0.647483
Si Si6 0.137400 0.078144 0.639264
Si Si7 0.213419 0.838737 0.635854
O O1 0.057671 0.824285 0.250000
O O2 0.145550 0.762321 0.104257
O O3 0.960438 0.866459 0.097662
O O4 0.122532 0.971924 0.135359
O O5 0.362353 0.250000 0.500000
O O6 0.227909 0.125494 0.446123
O O7 0.236936 0.146083 0.622233
O O8 0.368286 0.030152 0.543618
O O9 0.439922 0.878689 0.445389
O O10 0.324109 0.836901 0.596104
O O11 0.506384 0.932656 0.621488
O O12 0.540099 0.084862 0.750000
O O13 0.685663 0.012422 0.848094
O O14 0.799900 0.887950 0.750000
O O15 0.119791 0.065464 0.750000
O O16 0.161871 0.953706 0.604626
O O17 0.221498 0.838877 0.750000
#
# Coordination Sequence:
#
# PCOD9438405 Si02
#       7
#     8   8   8   8   8   8   8
#     4   9  18  34  57  84 114 149 187 230 282 337
#     4  10  21  36  53  78 108 143 187 227 273 333
#     4   9  18  34  55  81 111 144 184 230 281 339
#     4   9  17  33  56  79 109 146 181 229 288 335
#     4   9  19  36  55  78 111 147 186 232 279 331
#     4   9  19  35  54  79 111 143 181 231 281 330
#     4   9  17  32  56  85 114 146 187 232 282 341
#
# _framework density 23.987964999999999
#
# number of rings (size 3 to 8) (size 9 to 14) (size 15 to 20)
#    0.000    2.857    0.000    0.429    0.000    2.857 
#    0.000   16.429    0.000    5.143    0.000    1.000 
#    0.000    0.000    0.000    0.000    0.000    0.000 
#
# Total GULP energy -312367.148287 kJ/mol
# GULP energy per Si atom -5577.984791 kJ/mol
# Density = 2.393337 g / cm^3
# Si number density = 23.987965 Si / 1000 Ang^3
#
#
#
# Elastic Constant Matrix: (Units=GPa)
#
#
# Indices 1 2 3 4 5 6 
#
# 1 97.1245 3.2628 15.8410 0.0000 0.0000 0.0000
# 2 3.2628 45.4200 -6.8641 0.0000 0.0000 0.0000
# 3 15.8410 -6.8641 97.4495 0.0000 0.0000 0.0000
# 4 0.0000 0.0000 0.0000 19.5889 0.0000 0.0000
# 5 0.0000 0.0000 0.0000 0.0000 29.3565 0.0000
# 6 0.0000 0.0000 0.0000 0.0000 0.0000 28.5178
#
#
#
# Elastic Compliance Matrix: (Units=1/GPa)
#
#
# Indices 1 2 3 4 5 6 
#
# 1 0.010624 -0.001035 -0.001800 0.000000 0.000000 0.000000
# 2 -0.001035 0.022354 0.001743 0.000000 0.000000 0.000000
# 3 -0.001800 0.001743 0.010677 0.000000 0.000000 0.000000
# 4 0.000000 0.000000 0.000000 0.051049 0.000000 0.000000
# 5 0.000000 0.000000 0.000000 0.000000 0.034064 0.000000
# 6 0.000000 0.000000 0.000000 0.000000 0.000000 0.035066
#
#
# Mechanical properties :
#
#
# Convention : Reuss Voigt Hill
#
# Bulk Modulus (GPa) = 24.11306 29.38593 26.74949
# Shear Modulus (GPa) = 27.80195 30.67626 29.23911
#
# Velocity S-wave (km/s) = 3.40810 3.57994 3.49507
# Velocity P-wave (km/s) = 5.05577 5.41893 5.24050
#
# Compressibility (1/GPa) = 0.04147131
#
# Stress axis : x y z
#
# Youngs Moduli (GPa) = 94.12275 44.73373 93.65847
#
# Poissons Ratio (x) = 0.04631 0.16858
# Poissons Ratio (y) = 0.09744 -0.16323
# Poissons Ratio (z) = 0.16942 -0.07797
#
# Static dielectric constant tensor:
#      x y z
#    x 1.920280 0.000000 0.000000 
#    y 0.000000 1.993650 0.000000 
#    z 0.000000 0.000000 2.003500 
# 
# From -- ./inp_files/18473.got.cif
#   From: 2010.05.17/outbox.cif.g08.bks.cpg/sg57_10_cif.got.tgz:18473.got - 2010.06.03 13:58:18.
