data_PCOD9438656
_publ_section_title
;
Structure prediction by ZEFSAII (Michael W. Deem and Ramdas Pophale) SiO2 
 PCOD9438656
Probable space group: P B C M
;
_chemical_formula_sum "Si O2"
_cell_formula_units_Z 64
_cell_length_a 14.832781
_cell_length_b 12.448083
_cell_length_c 17.768393
_cell_angle_alpha 90.000000
_cell_angle_beta 90.000000
_cell_angle_gamma 90.000000
_cell_volume 3280.750558
_symmetry_space_group_name_H-M "P B C M"
_symmetry_group_IT_number 57
_symmetry_cell_setting 'orthorhombic'
loop_
_space_group_symop_operation_xyz
x,y,z
-x,-y,1/2+z
x,1/2-y,-z
-x,1/2+y,1/2-z
-x,-y,-z
x,y,1/2-z
-x,1/2+y,z
x,1/2-y,1/2+z
loop_
_atom_site_type_symbol
_atom_site_label
_atom_site_fract_x
_atom_site_fract_y
_atom_site_fract_z
Si Si1 0.251497 0.144495 0.659874
Si Si2 0.870631 0.587930 0.537251
Si Si3 0.170428 0.566915 0.833720
Si Si4 0.450240 0.509380 0.920045
Si Si5 0.268926 0.374092 0.905844
Si Si6 0.374267 0.943692 0.839392
Si Si7 0.645624 0.200313 0.839181
Si Si8 0.075918 0.630952 0.517062
O O1 0.247382 0.146550 0.750000
O O2 0.155366 0.128382 0.619520
O O3 0.287202 0.257665 0.628595
O O4 0.312564 0.043064 0.633860
O O5 0.793119 0.627395 0.480285
O O6 0.876850 0.458716 0.534276
O O7 0.968150 0.625399 0.508731
O O8 0.133248 0.574869 0.750000
O O9 0.211659 0.448934 0.848816
O O10 0.255520 0.647125 0.841438
O O11 0.100451 0.595668 0.898457
O O12 0.361596 0.435736 0.921583
O O13 0.523048 0.467264 0.860489
O O14 0.418065 0.626799 0.891578
O O15 0.500000 0.500000 0.000000
O O16 0.362921 0.941756 0.750000
O O17 0.350865 0.823538 0.865923
O O18 0.616910 0.196441 0.750000
O O19 0.108259 0.750000 0.500000
#
# Coordination Sequence:
#
# PCOD9438656 Si02
#       8
#     8   8   8   8   8   8   8   8
#     4  11  23  38  61  89 119 157 201 248 301 358
#     4  10  22  41  60  86 123 158 197 242 301 363
#     4   9  19  37  62  91 117 154 203 244 292 353
#     4  11  23  38  59  89 113 149 203 252 292 343
#     4  10  21  40  63  84 120 164 199 243 301 361
#     4  10  23  39  57  83 118 157 196 240 299 355
#     4   9  20  40  59  80 119 159 189 240 300 355
#     4  10  21  37  62  90 119 159 197 241 300 364
#
# _framework density 19.507731
#
# number of rings (size 3 to 8) (size 9 to 14) (size 15 to 20)
#    0.000    2.000    0.000    2.625    3.500    2.500 
#    0.000    0.000    0.000    0.750    0.000    0.000 
#    0.000    0.000    0.000    0.000    0.000    0.000 
#
# Total GULP energy -357241.939316 kJ/mol
# GULP energy per Si atom -5581.905302 kJ/mol
# Density = 1.946333 g / cm^3
# Si number density = 19.507731 Si / 1000 Ang^3
#
#
#
# Elastic Constant Matrix: (Units=GPa)
#
#
# Indices 1 2 3 4 5 6 
#
# 1 47.6039 25.2999 21.7583 0.0000 0.0000 0.0000
# 2 25.2999 169.1034 40.0311 0.0000 0.0000 0.0000
# 3 21.7583 40.0311 61.0116 0.0000 0.0000 0.0000
# 4 0.0000 0.0000 0.0000 23.8829 0.0000 0.0000
# 5 0.0000 0.0000 0.0000 0.0000 27.6418 0.0000
# 6 0.0000 0.0000 0.0000 0.0000 0.0000 14.2642
#
#
#
# Elastic Compliance Matrix: (Units=1/GPa)
#
#
# Indices 1 2 3 4 5 6 
#
# 1 0.025645 -0.001979 -0.007847 0.000000 0.000000 0.000000
# 2 -0.001979 0.007154 -0.003988 0.000000 0.000000 0.000000
# 3 -0.007847 -0.003988 0.021805 0.000000 0.000000 0.000000
# 4 0.000000 0.000000 0.000000 0.041871 0.000000 0.000000
# 5 0.000000 0.000000 0.000000 0.000000 0.036177 0.000000
# 6 0.000000 0.000000 0.000000 0.000000 0.000000 0.070105
#
#
# Mechanical properties :
#
#
# Convention : Reuss Voigt Hill
#
# Bulk Modulus (GPa) = 37.07022 50.21085 43.64053
# Shear Modulus (GPa) = 20.88745 25.86643 23.37694
#
# Velocity S-wave (km/s) = 3.27575 3.64532 3.46546
# Velocity P-wave (km/s) = 5.77507 6.59641 6.19936
#
# Compressibility (1/GPa) = 0.02697583
#
# Stress axis : x y z
#
# Youngs Moduli (GPa) = 38.99352 139.78815 45.86028
#
# Poissons Ratio (x) = 0.27667 0.35987
# Poissons Ratio (y) = 0.07718 0.18288
# Poissons Ratio (z) = 0.30599 0.55745
#
# Static dielectric constant tensor:
#      x y z
#    x 1.652450 0.000000 0.000000 
#    y 0.000000 1.713100 0.000000 
#    z 0.000000 0.000000 1.714720 
# 
# From -- ./inp_files/22695.got.cif
#   From: 2010.05.17/outbox.cif.g08.bks.cpg/sg57_12_cif.got.tgz:22695.got - 2010.06.03 13:58:18.
