data_PCOD9438432
_publ_section_title
;
Structure prediction by ZEFSAII (Michael W. Deem and Ramdas Pophale) SiO2 
 PCOD9438432
Probable space group: P B C M
;
_chemical_formula_sum "Si O2"
_cell_formula_units_Z 48
_cell_length_a 10.058895
_cell_length_b 30.963492
_cell_length_c 8.770137
_cell_angle_alpha 90.000000
_cell_angle_beta 90.000000
_cell_angle_gamma 90.000000
_cell_volume 2731.533845
_symmetry_space_group_name_H-M "P B C M"
_symmetry_group_IT_number 57
_symmetry_cell_setting 'orthorhombic'
loop_
_space_group_symop_operation_xyz
x,y,z
-x,-y,1/2+z
x,1/2-y,-z
-x,1/2+y,1/2-z
-x,-y,-z
x,y,1/2-z
-x,1/2+y,z
x,1/2-y,1/2+z
loop_
_atom_site_type_symbol
_atom_site_label
_atom_site_fract_x
_atom_site_fract_y
_atom_site_fract_z
Si Si1 0.403113 0.796379 0.068497
Si Si2 0.393843 0.033097 0.433378
Si Si3 0.093779 0.796952 0.433313
Si Si4 0.100681 0.035046 0.932722
Si Si5 0.905579 0.629424 0.433276
Si Si6 0.403523 0.367289 0.567983
O O1 0.409121 0.793532 0.250000
O O2 0.248881 0.804679 0.025494
O O3 0.441827 0.750000 0.000000
O O4 0.498809 0.833982 0.011339
O O5 0.384806 0.029498 0.250000
O O6 0.248890 0.025643 0.505400
O O7 0.432773 0.082687 0.470075
O O8 0.500000 0.000000 0.500000
O O9 0.057407 0.750000 0.500000
O O10 0.082313 0.796465 0.250000
O O11 0.002037 0.833956 0.503315
O O12 0.099051 0.034296 0.750000
O O13 0.064655 0.082865 0.993297
O O14 0.000000 0.000000 0.000000
O O15 0.915612 0.626057 0.250000
O O16 0.751566 0.640156 0.471017
O O17 0.416832 0.362405 0.750000
#
# Coordination Sequence:
#
# PCOD9438432 Si02
#       6
#     8   8   8   8   8   8
#     4  10  21  36  56  80 108 141 180 223 269 321
#     4  10  21  38  58  83 114 148 186 229 276 330
#     4  10  21  37  56  81 110 144 184 227 274 326
#     4  11  22  38  59  83 112 147 186 231 279 331
#     4  10  21  38  58  82 111 144 182 227 276 330
#     4   9  20  37  56  79 109 142 179 221 268 320
#
# _framework density 17.572544000000001
#
# number of rings (size 3 to 8) (size 9 to 14) (size 15 to 20)
#    0.000    2.000    0.000    4.500    0.000    8.000 
#    0.000    3.333    0.000    0.000    0.000    0.000 
#    0.000    0.000    0.000    0.000    0.000    0.000 
#
# Total GULP energy -268092.259509 kJ/mol
# GULP energy per Si atom -5585.255406 kJ/mol
# Density = 1.753255 g / cm^3
# Si number density = 17.572544 Si / 1000 Ang^3
#
#
#
# Elastic Constant Matrix: (Units=GPa)
#
#
# Indices 1 2 3 4 5 6 
#
# 1 114.3645 131.8918 68.6713 0.0000 0.0000 0.0000
# 2 131.8918 177.9769 84.8848 0.0000 0.0000 0.0000
# 3 68.6713 84.8848 96.3302 0.0000 0.0000 0.0000
# 4 0.0000 0.0000 0.0000 38.4819 0.0000 0.0000
# 5 0.0000 0.0000 0.0000 0.0000 34.1803 0.0000
# 6 0.0000 0.0000 0.0000 0.0000 0.0000 43.0458
#
#
#
# Elastic Compliance Matrix: (Units=1/GPa)
#
#
# Indices 1 2 3 4 5 6 
#
# 1 0.062387 -0.043160 -0.006442 0.000000 0.000000 0.000000
# 2 -0.043160 0.039551 -0.004084 0.000000 0.000000 0.000000
# 3 -0.006442 -0.004084 0.018572 0.000000 0.000000 0.000000
# 4 0.000000 0.000000 0.000000 0.025986 0.000000 0.000000
# 5 0.000000 0.000000 0.000000 0.000000 0.029257 0.000000
# 6 0.000000 0.000000 0.000000 0.000000 0.000000 0.023231
#
#
# Mechanical properties :
#
#
# Convention : Reuss Voigt Hill
#
# Bulk Modulus (GPa) = 76.11645 106.61859 91.36752
# Shear Modulus (GPa) = 16.09091 30.02318 23.05705
#
# Velocity S-wave (km/s) = 3.02931 4.13792 3.62623
# Velocity P-wave (km/s) = 7.45957 9.14521 8.34506
#
# Compressibility (1/GPa) = 0.01313777
#
# Stress axis : x y z
#
# Youngs Moduli (GPa) = 16.02902 25.28395 53.84487
#
# Poissons Ratio (x) = 1.09126 0.34686
# Poissons Ratio (y) = 0.69181 0.21990
# Poissons Ratio (z) = 0.10326 0.10326
#
# Static dielectric constant tensor:
#      x y z
#    x 1.580420 0.000000 0.000000 
#    y 0.000000 1.567680 0.000000 
#    z 0.000000 0.000000 1.585140 
# 
# From -- ./inp_files/2031.got.cif
#   From: 2010.05.17/outbox.cif.g08.bks.cpg/sg57_2_cif.got.tgz:2031.got - 2010.06.03 13:58:18.
