data_PCOD9438814
_publ_section_title
;
Structure prediction by ZEFSAII (Michael W. Deem and Ramdas Pophale) SiO2 
 PCOD9438814
Probable space group: P B C M
;
_chemical_formula_sum "Si O2"
_cell_formula_units_Z 64
_cell_length_a 14.460038
_cell_length_b 9.332389
_cell_length_c 25.271371
_cell_angle_alpha 90.000000
_cell_angle_beta 90.000000
_cell_angle_gamma 90.000000
_cell_volume 3410.288110
_symmetry_space_group_name_H-M "P B C M"
_symmetry_group_IT_number 57
_symmetry_cell_setting 'orthorhombic'
loop_
_space_group_symop_operation_xyz
x,y,z
-x,-y,1/2+z
x,1/2-y,-z
-x,1/2+y,1/2-z
-x,-y,-z
x,y,1/2-z
-x,1/2+y,z
x,1/2-y,1/2+z
loop_
_atom_site_type_symbol
_atom_site_label
_atom_site_fract_x
_atom_site_fract_y
_atom_site_fract_z
Si Si1 0.770251 0.082921 0.002343
Si Si2 0.583714 0.886792 0.644849
Si Si3 0.101062 0.564820 0.900656
Si Si4 0.411371 0.412520 0.980892
Si Si5 0.909939 0.404667 0.900415
Si Si6 0.585943 0.930577 0.186831
Si Si7 0.214503 0.404406 0.812093
Si Si8 0.796849 0.563113 0.687731
O O1 0.828265 0.049616 0.949478
O O2 0.680909 0.983717 0.004424
O O3 0.741394 0.250000 0.000000
O O4 0.838174 0.066250 0.052057
O O5 0.592847 0.916518 0.582727
O O6 0.574191 0.718260 0.656162
O O7 0.494120 0.963780 0.668618
O O8 0.678464 0.934370 0.673488
O O9 0.080475 0.733627 0.894497
O O10 0.149047 0.498945 0.848832
O O11 0.007683 0.478137 0.912034
O O12 0.418579 0.250000 0.000000
O O13 0.500000 0.500000 0.000000
O O14 0.866901 0.476079 0.848228
O O15 0.580278 0.903280 0.250000
O O16 0.690674 0.983089 0.176412
O O17 0.199200 0.429152 0.750000
O O18 0.198510 0.234425 0.822781
O O19 0.814392 0.541940 0.750000
#
# Coordination Sequence:
#
# PCOD9438814 Si02
#       8
#     8   8   8   8   8   8   8   8
#     4  10  24  44  65  92 126 162 209 258 306 370
#     4  11  22  39  62  89 126 163 210 254 307 369
#     4  11  23  43  61  97 119 160 205 260 313 369
#     4  12  26  41  63  95 130 171 207 254 309 368
#     4  11  24  39  69  87 126 159 205 257 311 376
#     4  10  21  38  62  90 123 162 208 256 305 364
#     4  10  21  40  64  89 125 162 206 259 312 371
#     4   9  21  40  61  91 124 161 205 255 308 367
#
# _framework density 18.766743000000002
#
# number of rings (size 3 to 8) (size 9 to 14) (size 15 to 20)
#    0.000    1.500    1.250    4.125    5.250    3.000 
#    0.000    1.250    0.000    0.000    0.000    0.000 
#    0.000    0.000    0.000    0.000    0.000    0.000 
#
# Total GULP energy -357804.379581 kJ/mol
# GULP energy per Si atom -5590.693431 kJ/mol
# Density = 1.872403 g / cm^3
# Si number density = 18.766743 Si / 1000 Ang^3
#
#
#
# Elastic Constant Matrix: (Units=GPa)
#
#
# Indices 1 2 3 4 5 6 
#
# 1 107.4248 82.7633 25.2237 0.0000 0.0000 0.0000
# 2 82.7633 98.1166 42.5340 0.0000 0.0000 0.0000
# 3 25.2237 42.5340 68.5263 0.0000 0.0000 0.0000
# 4 0.0000 0.0000 0.0000 14.6117 0.0000 0.0000
# 5 0.0000 0.0000 0.0000 0.0000 22.8203 0.0000
# 6 0.0000 0.0000 0.0000 0.0000 0.0000 41.7356
#
#
#
# Elastic Compliance Matrix: (Units=1/GPa)
#
#
# Indices 1 2 3 4 5 6 
#
# 1 0.028292 -0.026474 0.006018 0.000000 0.000000 0.000000
# 2 -0.026474 0.038716 -0.014286 0.000000 0.000000 0.000000
# 3 0.006018 -0.014286 0.021245 0.000000 0.000000 0.000000
# 4 0.000000 0.000000 0.000000 0.068439 0.000000 0.000000
# 5 0.000000 0.000000 0.000000 0.000000 0.043821 0.000000
# 6 0.000000 0.000000 0.000000 0.000000 0.000000 0.023960
#
#
# Mechanical properties :
#
#
# Convention : Reuss Voigt Hill
#
# Bulk Modulus (GPa) = 53.27758 63.90109 58.58933
# Shear Modulus (GPa) = 16.65484 24.06996 20.36240
#
# Velocity S-wave (km/s) = 2.98227 3.58521 3.29755
# Velocity P-wave (km/s) = 6.34898 7.15977 6.76653
#
# Compressibility (1/GPa) = 0.01876962
#
# Stress axis : x y z
#
# Youngs Moduli (GPa) = 35.34581 25.82895 47.06951
#
# Poissons Ratio (x) = 0.68379 -0.28327
# Poissons Ratio (y) = 0.93573 0.67245
# Poissons Ratio (z) = -0.21272 0.36900
#
# Static dielectric constant tensor:
#      x y z
#    x 1.625300 0.000000 0.000000 
#    y 0.000000 1.624910 0.000000 
#    z 0.000000 0.000000 1.630410 
# 
# From -- ./inp_files/27508.got.cif
#   From: 2010.05.17/outbox.cif.g08.bks.cpg/sg57_14_cif.got.tgz:27508.got - 2010.06.03 13:58:18.
