data_PCOD9438615
_publ_section_title
;
Structure prediction by ZEFSAII (Michael W. Deem and Ramdas Pophale) SiO2 
 PCOD9438615
Probable space group: P B C M
;
_chemical_formula_sum "Si O2"
_cell_formula_units_Z 60
_cell_length_a 29.004892
_cell_length_b 5.584245
_cell_length_c 16.793699
_cell_angle_alpha 90.000000
_cell_angle_beta 90.000000
_cell_angle_gamma 90.000000
_cell_volume 2720.082533
_symmetry_space_group_name_H-M "P B C M"
_symmetry_group_IT_number 57
_symmetry_cell_setting 'orthorhombic'
loop_
_space_group_symop_operation_xyz
x,y,z
-x,-y,1/2+z
x,1/2-y,-z
-x,1/2+y,1/2-z
-x,-y,-z
x,y,1/2-z
-x,1/2+y,z
x,1/2-y,1/2+z
loop_
_atom_site_type_symbol
_atom_site_label
_atom_site_fract_x
_atom_site_fract_y
_atom_site_fract_z
Si Si1 0.566267 0.269931 0.917477
Si Si2 0.475242 0.564923 0.250000
Si Si3 0.822953 0.233696 0.903526
Si Si4 0.277491 0.775042 0.656898
Si Si5 0.024039 0.191080 0.846282
Si Si6 0.629890 0.533808 0.336154
Si Si7 0.657799 0.570762 0.926743
Si Si8 0.128566 0.236250 0.595994
O O1 0.546993 0.390217 0.837808
O O2 0.586070 0.012236 0.891282
O O3 0.614182 0.402791 0.938544
O O4 0.538476 0.250000 0.000000
O O5 0.488430 0.285545 0.250000
O O6 0.772600 0.187465 0.866764
O O7 0.842779 0.496611 0.878633
O O8 0.852662 0.999377 0.878942
O O9 0.820388 0.250000 0.000000
O O10 0.277027 0.848048 0.750000
O O11 0.321623 0.598979 0.647136
O O12 0.292119 0.968070 0.590654
O O13 0.022718 0.190613 0.750000
O O14 0.076612 0.201732 0.874544
O O15 0.998872 0.438370 0.873044
O O16 0.615042 0.452475 0.250000
O O17 0.644116 0.804804 0.343865
O O18 0.659748 0.750000 0.000000
O O19 0.129278 0.250000 0.500000
#
# Coordination Sequence:
#
# PCOD9438615 Si02
#       8
#     8   4   8   8   8   8   8   8
#     4  11  24  44  70 103 136 177 229 276 337 405
#     4  12  32  52  78 108 144 188 226 280 348 404
#     4  10  23  39  60  83 125 171 214 263 313 387
#     4  10  24  39  56  92 128 171 223 275 326 385
#     4  10  21  37  60  89 118 148 196 262 327 388
#     4  10  21  39  63  95 132 170 217 280 331 389
#     4  11  23  36  68 100 130 174 225 277 337 392
#     4  10  22  40  59  87 117 163 212 255 324 391
#
# _framework density 22.058156
#
# number of rings (size 3 to 8) (size 9 to 14) (size 15 to 20)
#    0.000    1.600    2.000    1.200    7.467    2.667 
#    0.000    0.000    0.000    0.000    0.000    0.000 
#    0.000    0.000    0.000    0.000    0.000    0.000 
#
# Total GULP energy -334254.164526 kJ/mol
# GULP energy per Si atom -5570.902742 kJ/mol
# Density = 2.200795 g / cm^3
# Si number density = 22.058156 Si / 1000 Ang^3
#
#
#
# Elastic Constant Matrix: (Units=GPa)
#
#
# Indices 1 2 3 4 5 6 
#
# 1 50.7437 22.6930 36.9456 0.0000 0.0000 0.0000
# 2 22.6930 93.9394 23.6901 0.0000 0.0000 0.0000
# 3 36.9456 23.6901 65.2845 0.0000 0.0000 0.0000
# 4 0.0000 0.0000 0.0000 17.4864 0.0000 0.0000
# 5 0.0000 0.0000 0.0000 0.0000 29.3877 0.0000
# 6 0.0000 0.0000 0.0000 0.0000 0.0000 25.5022
#
#
#
# Elastic Compliance Matrix: (Units=1/GPa)
#
#
# Indices 1 2 3 4 5 6 
#
# 1 0.034692 -0.003775 -0.018263 0.000000 0.000000 0.000000
# 2 -0.003775 0.012128 -0.002265 0.000000 0.000000 0.000000
# 3 -0.018263 -0.002265 0.026475 0.000000 0.000000 0.000000
# 4 0.000000 0.000000 0.000000 0.057187 0.000000 0.000000
# 5 0.000000 0.000000 0.000000 0.000000 0.034028 0.000000
# 6 0.000000 0.000000 0.000000 0.000000 0.000000 0.039212
#
#
# Mechanical properties :
#
#
# Convention : Reuss Voigt Hill
#
# Bulk Modulus (GPa) = 40.50278 41.84725 41.17502
# Shear Modulus (GPa) = 19.18961 22.91784 21.05373
#
# Velocity S-wave (km/s) = 2.95270 3.22681 3.09279
# Velocity P-wave (km/s) = 5.47962 5.73547 5.60900
#
# Compressibility (1/GPa) = 0.02468966
#
# Stress axis : x y z
#
# Youngs Moduli (GPa) = 28.82507 82.45242 37.77189
#
# Poissons Ratio (x) = 0.31125 0.68983
# Poissons Ratio (y) = 0.10881 0.08554
# Poissons Ratio (z) = 0.52643 0.18673
#
# Static dielectric constant tensor:
#      x y z
#    x 1.755200 0.000000 0.000000 
#    y 0.000000 1.943900 0.000000 
#    z 0.000000 0.000000 1.918010 
# 
# From -- ./inp_files/23152.got.cif
#   From: 2010.05.17/outbox.cif.g08.bks.cpg/sg57_12_cif.got.tgz:23152.got - 2010.06.03 13:58:18.
