data_PCOD9438352
_publ_section_title
;
Structure prediction by ZEFSAII (Michael W. Deem and Ramdas Pophale) SiO2 
 PCOD9438352
Probable space group: P B C M
;
_chemical_formula_sum "Si O2"
_cell_formula_units_Z 64
_cell_length_a 20.869255
_cell_length_b 19.859497
_cell_length_c 8.562619
_cell_angle_alpha 90.000000
_cell_angle_beta 90.000000
_cell_angle_gamma 90.000000
_cell_volume 3548.802337
_symmetry_space_group_name_H-M "P B C M"
_symmetry_group_IT_number 57
_symmetry_cell_setting 'orthorhombic'
loop_
_space_group_symop_operation_xyz
x,y,z
-x,-y,1/2+z
x,1/2-y,-z
-x,1/2+y,1/2-z
-x,-y,-z
x,y,1/2-z
-x,1/2+y,z
x,1/2-y,1/2+z
loop_
_atom_site_type_symbol
_atom_site_label
_atom_site_fract_x
_atom_site_fract_y
_atom_site_fract_z
Si Si1 0.843600 0.564020 0.562009
Si Si2 0.988882 0.924852 0.436520
Si Si3 0.619380 0.604452 0.938968
Si Si4 0.653626 0.044573 0.939050
Si Si5 0.203557 0.578090 0.563210
Si Si6 0.516663 0.425467 0.061562
Si Si7 0.902660 0.325382 0.935457
Si Si8 0.256555 0.322199 0.061962
O O1 0.839172 0.554883 0.750000
O O2 0.914693 0.590497 0.526788
O O3 0.829842 0.492183 0.484728
O O4 0.790806 0.618140 0.511813
O O5 0.997000 0.925279 0.250000
O O6 0.038842 0.872235 0.506780
O O7 0.000000 0.000000 0.500000
O O8 0.620618 0.602258 0.750000
O O9 0.545709 0.616854 0.989141
O O10 0.671747 0.658405 0.991278
O O11 0.642535 0.531100 0.998000
O O12 0.654722 0.041100 0.750000
O O13 0.722273 0.073052 0.990171
O O14 0.590154 0.086868 0.987337
O O15 0.202543 0.584301 0.750000
O O16 0.162459 0.638392 0.491846
O O17 0.516635 0.426082 0.250000
O O18 0.500000 0.500000 0.000000
O O19 0.903499 0.323516 0.750000
O O20 0.907953 0.250000 0.000000
O O21 0.255543 0.320746 0.250000
O O22 0.236753 0.250000 0.000000
#
# Coordination Sequence:
#
# PCOD9438352 Si02
#       8
#     8   8   8   8   8   8   8   8
#     4  10  21  37  57  81 112 146 185 230 275 330
#     4  11  22  38  62  91 119 151 189 229 276 332
#     4   9  16  28  48  70 100 141 182 224 274 331
#     4   9  17  28  47  78 109 137 175 225 276 326
#     4  11  21  34  57  86 115 148 186 229 282 341
#     4   8  14  25  42  69 102 134 170 217 271 322
#     4  12  26  44  64  87 117 151 188 236 284 338
#     4  10  21  35  50  73 105 145 189 230 277 329
#
# _framework density 18.034255000000002
#
# number of rings (size 3 to 8) (size 9 to 14) (size 15 to 20)
#    0.000    2.000    2.500    1.875    0.000    2.500 
#    0.000    1.250    0.000    0.750    0.000    1.750 
#    0.000    0.000    0.000    0.000    0.000    0.000 
#
# Total GULP energy -356908.421752 kJ/mol
# GULP energy per Si atom -5576.694090 kJ/mol
# Density = 1.799321 g / cm^3
# Si number density = 18.034255 Si / 1000 Ang^3
#
#
#
# Elastic Constant Matrix: (Units=GPa)
#
#
# Indices 1 2 3 4 5 6 
#
# 1 148.7873 52.4363 40.6718 0.0000 0.0000 0.0000
# 2 52.4363 100.7399 25.6181 0.0000 0.0000 0.0000
# 3 40.6718 25.6181 35.5486 0.0000 0.0000 0.0000
# 4 0.0000 0.0000 0.0000 26.9798 0.0000 0.0000
# 5 0.0000 0.0000 0.0000 0.0000 19.8643 0.0000
# 6 0.0000 0.0000 0.0000 0.0000 0.0000 20.5866
#
#
#
# Elastic Compliance Matrix: (Units=1/GPa)
#
#
# Indices 1 2 3 4 5 6 
#
# 1 0.010443 -0.002935 -0.009833 0.000000 0.000000 0.000000
# 2 -0.002935 0.012979 -0.005995 0.000000 0.000000 0.000000
# 3 -0.009833 -0.005995 0.043701 0.000000 0.000000 0.000000
# 4 0.000000 0.000000 0.000000 0.037065 0.000000 0.000000
# 5 0.000000 0.000000 0.000000 0.000000 0.050342 0.000000
# 6 0.000000 0.000000 0.000000 0.000000 0.000000 0.048575
#
#
# Mechanical properties :
#
#
# Convention : Reuss Voigt Hill
#
# Bulk Modulus (GPa) = 33.78767 58.05870 45.92318
# Shear Modulus (GPa) = 19.96028 24.57611 22.26820
#
# Velocity S-wave (km/s) = 3.33047 3.69554 3.51774
# Velocity P-wave (km/s) = 5.79356 7.10442 6.48221
#
# Compressibility (1/GPa) = 0.02959660
#
# Stress axis : x y z
#
# Youngs Moduli (GPa) = 95.75387 77.04783 22.88276
#
# Poissons Ratio (x) = 0.22616 0.22501
# Poissons Ratio (y) = 0.28107 0.13718
# Poissons Ratio (z) = 0.94156 0.46189
#
# Static dielectric constant tensor:
#      x y z
#    x 1.680990 0.000000 0.000000 
#    y 0.000000 1.554670 0.000000 
#    z 0.000000 0.000000 1.608330 
# 
# From -- ./inp_files/8445.got.cif
#   From: 2010.05.17/outbox.cif.g08.bks.cpg/sg57_5_cif.got.tgz:8445.got - 2010.06.03 13:58:18.
