data_PCOD9438536
_publ_section_title
;
Structure prediction by ZEFSAII (Michael W. Deem and Ramdas Pophale) SiO2 
 PCOD9438536
Probable space group: P B C M
;
_chemical_formula_sum "Si O2"
_cell_formula_units_Z 56
_cell_length_a 20.251113
_cell_length_b 8.718659
_cell_length_c 14.987227
_cell_angle_alpha 90.000000
_cell_angle_beta 90.000000
_cell_angle_gamma 90.000000
_cell_volume 2646.182996
_symmetry_space_group_name_H-M "P B C M"
_symmetry_group_IT_number 57
_symmetry_cell_setting 'orthorhombic'
loop_
_space_group_symop_operation_xyz
x,y,z
-x,-y,1/2+z
x,1/2-y,-z
-x,1/2+y,1/2-z
-x,-y,-z
x,y,1/2-z
-x,1/2+y,z
x,1/2-y,1/2+z
loop_
_atom_site_type_symbol
_atom_site_label
_atom_site_fract_x
_atom_site_fract_y
_atom_site_fract_z
Si Si1 0.452750 0.659470 0.147578
Si Si2 0.793187 0.928296 0.474956
Si Si3 0.892614 0.393267 0.849536
Si Si4 0.336118 0.929127 0.520601
Si Si5 0.032195 0.382253 0.568104
Si Si6 0.157582 0.950829 0.349392
Si Si7 0.409807 0.014713 0.352495
O O1 0.442607 0.607618 0.250000
O O2 0.401324 0.578456 0.081915
O O3 0.528537 0.623896 0.125596
O O4 0.437951 0.840487 0.143999
O O5 0.795726 0.750000 0.500000
O O6 0.794365 0.013072 0.570234
O O7 0.854884 0.993602 0.417548
O O8 0.724613 0.984408 0.432468
O O9 0.890236 0.459989 0.750000
O O10 0.968398 0.347586 0.871435
O O11 0.856297 0.230045 0.851646
O O12 0.319442 0.750000 0.500000
O O13 0.355263 0.016369 0.429260
O O14 0.053978 0.250000 0.500000
O O15 0.000000 0.500000 0.500000
O O16 0.091017 0.455408 0.624606
O O17 0.179085 0.993901 0.250000
O O18 0.387798 0.043033 0.250000
#
# Coordination Sequence:
#
# PCOD9438536 Si02
#       7
#     8   8   8   8   8   8   8
#     4   9  18  33  55  84 115 147 186 235 290 349
#     4  12  26  43  60  86 121 160 203 259 307 356
#     4  11  24  43  66  90 121 162 204 245 304 369
#     4  10  21  37  58  80 112 155 200 239 291 355
#     4  12  21  39  66  94 127 158 194 245 301 355
#     4  11  24  42  65  92 121 161 205 248 303 364
#     4   9  18  33  55  84 115 147 186 236 292 348
#
# _framework density 21.162557
#
# number of rings (size 3 to 8) (size 9 to 14) (size 15 to 20)
#    0.000    1.429    2.857    2.571    0.000    2.857 
#    0.000    2.857    0.000    0.000    0.000    0.000 
#    0.000    0.000    0.000    0.000    0.000    0.000 
#
# Total GULP energy -312689.290675 kJ/mol
# GULP energy per Si atom -5583.737333 kJ/mol
# Density = 2.111439 g / cm^3
# Si number density = 21.162557 Si / 1000 Ang^3
#
#
#
# Elastic Constant Matrix: (Units=GPa)
#
#
# Indices 1 2 3 4 5 6 
#
# 1 74.5759 6.7390 13.6250 0.0000 0.0000 0.0000
# 2 6.7390 46.7164 13.9493 0.0000 0.0000 0.0000
# 3 13.6250 13.9493 82.4824 0.0000 0.0000 0.0000
# 4 0.0000 0.0000 0.0000 17.8246 0.0000 0.0000
# 5 0.0000 0.0000 0.0000 0.0000 10.7266 0.0000
# 6 0.0000 0.0000 0.0000 0.0000 0.0000 28.3402
#
#
#
# Elastic Compliance Matrix: (Units=1/GPa)
#
#
# Indices 1 2 3 4 5 6 
#
# 1 0.013912 -0.001391 -0.002063 0.000000 0.000000 0.000000
# 2 -0.001391 0.022683 -0.003606 0.000000 0.000000 0.000000
# 3 -0.002063 -0.003606 0.013074 0.000000 0.000000 0.000000
# 4 0.000000 0.000000 0.000000 0.056102 0.000000 0.000000
# 5 0.000000 0.000000 0.000000 0.000000 0.093226 0.000000
# 6 0.000000 0.000000 0.000000 0.000000 0.000000 0.035286
#
#
# Mechanical properties :
#
#
# Convention : Reuss Voigt Hill
#
# Bulk Modulus (GPa) = 28.13001 30.26683 29.19842
# Shear Modulus (GPa) = 19.21206 22.67571 20.94388
#
# Velocity S-wave (km/s) = 3.01629 3.27693 3.14931
# Velocity P-wave (km/s) = 5.04499 5.35265 5.20109
#
# Compressibility (1/GPa) = 0.03554923
#
# Stress axis : x y z
#
# Youngs Moduli (GPa) = 71.88190 44.08542 76.48503
#
# Poissons Ratio (x) = 0.06132 0.15777
# Poissons Ratio (y) = 0.09998 0.27584
# Poissons Ratio (z) = 0.14828 0.15899
#
# Static dielectric constant tensor:
#      x y z
#    x 1.702000 0.000000 0.000000 
#    y 0.000000 1.711600 0.000000 
#    z 0.000000 0.000000 1.764580 
# 
# From -- ./inp_files/19358.got.cif
#   From: 2010.05.17/outbox.cif.g08.bks.cpg/sg57_10_cif.got.tgz:19358.got - 2010.06.03 13:58:18.
