data_PCOD9438157
_publ_section_title
;
Structure prediction by ZEFSAII (Michael W. Deem and Ramdas Pophale) SiO2 
 PCOD9438157
Probable space group: P B C M
;
_chemical_formula_sum "Si O2"
_cell_formula_units_Z 44
_cell_length_a 11.195248
_cell_length_b 13.910787
_cell_length_c 14.380518
_cell_angle_alpha 90.000000
_cell_angle_beta 90.000000
_cell_angle_gamma 90.000000
_cell_volume 2239.545805
_symmetry_space_group_name_H-M "P B C M"
_symmetry_group_IT_number 57
_symmetry_cell_setting 'orthorhombic'
loop_
_space_group_symop_operation_xyz
x,y,z
-x,-y,1/2+z
x,1/2-y,-z
-x,1/2+y,1/2-z
-x,-y,-z
x,y,1/2-z
-x,1/2+y,z
x,1/2-y,1/2+z
loop_
_atom_site_type_symbol
_atom_site_label
_atom_site_fract_x
_atom_site_fract_y
_atom_site_fract_z
Si Si1 0.247407 0.263878 0.250000
Si Si2 0.017558 0.261120 0.145657
Si Si3 0.600554 0.951340 0.250000
Si Si4 0.325206 0.976339 0.546322
Si Si5 0.064279 0.599829 0.013525
Si Si6 0.586250 0.896369 0.750000
Si Si7 0.447905 0.354111 0.957151
O O1 0.357335 0.339353 0.250000
O O2 0.281645 0.150798 0.250000
O O3 0.158846 0.281448 0.162433
O O4 0.967226 0.262595 0.250000
O O5 0.994715 0.159801 0.097015
O O6 0.956707 0.337868 0.078925
O O7 0.653923 0.994920 0.154389
O O8 0.462907 0.993164 0.250000
O O9 0.201592 0.922697 0.533408
O O10 0.430970 0.906564 0.510337
O O11 0.341511 0.074354 0.487367
O O12 0.000000 0.500000 0.000000
O O13 0.539832 0.851818 0.653872
O O14 0.433014 0.250000 0.000000
#
# Coordination Sequence:
#
# PCOD9438157 Si02
#       7
#     4   8   4   8   8   4   8
#     4  10  20  41  66  91 135 168 215 276 312 419
#     4   9  24  42  62  96 127 175 223 259 342 394
#     4  10  20  39  63  94 127 173 222 266 346 380
#     4  10  23  38  64  94 127 172 214 279 327 402
#     4  11  23  41  65  96 129 170 223 276 331 394
#     4  10  22  38  63  95 124 171 219 272 330 393
#     4  10  22  41  62  93 129 168 220 266 341 402
#
# _framework density 19.646841999999999
#
# number of rings (size 3 to 8) (size 9 to 14) (size 15 to 20)
#    0.545    1.455    0.000    2.182    6.364    0.727 
#    1.636    0.000    0.000    0.000    0.000    0.000 
#    0.000    0.000    0.000    0.000    0.000    0.000 
#
# Total GULP energy -245089.227509 kJ/mol
# GULP energy per Si atom -5570.209716 kJ/mol
# Density = 1.960212 g / cm^3
# Si number density = 19.646842 Si / 1000 Ang^3
#
#
#
# Elastic Constant Matrix: (Units=GPa)
#
#
# Indices 1 2 3 4 5 6 
#
# 1 48.8647 27.8220 13.5798 0.0000 0.0000 0.0000
# 2 27.8220 112.2431 40.5064 0.0000 0.0000 0.0000
# 3 13.5798 40.5064 111.0989 0.0000 0.0000 0.0000
# 4 0.0000 0.0000 0.0000 9.3204 0.0000 0.0000
# 5 0.0000 0.0000 0.0000 0.0000 15.3590 0.0000
# 6 0.0000 0.0000 0.0000 0.0000 0.0000 40.0034
#
#
#
# Elastic Compliance Matrix: (Units=1/GPa)
#
#
# Indices 1 2 3 4 5 6 
#
# 1 0.023901 -0.005608 -0.000877 0.000000 0.000000 0.000000
# 2 -0.005608 0.011575 -0.003535 0.000000 0.000000 0.000000
# 3 -0.000877 -0.003535 0.010397 0.000000 0.000000 0.000000
# 4 0.000000 0.000000 0.000000 0.107291 0.000000 0.000000
# 5 0.000000 0.000000 0.000000 0.000000 0.065108 0.000000
# 6 0.000000 0.000000 0.000000 0.000000 0.000000 0.024998
#
#
# Mechanical properties :
#
#
# Convention : Reuss Voigt Hill
#
# Bulk Modulus (GPa) = 38.70861 48.44699 43.57780
# Shear Modulus (GPa) = 18.38767 25.62314 22.00540
#
# Velocity S-wave (km/s) = 3.06258 3.61527 3.35034
# Velocity P-wave (km/s) = 5.67898 6.49148 6.09878
#
# Compressibility (1/GPa) = 0.02583405
#
# Stress axis : x y z
#
# Youngs Moduli (GPa) = 41.83860 86.39356 96.18237
#
# Poissons Ratio (x) = 0.48450 0.08433
# Poissons Ratio (y) = 0.23463 0.33998
# Poissons Ratio (z) = 0.03668 0.30538
#
# Static dielectric constant tensor:
#      x y z
#    x 1.742360 0.000000 0.000000 
#    y 0.000000 1.699210 0.000000 
#    z 0.000000 0.000000 1.698380 
# 
# From -- ./inp_files/17557.got.cif
#   From: 2010.05.17/outbox.cif.g08.bks.cpg/sg57_9_cif.got.tgz:17557.got - 2010.06.03 13:58:18.
