data_PCOD9438937
_publ_section_title
;
Structure prediction by ZEFSAII (Michael W. Deem and Ramdas Pophale) SiO2 
 PCOD9438937
Probable space group: P B C M
;
_chemical_formula_sum "Si O2"
_cell_formula_units_Z 60
_cell_length_a 19.641832
_cell_length_b 17.889471
_cell_length_c 8.576166
_cell_angle_alpha 90.000000
_cell_angle_beta 90.000000
_cell_angle_gamma 90.000000
_cell_volume 3013.510224
_symmetry_space_group_name_H-M "P B C M"
_symmetry_group_IT_number 57
_symmetry_cell_setting 'orthorhombic'
loop_
_space_group_symop_operation_xyz
x,y,z
-x,-y,1/2+z
x,1/2-y,-z
-x,1/2+y,1/2-z
-x,-y,-z
x,y,1/2-z
-x,1/2+y,z
x,1/2-y,1/2+z
loop_
_atom_site_type_symbol
_atom_site_label
_atom_site_fract_x
_atom_site_fract_y
_atom_site_fract_z
Si Si1 0.150077 0.331207 0.562626
Si Si2 0.890787 0.166842 0.935964
Si Si3 0.703095 0.624771 0.566733
Si Si4 0.647489 0.037016 0.432152
Si Si5 0.018826 0.080026 0.064528
Si Si6 0.557592 0.831842 0.563604
Si Si7 0.500000 0.500000 0.500000
Si Si8 0.260707 0.834563 0.436970
O O1 0.130023 0.250000 0.500000
O O2 0.151886 0.330429 0.750000
O O3 0.225007 0.349782 0.500341
O O4 0.091607 0.388680 0.508820
O O5 0.898883 0.165547 0.750000
O O6 0.815636 0.134708 0.972048
O O7 0.887206 0.250000 0.000000
O O8 0.955897 0.130669 0.013571
O O9 0.698730 0.643876 0.750000
O O10 0.695718 0.535041 0.551692
O O11 0.637391 0.659434 0.482024
O O12 0.624783 0.040361 0.250000
O O13 0.579320 0.020500 0.526874
O O14 0.685192 0.111281 0.483720
O O15 0.022505 0.077292 0.250000
O O16 0.000000 0.000000 0.000000
O O17 0.534561 0.750000 0.500000
O O18 0.549435 0.832983 0.750000
O O19 0.520658 0.907128 0.499556
O O20 0.266303 0.750000 0.500000
O O21 0.268758 0.833872 0.250000
#
# Coordination Sequence:
#
# PCOD9438937 Si02
#       8
#     8   8   8   8   8   8   4   8
#     4  11  24  41  62  89 121 158 203 251 304 362
#     4  10  21  39  62  88 119 160 206 256 311 372
#     4  10  22  40  63  92 125 163 207 258 314 376
#     4  10  22  40  63  91 124 161 206 256 312 374
#     4  11  25  41  60  88 122 162 205 255 308 370
#     4  11  23  41  67  96 131 174 217 269 326 388
#     4  10  24  44  66  96 130 172 216 262 322 384
#     4  10  22  39  62  91 124 163 209 260 314 374
#
# _framework density 19.910336000000001
#
# number of rings (size 3 to 8) (size 9 to 14) (size 15 to 20)
#    0.000    1.600    0.000    3.600    1.867   10.133 
#    0.000    1.333    0.000    0.000    0.000    0.000 
#    0.000    0.000    0.000    0.000    0.000    0.000 
#
# Total GULP energy -334047.545575 kJ/mol
# GULP energy per Si atom -5567.459093 kJ/mol
# Density = 1.986502 g / cm^3
# Si number density = 19.910336 Si / 1000 Ang^3
#
#
#
# Elastic Constant Matrix: (Units=GPa)
#
#
# Indices 1 2 3 4 5 6 
#
# 1 83.9997 45.8250 13.3713 0.0000 0.0000 0.0000
# 2 45.8250 108.9977 15.0763 0.0000 0.0000 0.0000
# 3 13.3713 15.0763 32.7525 0.0000 0.0000 0.0000
# 4 0.0000 0.0000 0.0000 26.7570 0.0000 0.0000
# 5 0.0000 0.0000 0.0000 0.0000 -38.6214 0.0000
# 6 0.0000 0.0000 0.0000 0.0000 0.0000 38.5159
#
#
#
# Elastic Compliance Matrix: (Units=1/GPa)
#
#
# Indices 1 2 3 4 5 6 
#
# 1 0.015843 -0.006158 -0.003633 0.000000 0.000000 0.000000
# 2 -0.006158 0.012192 -0.003098 0.000000 0.000000 0.000000
# 3 -0.003633 -0.003098 0.033441 0.000000 0.000000 0.000000
# 4 0.000000 0.000000 0.000000 0.037373 0.000000 0.000000
# 5 0.000000 0.000000 0.000000 0.000000 -0.025892 0.000000
# 6 0.000000 0.000000 0.000000 0.000000 0.000000 0.025963
#
#
# Mechanical properties :
#
#
# Convention : Reuss Voigt Hill
#
# Bulk Modulus (GPa) = 28.01323 41.58833 34.80078
# Shear Modulus (GPa) = 36.60375 15.42878 26.01626
#
# Velocity S-wave (km/s) = 4.29234 2.78675 3.61871
# Velocity P-wave (km/s) = 6.21819 5.59355 5.91412
#
# Compressibility (1/GPa) = 0.03569742
#
# Stress axis : x y z
#
# Youngs Moduli (GPa) = 63.12101 82.02107 29.90306
#
# Poissons Ratio (x) = 0.50509 0.10864
# Poissons Ratio (y) = 0.38870 0.09264
# Poissons Ratio (z) = 0.22933 0.25411
#
# Static dielectric constant tensor:
#      x y z
#    x 1.677300 0.000000 0.000000 
#    y 0.000000 1.606570 0.000000 
#    z 0.000000 0.000000 1.707150 
# 
# From -- ./inp_files/6896.got.cif
#   From: 2010.05.17/outbox.cif.g08.bks.cpg/sg57_4_cif.got.tgz:6896.got - 2010.06.03 13:58:18.
