data_PCOD9438963
_publ_section_title
;
Structure prediction by ZEFSAII (Michael W. Deem and Ramdas Pophale) SiO2 
 PCOD9438963
Probable space group: P B C M
;
_chemical_formula_sum "Si O2"
_cell_formula_units_Z 64
_cell_length_a 12.009985
_cell_length_b 18.636070
_cell_length_c 14.564861
_cell_angle_alpha 90.000000
_cell_angle_beta 90.000000
_cell_angle_gamma 90.000000
_cell_volume 3259.891476
_symmetry_space_group_name_H-M "P B C M"
_symmetry_group_IT_number 57
_symmetry_cell_setting 'orthorhombic'
loop_
_space_group_symop_operation_xyz
x,y,z
-x,-y,1/2+z
x,1/2-y,-z
-x,1/2+y,1/2-z
-x,-y,-z
x,y,1/2-z
-x,1/2+y,z
x,1/2-y,1/2+z
loop_
_atom_site_type_symbol
_atom_site_label
_atom_site_fract_x
_atom_site_fract_y
_atom_site_fract_z
Si Si1 0.280868 0.751875 0.610728
Si Si2 0.057368 0.926818 0.970082
Si Si3 0.729387 0.411506 0.855143
Si Si4 0.918151 0.706771 0.095716
Si Si5 0.074778 0.664494 0.846092
Si Si6 0.501862 0.083167 0.472863
Si Si7 0.335604 0.321369 0.643220
Si Si8 0.485038 0.311744 0.145060
O O1 0.273837 0.750000 0.500000
O O2 0.239683 0.827781 0.645771
O O3 0.200281 0.692770 0.650719
O O4 0.405756 0.737827 0.641130
O O5 0.171501 0.944760 0.915952
O O6 0.984966 0.868192 0.913624
O O7 0.070362 0.884612 0.065469
O O8 0.000000 0.000000 0.000000
O O9 0.720780 0.438306 0.750000
O O10 0.612267 0.410748 0.909643
O O11 0.796711 0.686069 0.132550
O O12 0.993886 0.766136 0.146980
O O13 0.900675 0.750000 0.000000
O O14 0.050283 0.626598 0.750000
O O15 0.397620 0.118024 0.417466
O O16 0.504955 0.128652 0.567560
O O17 0.500000 0.000000 0.500000
O O18 0.363592 0.334822 0.750000
O O19 0.385960 0.242724 0.619934
O O20 0.469643 0.338430 0.250000
#
# Coordination Sequence:
#
# PCOD9438963 Si02
#       8
#     8   8   8   8   8   8   8   8
#     4  12  18  37  67  96 123 152 200 265 320 359
#     4  11  25  42  64  91 134 168 209 259 321 380
#     4  12  24  42  68  96 124 164 214 263 321 383
#     4  10  21  39  63  90 125 167 213 263 314 372
#     4  11  21  38  64  94 124 163 210 262 313 371
#     4  12  26  42  65  90 133 169 206 259 321 382
#     4  11  23  41  65  92 122 165 218 265 313 375
#     4  11  22  39  65  94 123 160 210 263 312 371
#
# _framework density 19.632556000000001
#
# number of rings (size 3 to 8) (size 9 to 14) (size 15 to 20)
#    0.000    0.750    5.000    3.375    1.750    2.000 
#    0.000    0.000    0.000    0.000    0.000    0.000 
#    0.000    0.000    0.000    0.000    0.000    0.000 
#
# Total GULP energy -357093.058898 kJ/mol
# GULP energy per Si atom -5579.579045 kJ/mol
# Density = 1.958787 g / cm^3
# Si number density = 19.632556 Si / 1000 Ang^3
#
#
#
# Elastic Constant Matrix: (Units=GPa)
#
#
# Indices 1 2 3 4 5 6 
#
# 1 100.9183 6.9960 32.3134 0.0000 0.0000 0.0000
# 2 6.9960 59.5589 23.6589 0.0000 0.0000 0.0000
# 3 32.3134 23.6589 141.8320 0.0000 0.0000 0.0000
# 4 0.0000 0.0000 0.0000 3.2377 0.0000 0.0000
# 5 0.0000 0.0000 0.0000 0.0000 193.0388 0.0000
# 6 0.0000 0.0000 0.0000 0.0000 0.0000 19.5601
#
#
#
# Elastic Compliance Matrix: (Units=1/GPa)
#
#
# Indices 1 2 3 4 5 6 
#
# 1 0.010694 -0.000309 -0.002385 0.000000 0.000000 0.000000
# 2 -0.000309 0.017991 -0.002931 0.000000 0.000000 0.000000
# 3 -0.002385 -0.002931 0.008083 0.000000 0.000000 0.000000
# 4 0.000000 0.000000 0.000000 0.308862 0.000000 0.000000
# 5 0.000000 0.000000 0.000000 0.000000 0.005180 0.000000
# 6 0.000000 0.000000 0.000000 0.000000 0.000000 0.051125
#
#
# Mechanical properties :
#
#
# Convention : Reuss Voigt Hill
#
# Bulk Modulus (GPa) = 39.18691 47.58285 43.38488
# Shear Modulus (GPa) = 11.85708 59.12336 35.49022
#
# Velocity S-wave (km/s) = 2.46021 5.49366 4.25635
# Velocity P-wave (km/s) = 5.29846 8.03304 6.80454
#
# Compressibility (1/GPa) = 0.02551873
#
# Stress axis : x y z
#
# Youngs Moduli (GPa) = 93.50998 55.58479 123.71945
#
# Poissons Ratio (x) = 0.01716 0.29506
# Poissons Ratio (y) = 0.02887 0.36258
# Poissons Ratio (z) = 0.22301 0.16290
#
# Static dielectric constant tensor:
#      x y z
#    x 1.701690 0.000000 0.000000 
#    y 0.000000 1.672160 0.000000 
#    z 0.000000 0.000000 1.765930 
# 
# From -- ./inp_files/17979.got.cif
#   From: 2010.05.17/outbox.cif.g08.bks.cpg/sg57_9_cif.got.tgz:17979.got - 2010.06.03 13:58:18.
