data_PCOD9438094
_publ_section_title
;
Structure prediction by ZEFSAII (Michael W. Deem and Ramdas Pophale) SiO2 
 PCOD9438094
Probable space group: P B C M
;
_chemical_formula_sum "Si O2"
_cell_formula_units_Z 64
_cell_length_a 9.022950
_cell_length_b 21.821807
_cell_length_c 14.388675
_cell_angle_alpha 90.000000
_cell_angle_beta 90.000000
_cell_angle_gamma 90.000000
_cell_volume 2833.087999
_symmetry_space_group_name_H-M "P B C M"
_symmetry_group_IT_number 57
_symmetry_cell_setting 'orthorhombic'
loop_
_space_group_symop_operation_xyz
x,y,z
-x,-y,1/2+z
x,1/2-y,-z
-x,1/2+y,1/2-z
-x,-y,-z
x,y,1/2-z
-x,1/2+y,z
x,1/2-y,1/2+z
loop_
_atom_site_type_symbol
_atom_site_label
_atom_site_fract_x
_atom_site_fract_y
_atom_site_fract_z
Si Si1 0.656529 0.964258 0.358580
Si Si2 0.041346 0.343205 0.955131
Si Si3 0.958501 0.724010 0.645000
Si Si4 0.669807 0.494199 0.142328
Si Si5 0.187093 0.565399 0.018825
Si Si6 0.400597 0.816881 0.515147
Si Si7 0.347185 0.359352 0.858822
Si Si8 0.356731 0.327398 0.354740
O O1 0.654865 0.980513 0.250000
O O2 0.484925 0.963798 0.390167
O O3 0.713784 0.895165 0.368173
O O4 0.745322 0.014838 0.413452
O O5 0.985746 0.291603 0.882410
O O6 0.969824 0.409628 0.946872
O O7 0.214197 0.344918 0.929794
O O8 0.003769 0.319557 0.058541
O O9 0.002744 0.706908 0.750000
O O10 0.777952 0.720418 0.641902
O O11 0.694111 0.480173 0.250000
O O12 0.640376 0.566740 0.133497
O O13 0.800765 0.466772 0.080971
O O14 0.287528 0.626873 0.015851
O O15 0.329403 0.750000 0.500000
O O16 0.504379 0.825953 0.606149
O O17 0.517217 0.819687 0.430143
O O18 0.314578 0.345975 0.750000
O O19 0.419366 0.326845 0.250000
#
# Coordination Sequence:
#
# PCOD9438094 Si02
#       8
#     8   8   8   8   8   8   8   8
#     4  10  20  38  65  97 128 163 212 271 334 388
#     4  11  25  41  64  92 129 176 217 259 322 394
#     4  10  22  43  66  89 124 172 221 269 316 379
#     4  10  21  40  67  96 130 171 211 268 337 391
#     4  12  25  40  65  93 138 171 215 268 331 394
#     4  12  24  38  63  96 127 168 221 270 320 389
#     4  11  23  43  66  93 129 170 219 272 327 390
#     4  10  20  39  69  97 121 158 216 277 321 374
#
# _framework density 22.590191000000001
#
# number of rings (size 3 to 8) (size 9 to 14) (size 15 to 20)
#    0.000    1.250    3.750    2.250    1.750    3.500 
#    0.000    0.000    0.000    0.000    0.000    0.000 
#    0.000    0.000    0.000    0.000    0.000    0.000 
#
# Total GULP energy -357775.350110 kJ/mol
# GULP energy per Si atom -5590.239845 kJ/mol
# Density = 2.253877 g / cm^3
# Si number density = 22.590191 Si / 1000 Ang^3
#
#
#
# Elastic Constant Matrix: (Units=GPa)
#
#
# Indices 1 2 3 4 5 6 
#
# 1 38.0703 18.2163 16.1745 0.0000 0.0000 0.0000
# 2 18.2163 99.3303 32.1085 0.0000 0.0000 0.0000
# 3 16.1745 32.1085 120.5985 0.0000 0.0000 0.0000
# 4 0.0000 0.0000 0.0000 25.4909 0.0000 0.0000
# 5 0.0000 0.0000 0.0000 0.0000 10.2844 0.0000
# 6 0.0000 0.0000 0.0000 0.0000 0.0000 40.2243
#
#
#
# Elastic Compliance Matrix: (Units=1/GPa)
#
#
# Indices 1 2 3 4 5 6 
#
# 1 0.029612 -0.004537 -0.002764 0.000000 0.000000 0.000000
# 2 -0.004537 0.011711 -0.002509 0.000000 0.000000 0.000000
# 3 -0.002764 -0.002509 0.009331 0.000000 0.000000 0.000000
# 4 0.000000 0.000000 0.000000 0.039230 0.000000 0.000000
# 5 0.000000 0.000000 0.000000 0.000000 0.097235 0.000000
# 6 0.000000 0.000000 0.000000 0.000000 0.000000 0.024861
#
#
# Mechanical properties :
#
#
# Convention : Reuss Voigt Hill
#
# Bulk Modulus (GPa) = 32.22341 43.44420 37.83380
# Shear Modulus (GPa) = 20.66595 27.96656 24.31626
#
# Velocity S-wave (km/s) = 3.02788 3.52233 3.28442
# Velocity P-wave (km/s) = 5.14970 5.98462 5.58279
#
# Compressibility (1/GPa) = 0.03103334
#
# Stress axis : x y z
#
# Youngs Moduli (GPa) = 33.76964 85.39218 107.17297
#
# Poissons Ratio (x) = 0.38745 0.29618
# Poissons Ratio (y) = 0.15322 0.26893
# Poissons Ratio (z) = 0.09332 0.21428
#
# Static dielectric constant tensor:
#      x y z
#    x 1.859860 0.000000 0.000000 
#    y 0.000000 1.855520 0.000000 
#    z 0.000000 0.000000 1.829100 
# 
# From -- ./inp_files/16975.got.cif
#   From: 2010.05.17/outbox.cif.g08.bks.cpg/sg57_9_cif.got.tgz:16975.got - 2010.06.03 13:58:18.
