data_PCOD9438105
_publ_section_title
;
Structure prediction by ZEFSAII (Michael W. Deem and Ramdas Pophale) SiO2 
 PCOD9438105
Probable space group: P B C M
;
_chemical_formula_sum "Si O2"
_cell_formula_units_Z 40
_cell_length_a 4.988939
_cell_length_b 14.755960
_cell_length_c 18.388266
_cell_angle_alpha 90.000000
_cell_angle_beta 90.000000
_cell_angle_gamma 90.000000
_cell_volume 1353.681335
_symmetry_space_group_name_H-M "P B C M"
_symmetry_group_IT_number 57
_symmetry_cell_setting 'orthorhombic'
loop_
_space_group_symop_operation_xyz
x,y,z
-x,-y,1/2+z
x,1/2-y,-z
-x,1/2+y,1/2-z
-x,-y,-z
x,y,1/2-z
-x,1/2+y,z
x,1/2-y,1/2+z
loop_
_atom_site_type_symbol
_atom_site_label
_atom_site_fract_x
_atom_site_fract_y
_atom_site_fract_z
Si Si1 0.411815 0.448823 0.166269
Si Si2 0.019011 0.603941 0.167295
Si Si3 0.320612 0.147918 0.031427
Si Si4 0.172660 0.588140 0.949746
Si Si5 0.700749 0.219106 0.830059
O O1 0.479674 0.472837 0.250000
O O2 0.143676 0.504615 0.151682
O O3 0.638607 0.470389 0.105985
O O4 0.423872 0.338635 0.165340
O O5 0.917464 0.605111 0.250000
O O6 0.809249 0.643925 0.110719
O O7 0.269893 0.674156 0.166423
O O8 0.308655 0.250000 0.000000
O O9 0.118956 0.081278 0.986225
O O10 0.620031 0.114931 0.013836
O O11 0.145997 0.676634 0.897782
O O12 0.811737 0.193282 0.750000
#
# Coordination Sequence:
#
# PCOD9438105 Si02
#       5
#     8   8   8   8   8
#     4   8  17  38  63  95 134 174 223 272 321 394
#     4  10  20  38  66  96 133 176 220 271 331 395
#     4  12  23  40  66  97 132 172 221 272 326 391
#     4  10  22  40  65  93 130 174 212 273 328 378
#     4   8  16  37  61  93 128 171 217 263 328 390
#
# _framework density 29.549052
#
# number of rings (size 3 to 8) (size 9 to 14) (size 15 to 20)
#    1.200    1.200    2.000    0.600    0.000    1.600 
#    0.000    7.000    0.000    4.800    0.000    0.000 
#    0.000    0.000    0.000    0.000    0.000    0.000 
#
# Total GULP energy -223733.469373 kJ/mol
# GULP energy per Si atom -5593.336734 kJ/mol
# Density = 2.948180 g / cm^3
# Si number density = 29.549052 Si / 1000 Ang^3
#
#
#
# Elastic Constant Matrix: (Units=GPa)
#
#
# Indices 1 2 3 4 5 6 
#
# 1 183.5762 31.5885 65.3895 0.0000 0.0000 0.0000
# 2 31.5885 103.7271 -0.1353 0.0000 0.0000 0.0000
# 3 65.3895 -0.1353 211.2083 0.0000 0.0000 0.0000
# 4 0.0000 0.0000 0.0000 39.6756 0.0000 0.0000
# 5 0.0000 0.0000 0.0000 0.0000 9.5973 0.0000
# 6 0.0000 0.0000 0.0000 0.0000 0.0000 21.9170
#
#
#
# Elastic Compliance Matrix: (Units=1/GPa)
#
#
# Indices 1 2 3 4 5 6 
#
# 1 0.006507 -0.001984 -0.002016 0.000000 0.000000 0.000000
# 2 -0.001984 0.010246 0.000621 0.000000 0.000000 0.000000
# 3 -0.002016 0.000621 0.005359 0.000000 0.000000 0.000000
# 4 0.000000 0.000000 0.000000 0.025204 0.000000 0.000000
# 5 0.000000 0.000000 0.000000 0.000000 0.104196 0.000000
# 6 0.000000 0.000000 0.000000 0.000000 0.000000 0.045627
#
#
# Mechanical properties :
#
#
# Convention : Reuss Voigt Hill
#
# Bulk Modulus (GPa) = 65.13167 76.91079 71.02123
# Shear Modulus (GPa) = 23.92177 41.01591 32.46884
#
# Velocity S-wave (km/s) = 2.84837 3.72971 3.31843
# Velocity P-wave (km/s) = 5.73649 6.68074 6.22654
#
# Compressibility (1/GPa) = 0.01535351
#
# Stress axis : x y z
#
# Youngs Moduli (GPa) = 153.68645 97.60159 186.59754
#
# Poissons Ratio (x) = 0.19366 0.37613
# Poissons Ratio (y) = 0.30494 -0.11585
# Poissons Ratio (z) = 0.30979 -0.06060
#
# Static dielectric constant tensor:
#      x y z
#    x 2.202650 0.000000 0.000000 
#    y 0.000000 2.340240 0.000000 
#    z 0.000000 0.000000 2.329500 
# 
# From -- ./inp_files/20713.got.cif
#   From: 2010.05.17/outbox.cif.g08.bks.cpg/sg57_11_cif.got.tgz:20713.got - 2010.06.03 13:58:18.
