data_PCOD9438564
_publ_section_title
;
Structure prediction by ZEFSAII (Michael W. Deem and Ramdas Pophale) SiO2 
 PCOD9438564
Probable space group: P B C M
;
_chemical_formula_sum "Si O2"
_cell_formula_units_Z 40
_cell_length_a 7.712569
_cell_length_b 30.373571
_cell_length_c 8.730120
_cell_angle_alpha 90.000000
_cell_angle_beta 90.000000
_cell_angle_gamma 90.000000
_cell_volume 2045.102739
_symmetry_space_group_name_H-M "P B C M"
_symmetry_group_IT_number 57
_symmetry_cell_setting 'orthorhombic'
loop_
_space_group_symop_operation_xyz
x,y,z
-x,-y,1/2+z
x,1/2-y,-z
-x,1/2+y,1/2-z
-x,-y,-z
x,y,1/2-z
-x,1/2+y,z
x,1/2-y,1/2+z
loop_
_atom_site_type_symbol
_atom_site_label
_atom_site_fract_x
_atom_site_fract_y
_atom_site_fract_z
Si Si1 0.454808 0.952959 0.071402
Si Si2 0.750195 0.701258 0.931783
Si Si3 0.048554 0.857871 0.931063
Si Si4 0.916917 0.043936 0.432997
Si Si5 0.541317 0.138910 0.066737
O O1 0.496471 0.952772 0.250000
O O2 0.252162 0.949815 0.035551
O O3 0.524784 0.908728 0.992545
O O4 0.500000 0.000000 0.000000
O O5 0.735697 0.703317 0.750000
O O6 0.760459 0.750000 0.000000
O O7 0.582984 0.675942 0.998985
O O8 0.921597 0.673915 0.978387
O O9 0.036916 0.847529 0.750000
O O10 0.988899 0.908981 0.948521
O O11 0.253737 0.854790 0.973545
O O12 0.877695 0.039011 0.250000
O O13 0.000000 0.000000 0.500000
O O14 0.532241 0.138801 0.250000
#
# Coordination Sequence:
#
# PCOD9438564 Si02
#       5
#     8   8   8   8   8
#     4  11  22  37  58  87 123 164 209 255 309 372
#     4  12  26  43  67  96 126 165 212 263 319 380
#     4   9  21  42  65  90 125 166 207 259 316 373
#     4  10  21  37  58  87 123 164 208 254 310 372
#     4  10  22  43  67  92 127 165 209 263 319 379
#
# _framework density 19.558917999999998
#
# number of rings (size 3 to 8) (size 9 to 14) (size 15 to 20)
#    0.000    1.600    0.000    6.000    2.800    5.600 
#    0.000    0.000    0.000    0.000    0.000    0.000 
#    0.000    0.000    0.000    0.000    0.000    0.000 
#
# Total GULP energy -223269.348250 kJ/mol
# GULP energy per Si atom -5581.733706 kJ/mol
# Density = 1.951440 g / cm^3
# Si number density = 19.558918 Si / 1000 Ang^3
#
#
#
# Elastic Constant Matrix: (Units=GPa)
#
#
# Indices 1 2 3 4 5 6 
#
# 1 82.2323 67.8417 53.5573 0.0000 0.0000 0.0000
# 2 67.8417 173.6008 81.1117 0.0000 0.0000 0.0000
# 3 53.5573 81.1117 122.7211 0.0000 0.0000 0.0000
# 4 0.0000 0.0000 0.0000 40.6281 0.0000 0.0000
# 5 0.0000 0.0000 0.0000 0.0000 32.9767 0.0000
# 6 0.0000 0.0000 0.0000 0.0000 0.0000 32.1411
#
#
#
# Elastic Compliance Matrix: (Units=1/GPa)
#
#
# Indices 1 2 3 4 5 6 
#
# 1 0.019965 -0.005398 -0.005145 0.000000 0.000000 0.000000
# 2 -0.005398 0.009794 -0.004117 0.000000 0.000000 0.000000
# 3 -0.005145 -0.004117 0.013115 0.000000 0.000000 0.000000
# 4 0.000000 0.000000 0.000000 0.024613 0.000000 0.000000
# 5 0.000000 0.000000 0.000000 0.000000 0.030324 0.000000
# 6 0.000000 0.000000 0.000000 0.000000 0.000000 0.031113
#
#
# Mechanical properties :
#
#
# Convention : Reuss Voigt Hill
#
# Bulk Modulus (GPa) = 73.78506 87.06395 80.42451
# Shear Modulus (GPa) = 30.71943 32.88543 31.80243
#
# Velocity S-wave (km/s) = 3.96739 4.10488 4.03672
# Velocity P-wave (km/s) = 7.66768 8.19006 7.93317
#
# Compressibility (1/GPa) = 0.01355288
#
# Stress axis : x y z
#
# Youngs Moduli (GPa) = 50.08707 102.10773 76.24760
#
# Poissons Ratio (x) = 0.55120 0.39231
# Poissons Ratio (y) = 0.27038 0.31392
# Poissons Ratio (z) = 0.25771 0.42039
#
# Static dielectric constant tensor:
#      x y z
#    x 1.643870 0.000000 0.000000 
#    y 0.000000 1.718160 0.000000 
#    z 0.000000 0.000000 1.654990 
# 
# From -- ./inp_files/1506.got.cif
#   From: 2010.05.17/outbox.cif.g08.bks.cpg/sg57_1_cif.got.tgz:1506.got - 2010.06.03 13:58:18.
