data_PCOD9438147
_publ_section_title
;
Structure prediction by ZEFSAII (Michael W. Deem and Ramdas Pophale) SiO2 
 PCOD9438147
Probable space group: P B C M
;
_chemical_formula_sum "Si O2"
_cell_formula_units_Z 40
_cell_length_a 8.217061
_cell_length_b 15.345576
_cell_length_c 14.107727
_cell_angle_alpha 90.000000
_cell_angle_beta 90.000000
_cell_angle_gamma 90.000000
_cell_volume 1778.921371
_symmetry_space_group_name_H-M "P B C M"
_symmetry_group_IT_number 57
_symmetry_cell_setting 'orthorhombic'
loop_
_space_group_symop_operation_xyz
x,y,z
-x,-y,1/2+z
x,1/2-y,-z
-x,1/2+y,1/2-z
-x,-y,-z
x,y,1/2-z
-x,1/2+y,z
x,1/2-y,1/2+z
loop_
_atom_site_type_symbol
_atom_site_label
_atom_site_fract_x
_atom_site_fract_y
_atom_site_fract_z
Si Si1 0.312414 0.373380 0.507739
Si Si2 0.158707 0.259950 0.138055
Si Si3 0.182303 0.516801 0.641765
Si Si4 0.675352 0.350810 0.025123
Si Si5 0.112760 0.889730 0.643435
O O1 0.176728 0.343913 0.430134
O O2 0.300578 0.300700 0.591867
O O3 0.280938 0.461284 0.564592
O O4 0.487343 0.373003 0.459233
O O5 0.176846 0.277801 0.250000
O O6 0.002812 0.195606 0.126569
O O7 0.235822 0.502877 0.750000
O O8 0.211895 0.615890 0.611020
O O9 0.004406 0.473771 0.635581
O O10 0.688083 0.250000 0.000000
O O11 0.745676 0.395526 0.931224
O O12 0.174382 0.883677 0.750000
#
# Coordination Sequence:
#
# PCOD9438147 Si02
#       5
#     8   8   8   8   8
#     4  10  20  39  62  93 127 164 212 254 314 375
#     4   9  18  37  63  90 124 167 210 252 307 375
#     4  10  23  44  65  85 123 175 212 253 315 380
#     4  12  24  38  62  98 129 159 203 271 323 367
#     4   9  21  40  63  89 123 168 210 254 312 374
#
# _framework density 22.485536
#
# number of rings (size 3 to 8) (size 9 to 14) (size 15 to 20)
#    0.000    2.000    2.000    3.000    5.600    3.200 
#    0.000    1.000    0.000    0.000    0.000    0.000 
#    0.000    0.000    0.000    0.000    0.000    0.000 
#
# Total GULP energy -223279.108354 kJ/mol
# GULP energy per Si atom -5581.977709 kJ/mol
# Density = 2.243436 g / cm^3
# Si number density = 22.485536 Si / 1000 Ang^3
#
#
#
# Elastic Constant Matrix: (Units=GPa)
#
#
# Indices 1 2 3 4 5 6 
#
# 1 33.7578 8.8346 21.2730 0.0000 0.0000 0.0000
# 2 8.8346 96.7573 39.5803 0.0000 0.0000 0.0000
# 3 21.2730 39.5803 130.2989 0.0000 0.0000 0.0000
# 4 0.0000 0.0000 0.0000 18.2326 0.0000 0.0000
# 5 0.0000 0.0000 0.0000 0.0000 8.5116 0.0000
# 6 0.0000 0.0000 0.0000 0.0000 0.0000 18.6991
#
#
#
# Elastic Compliance Matrix: (Units=1/GPa)
#
#
# Indices 1 2 3 4 5 6 
#
# 1 0.033093 -0.000927 -0.005121 0.000000 0.000000 0.000000
# 2 -0.000927 0.011828 -0.003442 0.000000 0.000000 0.000000
# 3 -0.005121 -0.003442 0.009556 0.000000 0.000000 0.000000
# 4 0.000000 0.000000 0.000000 0.054847 0.000000 0.000000
# 5 0.000000 0.000000 0.000000 0.000000 0.117486 0.000000
# 6 0.000000 0.000000 0.000000 0.000000 0.000000 0.053479
#
#
# Mechanical properties :
#
#
# Convention : Reuss Voigt Hill
#
# Bulk Modulus (GPa) = 28.17107 44.46553 36.31830
# Shear Modulus (GPa) = 16.07203 21.83040 18.95122
#
# Velocity S-wave (km/s) = 2.67642 3.11925 2.90628
# Velocity P-wave (km/s) = 4.70178 5.72635 5.23917
#
# Compressibility (1/GPa) = 0.03549741
#
# Stress axis : x y z
#
# Youngs Moduli (GPa) = 30.21827 84.54835 104.64413
#
# Poissons Ratio (x) = 0.07834 0.53592
# Poissons Ratio (y) = 0.02800 0.36013
# Poissons Ratio (z) = 0.15476 0.29097
#
# Static dielectric constant tensor:
#      x y z
#    x 1.790910 0.000000 0.000000 
#    y 0.000000 2.043690 0.000000 
#    z 0.000000 0.000000 1.785150 
# 
# From -- ./inp_files/15907.got.cif
#   From: 2010.05.17/outbox.cif.g08.bks.cpg/sg57_8_cif.got.tgz:15907.got - 2010.06.03 13:58:18.
