data_PCOD9438290
_publ_section_title
;
Structure prediction by ZEFSAII (Michael W. Deem and Ramdas Pophale) SiO2 
 PCOD9438290
Probable space group: P B C M
;
_chemical_formula_sum "Si O2"
_cell_formula_units_Z 56
_cell_length_a 11.325942
_cell_length_b 11.829914
_cell_length_c 20.266160
_cell_angle_alpha 90.000000
_cell_angle_beta 90.000000
_cell_angle_gamma 90.000000
_cell_volume 2715.359823
_symmetry_space_group_name_H-M "P B C M"
_symmetry_group_IT_number 57
_symmetry_cell_setting 'orthorhombic'
loop_
_space_group_symop_operation_xyz
x,y,z
-x,-y,1/2+z
x,1/2-y,-z
-x,1/2+y,1/2-z
-x,-y,-z
x,y,1/2-z
-x,1/2+y,z
x,1/2-y,1/2+z
loop_
_atom_site_type_symbol
_atom_site_label
_atom_site_fract_x
_atom_site_fract_y
_atom_site_fract_z
Si Si1 0.967718 0.571618 0.065498
Si Si2 0.621661 0.542986 0.750000
Si Si3 0.796882 0.214668 0.076723
Si Si4 0.465969 0.299401 0.750000
Si Si5 0.337342 0.503845 0.116228
Si Si6 0.835378 0.424005 0.173778
Si Si7 0.724729 0.629616 0.489095
Si Si8 0.604148 0.548900 0.138140
O O1 0.923984 0.500637 0.129224
O O2 0.854173 0.642937 0.042143
O O3 0.082128 0.644360 0.079999
O O4 0.000000 0.500000 0.000000
O O5 0.560901 0.412525 0.750000
O O6 0.539038 0.659334 0.750000
O O7 0.704981 0.541618 0.686195
O O8 0.692063 0.134024 0.101718
O O9 0.814012 0.315556 0.127831
O O10 0.778678 0.250000 0.000000
O O11 0.407655 0.335366 0.680309
O O12 0.477903 0.490500 0.126827
O O13 0.279048 0.437038 0.056846
O O14 0.872813 0.404866 0.250000
O O15 0.705583 0.480631 0.175465
O O16 0.667672 0.750000 0.500000
O O17 0.651999 0.563698 0.434951
#
# Coordination Sequence:
#
# PCOD9438290 Si02
#       8
#     8   4   8   4   8   8   8   8
#     4  11  22  45  70  92 135 179 232 294 364 431
#     4  10  24  40  64  97 136 193 234 293 349 421
#     4  12  24  43  75 104 139 187 242 304 373 441
#     4  10  20  42  66  89 138 189 238 281 357 431
#     4  11  24  41  63 101 141 181 236 284 351 437
#     4  11  25  44  70 104 140 188 242 302 373 441
#     4  11  22  37  66  93 125 173 227 284 343 415
#     4  10  22  42  64  95 142 184 227 287 352 428
#
# _framework density 20.623418000000001
#
# number of rings (size 3 to 8) (size 9 to 14) (size 15 to 20)
#    0.000    1.143    3.571    2.571    1.000    6.857 
#    0.000    0.000    0.000    0.000    0.000    0.000 
#    0.000    0.000    0.000    0.000    0.000    0.000 
#
# Total GULP energy -311811.104269 kJ/mol
# GULP energy per Si atom -5568.055433 kJ/mol
# Density = 2.057648 g / cm^3
# Si number density = 20.623418 Si / 1000 Ang^3
#
#
#
# Elastic Constant Matrix: (Units=GPa)
#
#
# Indices 1 2 3 4 5 6 
#
# 1 50.6575 7.4785 16.9146 0.0000 0.0000 0.0000
# 2 7.4785 95.0862 52.7105 0.0000 0.0000 0.0000
# 3 16.9146 52.7105 185.7699 0.0000 0.0000 0.0000
# 4 0.0000 0.0000 0.0000 39.6783 0.0000 0.0000
# 5 0.0000 0.0000 0.0000 0.0000 -32.5431 0.0000
# 6 0.0000 0.0000 0.0000 0.0000 0.0000 199.8079
#
#
#
# Elastic Compliance Matrix: (Units=1/GPa)
#
#
# Indices 1 2 3 4 5 6 
#
# 1 0.020397 -0.000682 -0.001664 0.000000 0.000000 0.000000
# 2 -0.000682 0.012503 -0.003485 0.000000 0.000000 0.000000
# 3 -0.001664 -0.003485 0.006523 0.000000 0.000000 0.000000
# 4 0.000000 0.000000 0.000000 0.025203 0.000000 0.000000
# 5 0.000000 0.000000 0.000000 0.000000 -0.030728 0.000000
# 6 0.000000 0.000000 0.000000 0.000000 0.000000 0.005005
#
#
# Mechanical properties :
#
#
# Convention : Reuss Voigt Hill
#
# Bulk Modulus (GPa) = 36.02232 53.96899 44.99565
# Shear Modulus (GPa) = 83.58828 58.34928 70.96878
#
# Velocity S-wave (km/s) = 6.37328 5.32486 5.87252
# Velocity P-wave (km/s) = 8.46540 8.00195 8.23693
#
# Compressibility (1/GPa) = 0.02776056
#
# Stress axis : x y z
#
# Youngs Moduli (GPa) = 49.02787 79.98393 153.29373
#
# Poissons Ratio (x) = 0.05454 0.25503
# Poissons Ratio (y) = 0.03343 0.53429
# Poissons Ratio (z) = 0.08156 0.27877
#
# Static dielectric constant tensor:
#      x y z
#    x 1.789170 0.000000 0.000000 
#    y 0.000000 1.798410 0.000000 
#    z 0.000000 0.000000 1.816900 
# 
# From -- ./inp_files/25070.got.cif
#   From: 2010.05.17/outbox.cif.g08.bks.cpg/sg57_13_cif.got.tgz:25070.got - 2010.06.03 13:58:18.
