data_PCOD9438042
_publ_section_title
;
Structure prediction by ZEFSAII (Michael W. Deem and Ramdas Pophale) SiO2 
 PCOD9438042
Probable space group: P B C M
;
_chemical_formula_sum "Si O2"
_cell_formula_units_Z 40
_cell_length_a 9.834011
_cell_length_b 22.756773
_cell_length_c 9.324726
_cell_angle_alpha 90.000000
_cell_angle_beta 90.000000
_cell_angle_gamma 90.000000
_cell_volume 2086.783751
_symmetry_space_group_name_H-M "P B C M"
_symmetry_group_IT_number 57
_symmetry_cell_setting 'orthorhombic'
loop_
_space_group_symop_operation_xyz
x,y,z
-x,-y,1/2+z
x,1/2-y,-z
-x,1/2+y,1/2-z
-x,-y,-z
x,y,1/2-z
-x,1/2+y,z
x,1/2-y,1/2+z
loop_
_atom_site_type_symbol
_atom_site_label
_atom_site_fract_x
_atom_site_fract_y
_atom_site_fract_z
Si Si1 0.556906 0.694856 0.084202
Si Si2 0.991948 0.688987 0.579950
Si Si3 0.699839 0.147904 0.918582
Si Si4 0.203899 0.398002 0.582383
Si Si5 0.357393 0.512383 0.921787
O O1 0.539838 0.709977 0.250000
O O2 0.657149 0.639697 0.073237
O O3 0.617687 0.750000 0.000000
O O4 0.413550 0.679243 0.013289
O O5 0.960407 0.750000 0.500000
O O6 0.966334 0.694674 0.750000
O O7 0.904491 0.636035 0.513453
O O8 0.150685 0.673600 0.557937
O O9 0.666077 0.155299 0.750000
O O10 0.692686 0.078331 0.950559
O O11 0.161023 0.398158 0.750000
O O12 0.245438 0.463620 0.536990
O O13 0.378186 0.506200 0.750000
O O14 0.500000 0.500000 0.000000
#
# Coordination Sequence:
#
# PCOD9438042 Si02
#       5
#     8   8   8   8   8
#     4  11  22  36  57  86 116 152 200 246 296 352
#     4  11  24  41  60  86 119 159 201 245 298 354
#     4  10  22  39  61  88 120 156 196 244 296 352
#     4  10  22  39  60  88 120 156 197 244 295 352
#     4  10  20  38  62  90 123 155 194 244 295 350
#
# _framework density 19.168254999999998
#
# number of rings (size 3 to 8) (size 9 to 14) (size 15 to 20)
#    0.000    1.600    2.000    2.400    0.000    8.000 
#    0.000    0.000    0.000    0.000    0.000    0.000 
#    0.000    0.000    0.000    0.000    0.000    0.000 
#
# Total GULP energy -223571.842532 kJ/mol
# GULP energy per Si atom -5589.296063 kJ/mol
# Density = 1.912463 g / cm^3
# Si number density = 19.168255 Si / 1000 Ang^3
#
#
#
# Elastic Constant Matrix: (Units=GPa)
#
#
# Indices 1 2 3 4 5 6 
#
# 1 53.2359 -0.5097 38.0557 0.0000 0.0000 0.0000
# 2 -0.5097 85.0987 24.8942 0.0000 0.0000 0.0000
# 3 38.0557 24.8942 66.2032 0.0000 0.0000 0.0000
# 4 0.0000 0.0000 0.0000 27.5904 0.0000 0.0000
# 5 0.0000 0.0000 0.0000 0.0000 25.0524 0.0000
# 6 0.0000 0.0000 0.0000 0.0000 0.0000 26.3795
#
#
#
# Elastic Compliance Matrix: (Units=1/GPa)
#
#
# Indices 1 2 3 4 5 6 
#
# 1 0.035137 0.006875 -0.022783 0.000000 0.000000 0.000000
# 2 0.006875 0.014549 -0.009423 0.000000 0.000000 0.000000
# 3 -0.022783 -0.009423 0.031745 0.000000 0.000000 0.000000
# 4 0.000000 0.000000 0.000000 0.036245 0.000000 0.000000
# 5 0.000000 0.000000 0.000000 0.000000 0.039916 0.000000
# 6 0.000000 0.000000 0.000000 0.000000 0.000000 0.037908
#
#
# Mechanical properties :
#
#
# Convention : Reuss Voigt Hill
#
# Bulk Modulus (GPa) = 32.50037 36.60203 34.55120
# Shear Modulus (GPa) = 19.49957 25.27764 22.38860
#
# Velocity S-wave (km/s) = 3.19295 3.63536 3.42132
# Velocity P-wave (km/s) = 5.53040 6.06282 5.80272
#
# Compressibility (1/GPa) = 0.03076888
#
# Stress axis : x y z
#
# Youngs Moduli (GPa) = 28.46043 68.73454 31.50148
#
# Poissons Ratio (x) = -0.47256 0.71769
# Poissons Ratio (y) = -0.19567 0.29683
# Poissons Ratio (z) = 0.64841 0.64767
#
# Static dielectric constant tensor:
#      x y z
#    x 1.636430 0.000000 0.000000 
#    y 0.000000 1.703400 0.000000 
#    z 0.000000 0.000000 1.645460 
# 
# From -- ./inp_files/1503.got.cif
#   From: 2010.05.17/outbox.cif.g08.bks.cpg/sg57_1_cif.got.tgz:1503.got - 2010.06.03 13:58:18.
