data_PCOD9438711
_publ_section_title
;
Structure prediction by ZEFSAII (Michael W. Deem and Ramdas Pophale) SiO2 
 PCOD9438711
Probable space group: P B C M
;
_chemical_formula_sum "Si O2"
_cell_formula_units_Z 40
_cell_length_a 7.236241
_cell_length_b 8.067948
_cell_length_c 31.213756
_cell_angle_alpha 90.000000
_cell_angle_beta 90.000000
_cell_angle_gamma 90.000000
_cell_volume 1822.309520
_symmetry_space_group_name_H-M "P B C M"
_symmetry_group_IT_number 57
_symmetry_cell_setting 'orthorhombic'
loop_
_space_group_symop_operation_xyz
x,y,z
-x,-y,1/2+z
x,1/2-y,-z
-x,1/2+y,1/2-z
-x,-y,-z
x,y,1/2-z
-x,1/2+y,z
x,1/2-y,1/2+z
loop_
_atom_site_type_symbol
_atom_site_label
_atom_site_fract_x
_atom_site_fract_y
_atom_site_fract_z
Si Si1 0.355630 0.145160 0.095199
Si Si2 0.428600 0.745383 0.250000
Si Si3 0.078425 0.020005 0.342406
Si Si4 0.790941 0.909079 0.750000
Si Si5 0.421879 0.630198 0.533259
Si Si6 0.290557 0.666016 0.342523
O O1 0.184540 0.150224 0.127143
O O2 0.412280 0.278089 0.058981
O O3 0.537925 0.143296 0.125406
O O4 0.320192 0.974723 0.069173
O O5 0.650557 0.744178 0.250000
O O6 0.364986 0.658643 0.293961
O O7 0.338694 0.927112 0.250000
O O8 0.094016 0.082360 0.293322
O O9 0.862605 0.028200 0.352551
O O10 0.186805 0.845094 0.345714
O O11 0.315828 0.750000 0.500000
O O12 0.500000 0.500000 0.500000
#
# Coordination Sequence:
#
# PCOD9438711 Si02
#       6
#     8   4   8   4   8   8
#     4  11  20  39  66  91 122 158 207 251 305 366
#     4  10  21  38  58  87 127 169 207 249 297 348
#     4  11  24  38  60  92 127 168 209 251 298 353
#     4  10  21  38  58  87 127 169 209 247 299 346
#     4   9  20  38  66  94 116 157 197 248 320 380
#     4  11  24  38  60  92 127 167 210 250 297 355
#
# _framework density 21.950167
#
# number of rings (size 3 to 8) (size 9 to 14) (size 15 to 20)
#    0.000    1.600    4.000    0.600    2.800    1.600 
#    0.000    0.000    0.000   24.000    0.000    0.000 
#    0.000    0.000    0.000    0.000    0.000    0.000 
#
# Total GULP energy -223137.219878 kJ/mol
# GULP energy per Si atom -5578.430497 kJ/mol
# Density = 2.190021 g / cm^3
# Si number density = 21.950167 Si / 1000 Ang^3
#
#
#
# Elastic Constant Matrix: (Units=GPa)
#
#
# Indices 1 2 3 4 5 6 
#
# 1 43.6110 6.8459 26.2558 0.0000 0.0000 0.0000
# 2 6.8459 56.0779 44.6749 0.0000 0.0000 0.0000
# 3 26.2558 44.6749 160.1002 0.0000 0.0000 0.0000
# 4 0.0000 0.0000 0.0000 28.9609 0.0000 0.0000
# 5 0.0000 0.0000 0.0000 0.0000 -0.4854 0.0000
# 6 0.0000 0.0000 0.0000 0.0000 0.0000 20.9415
#
#
#
# Elastic Compliance Matrix: (Units=1/GPa)
#
#
# Indices 1 2 3 4 5 6 
#
# 1 0.025445 0.000280 -0.004251 0.000000 0.000000 0.000000
# 2 0.000280 0.022933 -0.006445 0.000000 0.000000 0.000000
# 3 -0.004251 -0.006445 0.008742 0.000000 0.000000 0.000000
# 4 0.000000 0.000000 0.000000 0.034529 0.000000 0.000000
# 5 0.000000 0.000000 0.000000 0.000000 -2.060147 0.000000
# 6 0.000000 0.000000 0.000000 0.000000 0.000000 0.047752
#
#
# Mechanical properties :
#
#
# Convention : Reuss Voigt Hill
#
# Bulk Modulus (GPa) = 27.55742 46.14915 36.85329
# Shear Modulus (GPa) = -2.64856 22.01756 9.68450
#
# Velocity S-wave (km/s) = -1.09966 3.17056 2.10276
# Velocity P-wave (km/s) = 3.31202 5.87141 4.76670
#
# Compressibility (1/GPa) = 0.03628786
#
# Stress axis : x y z
#
# Youngs Moduli (GPa) = 39.29988 43.60577 114.39344
#
# Poissons Ratio (x) = -0.01223 0.48631
# Poissons Ratio (y) = -0.01102 0.73729
# Poissons Ratio (z) = 0.16707 0.28105
#
# Static dielectric constant tensor:
#      x y z
#    x 1.747410 0.000000 0.000000 
#    y 0.000000 2.013790 0.000000 
#    z 0.000000 0.000000 1.831130 
# 
# From -- ./inp_files/29382.got.cif
#   From: 2010.05.17/outbox.cif.g08.bks.cpg/sg57_15_cif.got.tgz:29382.got - 2010.06.03 13:58:18.
