data_PCOD9438142
_publ_section_title
;
Structure prediction by ZEFSAII (Michael W. Deem and Ramdas Pophale) SiO2 
 PCOD9438142
Probable space group: P B C M
;
_chemical_formula_sum "Si O2"
_cell_formula_units_Z 64
_cell_length_a 10.694627
_cell_length_b 8.930940
_cell_length_c 33.359946
_cell_angle_alpha 90.000000
_cell_angle_beta 90.000000
_cell_angle_gamma 90.000000
_cell_volume 3186.310926
_symmetry_space_group_name_H-M "P B C M"
_symmetry_group_IT_number 57
_symmetry_cell_setting 'orthorhombic'
loop_
_space_group_symop_operation_xyz
x,y,z
-x,-y,1/2+z
x,1/2-y,-z
-x,1/2+y,1/2-z
-x,-y,-z
x,y,1/2-z
-x,1/2+y,z
x,1/2-y,1/2+z
loop_
_atom_site_type_symbol
_atom_site_label
_atom_site_fract_x
_atom_site_fract_y
_atom_site_fract_z
Si Si1 0.645260 0.274605 0.121678
Si Si2 0.331686 0.260181 0.043360
Si Si3 0.507196 0.476989 0.924958
Si Si4 0.227378 0.258329 0.795094
Si Si5 0.297280 0.602250 0.705769
Si Si6 0.097732 0.621335 0.377247
Si Si7 0.163049 0.295050 0.116548
Si Si8 0.931655 0.186057 0.207839
O O1 0.570138 0.125688 0.109372
O O2 0.590380 0.408822 0.095254
O O3 0.635345 0.321401 0.168254
O O4 0.790733 0.236416 0.113280
O O5 0.441213 0.137115 0.044849
O O6 0.391051 0.421622 0.052759
O O7 0.246983 0.226780 0.081699
O O8 0.269332 0.250000 0.000000
O O9 0.265313 0.198131 0.750000
O O10 0.287824 0.424105 0.797640
O O11 0.239350 0.196993 0.841030
O O12 0.076796 0.275671 0.792746
O O13 0.347807 0.641612 0.750000
O O14 0.154611 0.666358 0.704764
O O15 0.121532 0.461647 0.396719
O O16 0.104928 0.587562 0.329617
O O17 0.962718 0.696419 0.381173
O O18 0.902324 0.110400 0.250000
#
# Coordination Sequence:
#
# PCOD9438142 Si02
#       8
#     8   8   8   8   8   8   8   8
#     4  10  20  39  62  89 118 157 202 253 301 362
#     4  11  23  43  67  93 121 151 201 257 308 368
#     4  10  22  40  69  90 112 150 202 258 314 350
#     4   9  18  29  50  83 118 159 205 244 288 347
#     4   9  17  31  49  77 117 159 199 245 294 347
#     4  10  22  35  57  84 124 159 199 238 299 368
#     4  11  23  37  59  89 124 166 197 242 302 369
#     4   8  16  26  44  72 108 151 197 238 278 329
#
# _framework density 20.085923000000001
#
# number of rings (size 3 to 8) (size 9 to 14) (size 15 to 20)
#    0.000    2.250    1.250    1.125   12.250    0.500 
#    0.000    1.250    0.000    3.000    0.000    0.000 
#    0.000    0.000    0.000    0.000    0.000    0.000 
#
# Total GULP energy -356628.130048 kJ/mol
# GULP energy per Si atom -5572.314532 kJ/mol
# Density = 2.004021 g / cm^3
# Si number density = 20.085923 Si / 1000 Ang^3
#
#
#
# Elastic Constant Matrix: (Units=GPa)
#
#
# Indices 1 2 3 4 5 6 
#
# 1 27.7472 4.7915 17.9867 0.0000 0.0000 0.0000
# 2 4.7915 61.2882 4.9944 0.0000 0.0000 0.0000
# 3 17.9867 4.9944 91.0508 0.0000 0.0000 0.0000
# 4 0.0000 0.0000 0.0000 11.0615 0.0000 0.0000
# 5 0.0000 0.0000 0.0000 0.0000 -10.6474 0.0000
# 6 0.0000 0.0000 0.0000 0.0000 0.0000 21.8865
#
#
#
# Elastic Compliance Matrix: (Units=1/GPa)
#
#
# Indices 1 2 3 4 5 6 
#
# 1 0.041742 -0.002603 -0.008103 0.000000 0.000000 0.000000
# 2 -0.002603 0.016552 -0.000394 0.000000 0.000000 0.000000
# 3 -0.008103 -0.000394 0.012605 0.000000 0.000000 0.000000
# 4 0.000000 0.000000 0.000000 0.090404 0.000000 0.000000
# 5 0.000000 0.000000 0.000000 0.000000 -0.093919 0.000000
# 6 0.000000 0.000000 0.000000 0.000000 0.000000 0.045690
#
#
# Mechanical properties :
#
#
# Convention : Reuss Voigt Hill
#
# Bulk Modulus (GPa) = 20.53419 26.18126 23.35772
# Shear Modulus (GPa) = 33.00190 14.61437 23.80813
#
# Velocity S-wave (km/s) = 4.05784 2.70032 3.44657
# Velocity P-wave (km/s) = 5.67451 4.77339 5.24334
#
# Compressibility (1/GPa) = 0.04869928
#
# Stress axis : x y z
#
# Youngs Moduli (GPa) = 23.95675 60.41593 79.33220
#
# Poissons Ratio (x) = 0.15726 0.64284
# Poissons Ratio (y) = 0.06236 0.03123
# Poissons Ratio (z) = 0.19413 0.02379
#
# Static dielectric constant tensor:
#      x y z
#    x 1.709500 0.000000 0.000000 
#    y 0.000000 1.719380 0.000000 
#    z 0.000000 0.000000 1.768500 
# 
# From -- ./inp_files/29779.got.cif
#   From: 2010.05.17/outbox.cif.g08.bks.cpg/sg57_15_cif.got.tgz:29779.got - 2010.06.03 13:58:18.
