data_PCOD9438899
_publ_section_title
;
Structure prediction by ZEFSAII (Michael W. Deem and Ramdas Pophale) SiO2 
 PCOD9438899
Probable space group: P B C M
;
_chemical_formula_sum "Si O2"
_cell_formula_units_Z 48
_cell_length_a 12.894312
_cell_length_b 9.580690
_cell_length_c 17.067885
_cell_angle_alpha 90.000000
_cell_angle_beta 90.000000
_cell_angle_gamma 90.000000
_cell_volume 2108.505172
_symmetry_space_group_name_H-M "P B C M"
_symmetry_group_IT_number 57
_symmetry_cell_setting 'orthorhombic'
loop_
_space_group_symop_operation_xyz
x,y,z
-x,-y,1/2+z
x,1/2-y,-z
-x,1/2+y,1/2-z
-x,-y,-z
x,y,1/2-z
-x,1/2+y,z
x,1/2-y,1/2+z
loop_
_atom_site_type_symbol
_atom_site_label
_atom_site_fract_x
_atom_site_fract_y
_atom_site_fract_z
Si Si1 0.278621 0.389474 0.339828
Si Si2 0.568429 0.488440 0.422604
Si Si3 0.925066 0.384085 0.397628
Si Si4 0.240219 0.086303 0.161474
Si Si5 0.121494 0.568812 0.080633
Si Si6 0.496021 0.753728 0.660772
O O1 0.275055 0.438181 0.250000
O O2 0.210255 0.247879 0.347267
O O3 0.233766 0.510211 0.394191
O O4 0.393163 0.324319 0.353531
O O5 0.500000 0.500000 0.500000
O O6 0.682259 0.551629 0.410421
O O7 0.507385 0.585427 0.359941
O O8 0.578248 0.328873 0.396907
O O9 0.851778 0.477662 0.343689
O O10 0.889221 0.412330 0.487485
O O11 0.910053 0.219279 0.383681
O O12 0.039149 0.450788 0.393117
O O13 0.289179 0.076701 0.250000
O O14 0.465628 0.734460 0.750000
#
# Coordination Sequence:
#
# PCOD9438899 Si02
#       6
#     8   8   8   8   8   8
#     4   9  20  37  61  87 117 157 204 250 305 369
#     4  11  23  39  61  92 123 161 212 262 314 374
#     4  10  22  38  61  89 123 164 204 254 317 367
#     4  10  22  41  61  87 125 167 208 258 318 381
#     4  10  21  39  60  91 125 159 208 259 306 373
#     4  10  21  40  62  87 123 166 205 256 318 376
#
# _framework density 22.764942999999999
#
# number of rings (size 3 to 8) (size 9 to 14) (size 15 to 20)
#    0.000    2.000    0.000    4.000    2.333    4.667 
#    3.000    1.667    0.000    0.000    0.000    0.000 
#    0.000    0.000    0.000    0.000    0.000    0.000 
#
# Total GULP energy -267835.862823 kJ/mol
# GULP energy per Si atom -5579.913809 kJ/mol
# Density = 2.271313 g / cm^3
# Si number density = 22.764943 Si / 1000 Ang^3
#
#
#
# Elastic Constant Matrix: (Units=GPa)
#
#
# Indices 1 2 3 4 5 6 
#
# 1 34.5638 14.1165 31.2347 0.0000 0.0000 0.0000
# 2 14.1165 100.9692 15.9264 0.0000 0.0000 0.0000
# 3 31.2347 15.9264 57.0534 0.0000 0.0000 0.0000
# 4 0.0000 0.0000 0.0000 31.1897 0.0000 0.0000
# 5 0.0000 0.0000 0.0000 0.0000 28.7900 0.0000
# 6 0.0000 0.0000 0.0000 0.0000 0.0000 38.9641
#
#
#
# Elastic Compliance Matrix: (Units=1/GPa)
#
#
# Indices 1 2 3 4 5 6 
#
# 1 0.058268 -0.003258 -0.030990 0.000000 0.000000 0.000000
# 2 -0.003258 0.010542 -0.001159 0.000000 0.000000 0.000000
# 3 -0.030990 -0.001159 0.034817 0.000000 0.000000 0.000000
# 4 0.000000 0.000000 0.000000 0.032062 0.000000 0.000000
# 5 0.000000 0.000000 0.000000 0.000000 0.034734 0.000000
# 6 0.000000 0.000000 0.000000 0.000000 0.000000 0.025665
#
#
# Mechanical properties :
#
#
# Convention : Reuss Voigt Hill
#
# Bulk Modulus (GPa) = 30.47628 35.01571 32.74600
# Shear Modulus (GPa) = 17.99595 28.54267 23.26931
#
# Velocity S-wave (km/s) = 2.81465 3.54474 3.20059
# Velocity P-wave (km/s) = 4.89688 5.67172 5.29849
#
# Compressibility (1/GPa) = 0.03281241
#
# Stress axis : x y z
#
# Youngs Moduli (GPa) = 17.16213 94.85523 28.72163
#
# Poissons Ratio (x) = 0.30906 0.89008
# Poissons Ratio (y) = 0.05592 0.03329
# Poissons Ratio (z) = 0.53185 0.10995
#
# Static dielectric constant tensor:
#      x y z
#    x 1.951490 0.000000 0.000000 
#    y 0.000000 1.832100 0.000000 
#    z 0.000000 0.000000 1.855910 
# 
# From -- ./inp_files/22395.got.cif
#   From: 2010.05.17/outbox.cif.g08.bks.cpg/sg57_12_cif.got.tgz:22395.got - 2010.06.03 13:58:18.
