data_PCOD9438872
_publ_section_title
;
Structure prediction by ZEFSAII (Michael W. Deem and Ramdas Pophale) SiO2 
 PCOD9438872
Probable space group: P B C M
;
_chemical_formula_sum "Si O2"
_cell_formula_units_Z 64
_cell_length_a 10.939605
_cell_length_b 18.289240
_cell_length_c 13.857081
_cell_angle_alpha 90.000000
_cell_angle_beta 90.000000
_cell_angle_gamma 90.000000
_cell_volume 2772.484045
_symmetry_space_group_name_H-M "P B C M"
_symmetry_group_IT_number 57
_symmetry_cell_setting 'orthorhombic'
loop_
_space_group_symop_operation_xyz
x,y,z
-x,-y,1/2+z
x,1/2-y,-z
-x,1/2+y,1/2-z
-x,-y,-z
x,y,1/2-z
-x,1/2+y,z
x,1/2-y,1/2+z
loop_
_atom_site_type_symbol
_atom_site_label
_atom_site_fract_x
_atom_site_fract_y
_atom_site_fract_z
Si Si1 0.392641 0.475801 0.868509
Si Si2 0.931667 0.824645 0.961732
Si Si3 0.717005 0.368806 0.133479
Si Si4 0.401973 0.779444 0.640459
Si Si5 0.072393 0.951336 0.864274
Si Si6 0.668574 0.687976 0.416381
Si Si7 0.004314 0.893448 0.137295
Si Si8 0.660324 0.060082 0.132857
O O1 0.376532 0.465535 0.750000
O O2 0.328528 0.551149 0.899270
O O3 0.350492 0.400567 0.920223
O O4 0.537045 0.482632 0.889946
O O5 0.813961 0.809317 0.895415
O O6 0.902578 0.863732 0.064159
O O7 0.024014 0.878161 0.910674
O O8 0.987395 0.750000 0.000000
O O9 0.699946 0.372518 0.250000
O O10 0.641837 0.297836 0.098428
O O11 0.861960 0.360497 0.117765
O O12 0.354997 0.778541 0.750000
O O13 0.548901 0.787891 0.643111
O O14 0.352282 0.855809 0.598818
O O15 0.074857 0.940402 0.750000
O O16 0.209031 0.969974 0.897291
O O17 0.985570 0.020054 0.882222
O O18 0.661443 0.750000 0.500000
O O19 0.973303 0.883036 0.250000
O O20 0.660776 0.061985 0.250000
#
# Coordination Sequence:
#
# PCOD9438872 Si02
#       8
#     8   8   8   8   8   8   8   8
#     4   9  17  35  61  86 115 157 203 256 323 381
#     4  11  25  41  60  89 129 170 212 266 316 383
#     4   9  18  34  62  94 118 149 206 266 317 384
#     4   9  18  36  62  87 117 155 198 259 318 369
#     4  10  21  39  65  94 126 171 216 263 325 389
#     4  10  21  39  55  79 122 155 201 256 302 376
#     4  10  22  42  65  91 124 167 218 272 324 381
#     4   8  16  32  56  87 121 154 199 252 307 381
#
# _framework density 23.083991999999999
#
# number of rings (size 3 to 8) (size 9 to 14) (size 15 to 20)
#    0.000    2.500    0.000    2.250    1.750    2.500 
#    9.000    4.375    0.000    0.000    0.000    0.000 
#    0.000    0.000    0.000    0.000    0.000    0.000 
#
# Total GULP energy -356750.416901 kJ/mol
# GULP energy per Si atom -5574.225264 kJ/mol
# Density = 2.303145 g / cm^3
# Si number density = 23.083992 Si / 1000 Ang^3
#
#
#
# Elastic Constant Matrix: (Units=GPa)
#
#
# Indices 1 2 3 4 5 6 
#
# 1 66.2774 27.0343 14.3630 0.0000 0.0000 0.0000
# 2 27.0343 111.7624 26.9189 0.0000 0.0000 0.0000
# 3 14.3630 26.9189 44.9393 0.0000 0.0000 0.0000
# 4 0.0000 0.0000 0.0000 24.2806 0.0000 0.0000
# 5 0.0000 0.0000 0.0000 0.0000 10.4933 0.0000
# 6 0.0000 0.0000 0.0000 0.0000 0.0000 -221.1276
#
#
#
# Elastic Compliance Matrix: (Units=1/GPa)
#
#
# Indices 1 2 3 4 5 6 
#
# 1 0.017201 -0.003315 -0.003512 0.000000 0.000000 0.000000
# 2 -0.003315 0.011095 -0.005586 0.000000 0.000000 0.000000
# 3 -0.003512 -0.005586 0.026721 0.000000 0.000000 0.000000
# 4 0.000000 0.000000 0.000000 0.041185 0.000000 0.000000
# 5 0.000000 0.000000 0.000000 0.000000 0.095299 0.000000
# 6 0.000000 0.000000 0.000000 0.000000 0.000000 -0.004522
#
#
# Mechanical properties :
#
#
# Convention : Reuss Voigt Hill
#
# Bulk Modulus (GPa) = 33.12304 39.95683 36.53993
# Shear Modulus (GPa) = 22.53581 -26.95986 -2.21203
#
# Velocity S-wave (km/s) = 3.12789 -3.42117 -0.97997
# Velocity P-wave (km/s) = 5.23689 1.31949 3.81877
#
# Compressibility (1/GPa) = 0.03019047
#
# Stress axis : x y z
#
# Youngs Moduli (GPa) = 58.13500 90.13110 37.42374
#
# Poissons Ratio (x) = 0.29878 0.13143
# Poissons Ratio (y) = 0.19271 0.20907
# Poissons Ratio (z) = 0.20417 0.50351
#
# Static dielectric constant tensor:
#      x y z
#    x 1.843380 0.000000 0.000000 
#    y 0.000000 1.864300 0.000000 
#    z 0.000000 0.000000 1.949980 
# 
# From -- ./inp_files/17955.got.cif
#   From: 2010.05.17/outbox.cif.g08.bks.cpg/sg57_9_cif.got.tgz:17955.got - 2010.06.03 13:58:18.
