data_PCOD9438322
_publ_section_title
;
Structure prediction by ZEFSAII (Michael W. Deem and Ramdas Pophale) SiO2 
 PCOD9438322
Probable space group: P B C M
;
_chemical_formula_sum "Si O2"
_cell_formula_units_Z 48
_cell_length_a 10.127710
_cell_length_b 17.693403
_cell_length_c 13.888455
_cell_angle_alpha 90.000000
_cell_angle_beta 90.000000
_cell_angle_gamma 90.000000
_cell_volume 2488.723007
_symmetry_space_group_name_H-M "P B C M"
_symmetry_group_IT_number 57
_symmetry_cell_setting 'orthorhombic'
loop_
_space_group_symop_operation_xyz
x,y,z
-x,-y,1/2+z
x,1/2-y,-z
-x,1/2+y,1/2-z
-x,-y,-z
x,y,1/2-z
-x,1/2+y,z
x,1/2-y,1/2+z
loop_
_atom_site_type_symbol
_atom_site_label
_atom_site_fract_x
_atom_site_fract_y
_atom_site_fract_z
Si Si1 0.996163 0.174317 0.456077
Si Si2 0.216999 0.407085 0.250000
Si Si3 0.804784 0.448107 0.458979
Si Si4 0.738765 0.617308 0.534345
Si Si5 0.352643 0.572139 0.250000
Si Si6 0.463752 0.915783 0.536861
Si Si7 0.926730 0.472006 0.250000
Si Si8 0.936649 0.136527 0.250000
O O1 0.937217 0.250000 0.500000
O O2 0.921604 0.098716 0.491244
O O3 0.979909 0.179840 0.343525
O O4 0.147390 0.165408 0.485527
O O5 0.256420 0.370387 0.148839
O O6 0.294135 0.487305 0.250000
O O7 0.058522 0.420225 0.250000
O O8 0.780707 0.529322 0.510561
O O9 0.671842 0.400278 0.479754
O O10 0.842438 0.459955 0.347366
O O11 0.593588 0.630566 0.491437
O O12 0.432735 0.584231 0.349104
O O13 0.220291 0.622534 0.250000
O O14 0.500000 0.000000 0.500000
O O15 0.987467 0.556194 0.250000
#
# Coordination Sequence:
#
# PCOD9438322 Si02
#       8
#     8   4   8   8   4   8   4   4
#     4  12  25  41  63  92 125 164 215 257 304 375
#     4  11  18  30  58  86 125 156 187 253 329 349
#     4  11  20  38  60  94 118 160 208 258 301 365
#     4  11  22  38  59  91 125 160 202 258 314 369
#     4  11  18  34  60  91 125 161 199 257 318 368
#     4  10  21  33  58  92 126 154 203 257 314 369
#     4  11  20  31  67  93 122 155 213 257 315 362
#     4  11  22  39  67  92 118 174 205 259 318 367
#
# _framework density 19.286999999999999
#
# number of rings (size 3 to 8) (size 9 to 14) (size 15 to 20)
#    0.000    1.000    8.333    1.500    0.000    5.333 
#    0.000    0.833    0.000    0.000    0.000    0.000 
#    0.000    0.000    0.000    0.000    0.000    0.000 
#
# Total GULP energy -267946.906091 kJ/mol
# GULP energy per Si atom -5582.227210 kJ/mol
# Density = 1.924310 g / cm^3
# Si number density = 19.287000 Si / 1000 Ang^3
#
#
#
# Elastic Constant Matrix: (Units=GPa)
#
#
# Indices 1 2 3 4 5 6 
#
# 1 137.1439 8.9244 70.5907 0.0000 0.0000 0.0000
# 2 8.9244 30.9491 18.5908 0.0000 0.0000 0.0000
# 3 70.5907 18.5908 221.6785 0.0000 0.0000 0.0000
# 4 0.0000 0.0000 0.0000 -6.4294 0.0000 0.0000
# 5 0.0000 0.0000 0.0000 0.0000 53.2173 0.0000
# 6 0.0000 0.0000 0.0000 0.0000 0.0000 -0.1317
#
#
#
# Elastic Compliance Matrix: (Units=1/GPa)
#
#
# Indices 1 2 3 4 5 6 
#
# 1 0.008744 -0.000894 -0.002710 0.000000 0.000000 0.000000
# 2 -0.000894 0.034117 -0.002576 0.000000 0.000000 0.000000
# 3 -0.002710 -0.002576 0.005590 0.000000 0.000000 0.000000
# 4 0.000000 0.000000 0.000000 -0.155536 0.000000 0.000000
# 5 0.000000 0.000000 0.000000 0.000000 0.018791 0.000000
# 6 0.000000 0.000000 0.000000 0.000000 0.000000 -7.595819
#
#
# Mechanical properties :
#
#
# Convention : Reuss Voigt Hill
#
# Bulk Modulus (GPa) = 27.70773 65.10925 46.40849
# Shear Modulus (GPa) = -0.65277 28.77563 14.06143
#
# Velocity S-wave (km/s) = -0.58239 3.86679 2.70305
# Velocity P-wave (km/s) = 3.73429 7.33263 5.81861
#
# Compressibility (1/GPa) = 0.03609101
#
# Stress axis : x y z
#
# Youngs Moduli (GPa) = 114.35807 29.31126 178.89256
#
# Poissons Ratio (x) = 0.02620 0.48473
# Poissons Ratio (y) = 0.10222 0.46092
# Poissons Ratio (z) = 0.30986 0.07552
#
# Static dielectric constant tensor:
#      x y z
#    x 1.723750 0.000000 0.000000 
#    y 0.000000 1.722230 0.000000 
#    z 0.000000 0.000000 1.661930 
# 
# From -- ./inp_files/16611.got.cif
#   From: 2010.05.17/outbox.cif.g08.bks.cpg/sg57_9_cif.got.tgz:16611.got - 2010.06.03 13:58:18.
