data_PCOD9438749
_publ_section_title
;
Structure prediction by ZEFSAII (Michael W. Deem and Ramdas Pophale) SiO2 
 PCOD9438749
Probable space group: P B C M
;
_chemical_formula_sum "Si O2"
_cell_formula_units_Z 40
_cell_length_a 12.520985
_cell_length_b 9.539742
_cell_length_c 13.890584
_cell_angle_alpha 90.000000
_cell_angle_beta 90.000000
_cell_angle_gamma 90.000000
_cell_volume 1659.188122
_symmetry_space_group_name_H-M "P B C M"
_symmetry_group_IT_number 57
_symmetry_cell_setting 'orthorhombic'
loop_
_space_group_symop_operation_xyz
x,y,z
-x,-y,1/2+z
x,1/2-y,-z
-x,1/2+y,1/2-z
-x,-y,-z
x,y,1/2-z
-x,1/2+y,z
x,1/2-y,1/2+z
loop_
_atom_site_type_symbol
_atom_site_label
_atom_site_fract_x
_atom_site_fract_y
_atom_site_fract_z
Si Si1 0.684001 0.326289 0.864549
Si Si2 0.247388 0.525903 0.637276
Si Si3 0.451901 0.123086 0.064790
Si Si4 0.939656 0.676075 0.367844
Si Si5 0.866192 0.984592 0.132380
O O1 0.699200 0.325258 0.750000
O O2 0.557757 0.324162 0.881377
O O3 0.748067 0.464503 0.898910
O O4 0.732694 0.180879 0.902998
O O5 0.223033 0.544851 0.750000
O O6 0.356660 0.439115 0.627080
O O7 0.150168 0.434171 0.598708
O O8 0.410214 0.250000 0.000000
O O9 0.500000 0.000000 0.000000
O O10 0.938436 0.679300 0.250000
O O11 0.053188 0.609968 0.394708
O O12 0.910271 0.833335 0.399280
O O13 0.865902 0.976182 0.250000
#
# Coordination Sequence:
#
# PCOD9438749 Si02
#       5
#     8   8   8   8   8
#     4  10  21  38  60  86 116 151 194 240 284 339
#     4  10  21  38  60  86 116 151 194 239 284 340
#     4  12  25  42  59  82 116 156 194 239 292 345
#     4   9  17  30  53  85 117 148 185 234 286 336
#     4   9  17  30  53  85 117 148 185 233 286 337
#
# _framework density 24.108177999999999
#
# number of rings (size 3 to 8) (size 9 to 14) (size 15 to 20)
#    0.000    2.000    2.000    1.800    2.800    4.800 
#    0.000    0.000    0.000    2.400    0.000    0.000 
#    0.000    0.000    0.000    0.000    0.000    0.000 
#
# Total GULP energy -223832.137746 kJ/mol
# GULP energy per Si atom -5595.803444 kJ/mol
# Density = 2.405331 g / cm^3
# Si number density = 24.108178 Si / 1000 Ang^3
#
#
#
# Elastic Constant Matrix: (Units=GPa)
#
#
# Indices 1 2 3 4 5 6 
#
# 1 97.5043 18.8718 -8.2451 0.0000 0.0000 0.0000
# 2 18.8718 129.6398 14.7992 0.0000 0.0000 0.0000
# 3 -8.2451 14.7992 54.1613 0.0000 0.0000 0.0000
# 4 0.0000 0.0000 0.0000 29.2044 0.0000 0.0000
# 5 0.0000 0.0000 0.0000 0.0000 20.6349 0.0000
# 6 0.0000 0.0000 0.0000 0.0000 0.0000 32.1543
#
#
#
# Elastic Compliance Matrix: (Units=1/GPa)
#
#
# Indices 1 2 3 4 5 6 
#
# 1 0.010788 -0.001814 0.002138 0.000000 0.000000 0.000000
# 2 -0.001814 0.008267 -0.002535 0.000000 0.000000 0.000000
# 3 0.002138 -0.002535 0.019482 0.000000 0.000000 0.000000
# 4 0.000000 0.000000 0.000000 0.034241 0.000000 0.000000
# 5 0.000000 0.000000 0.000000 0.000000 0.048462 0.000000
# 6 0.000000 0.000000 0.000000 0.000000 0.000000 0.031100
#
#
# Mechanical properties :
#
#
# Convention : Reuss Voigt Hill
#
# Bulk Modulus (GPa) = 29.31385 36.90634 33.11010
# Shear Modulus (GPa) = 29.73817 33.45736 31.59776
#
# Velocity S-wave (km/s) = 3.51598 3.72936 3.62424
# Velocity P-wave (km/s) = 5.35429 5.82117 5.59261
#
# Compressibility (1/GPa) = 0.03411356
#
# Stress axis : x y z
#
# Youngs Moduli (GPa) = 92.69602 120.95957 51.33051
#
# Poissons Ratio (x) = 0.21948 -0.10975
# Poissons Ratio (y) = 0.16820 0.13013
# Poissons Ratio (z) = -0.19819 0.30666
#
# Static dielectric constant tensor:
#      x y z
#    x 1.907620 0.000000 0.000000 
#    y 0.000000 1.878940 0.000000 
#    z 0.000000 0.000000 1.978920 
# 
# From -- ./inp_files/18195.got.cif
#   From: 2010.05.17/outbox.cif.g08.bks.cpg/sg57_10_cif.got.tgz:18195.got - 2010.06.03 13:58:18.
