data_PCOD9438033
_publ_section_title
;
Structure prediction by ZEFSAII (Michael W. Deem and Ramdas Pophale) SiO2 
 PCOD9438033
Probable space group: P B C M
;
_chemical_formula_sum "Si O2"
_cell_formula_units_Z 64
_cell_length_a 10.337606
_cell_length_b 9.747457
_cell_length_c 29.148304
_cell_angle_alpha 90.000000
_cell_angle_beta 90.000000
_cell_angle_gamma 90.000000
_cell_volume 2937.139636
_symmetry_space_group_name_H-M "P B C M"
_symmetry_group_IT_number 57
_symmetry_cell_setting 'orthorhombic'
loop_
_space_group_symop_operation_xyz
x,y,z
-x,-y,1/2+z
x,1/2-y,-z
-x,1/2+y,1/2-z
-x,-y,-z
x,y,1/2-z
-x,1/2+y,z
x,1/2-y,1/2+z
loop_
_atom_site_type_symbol
_atom_site_label
_atom_site_fract_x
_atom_site_fract_y
_atom_site_fract_z
Si Si1 0.355625 0.975381 0.698599
Si Si2 0.032885 0.641204 0.130980
Si Si3 0.778972 0.191950 0.804131
Si Si4 0.272338 0.141077 0.966753
Si Si5 0.158193 0.366268 0.366270
Si Si6 0.493220 0.746226 0.414648
Si Si7 0.221354 0.847972 0.541916
Si Si8 0.397370 0.999672 0.145730
O O1 0.318268 0.010643 0.750000
O O2 0.271208 0.073290 0.665699
O O3 0.505211 0.993979 0.688498
O O4 0.329393 0.812968 0.692134
O O5 0.107990 0.725804 0.170287
O O6 0.044671 0.479287 0.140118
O O7 0.110901 0.659579 0.082147
O O8 0.893903 0.711984 0.135048
O O9 0.802332 0.165071 0.750000
O O10 0.734690 0.058731 0.832682
O O11 0.207510 0.123130 0.917709
O O12 0.414380 0.197303 0.954718
O O13 0.254043 0.989389 0.985037
O O14 0.207748 0.250000 0.000000
O O15 0.358841 0.682958 0.432992
O O16 0.576833 0.637716 0.384086
O O17 0.451132 0.878259 0.386120
O O18 0.186884 0.750000 0.500000
#
# Coordination Sequence:
#
# PCOD9438033 Si02
#       8
#     8   8   8   8   8   8   8   8
#     4  10  20  38  62  88 122 160 196 247 304 359
#     4  10  22  42  63  85 119 161 203 253 306 359
#     4  10  21  38  62  91 123 160 201 247 303 362
#     4  11  25  41  61  91 123 160 205 254 306 366
#     4  10  22  42  62  85 118 157 203 253 306 359
#     4  12  22  38  64  89 127 163 199 244 299 362
#     4  11  24  41  61  91 125 161 202 252 313 367
#     4  12  20  38  63  90 124 164 197 240 300 362
#
# _framework density 21.789905999999998
#
# number of rings (size 3 to 8) (size 9 to 14) (size 15 to 20)
#    0.000    1.250    5.000    1.500    1.750    4.000 
#    0.000    2.500    0.000    0.000    0.000    0.000 
#    0.000    0.000    0.000    0.000    0.000    0.000 
#
# Total GULP energy -356797.905057 kJ/mol
# GULP energy per Si atom -5574.967267 kJ/mol
# Density = 2.174031 g / cm^3
# Si number density = 21.789906 Si / 1000 Ang^3
#
#
#
# Elastic Constant Matrix: (Units=GPa)
#
#
# Indices 1 2 3 4 5 6 
#
# 1 20.3484 2.9622 -10.5259 0.0000 0.0000 0.0000
# 2 2.9622 103.8116 29.4279 0.0000 0.0000 0.0000
# 3 -10.5259 29.4279 81.5931 0.0000 0.0000 0.0000
# 4 0.0000 0.0000 0.0000 27.5692 0.0000 0.0000
# 5 0.0000 0.0000 0.0000 0.0000 13.5145 0.0000
# 6 0.0000 0.0000 0.0000 0.0000 0.0000 31.9787
#
#
#
# Elastic Compliance Matrix: (Units=1/GPa)
#
#
# Indices 1 2 3 4 5 6 
#
# 1 0.054053 -0.003920 0.008387 0.000000 0.000000 0.000000
# 2 -0.003920 0.011014 -0.004478 0.000000 0.000000 0.000000
# 3 0.008387 -0.004478 0.014953 0.000000 0.000000 0.000000
# 4 0.000000 0.000000 0.000000 0.036272 0.000000 0.000000
# 5 0.000000 0.000000 0.000000 0.000000 0.073994 0.000000
# 6 0.000000 0.000000 0.000000 0.000000 0.000000 0.031271
#
#
# Mechanical properties :
#
#
# Convention : Reuss Voigt Hill
#
# Bulk Modulus (GPa) = 12.50034 27.72016 20.11025
# Shear Modulus (GPa) = 20.14134 26.87175 23.50655
#
# Velocity S-wave (km/s) = 3.04360 3.51553 3.28804
# Velocity P-wave (km/s) = 4.25447 5.40628 4.86458
#
# Compressibility (1/GPa) = 0.07999784
#
# Stress axis : x y z
#
# Youngs Moduli (GPa) = 18.50039 90.79264 66.87637
#
# Poissons Ratio (x) = 0.35589 -0.56088
# Poissons Ratio (y) = 0.07252 0.29948
# Poissons Ratio (z) = -0.15516 0.40658
#
# Static dielectric constant tensor:
#      x y z
#    x 1.872160 0.000000 0.000000 
#    y 0.000000 2.025970 0.000000 
#    z 0.000000 0.000000 1.664890 
# 
# From -- ./inp_files/29782.got.cif
#   From: 2010.05.17/outbox.cif.g08.bks.cpg/sg57_15_cif.got.tgz:29782.got - 2010.06.03 13:58:18.
