data_PCOD9438838
_publ_section_title
;
Structure prediction by ZEFSAII (Michael W. Deem and Ramdas Pophale) SiO2 
 PCOD9438838
Probable space group: P B C M
;
_chemical_formula_sum "Si O2"
_cell_formula_units_Z 64
_cell_length_a 16.449448
_cell_length_b 9.307962
_cell_length_c 20.629376
_cell_angle_alpha 90.000000
_cell_angle_beta 90.000000
_cell_angle_gamma 90.000000
_cell_volume 3158.581024
_symmetry_space_group_name_H-M "P B C M"
_symmetry_group_IT_number 57
_symmetry_cell_setting 'orthorhombic'
loop_
_space_group_symop_operation_xyz
x,y,z
-x,-y,1/2+z
x,1/2-y,-z
-x,1/2+y,1/2-z
-x,-y,-z
x,y,1/2-z
-x,1/2+y,z
x,1/2-y,1/2+z
loop_
_atom_site_type_symbol
_atom_site_label
_atom_site_fract_x
_atom_site_fract_y
_atom_site_fract_z
Si Si1 0.597885 0.351772 0.436692
Si Si2 0.315316 0.260290 0.324885
Si Si3 0.199753 0.023860 0.887169
Si Si4 0.775766 0.090295 0.524831
Si Si5 0.452501 0.179672 0.072145
Si Si6 0.876185 0.242957 0.321441
Si Si7 0.940779 0.790390 0.174267
Si Si8 0.169682 0.460425 0.851834
O O1 0.603264 0.250000 0.500000
O O2 0.693108 0.391450 0.432247
O O3 0.553325 0.507040 0.436839
O O4 0.536980 0.244864 0.398535
O O5 0.341803 0.259271 0.250000
O O6 0.270525 0.408667 0.343386
O O7 0.383853 0.227104 0.377478
O O8 0.245382 0.140572 0.335120
O O9 0.171219 0.868393 0.864729
O O10 0.119798 0.121056 0.872380
O O11 0.232109 0.007116 0.960427
O O12 0.799566 0.250000 0.500000
O O13 0.834660 0.004362 0.572686
O O14 0.439470 0.250000 0.000000
O O15 0.888332 0.179520 0.250000
O O16 0.825585 0.387742 0.317723
O O17 0.965469 0.288212 0.345662
O O18 0.933863 0.838074 0.250000
O O19 0.908493 0.627810 0.170651
#
# Coordination Sequence:
#
# PCOD9438838 Si02
#       8
#     8   8   8   8   8   8   8   8
#     4  10  21  38  63  93 122 156 209 253 305 377
#     4  11  24  40  62  94 129 161 210 264 317 380
#     4  11  22  38  62  88 126 162 209 263 321 364
#     4  11  22  40  61  94 124 161 206 266 305 387
#     4  11  21  39  65  94 122 165 207 256 313 371
#     4  11  21  38  62  88 121 165 213 261 317 377
#     4  10  22  39  61  90 121 163 216 261 308 382
#     4  11  21  39  61  86 125 163 206 256 322 368
#
# _framework density 20.262263999999998
#
# number of rings (size 3 to 8) (size 9 to 14) (size 15 to 20)
#    0.000    1.250    2.500    6.000    0.000    4.500 
#    0.000    4.375    0.000    0.000    0.000    0.000 
#    0.000    0.000    0.000    0.000    0.000    0.000 
#
# Total GULP energy -356457.056389 kJ/mol
# GULP energy per Si atom -5569.641506 kJ/mol
# Density = 2.021615 g / cm^3
# Si number density = 20.262264 Si / 1000 Ang^3
#
#
#
# Elastic Constant Matrix: (Units=GPa)
#
#
# Indices 1 2 3 4 5 6 
#
# 1 77.5154 10.1481 25.1752 0.0000 0.0000 0.0000
# 2 10.1481 103.8714 18.6525 0.0000 0.0000 0.0000
# 3 25.1752 18.6525 88.9087 0.0000 0.0000 0.0000
# 4 0.0000 0.0000 0.0000 68.1841 0.0000 0.0000
# 5 0.0000 0.0000 0.0000 0.0000 27.6647 0.0000
# 6 0.0000 0.0000 0.0000 0.0000 0.0000 26.0654
#
#
#
# Elastic Compliance Matrix: (Units=1/GPa)
#
#
# Indices 1 2 3 4 5 6 
#
# 1 0.014255 -0.000694 -0.003891 0.000000 0.000000 0.000000
# 2 -0.000694 0.010038 -0.001909 0.000000 0.000000 0.000000
# 3 -0.003891 -0.001909 0.012750 0.000000 0.000000 0.000000
# 4 0.000000 0.000000 0.000000 0.014666 0.000000 0.000000
# 5 0.000000 0.000000 0.000000 0.000000 0.036147 0.000000
# 6 0.000000 0.000000 0.000000 0.000000 0.000000 0.038365
#
#
# Mechanical properties :
#
#
# Convention : Reuss Voigt Hill
#
# Bulk Modulus (GPa) = 41.57241 42.02744 41.79993
# Shear Modulus (GPa) = 33.96094 38.80417 36.38255
#
# Velocity S-wave (km/s) = 4.09842 4.38093 4.24203
# Velocity P-wave (km/s) = 6.55422 6.81005 6.68336
#
# Compressibility (1/GPa) = 0.02405441
#
# Stress axis : x y z
#
# Youngs Moduli (GPa) = 70.14996 99.62179 78.43263
#
# Poissons Ratio (x) = 0.06914 0.30517
# Poissons Ratio (y) = 0.04869 0.14976
# Poissons Ratio (z) = 0.27294 0.19022
#
# Static dielectric constant tensor:
#      x y z
#    x 1.805080 0.000000 0.000000 
#    y 0.000000 1.740330 0.000000 
#    z 0.000000 0.000000 1.761370 
# 
# From -- ./inp_files/25638.got.cif
#   From: 2010.05.17/outbox.cif.g08.bks.cpg/sg57_13_cif.got.tgz:25638.got - 2010.06.03 13:58:18.
