data_PCOD9438977
_publ_section_title
;
Structure prediction by ZEFSAII (Michael W. Deem and Ramdas Pophale) SiO2 
 PCOD9438977
Probable space group: P B C M
;
_chemical_formula_sum "Si O2"
_cell_formula_units_Z 40
_cell_length_a 5.229762
_cell_length_b 27.243254
_cell_length_c 13.600665
_cell_angle_alpha 90.000000
_cell_angle_beta 90.000000
_cell_angle_gamma 90.000000
_cell_volume 1937.764736
_symmetry_space_group_name_H-M "P B C M"
_symmetry_group_IT_number 57
_symmetry_cell_setting 'orthorhombic'
loop_
_space_group_symop_operation_xyz
x,y,z
-x,-y,1/2+z
x,1/2-y,-z
-x,1/2+y,1/2-z
-x,-y,-z
x,y,1/2-z
-x,1/2+y,z
x,1/2-y,1/2+z
loop_
_atom_site_type_symbol
_atom_site_label
_atom_site_fract_x
_atom_site_fract_y
_atom_site_fract_z
Si Si1 0.387100 0.786175 0.750000
Si Si2 0.787373 0.650902 0.569089
Si Si3 0.302637 0.537672 0.047624
Si Si4 0.303109 0.648034 0.058836
Si Si5 0.108509 0.222339 0.750000
Si Si6 0.054244 0.450584 0.141053
O O1 0.332579 0.818600 0.846138
O O2 0.673674 0.764449 0.750000
O O3 0.176762 0.743325 0.750000
O O4 0.518118 0.663416 0.519717
O O5 0.852399 0.688997 0.654134
O O6 0.768281 0.596450 0.617996
O O7 0.019923 0.650984 0.489497
O O8 0.375492 0.591359 0.084663
O O9 0.178066 0.504359 0.132055
O O10 0.500000 0.500000 0.000000
O O11 0.128685 0.549369 0.952924
O O12 0.941658 0.444058 0.250000
#
# Coordination Sequence:
#
# PCOD9438977 Si02
#       6
#     4   8   8   8   4   8
#     4  12  28  46  65  99 132 174 226 266 342 402
#     4  11  23  44  71  97 132 169 225 281 326 378
#     4  10  21  40  61  96 134 168 213 257 325 399
#     4  11  25  44  67  98 138 175 212 275 330 399
#     4  12  26  46  71  99 126 170 232 280 328 398
#     4  10  21  39  63  97 130 172 214 266 323 388
#
# _framework density 20.642340000000001
#
# number of rings (size 3 to 8) (size 9 to 14) (size 15 to 20)
#    0.000    1.200    3.000    2.400    1.400    5.600 
#    1.800    0.000    0.000    0.000    0.000    0.000 
#    0.000    0.000    0.000    0.000    0.000    0.000 
#
# Total GULP energy -223230.492971 kJ/mol
# GULP energy per Si atom -5580.762324 kJ/mol
# Density = 2.059536 g / cm^3
# Si number density = 20.642340 Si / 1000 Ang^3
#
#
#
# Elastic Constant Matrix: (Units=GPa)
#
#
# Indices 1 2 3 4 5 6 
#
# 1 36.6794 -20.6767 -9.8401 0.0000 0.0000 0.0000
# 2 -20.6767 60.8577 27.6957 0.0000 0.0000 0.0000
# 3 -9.8401 27.6957 91.5277 0.0000 0.0000 0.0000
# 4 0.0000 0.0000 0.0000 36.5786 0.0000 0.0000
# 5 0.0000 0.0000 0.0000 0.0000 14.3483 0.0000
# 6 0.0000 0.0000 0.0000 0.0000 0.0000 34.9524
#
#
#
# Elastic Compliance Matrix: (Units=1/GPa)
#
#
# Indices 1 2 3 4 5 6 
#
# 1 0.033724 0.011374 0.000184 0.000000 0.000000 0.000000
# 2 0.011374 0.022892 -0.005704 0.000000 0.000000 0.000000
# 3 0.000184 -0.005704 0.012671 0.000000 0.000000 0.000000
# 4 0.000000 0.000000 0.000000 0.027338 0.000000 0.000000
# 5 0.000000 0.000000 0.000000 0.000000 0.069695 0.000000
# 6 0.000000 0.000000 0.000000 0.000000 0.000000 0.028610
#
#
# Mechanical properties :
#
#
# Convention : Reuss Voigt Hill
#
# Bulk Modulus (GPa) = 12.34624 20.38029 16.36327
# Shear Modulus (GPa) = 23.78437 29.96827 26.87632
#
# Velocity S-wave (km/s) = 3.39811 3.81437 3.61224
# Velocity P-wave (km/s) = 4.62495 5.41236 5.03408
#
# Compressibility (1/GPa) = 0.08099630
#
# Stress axis : x y z
#
# Youngs Moduli (GPa) = 29.65207 43.68302 78.91742
#
# Poissons Ratio (x) = -0.49687 -0.01451
# Poissons Ratio (y) = -0.33727 0.45016
# Poissons Ratio (z) = -0.00545 0.24918
#
# Static dielectric constant tensor:
#      x y z
#    x 1.799640 0.000000 0.000000 
#    y 0.000000 1.831090 0.000000 
#    z 0.000000 0.000000 1.697890 
# 
# From -- ./inp_files/10953.got.cif
#   From: 2010.05.17/outbox.cif.g08.bks.cpg/sg57_6_cif.got.tgz:10953.got - 2010.06.03 13:58:18.
