data_PCOD9438800
_publ_section_title
;
Structure prediction by ZEFSAII (Michael W. Deem and Ramdas Pophale) SiO2 
 PCOD9438800
Probable space group: P B C M
;
_chemical_formula_sum "Si O2"
_cell_formula_units_Z 40
_cell_length_a 24.234657
_cell_length_b 8.926884
_cell_length_c 9.496674
_cell_angle_alpha 90.000000
_cell_angle_beta 90.000000
_cell_angle_gamma 90.000000
_cell_volume 2054.510186
_symmetry_space_group_name_H-M "P B C M"
_symmetry_group_IT_number 57
_symmetry_cell_setting 'orthorhombic'
loop_
_space_group_symop_operation_xyz
x,y,z
-x,-y,1/2+z
x,1/2-y,-z
-x,1/2+y,1/2-z
-x,-y,-z
x,y,1/2-z
-x,1/2+y,z
x,1/2-y,1/2+z
loop_
_atom_site_type_symbol
_atom_site_label
_atom_site_fract_x
_atom_site_fract_y
_atom_site_fract_z
Si Si1 0.423943 0.428875 0.750000
Si Si2 0.258327 0.902761 0.587360
Si Si3 0.541084 0.579442 0.750000
Si Si4 0.954144 0.593073 0.417655
Si Si5 0.169997 0.406001 0.582837
Si Si6 0.617714 0.070281 0.023446
O O1 0.476726 0.540320 0.750000
O O2 0.444895 0.256807 0.750000
O O3 0.387562 0.475085 0.617619
O O4 0.260009 0.750000 0.500000
O O5 0.240832 0.884370 0.750000
O O6 0.321762 0.957209 0.586771
O O7 0.216431 0.003104 0.499125
O O8 0.569504 0.496183 0.880719
O O9 0.952718 0.750000 0.500000
O O10 0.966102 0.610313 0.250000
O O11 0.891991 0.526671 0.427852
O O12 0.000000 0.500000 0.500000
O O13 0.167781 0.250000 0.500000
O O14 0.181909 0.388121 0.750000
O O15 0.610800 0.250000 0.000000
#
# Coordination Sequence:
#
# PCOD9438800 Si02
#       6
#     4   8   4   8   8   8
#     4  12  26  40  70  92 128 168 205 266 315 386
#     4  11  24  42  66  92 125 164 210 261 318 381
#     4  12  24  46  62  98 128 162 215 256 319 384
#     4  10  21  38  61  90 125 168 213 264 318 377
#     4  10  22  40  63  92 128 167 212 262 318 375
#     4  11  24  43  66  92 126 167 210 260 322 382
#
# _framework density 19.469360000000002
#
# number of rings (size 3 to 8) (size 9 to 14) (size 15 to 20)
#    0.000    1.200    1.000    4.800    5.600    4.800 
#    0.000    0.000    0.000    0.000    0.000    0.000 
#    0.000    0.000    0.000    0.000    0.000    0.000 
#
# Total GULP energy -223266.088991 kJ/mol
# GULP energy per Si atom -5581.652225 kJ/mol
# Density = 1.942505 g / cm^3
# Si number density = 19.469360 Si / 1000 Ang^3
#
#
#
# Elastic Constant Matrix: (Units=GPa)
#
#
# Indices 1 2 3 4 5 6 
#
# 1 92.0825 37.3898 46.6147 0.0000 0.0000 0.0000
# 2 37.3898 79.3524 25.7403 0.0000 0.0000 0.0000
# 3 46.6147 25.7403 168.5865 0.0000 0.0000 0.0000
# 4 0.0000 0.0000 0.0000 29.4444 0.0000 0.0000
# 5 0.0000 0.0000 0.0000 0.0000 21.7010 0.0000
# 6 0.0000 0.0000 0.0000 0.0000 0.0000 42.1396
#
#
#
# Elastic Compliance Matrix: (Units=1/GPa)
#
#
# Indices 1 2 3 4 5 6 
#
# 1 0.014916 -0.005987 -0.003210 0.000000 0.000000 0.000000
# 2 -0.005987 0.015662 -0.000736 0.000000 0.000000 0.000000
# 3 -0.003210 -0.000736 0.006932 0.000000 0.000000 0.000000
# 4 0.000000 0.000000 0.000000 0.033962 0.000000 0.000000
# 5 0.000000 0.000000 0.000000 0.000000 0.046081 0.000000
# 6 0.000000 0.000000 0.000000 0.000000 0.000000 0.023731
#
#
# Mechanical properties :
#
#
# Convention : Reuss Voigt Hill
#
# Bulk Modulus (GPa) = 56.67870 62.16792 59.42331
# Shear Modulus (GPa) = 29.93475 34.00876 31.97176
#
# Velocity S-wave (km/s) = 3.92539 4.18399 4.05675
# Velocity P-wave (km/s) = 7.05123 7.43919 7.24780
#
# Compressibility (1/GPa) = 0.01764331
#
# Stress axis : x y z
#
# Youngs Moduli (GPa) = 67.04280 63.85029 144.26565
#
# Poissons Ratio (x) = 0.38226 0.46312
# Poissons Ratio (y) = 0.40137 0.10616
# Poissons Ratio (z) = 0.21522 0.04699
#
# Static dielectric constant tensor:
#      x y z
#    x 1.692190 0.000000 0.000000 
#    y 0.000000 1.639570 0.000000 
#    z 0.000000 0.000000 1.594050 
# 
# From -- ./inp_files/8944.got.cif
#   From: 2010.05.17/outbox.cif.g08.bks.cpg/sg57_5_cif.got.tgz:8944.got - 2010.06.03 13:58:18.
