data_PCOD9438532
_publ_section_title
;
Structure prediction by ZEFSAII (Michael W. Deem and Ramdas Pophale) SiO2 
 PCOD9438532
Probable space group: P B C M
;
_chemical_formula_sum "Si O2"
_cell_formula_units_Z 48
_cell_length_a 9.282919
_cell_length_b 10.229835
_cell_length_c 27.499475
_cell_angle_alpha 90.000000
_cell_angle_beta 90.000000
_cell_angle_gamma 90.000000
_cell_volume 2611.425211
_symmetry_space_group_name_H-M "P B C M"
_symmetry_group_IT_number 57
_symmetry_cell_setting 'orthorhombic'
loop_
_space_group_symop_operation_xyz
x,y,z
-x,-y,1/2+z
x,1/2-y,-z
-x,1/2+y,1/2-z
-x,-y,-z
x,y,1/2-z
-x,1/2+y,z
x,1/2-y,1/2+z
loop_
_atom_site_type_symbol
_atom_site_label
_atom_site_fract_x
_atom_site_fract_y
_atom_site_fract_z
Si Si1 0.842820 0.705711 0.882433
Si Si2 0.052837 0.622314 0.532042
Si Si3 0.381796 0.826212 0.805705
Si Si4 0.253021 0.503713 0.888145
Si Si5 0.898189 0.323230 0.191793
Si Si6 0.453379 0.412045 0.354406
O O1 0.701573 0.618306 0.876251
O O2 0.929559 0.661069 0.929627
O O3 0.950894 0.695920 0.836045
O O4 0.792147 0.853895 0.889151
O O5 0.085730 0.750000 0.500000
O O6 0.183741 0.578188 0.566381
O O7 0.000000 0.500000 0.500000
O O8 0.404650 0.791046 0.750000
O O9 0.212089 0.798893 0.815712
O O10 0.478214 0.723634 0.835591
O O11 0.426814 0.974561 0.814890
O O12 0.186101 0.563146 0.837907
O O13 0.423441 0.526534 0.888254
O O14 0.913411 0.345828 0.250000
#
# Coordination Sequence:
#
# PCOD9438532 Si02
#       6
#     8   8   8   8   8   8
#     4  11  23  40  65  93 125 164 209 262 314 368
#     4  11  23  43  72  96 123 158 205 260 318 379
#     4  10  21  37  57  87 126 172 217 258 303 361
#     4  10  22  42  63  91 127 167 206 257 315 372
#     4   9  22  38  59  91 126 168 217 258 303 367
#     4  11  22  40  61  87 127 167 210 257 315 372
#
# _framework density 18.380769000000001
#
# number of rings (size 3 to 8) (size 9 to 14) (size 15 to 20)
#    0.000    1.667    3.333    0.500    4.667    4.000 
#    0.000    1.667    0.000    0.000    0.000    0.000 
#    0.000    0.000    0.000    0.000    0.000    0.000 
#
# Total GULP energy -267754.872567 kJ/mol
# GULP energy per Si atom -5578.226512 kJ/mol
# Density = 1.833893 g / cm^3
# Si number density = 18.380769 Si / 1000 Ang^3
#
#
#
# Elastic Constant Matrix: (Units=GPa)
#
#
# Indices 1 2 3 4 5 6 
#
# 1 119.5978 17.4311 42.4065 0.0000 0.0000 0.0000
# 2 17.4311 80.5774 29.2326 0.0000 0.0000 0.0000
# 3 42.4065 29.2326 100.3096 0.0000 0.0000 0.0000
# 4 0.0000 0.0000 0.0000 30.6996 0.0000 0.0000
# 5 0.0000 0.0000 0.0000 0.0000 15.0365 0.0000
# 6 0.0000 0.0000 0.0000 0.0000 0.0000 22.3347
#
#
#
# Elastic Compliance Matrix: (Units=1/GPa)
#
#
# Indices 1 2 3 4 5 6 
#
# 1 0.009870 -0.000695 -0.003970 0.000000 0.000000 0.000000
# 2 -0.000695 0.013927 -0.003765 0.000000 0.000000 0.000000
# 3 -0.003970 -0.003765 0.012745 0.000000 0.000000 0.000000
# 4 0.000000 0.000000 0.000000 0.032574 0.000000 0.000000
# 5 0.000000 0.000000 0.000000 0.000000 0.066505 0.000000
# 6 0.000000 0.000000 0.000000 0.000000 0.000000 0.044773
#
#
# Mechanical properties :
#
#
# Convention : Reuss Voigt Hill
#
# Bulk Modulus (GPa) = 50.80815 53.18057 51.99436
# Shear Modulus (GPa) = 24.53217 27.70847 26.12032
#
# Velocity S-wave (km/s) = 3.65727 3.88683 3.77380
# Velocity P-wave (km/s) = 6.74805 7.00991 6.88022
#
# Compressibility (1/GPa) = 0.01968188
#
# Stress axis : x y z
#
# Youngs Moduli (GPa) = 101.31308 71.80522 78.46375
#
# Poissons Ratio (x) = 0.04989 0.31152
# Poissons Ratio (y) = 0.07040 0.29540
# Poissons Ratio (z) = 0.40224 0.27033
#
# Static dielectric constant tensor:
#      x y z
#    x 1.641590 0.000000 0.000000 
#    y 0.000000 1.629810 0.000000 
#    z 0.000000 0.000000 1.610770 
# 
# From -- ./inp_files/26707.got.cif
#   From: 2010.05.17/outbox.cif.g08.bks.cpg/sg57_14_cif.got.tgz:26707.got - 2010.06.03 13:58:18.
