data_PCOD9438455
_publ_section_title
;
Structure prediction by ZEFSAII (Michael W. Deem and Ramdas Pophale) SiO2 
 PCOD9438455
Probable space group: P B C M
;
_chemical_formula_sum "Si O2"
_cell_formula_units_Z 56
_cell_length_a 15.435341
_cell_length_b 5.439583
_cell_length_c 26.397768
_cell_angle_alpha 90.000000
_cell_angle_beta 90.000000
_cell_angle_gamma 90.000000
_cell_volume 2216.404606
_symmetry_space_group_name_H-M "P B C M"
_symmetry_group_IT_number 57
_symmetry_cell_setting 'orthorhombic'
loop_
_space_group_symop_operation_xyz
x,y,z
-x,-y,1/2+z
x,1/2-y,-z
-x,1/2+y,1/2-z
-x,-y,-z
x,y,1/2-z
-x,1/2+y,z
x,1/2-y,1/2+z
loop_
_atom_site_type_symbol
_atom_site_label
_atom_site_fract_x
_atom_site_fract_y
_atom_site_fract_z
Si Si1 0.524029 0.393250 0.907963
Si Si2 0.039164 0.875970 0.336781
Si Si3 0.596227 0.603667 0.193386
Si Si4 0.220501 0.824456 0.192845
Si Si5 0.692444 0.538035 0.865192
Si Si6 0.793649 0.786918 0.944943
Si Si7 0.904792 0.279699 0.555761
O O1 0.490915 0.151591 0.934256
O O2 0.468963 0.425826 0.854229
O O3 0.625344 0.375856 0.896423
O O4 0.136052 0.971878 0.323949
O O5 0.036836 0.806933 0.396879
O O6 0.019931 0.599537 0.316898
O O7 0.558477 0.579173 0.250000
O O8 0.683243 0.438804 0.191149
O O9 0.638768 0.869169 0.183237
O O10 0.205862 0.745209 0.250000
O O11 0.224728 0.601325 0.154309
O O12 0.724163 0.756373 0.900652
O O13 0.860834 0.552121 0.940551
O O14 0.833940 0.058201 0.944097
O O15 0.752368 0.750000 0.000000
O O16 0.947372 0.250000 0.500000
#
# Coordination Sequence:
#
# PCOD9438455 Si02
#       7
#     8   8   8   8   8   8   8
#     4  10  21  36  57  92 126 164 202 259 320 369
#     4  12  27  44  66  93 129 170 210 268 323 381
#     4  10  22  38  61  92 127 167 216 271 325 380
#     4  11  24  42  65  91 122 174 223 264 319 390
#     4  11  21  38  65  91 132 169 217 257 329 385
#     4  10  21  37  67  98 130 169 215 263 318 391
#     4  10  21  41  67  99 129 163 210 269 332 392
#
# _framework density 25.266147
#
# number of rings (size 3 to 8) (size 9 to 14) (size 15 to 20)
#    0.000    1.429    2.857    2.143    2.000    4.000 
#    0.000    0.000    0.000    3.429    0.000    0.000 
#    0.000    0.000    0.000    0.000    0.000    0.000 
#
# Total GULP energy -312520.723887 kJ/mol
# GULP energy per Si atom -5580.727212 kJ/mol
# Density = 2.520864 g / cm^3
# Si number density = 25.266147 Si / 1000 Ang^3
#
#
#
# Elastic Constant Matrix: (Units=GPa)
#
#
# Indices 1 2 3 4 5 6 
#
# 1 74.6644 19.2166 2.6961 0.0000 0.0000 0.0000
# 2 19.2166 120.8057 2.4173 0.0000 0.0000 0.0000
# 3 2.6961 2.4173 62.2233 0.0000 0.0000 0.0000
# 4 0.0000 0.0000 0.0000 17.9548 0.0000 0.0000
# 5 0.0000 0.0000 0.0000 0.0000 16.3130 0.0000
# 6 0.0000 0.0000 0.0000 0.0000 0.0000 43.1358
#
#
#
# Elastic Compliance Matrix: (Units=1/GPa)
#
#
# Indices 1 2 3 4 5 6 
#
# 1 0.013982 -0.002214 -0.000520 0.000000 0.000000 0.000000
# 2 -0.002214 0.008635 -0.000240 0.000000 0.000000 0.000000
# 3 -0.000520 -0.000240 0.016103 0.000000 0.000000 0.000000
# 4 0.000000 0.000000 0.000000 0.055696 0.000000 0.000000
# 5 0.000000 0.000000 0.000000 0.000000 0.061301 0.000000
# 6 0.000000 0.000000 0.000000 0.000000 0.000000 0.023183
#
#
# Mechanical properties :
#
#
# Convention : Reuss Voigt Hill
#
# Bulk Modulus (GPa) = 30.51259 34.03927 32.27593
# Shear Modulus (GPa) = 25.54031 31.03829 28.28930
#
# Velocity S-wave (km/s) = 3.18284 3.50873 3.34975
# Velocity P-wave (km/s) = 5.06063 5.46959 5.26908
#
# Compressibility (1/GPa) = 0.03277335
#
# Stress axis : x y z
#
# Youngs Moduli (GPa) = 71.52172 115.81209 62.10035
#
# Poissons Ratio (x) = 0.25637 0.03228
# Poissons Ratio (y) = 0.15833 0.01487
# Poissons Ratio (z) = 0.03718 0.02774
#
# Static dielectric constant tensor:
#      x y z
#    x 1.972210 0.000000 0.000000 
#    y 0.000000 2.117520 0.000000 
#    z 0.000000 0.000000 2.013200 
# 
# From -- ./inp_files/29855.got.cif
#   From: 2010.05.17/outbox.cif.g08.bks.cpg/sg57_15_cif.got.tgz:29855.got - 2010.06.03 13:58:18.
