data_PCOD9438341
_publ_section_title
;
Structure prediction by ZEFSAII (Michael W. Deem and Ramdas Pophale) SiO2 
 PCOD9438341
Probable space group: P B C M
;
_chemical_formula_sum "Si O2"
_cell_formula_units_Z 56
_cell_length_a 5.654345
_cell_length_b 21.327728
_cell_length_c 22.824362
_cell_angle_alpha 90.000000
_cell_angle_beta 90.000000
_cell_angle_gamma 90.000000
_cell_volume 2752.488693
_symmetry_space_group_name_H-M "P B C M"
_symmetry_group_IT_number 57
_symmetry_cell_setting 'orthorhombic'
loop_
_space_group_symop_operation_xyz
x,y,z
-x,-y,1/2+z
x,1/2-y,-z
-x,1/2+y,1/2-z
-x,-y,-z
x,y,1/2-z
-x,1/2+y,z
x,1/2-y,1/2+z
loop_
_atom_site_type_symbol
_atom_site_label
_atom_site_fract_x
_atom_site_fract_y
_atom_site_fract_z
Si Si1 0.990218 0.828077 0.680517
Si Si2 0.623594 0.374062 0.123616
Si Si3 0.397840 0.488512 0.316147
Si Si4 0.989932 0.949976 0.409067
Si Si5 0.604865 0.569844 0.505958
Si Si6 0.513798 0.257038 0.680267
Si Si7 0.276215 0.070997 0.115487
O O1 0.992128 0.842954 0.750000
O O2 0.746318 0.787732 0.670117
O O3 0.935354 0.888712 0.641488
O O4 0.246813 0.797591 0.667179
O O5 0.552526 0.425770 0.172654
O O6 0.518453 0.393364 0.059750
O O7 0.541581 0.306808 0.144131
O O8 0.902524 0.385598 0.115521
O O9 0.312049 0.491941 0.250000
O O10 0.199590 0.477504 0.364307
O O11 0.544705 0.550471 0.333385
O O12 0.872769 0.937363 0.471125
O O13 0.182975 0.004377 0.408543
O O14 0.500000 0.500000 0.500000
O O15 0.600181 0.600541 0.441724
O O16 0.525285 0.243742 0.750000
#
# Coordination Sequence:
#
# PCOD9438341 Si02
#       7
#     8   8   8   8   8   8   8
#     4  10  24  43  66  92 124 169 215 260 316 374
#     4  10  22  38  62  87 122 158 212 254 316 372
#     4  10  21  34  56  92 125 153 197 258 318 377
#     4  10  21  35  60  91 122 159 200 256 312 382
#     4  11  20  38  60  90 124 164 200 248 318 380
#     4  10  23  44  67  90 124 168 214 264 315 373
#     4  11  22  38  61  86 125 163 207 253 313 378
#
# _framework density 20.345224999999999
#
# number of rings (size 3 to 8) (size 9 to 14) (size 15 to 20)
#    0.000    1.714    4.286    1.286    6.000    3.429 
#    0.000    0.714    0.000    0.000    0.000    0.000 
#    0.000    0.000    0.000    0.000    0.000    0.000 
#
# Total GULP energy -312100.791482 kJ/mol
# GULP energy per Si atom -5573.228419 kJ/mol
# Density = 2.029892 g / cm^3
# Si number density = 20.345225 Si / 1000 Ang^3
#
#
#
# Elastic Constant Matrix: (Units=GPa)
#
#
# Indices 1 2 3 4 5 6 
#
# 1 55.6659 6.9186 -5.7301 0.0000 0.0000 0.0000
# 2 6.9186 51.9986 20.0918 0.0000 0.0000 0.0000
# 3 -5.7301 20.0918 62.8323 0.0000 0.0000 0.0000
# 4 0.0000 0.0000 0.0000 29.1690 0.0000 0.0000
# 5 0.0000 0.0000 0.0000 0.0000 24.4357 0.0000
# 6 0.0000 0.0000 0.0000 0.0000 0.0000 24.3850
#
#
#
# Elastic Compliance Matrix: (Units=1/GPa)
#
#
# Indices 1 2 3 4 5 6 
#
# 1 0.018705 -0.003592 0.002854 0.000000 0.000000 0.000000
# 2 -0.003592 0.022632 -0.007565 0.000000 0.000000 0.000000
# 3 0.002854 -0.007565 0.018595 0.000000 0.000000 0.000000
# 4 0.000000 0.000000 0.000000 0.034283 0.000000 0.000000
# 5 0.000000 0.000000 0.000000 0.000000 0.040924 0.000000
# 6 0.000000 0.000000 0.000000 0.000000 0.000000 0.041009
#
#
# Mechanical properties :
#
#
# Convention : Reuss Voigt Hill
#
# Bulk Modulus (GPa) = 23.08007 23.67304 23.37655
# Shear Modulus (GPa) = 24.13211 25.54570 24.83890
#
# Velocity S-wave (km/s) = 3.44776 3.54730 3.49789
# Velocity P-wave (km/s) = 5.21711 5.33280 5.27527
#
# Compressibility (1/GPa) = 0.04332743
#
# Stress axis : x y z
#
# Youngs Moduli (GPa) = 53.46303 44.18523 53.77915
#
# Poissons Ratio (x) = 0.15869 -0.15350
# Poissons Ratio (y) = 0.19201 0.40681
# Poissons Ratio (z) = -0.15260 0.33424
#
# Static dielectric constant tensor:
#      x y z
#    x 1.833860 0.000000 0.000000 
#    y 0.000000 1.736780 0.000000 
#    z 0.000000 0.000000 1.713310 
# 
# From -- ./inp_files/26293.got.cif
#   From: 2010.05.17/outbox.cif.g08.bks.cpg/sg57_14_cif.got.tgz:26293.got - 2010.06.03 13:58:18.
