data_PCOD9438236
_publ_section_title
;
Structure prediction by ZEFSAII (Michael W. Deem and Ramdas Pophale) SiO2 
 PCOD9438236
Probable space group: P B C M
;
_chemical_formula_sum "Si O2"
_cell_formula_units_Z 36
_cell_length_a 10.941763
_cell_length_b 13.153348
_cell_length_c 11.228310
_cell_angle_alpha 90.000000
_cell_angle_beta 90.000000
_cell_angle_gamma 90.000000
_cell_volume 1615.987543
_symmetry_space_group_name_H-M "P B C M"
_symmetry_group_IT_number 57
_symmetry_cell_setting 'orthorhombic'
loop_
_space_group_symop_operation_xyz
x,y,z
-x,-y,1/2+z
x,1/2-y,-z
-x,1/2+y,1/2-z
-x,-y,-z
x,y,1/2-z
-x,1/2+y,z
x,1/2-y,1/2+z
loop_
_atom_site_type_symbol
_atom_site_label
_atom_site_fract_x
_atom_site_fract_y
_atom_site_fract_z
Si Si1 0.970523 0.676555 0.250000
Si Si2 0.265131 0.077088 0.250000
Si Si3 0.332779 0.553343 0.390263
Si Si4 0.080809 0.871532 0.510498
Si Si5 0.417557 0.133369 0.020576
Si Si6 0.067794 0.602020 0.750000
O O1 0.999369 0.619781 0.372172
O O2 0.058018 0.774454 0.250000
O O3 0.824321 0.676353 0.250000
O O4 0.347608 0.086366 0.133752
O O5 0.186631 0.971765 0.250000
O O6 0.316695 0.574904 0.250000
O O7 0.207627 0.573989 0.459820
O O8 0.439517 0.621524 0.448236
O O9 0.378974 0.438294 0.411222
O O10 0.104687 0.750000 0.500000
O O11 0.020017 0.908993 0.386964
O O12 0.385493 0.250000 0.000000
#
# Coordination Sequence:
#
# PCOD9438236 Si02
#       6
#     4   4   8   8   8   4
#     4  10  24  41  67  95 134 177 233 279 338 391
#     4  12  24  47  67  96 139 176 225 284 339 400
#     4  11  22  42  70  99 131 176 222 272 336 410
#     4  10  20  40  65  99 130 171 227 282 330 395
#     4  11  26  44  65 101 137 176 217 273 346 408
#     4  10  22  42  66  95 131 177 228 283 335 393
#
# _framework density 22.277398999999999
#
# number of rings (size 3 to 8) (size 9 to 14) (size 15 to 20)
#    0.000    1.333    4.444    0.667    1.556    3.556 
#    4.000    0.000    0.000    0.000    0.000    0.000 
#    0.000    0.000    0.000    0.000    0.000    0.000 
#
# Total GULP energy -200644.674577 kJ/mol
# GULP energy per Si atom -5573.463183 kJ/mol
# Density = 2.222669 g / cm^3
# Si number density = 22.277399 Si / 1000 Ang^3
#
#
#
# Elastic Constant Matrix: (Units=GPa)
#
#
# Indices 1 2 3 4 5 6 
#
# 1 48.4975 -11.6158 7.7113 0.0000 0.0000 0.0000
# 2 -11.6158 114.8878 -6.2655 0.0000 0.0000 0.0000
# 3 7.7113 -6.2655 152.1004 0.0000 0.0000 0.0000
# 4 0.0000 0.0000 0.0000 2.6683 0.0000 0.0000
# 5 0.0000 0.0000 0.0000 0.0000 31.3811 0.0000
# 6 0.0000 0.0000 0.0000 0.0000 0.0000 16.1940
#
#
#
# Elastic Compliance Matrix: (Units=1/GPa)
#
#
# Indices 1 2 3 4 5 6 
#
# 1 0.021280 0.002097 -0.000992 0.000000 0.000000 0.000000
# 2 0.002097 0.008930 0.000262 0.000000 0.000000 0.000000
# 3 -0.000992 0.000262 0.006636 0.000000 0.000000 0.000000
# 4 0.000000 0.000000 0.000000 0.374775 0.000000 0.000000
# 5 0.000000 0.000000 0.000000 0.000000 0.031866 0.000000
# 6 0.000000 0.000000 0.000000 0.000000 0.000000 0.061751
#
#
# Mechanical properties :
#
#
# Convention : Reuss Voigt Hill
#
# Bulk Modulus (GPa) = 25.26599 32.79395 29.02997
# Shear Modulus (GPa) = 9.69558 31.75905 20.72732
#
# Velocity S-wave (km/s) = 2.08846 3.77983 3.05359
# Velocity P-wave (km/s) = 4.14508 5.81396 5.04895
#
# Compressibility (1/GPa) = 0.03957890
#
# Stress axis : x y z
#
# Youngs Moduli (GPa) = 46.99292 111.97627 150.70013
#
# Poissons Ratio (x) = -0.23486 0.14956
# Poissons Ratio (y) = -0.09856 -0.03941
# Poissons Ratio (z) = 0.04664 -0.02929
#
# Static dielectric constant tensor:
#      x y z
#    x 1.776490 0.000000 0.000000 
#    y 0.000000 1.777480 0.000000 
#    z 0.000000 0.000000 1.851310 
# 
# From -- ./inp_files/12560.got.cif
#   From: 2010.05.17/outbox.cif.g08.bks.cpg/sg57_7_cif.got.tgz:12560.got - 2010.06.03 13:58:18.
