data_PCOD9438746
_publ_section_title
;
Structure prediction by ZEFSAII (Michael W. Deem and Ramdas Pophale) SiO2 
 PCOD9438746
Probable space group: P B C M
;
_chemical_formula_sum "Si O2"
_cell_formula_units_Z 64
_cell_length_a 8.201963
_cell_length_b 11.907454
_cell_length_c 31.150158
_cell_angle_alpha 90.000000
_cell_angle_beta 90.000000
_cell_angle_gamma 90.000000
_cell_volume 3042.264517
_symmetry_space_group_name_H-M "P B C M"
_symmetry_group_IT_number 57
_symmetry_cell_setting 'orthorhombic'
loop_
_space_group_symop_operation_xyz
x,y,z
-x,-y,1/2+z
x,1/2-y,-z
-x,1/2+y,1/2-z
-x,-y,-z
x,y,1/2-z
-x,1/2+y,z
x,1/2-y,1/2+z
loop_
_atom_site_type_symbol
_atom_site_label
_atom_site_fract_x
_atom_site_fract_y
_atom_site_fract_z
Si Si1 0.478419 0.199268 0.701469
Si Si2 0.996116 0.192720 0.455113
Si Si3 0.029293 0.158051 0.873995
Si Si4 0.634357 0.281467 0.454667
Si Si5 0.796166 0.001327 0.925146
Si Si6 0.848580 0.221574 0.201807
Si Si7 0.543839 0.837275 0.880448
Si Si8 0.704743 0.003443 0.164883
O O1 0.433145 0.232452 0.750000
O O2 0.673881 0.214679 0.697747
O O3 0.405759 0.278145 0.664076
O O4 0.418346 0.073619 0.692104
O O5 0.042666 0.250000 0.500000
O O6 0.064039 0.264416 0.415070
O O7 0.799915 0.206056 0.451724
O O8 0.066772 0.068189 0.450730
O O9 0.176212 0.079666 0.859945
O O10 0.883430 0.076954 0.889289
O O11 0.967958 0.233112 0.834540
O O12 0.554226 0.250000 0.500000
O O13 0.695604 0.409711 0.453462
O O14 0.523047 0.254306 0.413990
O O15 0.678387 0.912782 0.902823
O O16 0.910871 0.238928 0.250000
O O17 0.806344 0.091128 0.193556
O O18 0.396287 0.919747 0.867720
#
# Coordination Sequence:
#
# PCOD9438746 Si02
#       8
#     8   8   8   8   8   8   8   8
#     4  10  21  38  60  85 114 151 195 238 285 345
#     4  10  22  39  61  87 117 154 199 244 293 353
#     4  11  22  39  60  87 118 152 195 241 289 347
#     4  10  23  40  59  87 120 155 198 244 292 351
#     4  11  22  39  61  85 119 155 192 242 298 346
#     4  10  22  39  58  85 119 151 191 240 286 342
#     4  11  22  39  60  88 120 154 197 243 291 350
#     4  11  21  37  62  85 117 158 194 237 295 346
#
# _framework density 21.036959
#
# number of rings (size 3 to 8) (size 9 to 14) (size 15 to 20)
#    0.000    1.500    0.000    7.125    0.000    8.000 
#    0.000    0.625    0.000    0.000    0.000    0.000 
#    0.000    0.000    0.000    0.000    0.000    0.000 
#
# Total GULP energy -357842.838502 kJ/mol
# GULP energy per Si atom -5591.294352 kJ/mol
# Density = 2.098908 g / cm^3
# Si number density = 21.036959 Si / 1000 Ang^3
#
#
#
# Elastic Constant Matrix: (Units=GPa)
#
#
# Indices 1 2 3 4 5 6 
#
# 1 16.3655 25.3182 22.0558 0.0000 0.0000 0.0000
# 2 25.3182 97.7456 46.2170 0.0000 0.0000 0.0000
# 3 22.0558 46.2170 144.3706 0.0000 0.0000 0.0000
# 4 0.0000 0.0000 0.0000 19.5101 0.0000 0.0000
# 5 0.0000 0.0000 0.0000 0.0000 2.2975 0.0000
# 6 0.0000 0.0000 0.0000 0.0000 0.0000 27.0328
#
#
#
# Elastic Compliance Matrix: (Units=1/GPa)
#
#
# Indices 1 2 3 4 5 6 
#
# 1 0.111390 -0.024517 -0.009169 0.000000 0.000000 0.000000
# 2 -0.024517 0.017452 -0.001841 0.000000 0.000000 0.000000
# 3 -0.009169 -0.001841 0.008917 0.000000 0.000000 0.000000
# 4 0.000000 0.000000 0.000000 0.051255 0.000000 0.000000
# 5 0.000000 0.000000 0.000000 0.000000 0.435248 0.000000
# 6 0.000000 0.000000 0.000000 0.000000 0.000000 0.036992
#
#
# Mechanical properties :
#
#
# Convention : Reuss Voigt Hill
#
# Bulk Modulus (GPa) = 14.99157 49.51818 32.25488
# Shear Modulus (GPa) = 6.62654 20.76083 13.69368
#
# Velocity S-wave (km/s) = 1.77674 3.14486 2.55411
# Velocity P-wave (km/s) = 3.36910 6.06437 4.90548
#
# Compressibility (1/GPa) = 0.06670414
#
# Stress axis : x y z
#
# Youngs Moduli (GPa) = 8.97751 57.30114 112.14846
#
# Poissons Ratio (x) = 1.40485 1.02824
# Poissons Ratio (y) = 0.22010 0.20649
# Poissons Ratio (z) = 0.08231 0.10551
#
# Static dielectric constant tensor:
#      x y z
#    x 1.769060 0.000000 0.000000 
#    y 0.000000 1.743500 0.000000 
#    z 0.000000 0.000000 1.753100 
# 
# From -- ./inp_files/29623.got.cif
#   From: 2010.05.17/outbox.cif.g08.bks.cpg/sg57_15_cif.got.tgz:29623.got - 2010.06.03 13:58:18.
