data_PCOD9438469
_publ_section_title
;
Structure prediction by ZEFSAII (Michael W. Deem and Ramdas Pophale) SiO2 
 PCOD9438469
Probable space group: P B C M
;
_chemical_formula_sum "Si O2"
_cell_formula_units_Z 48
_cell_length_a 12.442950
_cell_length_b 11.724251
_cell_length_c 15.160715
_cell_angle_alpha 90.000000
_cell_angle_beta 90.000000
_cell_angle_gamma 90.000000
_cell_volume 2211.709825
_symmetry_space_group_name_H-M "P B C M"
_symmetry_group_IT_number 57
_symmetry_cell_setting 'orthorhombic'
loop_
_space_group_symop_operation_xyz
x,y,z
-x,-y,1/2+z
x,1/2-y,-z
-x,1/2+y,1/2-z
-x,-y,-z
x,y,1/2-z
-x,1/2+y,z
x,1/2-y,1/2+z
loop_
_atom_site_type_symbol
_atom_site_label
_atom_site_fract_x
_atom_site_fract_y
_atom_site_fract_z
Si Si1 0.786609 0.443710 0.648170
Si Si2 0.733735 0.074828 0.856818
Si Si3 0.407433 0.711237 0.142115
Si Si4 0.163618 0.315602 0.092697
Si Si5 0.645317 0.835205 0.853351
Si Si6 0.927510 0.272322 0.104199
O O1 0.779291 0.482812 0.750000
O O2 0.671606 0.393050 0.619396
O O3 0.825724 0.548397 0.589676
O O4 0.867051 0.336248 0.645013
O O5 0.731589 0.073813 0.750000
O O6 0.650407 0.172442 0.887696
O O7 0.852430 0.117650 0.881289
O O8 0.697792 0.951230 0.889932
O O9 0.407895 0.716236 0.250000
O O10 0.528369 0.695190 0.109332
O O11 0.268966 0.265461 0.138919
O O12 0.048865 0.287894 0.136856
O O13 0.162860 0.250000 0.000000
O O14 0.626579 0.857223 0.750000
O O15 0.931251 0.250000 0.000000
#
# Coordination Sequence:
#
# PCOD9438469 Si02
#       6
#     8   8   8   8   8   8
#     4  10  22  41  65  90 119 158 203 251 299 357
#     4   9  19  36  60  88 115 149 200 248 289 356
#     4   8  17  36  60  87 116 151 193 242 305 354
#     4  11  26  40  58  87 125 160 199 244 303 359
#     4  10  21  36  61  88 115 154 199 247 293 354
#     4  10  23  40  63  84 119 161 196 242 307 360
#
# _framework density 21.702666000000001
#
# number of rings (size 3 to 8) (size 9 to 14) (size 15 to 20)
#    0.000    2.333    0.000    2.000    7.000    4.000 
#    0.000    4.167    0.000    0.000    0.000    0.000 
#    0.000    0.000    0.000    0.000    0.000    0.000 
#
# Total GULP energy -268094.308054 kJ/mol
# GULP energy per Si atom -5585.298084 kJ/mol
# Density = 2.165327 g / cm^3
# Si number density = 21.702666 Si / 1000 Ang^3
#
#
#
# Elastic Constant Matrix: (Units=GPa)
#
#
# Indices 1 2 3 4 5 6 
#
# 1 181.0493 42.8156 0.8424 0.0000 0.0000 0.0000
# 2 42.8156 72.0838 -7.7557 0.0000 0.0000 0.0000
# 3 0.8424 -7.7557 38.2789 0.0000 0.0000 0.0000
# 4 0.0000 0.0000 0.0000 25.4292 0.0000 0.0000
# 5 0.0000 0.0000 0.0000 0.0000 23.0663 0.0000
# 6 0.0000 0.0000 0.0000 0.0000 0.0000 10.1450
#
#
#
# Elastic Compliance Matrix: (Units=1/GPa)
#
#
# Indices 1 2 3 4 5 6 
#
# 1 0.006459 -0.003938 -0.000940 0.000000 0.000000 0.000000
# 2 -0.003938 0.016582 0.003446 0.000000 0.000000 0.000000
# 3 -0.000940 0.003446 0.026843 0.000000 0.000000 0.000000
# 4 0.000000 0.000000 0.000000 0.039325 0.000000 0.000000
# 5 0.000000 0.000000 0.000000 0.000000 0.043353 0.000000
# 6 0.000000 0.000000 0.000000 0.000000 0.000000 0.098571
#
#
# Mechanical properties :
#
#
# Convention : Reuss Voigt Hill
#
# Bulk Modulus (GPa) = 21.26657 40.35740 30.81199
# Shear Modulus (GPa) = 20.02648 28.76208 24.39428
#
# Velocity S-wave (km/s) = 3.04100 3.64439 3.35628
# Velocity P-wave (km/s) = 4.70644 6.02866 5.40811
#
# Compressibility (1/GPa) = 0.04702216
#
# Stress axis : x y z
#
# Youngs Moduli (GPa) = 154.82510 60.30515 37.25366
#
# Poissons Ratio (x) = 0.23745 0.03502
# Poissons Ratio (y) = 0.60963 -0.12839
# Poissons Ratio (z) = 0.14553 -0.20784
#
# Static dielectric constant tensor:
#      x y z
#    x 1.785250 0.000000 0.000000 
#    y 0.000000 1.756000 0.000000 
#    z 0.000000 0.000000 1.838820 
# 
# From -- ./inp_files/21796.got.cif
#   From: 2010.05.17/outbox.cif.g08.bks.cpg/sg57_11_cif.got.tgz:21796.got - 2010.06.03 13:58:18.
