data_PCOD9438551
_publ_section_title
;
Structure prediction by ZEFSAII (Michael W. Deem and Ramdas Pophale) SiO2 
 PCOD9438551
Probable space group: P B C M
;
_chemical_formula_sum "Si O2"
_cell_formula_units_Z 40
_cell_length_a 25.869855
_cell_length_b 9.778992
_cell_length_c 8.723095
_cell_angle_alpha 90.000000
_cell_angle_beta 90.000000
_cell_angle_gamma 90.000000
_cell_volume 2206.778213
_symmetry_space_group_name_H-M "P B C M"
_symmetry_group_IT_number 57
_symmetry_cell_setting 'orthorhombic'
loop_
_space_group_symop_operation_xyz
x,y,z
-x,-y,1/2+z
x,1/2-y,-z
-x,1/2+y,1/2-z
-x,-y,-z
x,y,1/2-z
-x,1/2+y,z
x,1/2-y,1/2+z
loop_
_atom_site_type_symbol
_atom_site_label
_atom_site_fract_x
_atom_site_fract_y
_atom_site_fract_z
Si Si1 0.338481 0.901634 0.433775
Si Si2 0.844383 0.400571 0.934207
Si Si3 0.251253 0.402417 0.066510
Si Si4 0.542709 0.400074 0.433166
Si Si5 0.043727 0.598377 0.933851
O O1 0.327688 0.750000 0.500000
O O2 0.333834 0.896154 0.250000
O O3 0.397988 0.937603 0.473556
O O4 0.299356 0.012265 0.500592
O O5 0.849578 0.390144 0.750000
O O6 0.800022 0.509592 0.971119
O O7 0.831237 0.250000 0.000000
O O8 0.899246 0.442037 0.006805
O O9 0.255435 0.395346 0.250000
O O10 0.249013 0.250000 0.000000
O O11 0.533694 0.250000 0.500000
O O12 0.500000 0.500000 0.500000
O O13 0.539092 0.397060 0.250000
O O14 0.042836 0.600192 0.750000
O O15 0.034819 0.750000 0.000000
O O16 0.000000 0.500000 0.000000
#
# Coordination Sequence:
#
# PCOD9438551 Si02
#       5
#     8   8   8   8   8
#     4  10  21  38  60  84 112 147 189 231 277 334
#     4  10  21  38  59  84 112 147 190 232 278 335
#     4  11  24  39  58  84 115 149 187 233 284 333
#     4  10  21  37  58  84 113 148 187 231 279 332
#     4  11  22  38  60  86 116 151 190 233 280 332
#
# _framework density 18.125972999999998
#
# number of rings (size 3 to 8) (size 9 to 14) (size 15 to 20)
#    0.000    1.600    0.000    6.000    0.000    8.800 
#    0.000    2.000    0.000    0.000    0.000    0.000 
#    0.000    0.000    0.000    0.000    0.000    0.000 
#
# Total GULP energy -223563.219448 kJ/mol
# GULP energy per Si atom -5589.080486 kJ/mol
# Density = 1.808472 g / cm^3
# Si number density = 18.125973 Si / 1000 Ang^3
#
#
#
# Elastic Constant Matrix: (Units=GPa)
#
#
# Indices 1 2 3 4 5 6 
#
# 1 180.4385 145.1730 91.5809 0.0000 0.0000 0.0000
# 2 145.1730 148.4495 79.0804 0.0000 0.0000 0.0000
# 3 91.5809 79.0804 108.4727 0.0000 0.0000 0.0000
# 4 0.0000 0.0000 0.0000 38.1625 0.0000 0.0000
# 5 0.0000 0.0000 0.0000 0.0000 32.3928 0.0000
# 6 0.0000 0.0000 0.0000 0.0000 0.0000 39.5500
#
#
#
# Elastic Compliance Matrix: (Units=1/GPa)
#
#
# Indices 1 2 3 4 5 6 
#
# 1 0.028240 -0.024386 -0.006064 0.000000 0.000000 0.000000
# 2 -0.024386 0.032072 -0.002793 0.000000 0.000000 0.000000
# 3 -0.006064 -0.002793 0.016375 0.000000 0.000000 0.000000
# 4 0.000000 0.000000 0.000000 0.026204 0.000000 0.000000
# 5 0.000000 0.000000 0.000000 0.000000 0.030871 0.000000
# 6 0.000000 0.000000 0.000000 0.000000 0.000000 0.025284
#
#
# Mechanical properties :
#
#
# Convention : Reuss Voigt Hill
#
# Bulk Modulus (GPa) = 98.03409 118.78102 108.40755
# Shear Modulus (GPa) = 21.84049 30.12284 25.98166
#
# Velocity S-wave (km/s) = 3.47497 4.08101 3.79013
# Velocity P-wave (km/s) = 8.38468 9.37440 8.89332
#
# Compressibility (1/GPa) = 0.01020053
#
# Stress axis : x y z
#
# Youngs Moduli (GPa) = 35.41080 31.17949 61.07046
#
# Poissons Ratio (x) = 0.76036 0.37032
# Poissons Ratio (y) = 0.86354 0.17057
# Poissons Ratio (z) = 0.21472 0.08708
#
# Static dielectric constant tensor:
#      x y z
#    x 1.617950 0.000000 0.000000 
#    y 0.000000 1.583290 0.000000 
#    z 0.000000 0.000000 1.604740 
# 
# From -- ./inp_files/8872.got.cif
#   From: 2010.05.17/outbox.cif.g08.bks.cpg/sg57_5_cif.got.tgz:8872.got - 2010.06.03 13:58:18.
