data_PCOD9438897
_publ_section_title
;
Structure prediction by ZEFSAII (Michael W. Deem and Ramdas Pophale) SiO2 
 PCOD9438897
Probable space group: P B C M
;
_chemical_formula_sum "Si O2"
_cell_formula_units_Z 48
_cell_length_a 11.981354
_cell_length_b 11.707502
_cell_length_c 16.088176
_cell_angle_alpha 90.000000
_cell_angle_beta 90.000000
_cell_angle_gamma 90.000000
_cell_volume 2256.716214
_symmetry_space_group_name_H-M "P B C M"
_symmetry_group_IT_number 57
_symmetry_cell_setting 'orthorhombic'
loop_
_space_group_symop_operation_xyz
x,y,z
-x,-y,1/2+z
x,1/2-y,-z
-x,1/2+y,1/2-z
-x,-y,-z
x,y,1/2-z
-x,1/2+y,z
x,1/2-y,1/2+z
loop_
_atom_site_type_symbol
_atom_site_label
_atom_site_fract_x
_atom_site_fract_y
_atom_site_fract_z
Si Si1 0.142991 0.381906 0.496470
Si Si2 0.127522 0.955781 0.750000
Si Si3 0.817828 0.313305 0.250000
Si Si4 0.479988 0.658934 0.563633
Si Si5 0.443966 0.857210 0.250000
Si Si6 0.340275 0.960245 0.935453
Si Si7 0.639128 0.040386 0.250000
Si Si8 0.047123 0.544623 0.881373
O O1 0.177992 0.250000 0.500000
O O2 0.230387 0.464770 0.450160
O O3 0.021547 0.390518 0.453058
O O4 0.124717 0.443533 0.584446
O O5 0.163853 0.823079 0.750000
O O6 0.242680 0.029152 0.750000
O O7 0.048871 0.986685 0.673599
O O8 0.690463 0.358260 0.250000
O O9 0.881032 0.366867 0.328875
O O10 0.530819 0.750000 0.500000
O O11 0.472198 0.696357 0.659654
O O12 0.559567 0.550435 0.565940
O O13 0.366885 0.621167 0.514201
O O14 0.522344 0.971381 0.250000
O O15 0.347463 0.905382 0.842943
#
# Coordination Sequence:
#
# PCOD9438897 Si02
#       8
#     8   4   4   8   4   8   4   8
#     4  11  21  38  62  87 124 167 211 264 332 384
#     4  11  21  40  66  89 126 172 213 265 332 396
#     4  11  23  40  63  91 129 167 209 271 329 380
#     4  10  22  38  61  90 127 167 215 266 329 386
#     4  10  23  40  61  90 128 164 214 275 327 386
#     4  10  21  39  60  90 126 165 214 270 316 396
#     4  10  21  40  62  88 123 165 216 265 322 394
#     4  10  23  39  59  94 126 162 217 269 313 397
#
# _framework density 21.269843000000002
#
# number of rings (size 3 to 8) (size 9 to 14) (size 15 to 20)
#    0.000    1.667    1.667    2.500    2.333    0.000 
#    0.000    2.500    0.000    0.000    0.000    0.000 
#    0.000    0.000    0.000    0.000    0.000    0.000 
#
# Total GULP energy -267203.898997 kJ/mol
# GULP energy per Si atom -5566.747896 kJ/mol
# Density = 2.122143 g / cm^3
# Si number density = 21.269843 Si / 1000 Ang^3
#
#
#
# Elastic Constant Matrix: (Units=GPa)
#
#
# Indices 1 2 3 4 5 6 
#
# 1 86.5591 16.6156 5.1425 0.0000 0.0000 0.0000
# 2 16.6156 78.2469 12.8942 0.0000 0.0000 0.0000
# 3 5.1425 12.8942 126.8259 0.0000 0.0000 0.0000
# 4 0.0000 0.0000 0.0000 4.0427 0.0000 0.0000
# 5 0.0000 0.0000 0.0000 0.0000 31.1361 0.0000
# 6 0.0000 0.0000 0.0000 0.0000 0.0000 7.3861
#
#
#
# Elastic Compliance Matrix: (Units=1/GPa)
#
#
# Indices 1 2 3 4 5 6 
#
# 1 0.012050 -0.002521 -0.000232 0.000000 0.000000 0.000000
# 2 -0.002521 0.013525 -0.001273 0.000000 0.000000 0.000000
# 3 -0.000232 -0.001273 0.008024 0.000000 0.000000 0.000000
# 4 0.000000 0.000000 0.000000 0.247362 0.000000 0.000000
# 5 0.000000 0.000000 0.000000 0.000000 0.032117 0.000000
# 6 0.000000 0.000000 0.000000 0.000000 0.000000 0.135389
#
#
# Mechanical properties :
#
#
# Convention : Reuss Voigt Hill
#
# Bulk Modulus (GPa) = 39.14275 40.10406 39.62341
# Shear Modulus (GPa) = 10.75189 25.64494 18.19842
#
# Velocity S-wave (km/s) = 2.25077 3.47608 2.92823
# Velocity P-wave (km/s) = 5.01971 5.91664 5.48654
#
# Compressibility (1/GPa) = 0.02554752
#
# Stress axis : x y z
#
# Youngs Moduli (GPa) = 82.98443 73.93680 124.63146
#
# Poissons Ratio (x) = 0.18637 0.02896
# Poissons Ratio (y) = 0.20917 0.15864
# Poissons Ratio (z) = 0.01928 0.09411
#
# Static dielectric constant tensor:
#      x y z
#    x 1.770170 0.000000 0.000000 
#    y 0.000000 1.792370 0.000000 
#    z 0.000000 0.000000 1.775860 
# 
# From -- ./inp_files/21872.got.cif
#   From: 2010.05.17/outbox.cif.g08.bks.cpg/sg57_11_cif.got.tgz:21872.got - 2010.06.03 13:58:18.
