data_PCOD9438575
_publ_section_title
;
Structure prediction by ZEFSAII (Michael W. Deem and Ramdas Pophale) SiO2 
 PCOD9438575
Probable space group: P B C M
;
_chemical_formula_sum "Si O2"
_cell_formula_units_Z 56
_cell_length_a 4.828583
_cell_length_b 24.393275
_cell_length_c 19.337533
_cell_angle_alpha 90.000000
_cell_angle_beta 90.000000
_cell_angle_gamma 90.000000
_cell_volume 2277.670415
_symmetry_space_group_name_H-M "P B C M"
_symmetry_group_IT_number 57
_symmetry_cell_setting 'orthorhombic'
loop_
_space_group_symop_operation_xyz
x,y,z
-x,-y,1/2+z
x,1/2-y,-z
-x,1/2+y,1/2-z
-x,-y,-z
x,y,1/2-z
-x,1/2+y,z
x,1/2-y,1/2+z
loop_
_atom_site_type_symbol
_atom_site_label
_atom_site_fract_x
_atom_site_fract_y
_atom_site_fract_z
Si Si1 0.330021 0.839295 0.829166
Si Si2 0.777748 0.400259 0.402039
Si Si3 0.446611 0.502385 0.673448
Si Si4 0.943413 0.055924 0.111102
Si Si5 0.166593 0.234159 0.330152
Si Si6 0.711954 0.907550 0.484904
Si Si7 0.525021 0.702514 0.550859
O O1 0.284647 0.857439 0.750000
O O2 0.646111 0.821062 0.835906
O O3 0.209289 0.886261 0.876949
O O4 0.148752 0.784469 0.839595
O O5 0.672872 0.436798 0.339428
O O6 0.097876 0.406960 0.416561
O O7 0.690037 0.336940 0.408591
O O8 0.596926 0.425486 0.466150
O O9 0.562879 0.496920 0.750000
O O10 0.185175 0.461674 0.664309
O O11 0.689788 0.485775 0.620778
O O12 0.123546 0.059870 0.041838
O O13 0.202955 0.253832 0.250000
O O14 0.275527 0.272822 0.390680
O O15 0.679763 0.842084 0.498659
O O16 0.416547 0.750000 0.500000
#
# Coordination Sequence:
#
# PCOD9438575 Si02
#       7
#     8   8   8   8   8   8   8
#     4  10  21  37  58  92 126 162 212 268 328 391
#     4  10  25  44  63  97 129 174 214 276 326 396
#     4  12  26  44  68  98 130 177 225 269 334 408
#     4  12  24  41  71  95 134 173 219 280 338 399
#     4  10  22  38  62  91 128 172 216 269 335 404
#     4  10  24  42  64  99 126 173 217 273 338 386
#     4  10  24  42  67  96 131 173 221 275 330 393
#
# _framework density 24.586524000000001
#
# number of rings (size 3 to 8) (size 9 to 14) (size 15 to 20)
#    0.857    0.571    0.000    4.714    4.000    5.714 
#    0.000    0.714    0.000    0.000    0.000    0.000 
#    0.000    0.000    0.000    0.000    0.000    0.000 
#
# Total GULP energy -312892.495649 kJ/mol
# GULP energy per Si atom -5587.365994 kJ/mol
# Density = 2.453056 g / cm^3
# Si number density = 24.586524 Si / 1000 Ang^3
#
#
#
# Elastic Constant Matrix: (Units=GPa)
#
#
# Indices 1 2 3 4 5 6 
#
# 1 78.7100 18.3690 -17.1660 0.0000 0.0000 0.0000
# 2 18.3690 94.5354 34.7680 0.0000 0.0000 0.0000
# 3 -17.1660 34.7680 45.7206 0.0000 0.0000 0.0000
# 4 0.0000 0.0000 0.0000 21.7313 0.0000 0.0000
# 5 0.0000 0.0000 0.0000 0.0000 21.2987 0.0000
# 6 0.0000 0.0000 0.0000 0.0000 0.0000 31.1390
#
#
#
# Elastic Compliance Matrix: (Units=1/GPa)
#
#
# Indices 1 2 3 4 5 6 
#
# 1 0.017312 -0.007988 0.012574 0.000000 0.000000 0.000000
# 2 -0.007988 0.018371 -0.016970 0.000000 0.000000 0.000000
# 3 0.012574 -0.016970 0.039498 0.000000 0.000000 0.000000
# 4 0.000000 0.000000 0.000000 0.046017 0.000000 0.000000
# 5 0.000000 0.000000 0.000000 0.000000 0.046951 0.000000
# 6 0.000000 0.000000 0.000000 0.000000 0.000000 0.032114
#
#
# Mechanical properties :
#
#
# Convention : Reuss Voigt Hill
#
# Bulk Modulus (GPa) = 19.83609 32.32313 26.07961
# Shear Modulus (GPa) = 20.67536 27.03346 23.85441
#
# Velocity S-wave (km/s) = 2.90301 3.31950 3.11822
# Velocity P-wave (km/s) = 4.39568 5.27895 4.85744
#
# Compressibility (1/GPa) = 0.05041316
#
# Stress axis : x y z
#
# Youngs Moduli (GPa) = 57.76502 54.43269 25.31802
#
# Poissons Ratio (x) = 0.43483 -0.31836
# Poissons Ratio (y) = 0.46145 0.42964
# Poissons Ratio (z) = -0.72636 0.92370
#
# Static dielectric constant tensor:
#      x y z
#    x 1.885350 0.000000 0.000000 
#    y 0.000000 1.997870 0.000000 
#    z 0.000000 0.000000 1.988840 
# 
# From -- ./inp_files/23837.got.cif
#   From: 2010.05.17/outbox.cif.g08.bks.cpg/sg57_12_cif.got.tgz:23837.got - 2010.06.03 13:58:18.
