data_PCOD9438761
_publ_section_title
;
Structure prediction by ZEFSAII (Michael W. Deem and Ramdas Pophale) SiO2 
 PCOD9438761
Probable space group: P B C M
;
_chemical_formula_sum "Si O2"
_cell_formula_units_Z 40
_cell_length_a 26.123181
_cell_length_b 9.296801
_cell_length_c 8.590868
_cell_angle_alpha 90.000000
_cell_angle_beta 90.000000
_cell_angle_gamma 90.000000
_cell_volume 2086.395515
_symmetry_space_group_name_H-M "P B C M"
_symmetry_group_IT_number 57
_symmetry_cell_setting 'orthorhombic'
loop_
_space_group_symop_operation_xyz
x,y,z
-x,-y,1/2+z
x,1/2-y,-z
-x,1/2+y,1/2-z
-x,-y,-z
x,y,1/2-z
-x,1/2+y,z
x,1/2-y,1/2+z
loop_
_atom_site_type_symbol
_atom_site_label
_atom_site_fract_x
_atom_site_fract_y
_atom_site_fract_z
Si Si1 0.354487 0.088214 0.436454
Si Si2 0.952179 0.910576 0.563694
Si Si3 0.548653 0.087614 0.063342
Si Si4 0.852011 0.089805 0.937301
Si Si5 0.740760 0.412140 0.936369
O O1 0.358960 0.250000 0.500000
O O2 0.356794 0.088994 0.250000
O O3 0.400583 0.992308 0.503544
O O4 0.301712 0.016826 0.493373
O O5 0.953987 0.750000 0.500000
O O6 0.954838 0.908534 0.750000
O O7 0.898916 0.987304 0.519089
O O8 0.000000 0.000000 0.500000
O O9 0.547925 0.089366 0.250000
O O10 0.547350 0.250000 0.000000
O O11 0.500000 0.000000 0.000000
O O12 0.847282 0.094742 0.750000
O O13 0.862770 0.250000 0.000000
O O14 0.797720 0.044505 0.009510
O O15 0.737664 0.410574 0.750000
O O16 0.732280 0.250000 0.000000
#
# Coordination Sequence:
#
# PCOD9438761 Si02
#       5
#     8   8   8   8   8
#     4  12  25  43  64  91 125 163 205 253 304 360
#     4  11  24  40  61  87 119 156 199 246 299 357
#     4  12  25  44  67  95 127 164 206 252 304 361
#     4  10  21  38  60  88 119 156 199 248 300 358
#     4  11  22  39  63  91 122 161 203 249 300 358
#
# _framework density 19.171818999999999
#
# number of rings (size 3 to 8) (size 9 to 14) (size 15 to 20)
#    0.000    0.800    0.000    9.600    0.000    5.600 
#    0.000    2.000    0.000    0.000    0.000    0.000 
#    0.000    0.000    0.000    0.000    0.000    0.000 
#
# Total GULP energy -223932.030159 kJ/mol
# GULP energy per Si atom -5598.300754 kJ/mol
# Density = 1.912818 g / cm^3
# Si number density = 19.171819 Si / 1000 Ang^3
#
#
#
# Elastic Constant Matrix: (Units=GPa)
#
#
# Indices 1 2 3 4 5 6 
#
# 1 176.0502 136.7562 83.6678 0.0000 0.0000 0.0000
# 2 136.7562 179.4993 81.5202 0.0000 0.0000 0.0000
# 3 83.6678 81.5202 179.4459 0.0000 0.0000 0.0000
# 4 0.0000 0.0000 0.0000 39.8909 0.0000 0.0000
# 5 0.0000 0.0000 0.0000 0.0000 39.5058 0.0000
# 6 0.0000 0.0000 0.0000 0.0000 0.0000 41.5817
#
#
#
# Elastic Compliance Matrix: (Units=1/GPa)
#
#
# Indices 1 2 3 4 5 6 
#
# 1 0.014578 -0.010105 -0.002207 0.000000 0.000000 0.000000
# 2 -0.010105 0.014023 -0.001659 0.000000 0.000000 0.000000
# 3 -0.002207 -0.001659 0.007355 0.000000 0.000000 0.000000
# 4 0.000000 0.000000 0.000000 0.025068 0.000000 0.000000
# 5 0.000000 0.000000 0.000000 0.000000 0.025313 0.000000
# 6 0.000000 0.000000 0.000000 0.000000 0.000000 0.024049
#
#
# Mechanical properties :
#
#
# Convention : Reuss Voigt Hill
#
# Bulk Modulus (GPa) = 124.75778 126.54266 125.65022
# Shear Modulus (GPa) = 35.46106 39.73243 37.59675
#
# Velocity S-wave (km/s) = 4.30542 4.55734 4.43317
# Velocity P-wave (km/s) = 9.48316 9.68712 9.58568
#
# Compressibility (1/GPa) = 0.00801553
#
# Stress axis : x y z
#
# Youngs Moduli (GPa) = 68.59529 71.31133 135.95479
#
# Poissons Ratio (x) = 0.72057 0.30003
# Poissons Ratio (y) = 0.69313 0.22557
# Poissons Ratio (z) = 0.15138 0.11832
#
# Static dielectric constant tensor:
#      x y z
#    x 1.649530 0.000000 0.000000 
#    y 0.000000 1.626060 0.000000 
#    z 0.000000 0.000000 1.641730 
# 
# From -- ./inp_files/8908.got.cif
#   From: 2010.05.17/outbox.cif.g08.bks.cpg/sg57_5_cif.got.tgz:8908.got - 2010.06.03 13:58:18.
