data_PCOD9438995
_publ_section_title
;
Structure prediction by ZEFSAII (Michael W. Deem and Ramdas Pophale) SiO2 
 PCOD9438995
Probable space group: P B C M
;
_chemical_formula_sum "Si O2"
_cell_formula_units_Z 64
_cell_length_a 15.540852
_cell_length_b 9.047979
_cell_length_c 24.620478
_cell_angle_alpha 90.000000
_cell_angle_beta 90.000000
_cell_angle_gamma 90.000000
_cell_volume 3461.966722
_symmetry_space_group_name_H-M "P B C M"
_symmetry_group_IT_number 57
_symmetry_cell_setting 'orthorhombic'
loop_
_space_group_symop_operation_xyz
x,y,z
-x,-y,1/2+z
x,1/2-y,-z
-x,1/2+y,1/2-z
-x,-y,-z
x,y,1/2-z
-x,1/2+y,z
x,1/2-y,1/2+z
loop_
_atom_site_type_symbol
_atom_site_label
_atom_site_fract_x
_atom_site_fract_y
_atom_site_fract_z
Si Si1 0.100270 0.233421 0.686214
Si Si2 0.288472 0.874931 0.110524
Si Si3 0.895389 0.293786 0.437400
Si Si4 0.546329 0.115058 0.960613
Si Si5 0.389183 0.828414 0.688104
Si Si6 0.289217 0.156995 0.185993
Si Si7 0.549245 0.650945 0.651095
Si Si8 0.990306 0.029134 0.122314
O O1 0.080171 0.232707 0.750000
O O2 0.202812 0.246871 0.679733
O O3 0.062344 0.087971 0.658147
O O4 0.056922 0.376616 0.658556
O O5 0.200856 0.837972 0.079827
O O6 0.364764 0.925186 0.069684
O O7 0.321178 0.732840 0.144586
O O8 0.276258 0.005165 0.153949
O O9 0.899794 0.250000 0.500000
O O10 0.957294 0.430810 0.421324
O O11 0.928463 0.150889 0.404316
O O12 0.481189 0.153290 0.911468
O O13 0.566831 0.250000 0.000000
O O14 0.500000 0.000000 0.000000
O O15 0.357053 0.837300 0.750000
O O16 0.467872 0.712321 0.684454
O O17 0.425676 0.986503 0.669389
O O18 0.302876 0.129256 0.250000
O O19 0.370727 0.242993 0.162321
#
# Coordination Sequence:
#
# PCOD9438995 Si02
#       8
#     8   8   8   8   8   8   8   8
#     4  10  21  39  64  94 128 162 200 253 314 378
#     4  11  23  40  60  92 121 159 206 251 304 367
#     4  11  23  42  67  90 124 164 209 265 312 364
#     4  11  22  40  61  84 118 160 201 250 299 350
#     4  11  22  38  60  89 121 160 196 242 304 363
#     4  11  22  39  60  88 125 160 196 249 305 366
#     4  11  23  38  61  87 122 157 206 247 296 365
#     4  10  22  42  65  93 123 162 211 252 319 377
#
# _framework density 18.486601
#
# number of rings (size 3 to 8) (size 9 to 14) (size 15 to 20)
#    0.000    1.250    1.250    6.375    1.750    0.000 
#    0.000    1.250    0.000    0.000    0.000    0.000 
#    0.000    0.000    0.000    0.000    0.000    0.000 
#
# Total GULP energy -357608.538308 kJ/mol
# GULP energy per Si atom -5587.633411 kJ/mol
# Density = 1.844453 g / cm^3
# Si number density = 18.486601 Si / 1000 Ang^3
#
#
#
# Elastic Constant Matrix: (Units=GPa)
#
#
# Indices 1 2 3 4 5 6 
#
# 1 101.9980 21.6431 55.1810 0.0000 0.0000 0.0000
# 2 21.6431 66.8974 18.2317 0.0000 0.0000 0.0000
# 3 55.1810 18.2317 119.0641 0.0000 0.0000 0.0000
# 4 0.0000 0.0000 0.0000 26.6290 0.0000 0.0000
# 5 0.0000 0.0000 0.0000 0.0000 20.5540 0.0000
# 6 0.0000 0.0000 0.0000 0.0000 0.0000 17.8470
#
#
#
# Elastic Compliance Matrix: (Units=1/GPa)
#
#
# Indices 1 2 3 4 5 6 
#
# 1 0.013567 -0.002792 -0.005860 0.000000 0.000000 0.000000
# 2 -0.002792 0.016174 -0.001183 0.000000 0.000000 0.000000
# 3 -0.005860 -0.001183 0.011296 0.000000 0.000000 0.000000
# 4 0.000000 0.000000 0.000000 0.037553 0.000000 0.000000
# 5 0.000000 0.000000 0.000000 0.000000 0.048652 0.000000
# 6 0.000000 0.000000 0.000000 0.000000 0.000000 0.056032
#
#
# Mechanical properties :
#
#
# Convention : Reuss Voigt Hill
#
# Bulk Modulus (GPa) = 46.80140 53.11901 49.96020
# Shear Modulus (GPa) = 23.80207 25.86625 24.83416
#
# Velocity S-wave (km/s) = 3.59211 3.74463 3.66916
# Velocity P-wave (km/s) = 6.52500 6.89148 6.71075
#
# Compressibility (1/GPa) = 0.02136688
#
# Stress axis : x y z
#
# Youngs Moduli (GPa) = 73.70858 61.82800 88.52819
#
# Poissons Ratio (x) = 0.17264 0.51879
# Poissons Ratio (y) = 0.20581 0.10469
# Poissons Ratio (z) = 0.43194 0.07312
#
# Static dielectric constant tensor:
#      x y z
#    x 1.625930 0.000000 0.000000 
#    y 0.000000 1.617590 0.000000 
#    z 0.000000 0.000000 1.616650 
# 
# From -- ./inp_files/27458.got.cif
#   From: 2010.05.17/outbox.cif.g08.bks.cpg/sg57_14_cif.got.tgz:27458.got - 2010.06.03 13:58:18.
