data_PCOD9438562
_publ_section_title
;
Structure prediction by ZEFSAII (Michael W. Deem and Ramdas Pophale) SiO2 
 PCOD9438562
Probable space group: P B C M
;
_chemical_formula_sum "Si O2"
_cell_formula_units_Z 64
_cell_length_a 21.255778
_cell_length_b 19.103694
_cell_length_c 8.650687
_cell_angle_alpha 90.000000
_cell_angle_beta 90.000000
_cell_angle_gamma 90.000000
_cell_volume 3512.731516
_symmetry_space_group_name_H-M "P B C M"
_symmetry_group_IT_number 57
_symmetry_cell_setting 'orthorhombic'
loop_
_space_group_symop_operation_xyz
x,y,z
-x,-y,1/2+z
x,1/2-y,-z
-x,1/2+y,1/2-z
-x,-y,-z
x,y,1/2-z
-x,1/2+y,z
x,1/2-y,1/2+z
loop_
_atom_site_type_symbol
_atom_site_label
_atom_site_fract_x
_atom_site_fract_y
_atom_site_fract_z
Si Si1 0.806834 0.529111 0.064992
Si Si2 0.876216 0.325681 0.935375
Si Si3 0.064495 0.530512 0.064195
Si Si4 0.499161 0.578177 0.065333
Si Si5 0.254226 0.176856 0.064899
Si Si6 0.256686 0.605994 0.435958
Si Si7 0.615034 0.328725 0.065000
Si Si8 0.394641 0.324949 0.434722
O O1 0.806921 0.519869 0.250000
O O2 0.786397 0.608283 0.030398
O O3 0.758855 0.472568 0.992186
O O4 0.875392 0.511821 0.998277
O O5 0.877123 0.322648 0.750000
O O6 0.922224 0.388826 0.983530
O O7 0.891959 0.250000 0.000000
O O8 0.805326 0.348997 0.980584
O O9 0.064501 0.527835 0.250000
O O10 0.000000 0.500000 0.000000
O O11 0.495682 0.577144 0.250000
O O12 0.500000 0.500000 0.000000
O O13 0.440923 0.622831 0.999069
O O14 0.562425 0.616016 0.009090
O O15 0.262080 0.182618 0.250000
O O16 0.227842 0.250000 0.000000
O O17 0.322592 0.167424 0.987877
O O18 0.262304 0.893186 0.750000
O O19 0.318791 0.638212 0.510574
O O20 0.612191 0.326668 0.250000
O O21 0.609449 0.250000 0.000000
O O22 0.416861 0.250000 0.500000
O O23 0.399135 0.325776 0.250000
#
# Coordination Sequence:
#
# PCOD9438562 Si02
#       8
#     8   8   8   8   8   8   8   8
#     4  10  21  37  59  87 119 154 193 239 291 346
#     4   9  19  34  55  84 116 149 189 235 280 336
#     4  10  21  38  59  85 117 154 197 239 285 341
#     4  12  26  44  62  84 114 150 194 243 295 353
#     4  10  21  37  59  87 117 150 194 244 295 349
#     4  10  21  37  58  87 120 155 195 239 289 347
#     4  12  25  42  62  87 119 155 195 241 294 352
#     4  11  22  39  62  86 113 150 192 239 294 351
#
# _framework density 18.219439999999999
#
# number of rings (size 3 to 8) (size 9 to 14) (size 15 to 20)
#    0.000    1.500    0.000    7.125    1.750    6.000 
#    0.000    0.625    0.000    0.000    0.000    0.000 
#    0.000    0.000    0.000    0.000    0.000    0.000 
#
# Total GULP energy -357728.130384 kJ/mol
# GULP energy per Si atom -5589.502037 kJ/mol
# Density = 1.817797 g / cm^3
# Si number density = 18.219440 Si / 1000 Ang^3
#
#
#
# Elastic Constant Matrix: (Units=GPa)
#
#
# Indices 1 2 3 4 5 6 
#
# 1 84.9692 85.2291 50.7323 0.0000 0.0000 0.0000
# 2 85.2291 189.9870 78.7800 0.0000 0.0000 0.0000
# 3 50.7323 78.7800 130.5638 0.0000 0.0000 0.0000
# 4 0.0000 0.0000 0.0000 37.0627 0.0000 0.0000
# 5 0.0000 0.0000 0.0000 0.0000 33.1196 0.0000
# 6 0.0000 0.0000 0.0000 0.0000 0.0000 22.4143
#
#
#
# Elastic Compliance Matrix: (Units=1/GPa)
#
#
# Indices 1 2 3 4 5 6 
#
# 1 0.022566 -0.008652 -0.003548 0.000000 0.000000 0.000000
# 2 -0.008652 0.010337 -0.002875 0.000000 0.000000 0.000000
# 3 -0.003548 -0.002875 0.010773 0.000000 0.000000 0.000000
# 4 0.000000 0.000000 0.000000 0.026981 0.000000 0.000000
# 5 0.000000 0.000000 0.000000 0.000000 0.030194 0.000000
# 6 0.000000 0.000000 0.000000 0.000000 0.000000 0.044614
#
#
# Mechanical properties :
#
#
# Convention : Reuss Voigt Hill
#
# Bulk Modulus (GPa) = 73.93641 92.77810 83.35726
# Shear Modulus (GPa) = 27.75879 31.23790 29.49835
#
# Velocity S-wave (km/s) = 3.90754 4.14519 4.02812
# Velocity P-wave (km/s) = 7.81202 8.59903 8.21495
#
# Compressibility (1/GPa) = 0.01352514
#
# Stress axis : x y z
#
# Youngs Moduli (GPa) = 44.31529 96.73849 92.82813
#
# Poissons Ratio (x) = 0.83697 0.32933
# Poissons Ratio (y) = 0.38341 0.26692
# Poissons Ratio (z) = 0.15722 0.27817
#
# Static dielectric constant tensor:
#      x y z
#    x 1.596370 0.000000 0.000000 
#    y 0.000000 1.591720 0.000000 
#    z 0.000000 0.000000 1.609790 
# 
# From -- ./inp_files/8384.got.cif
#   From: 2010.05.17/outbox.cif.g08.bks.cpg/sg57_5_cif.got.tgz:8384.got - 2010.06.03 13:58:18.
