data_PCOD9438787
_publ_section_title
;
Structure prediction by ZEFSAII (Michael W. Deem and Ramdas Pophale) SiO2 
 PCOD9438787
Probable space group: P B C M
;
_chemical_formula_sum "Si O2"
_cell_formula_units_Z 48
_cell_length_a 17.051398
_cell_length_b 16.043146
_cell_length_c 8.907496
_cell_angle_alpha 90.000000
_cell_angle_beta 90.000000
_cell_angle_gamma 90.000000
_cell_volume 2436.717393
_symmetry_space_group_name_H-M "P B C M"
_symmetry_group_IT_number 57
_symmetry_cell_setting 'orthorhombic'
loop_
_space_group_symop_operation_xyz
x,y,z
-x,-y,1/2+z
x,1/2-y,-z
-x,1/2+y,1/2-z
-x,-y,-z
x,y,1/2-z
-x,1/2+y,z
x,1/2-y,1/2+z
loop_
_atom_site_type_symbol
_atom_site_label
_atom_site_fract_x
_atom_site_fract_y
_atom_site_fract_z
Si Si1 0.348375 0.419799 0.574352
Si Si2 0.492287 0.338199 0.428904
Si Si3 0.826858 0.165914 0.427835
Si Si4 0.183987 0.340016 0.931283
Si Si5 0.331568 0.884857 0.426830
Si Si6 0.913577 0.506462 0.568509
O O1 0.365713 0.404907 0.750000
O O2 0.426726 0.402480 0.482515
O O3 0.274607 0.362693 0.530730
O O4 0.323680 0.515673 0.558179
O O5 0.470555 0.250000 0.500000
O O6 0.491801 0.333487 0.250000
O O7 0.580804 0.360743 0.476240
O O8 0.860842 0.250000 0.500000
O O9 0.831087 0.173601 0.250000
O O10 0.737030 0.157155 0.480174
O O11 0.869342 0.079881 0.471825
O O12 0.176750 0.339353 0.750000
O O13 0.164159 0.250000 0.000000
O O14 0.131199 0.413938 0.999537
O O15 0.322910 0.863708 0.250000
O O16 0.915520 0.513200 0.750000
O O17 0.000000 0.500000 0.500000
#
# Coordination Sequence:
#
# PCOD9438787 Si02
#       6
#     8   8   8   8   8   8
#     4  10  21  38  61  88 121 163 210 260 317 372
#     4  11  23  36  54  82 120 163 211 262 311 367
#     4  11  24  41  66  97 128 167 211 257 312 375
#     4  11  23  41  67  96 130 170 212 263 318 380
#     4  10  21  39  61  88 122 163 209 260 315 370
#     4  11  25  45  69  98 130 166 209 259 318 382
#
# _framework density 19.698632
#
# number of rings (size 3 to 8) (size 9 to 14) (size 15 to 20)
#    0.000    1.333    1.667    3.500    0.000    8.667 
#    0.000    1.667    0.000    0.000    0.000    0.000 
#    0.000    0.000    0.000    0.000    0.000    0.000 
#
# Total GULP energy -268371.898918 kJ/mol
# GULP energy per Si atom -5591.081227 kJ/mol
# Density = 1.965380 g / cm^3
# Si number density = 19.698632 Si / 1000 Ang^3
#
#
#
# Elastic Constant Matrix: (Units=GPa)
#
#
# Indices 1 2 3 4 5 6 
#
# 1 108.1197 46.1750 43.1678 0.0000 0.0000 0.0000
# 2 46.1750 114.2222 47.6740 0.0000 0.0000 0.0000
# 3 43.1678 47.6740 50.3656 0.0000 0.0000 0.0000
# 4 0.0000 0.0000 0.0000 32.2438 0.0000 0.0000
# 5 0.0000 0.0000 0.0000 0.0000 29.5888 0.0000
# 6 0.0000 0.0000 0.0000 0.0000 0.0000 7.6157
#
#
#
# Elastic Compliance Matrix: (Units=1/GPa)
#
#
# Indices 1 2 3 4 5 6 
#
# 1 0.014142 -0.001088 -0.011091 0.000000 0.000000 0.000000
# 2 -0.001088 0.014556 -0.012846 0.000000 0.000000 0.000000
# 3 -0.011091 -0.012846 0.041521 0.000000 0.000000 0.000000
# 4 0.000000 0.000000 0.000000 0.031014 0.000000 0.000000
# 5 0.000000 0.000000 0.000000 0.000000 0.033797 0.000000
# 6 0.000000 0.000000 0.000000 0.000000 0.000000 0.131308
#
#
# Mechanical properties :
#
#
# Convention : Reuss Voigt Hill
#
# Bulk Modulus (GPa) = 49.58197 60.74901 55.16549
# Shear Modulus (GPa) = 15.47462 22.93570 19.20516
#
# Velocity S-wave (km/s) = 2.80584 3.41593 3.12580
# Velocity P-wave (km/s) = 5.97678 6.81647 6.41039
#
# Compressibility (1/GPa) = 0.02016862
#
# Stress axis : x y z
#
# Youngs Moduli (GPa) = 70.71224 68.69895 24.08436
#
# Poissons Ratio (x) = 0.07472 0.26713
# Poissons Ratio (y) = 0.07691 0.30939
# Poissons Ratio (z) = 0.78429 0.88252
#
# Static dielectric constant tensor:
#      x y z
#    x 1.675600 0.000000 0.000000 
#    y 0.000000 1.703930 0.000000 
#    z 0.000000 0.000000 1.664070 
# 
# From -- ./inp_files/6534.got.cif
#   From: 2010.05.17/outbox.cif.g08.bks.cpg/sg57_4_cif.got.tgz:6534.got - 2010.06.03 13:58:18.
