data_PCOD9438665
_publ_section_title
;
Structure prediction by ZEFSAII (Michael W. Deem and Ramdas Pophale) SiO2 
 PCOD9438665
Probable space group: P B C M
;
_chemical_formula_sum "Si O2"
_cell_formula_units_Z 64
_cell_length_a 6.683884
_cell_length_b 26.141792
_cell_length_c 17.237133
_cell_angle_alpha 90.000000
_cell_angle_beta 90.000000
_cell_angle_gamma 90.000000
_cell_volume 3011.821932
_symmetry_space_group_name_H-M "P B C M"
_symmetry_group_IT_number 57
_symmetry_cell_setting 'orthorhombic'
loop_
_space_group_symop_operation_xyz
x,y,z
-x,-y,1/2+z
x,1/2-y,-z
-x,1/2+y,1/2-z
-x,-y,-z
x,y,1/2-z
-x,1/2+y,z
x,1/2-y,1/2+z
loop_
_atom_site_type_symbol
_atom_site_label
_atom_site_fract_x
_atom_site_fract_y
_atom_site_fract_z
Si Si1 0.293172 0.895152 0.837125
Si Si2 0.575100 0.519357 0.162398
Si Si3 0.089166 0.965361 0.431324
Si Si4 0.376916 0.630856 0.939570
Si Si5 0.709594 0.579538 0.661305
Si Si6 0.963144 0.679064 0.158208
Si Si7 0.464202 0.313841 0.905581
Si Si8 0.780912 0.265240 0.412818
O O1 0.247380 0.913816 0.750000
O O2 0.430525 0.938259 0.875567
O O3 0.089932 0.870742 0.869232
O O4 0.434859 0.845577 0.836137
O O5 0.624867 0.536604 0.250000
O O6 0.777211 0.504343 0.119684
O O7 0.436393 0.469567 0.166199
O O8 0.244311 0.919888 0.453560
O O9 0.908903 0.938945 0.383188
O O10 0.000000 0.000000 0.500000
O O11 0.570416 0.618635 0.886829
O O12 0.233655 0.674389 0.902339
O O13 0.455932 0.656769 0.018492
O O14 0.753534 0.596007 0.750000
O O15 0.923149 0.673304 0.250000
O O16 0.088649 0.730866 0.144403
O O17 0.768226 0.683751 0.106703
O O18 0.556129 0.257512 0.906586
O O19 0.850021 0.250000 0.500000
#
# Coordination Sequence:
#
# PCOD9438665 Si02
#       8
#     8   8   8   8   8   8   8   8
#     4   9  19  35  57  88 127 167 205 252 317 381
#     4   9  20  40  62  86 126 168 207 257 320 381
#     4  11  25  40  65  94 124 165 222 276 319 380
#     4  10  24  43  65  91 127 172 212 266 327 383
#     4  10  23  42  64  91 124 163 213 268 321 380
#     4  10  21  38  65  99 132 165 211 266 320 386
#     4  10  21  37  63  90 128 165 208 256 312 382
#     4   9  21  42  61  89 127 169 211 258 315 379
#
# _framework density 21.249597999999999
#
# number of rings (size 3 to 8) (size 9 to 14) (size 15 to 20)
#    0.000    2.250    0.000    0.750    3.500    9.000 
#    0.000    3.750    0.000    0.000    0.000    0.000 
#    0.000    0.000    0.000    0.000    0.000    0.000 
#
# Total GULP energy -356974.988573 kJ/mol
# GULP energy per Si atom -5577.734196 kJ/mol
# Density = 2.120123 g / cm^3
# Si number density = 21.249598 Si / 1000 Ang^3
#
#
#
# Elastic Constant Matrix: (Units=GPa)
#
#
# Indices 1 2 3 4 5 6 
#
# 1 119.4279 15.3753 41.1782 0.0000 0.0000 0.0000
# 2 15.3753 73.5262 21.9802 0.0000 0.0000 0.0000
# 3 41.1782 21.9802 85.1133 0.0000 0.0000 0.0000
# 4 0.0000 0.0000 0.0000 21.5748 0.0000 0.0000
# 5 0.0000 0.0000 0.0000 0.0000 21.9105 0.0000
# 6 0.0000 0.0000 0.0000 0.0000 0.0000 21.3603
#
#
#
# Elastic Compliance Matrix: (Units=1/GPa)
#
#
# Indices 1 2 3 4 5 6 
#
# 1 0.010083 -0.000705 -0.004696 0.000000 0.000000 0.000000
# 2 -0.000705 0.014788 -0.003478 0.000000 0.000000 0.000000
# 3 -0.004696 -0.003478 0.014919 0.000000 0.000000 0.000000
# 4 0.000000 0.000000 0.000000 0.046350 0.000000 0.000000
# 5 0.000000 0.000000 0.000000 0.000000 0.045640 0.000000
# 6 0.000000 0.000000 0.000000 0.000000 0.000000 0.046816
#
#
# Mechanical properties :
#
#
# Convention : Reuss Voigt Hill
#
# Bulk Modulus (GPa) = 45.38772 48.34831 46.86802
# Shear Modulus (GPa) = 24.54606 26.27136 25.40871
#
# Velocity S-wave (km/s) = 3.40241 3.51995 3.46168
# Velocity P-wave (km/s) = 6.06967 6.27073 6.17102
#
# Compressibility (1/GPa) = 0.02203239
#
# Stress axis : x y z
#
# Youngs Moduli (GPa) = 99.17441 67.62399 67.02705
#
# Poissons Ratio (x) = 0.04765 0.31478
# Poissons Ratio (y) = 0.06988 0.23312
# Poissons Ratio (z) = 0.46576 0.23519
#
# Static dielectric constant tensor:
#      x y z
#    x 1.772750 0.000000 0.000000 
#    y 0.000000 1.779470 0.000000 
#    z 0.000000 0.000000 1.837150 
# 
# From -- ./inp_files/20339.got.cif
#   From: 2010.05.17/outbox.cif.g08.bks.cpg/sg57_11_cif.got.tgz:20339.got - 2010.06.03 13:58:18.
