data_PCOD9438799
_publ_section_title
;
Structure prediction by ZEFSAII (Michael W. Deem and Ramdas Pophale) SiO2 
 PCOD9438799
Probable space group: P B C M
;
_chemical_formula_sum "Si O2"
_cell_formula_units_Z 64
_cell_length_a 16.313200
_cell_length_b 13.459690
_cell_length_c 12.064080
_cell_angle_alpha 90.000000
_cell_angle_beta 90.000000
_cell_angle_gamma 90.000000
_cell_volume 2648.917464
_symmetry_space_group_name_H-M "P B C M"
_symmetry_group_IT_number 57
_symmetry_cell_setting 'orthorhombic'
loop_
_space_group_symop_operation_xyz
x,y,z
-x,-y,1/2+z
x,1/2-y,-z
-x,1/2+y,1/2-z
-x,-y,-z
x,y,1/2-z
-x,1/2+y,z
x,1/2-y,1/2+z
loop_
_atom_site_type_symbol
_atom_site_label
_atom_site_fract_x
_atom_site_fract_y
_atom_site_fract_z
Si Si1 0.671523 0.026455 0.368812
Si Si2 0.594983 0.977969 0.633143
Si Si3 0.091155 0.899542 0.540141
Si Si4 0.947733 0.615217 0.626721
Si Si5 0.209524 0.240630 0.123381
Si Si6 0.222571 0.775408 0.628419
Si Si7 0.225901 0.024872 0.436740
Si Si8 0.525607 0.366329 0.499245
O O1 0.652965 0.981553 0.250000
O O2 0.727074 0.123578 0.357309
O O3 0.590305 0.073356 0.423695
O O4 0.730909 0.958166 0.442617
O O5 0.575568 0.931038 0.750000
O O6 0.690762 0.002270 0.626664
O O7 0.563011 0.899377 0.542780
O O8 0.546355 0.080622 0.615991
O O9 0.128849 0.810690 0.611235
O O10 0.011015 0.870413 0.472982
O O11 0.078177 0.999432 0.611683
O O12 0.160209 0.937547 0.451115
O O13 0.983013 0.628129 0.750000
O O14 0.869953 0.688381 0.618026
O O15 0.245464 0.254757 0.250000
O O16 0.252489 0.250000 0.000000
O O17 0.187921 0.122810 0.116240
O O18 0.248892 0.750000 0.500000
O O19 0.232219 0.722431 0.750000
O O20 0.537641 0.250000 0.500000
#
# Coordination Sequence:
#
# PCOD9438799 Si02
#       8
#     8   8   8   8   8   8   8   8
#     4   9  19  37  66  96 127 173 224 270 329 403
#     4  10  22  39  61  94 133 176 228 281 346 417
#     4  10  21  41  61  87 122 162 216 270 334 402
#     4  10  22  40  62  87 118 163 218 270 328 403
#     4  11  23  41  63  93 127 167 218 272 333 410
#     4  10  21  38  61  90 124 162 208 265 327 390
#     4  10  21  40  64  93 130 171 217 280 341 404
#     4  10  21  39  62  95 136 181 229 288 340 412
#
# _framework density 24.160813000000001
#
# number of rings (size 3 to 8) (size 9 to 14) (size 15 to 20)
#    0.000    2.000    1.250    1.500    0.000    4.500 
#    0.000   11.250    0.000    3.000    0.000    0.000 
#    0.000    0.000    0.000    0.000    0.000    0.000 
#
# Total GULP energy -356468.763636 kJ/mol
# GULP energy per Si atom -5569.824432 kJ/mol
# Density = 2.410582 g / cm^3
# Si number density = 24.160813 Si / 1000 Ang^3
#
#
#
# Elastic Constant Matrix: (Units=GPa)
#
#
# Indices 1 2 3 4 5 6 
#
# 1 73.2491 19.6575 17.7217 0.0000 0.0000 0.0000
# 2 19.6575 99.3316 25.0080 0.0000 0.0000 0.0000
# 3 17.7217 25.0080 160.9937 0.0000 0.0000 0.0000
# 4 0.0000 0.0000 0.0000 22.0687 0.0000 0.0000
# 5 0.0000 0.0000 0.0000 0.0000 -42.2204 0.0000
# 6 0.0000 0.0000 0.0000 0.0000 0.0000 4.1980
#
#
#
# Elastic Compliance Matrix: (Units=1/GPa)
#
#
# Indices 1 2 3 4 5 6 
#
# 1 0.014640 -0.002593 -0.001209 0.000000 0.000000 0.000000
# 2 -0.002593 0.010936 -0.001413 0.000000 0.000000 0.000000
# 3 -0.001209 -0.001413 0.006564 0.000000 0.000000 0.000000
# 4 0.000000 0.000000 0.000000 0.045313 0.000000 0.000000
# 5 0.000000 0.000000 0.000000 0.000000 -0.023685 0.000000
# 6 0.000000 0.000000 0.000000 0.000000 0.000000 0.238211
#
#
# Mechanical properties :
#
#
# Convention : Reuss Voigt Hill
#
# Bulk Modulus (GPa) = 46.06085 50.92766 48.49425
# Shear Modulus (GPa) = 16.14747 14.88839 15.51793
#
# Velocity S-wave (km/s) = 2.58802 2.48507 2.53707
# Velocity P-wave (km/s) = 5.29491 5.41835 5.35699
#
# Compressibility (1/GPa) = 0.02171041
#
# Stress axis : x y z
#
# Youngs Moduli (GPa) = 68.30439 91.43891 152.34550
#
# Poissons Ratio (x) = 0.23710 0.18415
# Poissons Ratio (y) = 0.17711 0.21532
# Poissons Ratio (z) = 0.08257 0.12924
#
# Static dielectric constant tensor:
#      x y z
#    x 1.952470 0.000000 0.000000 
#    y 0.000000 1.923210 0.000000 
#    z 0.000000 0.000000 2.157340 
# 
# From -- ./inp_files/14194.got.cif
#   From: 2010.05.17/outbox.cif.g08.bks.cpg/sg57_8_cif.got.tgz:14194.got - 2010.06.03 13:58:18.
