data_PCOD9438949
_publ_section_title
;
Structure prediction by ZEFSAII (Michael W. Deem and Ramdas Pophale) SiO2 
 PCOD9438949
Probable space group: P B C M
;
_chemical_formula_sum "Si O2"
_cell_formula_units_Z 40
_cell_length_a 6.738916
_cell_length_b 13.950897
_cell_length_c 15.467175
_cell_angle_alpha 90.000000
_cell_angle_beta 90.000000
_cell_angle_gamma 90.000000
_cell_volume 1454.129800
_symmetry_space_group_name_H-M "P B C M"
_symmetry_group_IT_number 57
_symmetry_cell_setting 'orthorhombic'
loop_
_space_group_symop_operation_xyz
x,y,z
-x,-y,1/2+z
x,1/2-y,-z
-x,1/2+y,1/2-z
-x,-y,-z
x,y,1/2-z
-x,1/2+y,z
x,1/2-y,1/2+z
loop_
_atom_site_type_symbol
_atom_site_label
_atom_site_fract_x
_atom_site_fract_y
_atom_site_fract_z
Si Si1 0.058144 0.383491 0.094045
Si Si2 0.492801 0.873946 0.845115
Si Si3 0.455484 0.750000 0.500000
Si Si4 0.514695 0.066909 0.915042
Si Si5 0.976413 0.105714 0.397324
Si Si6 0.047927 0.258724 0.750000
O O1 0.297119 0.392775 0.105920
O O2 0.982193 0.492634 0.102062
O O3 0.991753 0.317560 0.172507
O O4 0.018355 0.357869 0.993938
O O5 0.506719 0.828779 0.750000
O O6 0.564507 0.810699 0.925830
O O7 0.253558 0.879776 0.867291
O O8 0.563087 0.984350 0.846626
O O9 0.363882 0.837872 0.442135
O O10 0.500000 0.000000 0.000000
O O11 0.096173 0.160951 0.325121
#
# Coordination Sequence:
#
# PCOD9438949 Si02
#       6
#     8   8   4   8   8   4
#     4  10  23  40  63  89 128 169 205 261 320 379
#     4  10  21  39  63  87 122 165 203 253 317 376
#     4  10  22  38  64  88 118 158 220 260 302 368
#     4   9  21  42  62  85 121 165 207 254 309 369
#     4  10  22  40  59  90 130 161 200 255 326 383
#     4  12  22  34  64  98 120 158 216 254 316 384
#
# _framework density 27.507860999999998
#
# number of rings (size 3 to 8) (size 9 to 14) (size 15 to 20)
#    0.000    2.000    1.000    1.200    9.800    0.800 
#    0.000    0.000    0.000    0.000    0.000    0.000 
#    0.000    0.000    0.000    0.000    0.000    0.000 
#
# Total GULP energy -222699.835186 kJ/mol
# GULP energy per Si atom -5567.495880 kJ/mol
# Density = 2.744525 g / cm^3
# Si number density = 27.507861 Si / 1000 Ang^3
#
#
#
# Elastic Constant Matrix: (Units=GPa)
#
#
# Indices 1 2 3 4 5 6 
#
# 1 89.5428 -16.3870 30.0866 0.0000 0.0000 0.0000
# 2 -16.3870 227.1354 106.0627 0.0000 0.0000 0.0000
# 3 30.0866 106.0627 309.3106 0.0000 0.0000 0.0000
# 4 0.0000 0.0000 0.0000 31.0004 0.0000 0.0000
# 5 0.0000 0.0000 0.0000 0.0000 12.8926 0.0000
# 6 0.0000 0.0000 0.0000 0.0000 0.0000 2.0418
#
#
#
# Elastic Compliance Matrix: (Units=1/GPa)
#
#
# Indices 1 2 3 4 5 6 
#
# 1 0.012066 0.001689 -0.001753 0.000000 0.000000 0.000000
# 2 0.001689 0.005478 -0.002043 0.000000 0.000000 0.000000
# 3 -0.001753 -0.002043 0.004104 0.000000 0.000000 0.000000
# 4 0.000000 0.000000 0.000000 0.032258 0.000000 0.000000
# 5 0.000000 0.000000 0.000000 0.000000 0.077564 0.000000
# 6 0.000000 0.000000 0.000000 0.000000 0.000000 0.489758
#
#
# Mechanical properties :
#
#
# Convention : Reuss Voigt Hill
#
# Bulk Modulus (GPa) = 57.35589 96.16816 76.76203
# Shear Modulus (GPa) = 7.92075 42.93540 25.42808
#
# Velocity S-wave (km/s) = 1.69874 3.95503 3.04368
# Velocity P-wave (km/s) = 4.97429 7.47613 6.34965
#
# Compressibility (1/GPa) = 0.01743500
#
# Stress axis : x y z
#
# Youngs Moduli (GPa) = 82.87828 182.53375 243.66561
#
# Poissons Ratio (x) = -0.30830 0.42710
# Poissons Ratio (y) = -0.13998 0.49777
# Poissons Ratio (z) = 0.14527 0.37289
#
# Static dielectric constant tensor:
#      x y z
#    x 2.406840 0.000000 0.000000 
#    y 0.000000 2.297860 0.000000 
#    z 0.000000 0.000000 2.077400 
# 
# From -- ./inp_files/15970.got.cif
#   From: 2010.05.17/outbox.cif.g08.bks.cpg/sg57_8_cif.got.tgz:15970.got - 2010.06.03 13:58:18.
