data_PCOD9438620
_publ_section_title
;
Structure prediction by ZEFSAII (Michael W. Deem and Ramdas Pophale) SiO2 
 PCOD9438620
Probable space group: P B C M
;
_chemical_formula_sum "Si O2"
_cell_formula_units_Z 36
_cell_length_a 12.920801
_cell_length_b 5.227528
_cell_length_c 24.935768
_cell_angle_alpha 90.000000
_cell_angle_beta 90.000000
_cell_angle_gamma 90.000000
_cell_volume 1684.257749
_symmetry_space_group_name_H-M "P B C M"
_symmetry_group_IT_number 57
_symmetry_cell_setting 'orthorhombic'
loop_
_space_group_symop_operation_xyz
x,y,z
-x,-y,1/2+z
x,1/2-y,-z
-x,1/2+y,1/2-z
-x,-y,-z
x,y,1/2-z
-x,1/2+y,z
x,1/2-y,1/2+z
loop_
_atom_site_type_symbol
_atom_site_label
_atom_site_fract_x
_atom_site_fract_y
_atom_site_fract_z
Si Si1 0.540752 0.137451 0.811400
Si Si2 0.753360 0.795423 0.912413
Si Si3 0.069319 0.731744 0.750000
Si Si4 0.236586 0.703913 0.157408
Si Si5 0.070793 0.250000 0.000000
Si Si6 0.426820 0.250000 0.500000
O O1 0.504852 0.095464 0.750000
O O2 0.473903 0.361781 0.837709
O O3 0.657221 0.231223 0.812150
O O4 0.755775 0.580102 0.866381
O O5 0.853213 0.746064 0.949239
O O6 0.764474 0.080955 0.888945
O O7 0.651392 0.762379 0.949178
O O8 0.141309 0.765009 0.802311
O O9 0.016262 0.454644 0.750000
O O10 0.000000 0.500000 0.000000
O O11 0.500000 0.500000 0.500000
#
# Coordination Sequence:
#
# PCOD9438620 Si02
#       6
#     8   8   4   8   4   4
#     4  10  21  37  60  89 123 165 208 249 300 359
#     4  11  26  41  68 100 127 170 219 266 327 395
#     4  12  28  46  66  94 132 180 226 276 336 388
#     4  12  24  44  65  96 135 169 220 271 319 386
#     4  11  24  45  68  92 124 159 210 277 334 380
#     4  11  24  45  68 100 142 175 212 267 328 404
#
# _framework density 21.374400999999999
#
# number of rings (size 3 to 8) (size 9 to 14) (size 15 to 20)
#    0.000    0.889    1.111    5.333    0.000   14.222 
#    0.000    0.000    0.000    0.000    0.000    0.000 
#    0.000    0.000    0.000    0.000    0.000    0.000 
#
# Total GULP energy -201402.942770 kJ/mol
# GULP energy per Si atom -5594.526188 kJ/mol
# Density = 2.132575 g / cm^3
# Si number density = 21.374401 Si / 1000 Ang^3
#
#
#
# Elastic Constant Matrix: (Units=GPa)
#
#
# Indices 1 2 3 4 5 6 
#
# 1 119.1686 28.2541 29.2585 0.0000 0.0000 0.0000
# 2 28.2541 109.3774 4.5877 0.0000 0.0000 0.0000
# 3 29.2585 4.5877 54.3762 0.0000 0.0000 0.0000
# 4 0.0000 0.0000 0.0000 26.7815 0.0000 0.0000
# 5 0.0000 0.0000 0.0000 0.0000 -8.1183 0.0000
# 6 0.0000 0.0000 0.0000 0.0000 0.0000 47.2829
#
#
#
# Elastic Compliance Matrix: (Units=1/GPa)
#
#
# Indices 1 2 3 4 5 6 
#
# 1 0.010275 -0.002431 -0.005324 0.000000 0.000000 0.000000
# 2 -0.002431 0.009750 0.000485 0.000000 0.000000 0.000000
# 3 -0.005324 0.000485 0.021214 0.000000 0.000000 0.000000
# 4 0.000000 0.000000 0.000000 0.037339 0.000000 0.000000
# 5 0.000000 0.000000 0.000000 0.000000 -0.123179 0.000000
# 6 0.000000 0.000000 0.000000 0.000000 0.000000 0.021149
#
#
# Mechanical properties :
#
#
# Convention : Reuss Voigt Hill
#
# Bulk Modulus (GPa) = 37.45194 45.23588 41.34391
# Shear Modulus (GPa) = -379765.42357 27.91068 -189868.75645
#
# Velocity S-wave (km/s) = -421.97005 3.61750 -298.36692
# Velocity P-wave (km/s) = 487.23103 6.21755 344.49631
#
# Compressibility (1/GPa) = 0.02670088
#
# Stress axis : x y z
#
# Youngs Moduli (GPa) = 97.32481 102.56164 47.13880
#
# Poissons Ratio (x) = 0.24932 0.25095
# Poissons Ratio (y) = 0.23659 -0.02288
# Poissons Ratio (z) = 0.51812 -0.04978
#
# Static dielectric constant tensor:
#      x y z
#    x 1.736280 0.000000 0.000000 
#    y 0.000000 1.788910 0.000000 
#    z 0.000000 0.000000 1.756070 
# 
# From -- ./inp_files/27014.got.cif
#   From: 2010.05.17/outbox.cif.g08.bks.cpg/sg57_14_cif.got.tgz:27014.got - 2010.06.03 13:58:18.
