data_PCOD9438683
_publ_section_title
;
Structure prediction by ZEFSAII (Michael W. Deem and Ramdas Pophale) SiO2 
 PCOD9438683
Probable space group: P B C M
;
_chemical_formula_sum "Si O2"
_cell_formula_units_Z 32
_cell_length_a 17.393778
_cell_length_b 5.401873
_cell_length_c 14.481464
_cell_angle_alpha 90.000000
_cell_angle_beta 90.000000
_cell_angle_gamma 90.000000
_cell_volume 1360.663583
_symmetry_space_group_name_H-M "P B C M"
_symmetry_group_IT_number 57
_symmetry_cell_setting 'orthorhombic'
loop_
_space_group_symop_operation_xyz
x,y,z
-x,-y,1/2+z
x,1/2-y,-z
-x,1/2+y,1/2-z
-x,-y,-z
x,y,1/2-z
-x,1/2+y,z
x,1/2-y,1/2+z
loop_
_atom_site_type_symbol
_atom_site_label
_atom_site_fract_x
_atom_site_fract_y
_atom_site_fract_z
Si Si1 0.469033 0.467223 0.104064
Si Si2 0.970344 0.205297 0.605202
Si Si3 0.292284 0.381795 0.137761
Si Si4 0.794067 0.382615 0.137927
O O1 0.514996 0.236468 0.146660
O O2 0.379785 0.400757 0.105301
O O3 0.500000 0.500000 0.000000
O O4 0.997295 0.250000 0.500000
O O5 0.881984 0.124792 0.606345
O O6 0.981899 0.478012 0.647251
O O7 0.293804 0.379430 0.250000
O O8 0.247269 0.629030 0.108582
O O9 0.250795 0.129032 0.107424
O O10 0.795080 0.385530 0.250000
#
# Coordination Sequence:
#
# PCOD9438683 Si02
#       4
#     8   8   8   8
#     4  10  21  38  56  81 115 147 187 244 281 347
#     4  10  21  38  58  84 120 154 194 236 284 341
#     4  10  21  38  59  83 117 152 191 241 294 347
#     4  10  21  38  59  88 117 150 196 240 288 348
#
# _framework density 23.517937
#
# number of rings (size 3 to 8) (size 9 to 14) (size 15 to 20)
#    0.000    2.000    0.000    3.000    0.000    2.000 
#   13.500    0.000    0.000    0.000    0.000    0.000 
#    0.000    0.000    0.000    0.000    0.000    0.000 
#
# Total GULP energy -178997.882959 kJ/mol
# GULP energy per Si atom -5593.683842 kJ/mol
# Density = 2.346441 g / cm^3
# Si number density = 23.517937 Si / 1000 Ang^3
#
#
#
# Elastic Constant Matrix: (Units=GPa)
#
#
# Indices 1 2 3 4 5 6 
#
# 1 174.8668 97.5451 -0.9337 0.0000 0.0000 0.0000
# 2 97.5451 264.9130 26.7465 0.0000 0.0000 0.0000
# 3 -0.9337 26.7465 83.5139 0.0000 0.0000 0.0000
# 4 0.0000 0.0000 0.0000 -3.5680 0.0000 0.0000
# 5 0.0000 0.0000 0.0000 0.0000 37.0943 0.0000
# 6 0.0000 0.0000 0.0000 0.0000 0.0000 55.0906
#
#
#
# Elastic Compliance Matrix: (Units=1/GPa)
#
#
# Indices 1 2 3 4 5 6 
#
# 1 0.007272 -0.002776 0.000970 0.000000 0.000000 0.000000
# 2 -0.002776 0.004960 -0.001620 0.000000 0.000000 0.000000
# 3 0.000970 -0.001620 0.012504 0.000000 0.000000 0.000000
# 4 0.000000 0.000000 0.000000 -0.280267 0.000000 0.000000
# 5 0.000000 0.000000 0.000000 0.000000 0.026958 0.000000
# 6 0.000000 0.000000 0.000000 0.000000 0.000000 0.018152
#
#
# Mechanical properties :
#
#
# Convention : Reuss Voigt Hill
#
# Bulk Modulus (GPa) = 55.90969 85.55662 70.73315
# Shear Modulus (GPa) = -25.30254 44.38578 9.54162
#
# Velocity S-wave (km/s) = -3.28362 4.34904 2.01643
# Velocity P-wave (km/s) = 3.07385 7.85348 5.96346
#
# Compressibility (1/GPa) = 0.01788599
#
# Stress axis : x y z
#
# Youngs Moduli (GPa) = 137.51063 201.59660 79.97683
#
# Poissons Ratio (x) = 0.55957 -0.07760
# Poissons Ratio (y) = 0.38169 0.12954
# Poissons Ratio (z) = -0.13342 0.32652
#
# Static dielectric constant tensor:
#      x y z
#    x 1.788080 0.000000 0.000000 
#    y 0.000000 1.971620 0.000000 
#    z 0.000000 0.000000 1.871150 
# 
# From -- ./inp_files/18769.got.cif
#   From: 2010.05.17/outbox.cif.g08.bks.cpg/sg57_10_cif.got.tgz:18769.got - 2010.06.03 13:58:18.
