data_PCOD9438172
_publ_section_title
;
Structure prediction by ZEFSAII (Michael W. Deem and Ramdas Pophale) SiO2 
 PCOD9438172
Probable space group: P B C M
;
_chemical_formula_sum "Si O2"
_cell_formula_units_Z 48
_cell_length_a 15.156076
_cell_length_b 8.645097
_cell_length_c 16.702415
_cell_angle_alpha 90.000000
_cell_angle_beta 90.000000
_cell_angle_gamma 90.000000
_cell_volume 2188.446405
_symmetry_space_group_name_H-M "P B C M"
_symmetry_group_IT_number 57
_symmetry_cell_setting 'orthorhombic'
loop_
_space_group_symop_operation_xyz
x,y,z
-x,-y,1/2+z
x,1/2-y,-z
-x,1/2+y,1/2-z
-x,-y,-z
x,y,1/2-z
-x,1/2+y,z
x,1/2-y,1/2+z
loop_
_atom_site_type_symbol
_atom_site_label
_atom_site_fract_x
_atom_site_fract_y
_atom_site_fract_z
Si Si1 0.865303 0.409013 0.750000
Si Si2 0.569372 0.788683 0.162636
Si Si3 0.880077 0.677634 0.091117
Si Si4 0.745483 0.565349 0.627416
Si Si5 0.765089 0.410274 0.037176
Si Si6 0.020522 0.277797 0.250000
Si Si7 0.429000 0.521635 0.926315
O O1 0.802999 0.439913 0.674351
O O2 0.937123 0.550649 0.750000
O O3 0.915785 0.248057 0.750000
O O4 0.560646 0.718082 0.250000
O O5 0.649819 0.908342 0.161663
O O6 0.483768 0.880686 0.137354
O O7 0.589677 0.652557 0.101034
O O8 0.798878 0.775256 0.127646
O O9 0.842830 0.503689 0.081616
O O10 0.949737 0.700654 0.163971
O O11 0.901641 0.750000 0.000000
O O12 0.740466 0.521470 0.536131
O O13 0.666109 0.392138 0.071341
O O14 0.797519 0.250000 0.000000
O O15 0.500000 0.500000 0.000000
#
# Coordination Sequence:
#
# PCOD9438172 Si02
#       7
#     4   8   8   8   8   4   8
#     4  10  22  42  68  97 127 167 213 266 340 400
#     4  12  24  41  61  91 130 171 223 274 322 381
#     4   9  20  40  67  96 126 176 222 263 331 412
#     4  10  20  39  65  88 121 174 215 258 327 403
#     4  11  22  38  59  93 128 166 223 273 323 382
#     4  10  22  42  70 101 133 167 217 278 332 402
#     4  12  24  38  62  92 126 173 224 273 320 374
#
# _framework density 21.933368000000002
#
# number of rings (size 3 to 8) (size 9 to 14) (size 15 to 20)
#    0.000    1.333    4.167    2.000    0.000    1.333 
#    1.500    8.333    0.000    0.000    0.000    0.000 
#    0.000    0.000    0.000    0.000    0.000    0.000 
#
# Total GULP energy -267517.362781 kJ/mol
# GULP energy per Si atom -5573.278391 kJ/mol
# Density = 2.188345 g / cm^3
# Si number density = 21.933368 Si / 1000 Ang^3
#
#
#
# Elastic Constant Matrix: (Units=GPa)
#
#
# Indices 1 2 3 4 5 6 
#
# 1 47.2532 1.3461 13.2294 0.0000 0.0000 0.0000
# 2 1.3461 30.7458 -14.9550 0.0000 0.0000 0.0000
# 3 13.2294 -14.9550 72.9533 0.0000 0.0000 0.0000
# 4 0.0000 0.0000 0.0000 20.0595 0.0000 0.0000
# 5 0.0000 0.0000 0.0000 0.0000 48.4109 0.0000
# 6 0.0000 0.0000 0.0000 0.0000 0.0000 34.1080
#
#
#
# Elastic Compliance Matrix: (Units=1/GPa)
#
#
# Indices 1 2 3 4 5 6 
#
# 1 0.022594 -0.003312 -0.004776 0.000000 0.000000 0.000000
# 2 -0.003312 0.036613 0.008106 0.000000 0.000000 0.000000
# 3 -0.004776 0.008106 0.016235 0.000000 0.000000 0.000000
# 4 0.000000 0.000000 0.000000 0.049852 0.000000 0.000000
# 5 0.000000 0.000000 0.000000 0.000000 0.020657 0.000000
# 6 0.000000 0.000000 0.000000 0.000000 0.000000 0.029319
#
#
# Mechanical properties :
#
#
# Convention : Reuss Voigt Hill
#
# Bulk Modulus (GPa) = 13.24910 16.68814 14.96862
# Shear Modulus (GPa) = 24.95096 30.60445 27.77770
#
# Velocity S-wave (km/s) = 3.37646 3.73947 3.56259
# Velocity P-wave (km/s) = 4.61025 5.12542 4.87465
#
# Compressibility (1/GPa) = 0.07547681
#
# Stress axis : x y z
#
# Youngs Moduli (GPa) = 44.25921 27.31295 61.59439
#
# Poissons Ratio (x) = 0.09047 0.29419
# Poissons Ratio (y) = 0.14661 -0.49929
# Poissons Ratio (z) = 0.21139 -0.22140
#
# Static dielectric constant tensor:
#      x y z
#    x 1.829130 0.000000 0.000000 
#    y 0.000000 1.821420 0.000000 
#    z 0.000000 0.000000 1.847740 
# 
# From -- ./inp_files/22533.got.cif
#   From: 2010.05.17/outbox.cif.g08.bks.cpg/sg57_12_cif.got.tgz:22533.got - 2010.06.03 13:58:18.
