data_PCOD9438839
_publ_section_title
;
Structure prediction by ZEFSAII (Michael W. Deem and Ramdas Pophale) SiO2 
 PCOD9438839
Probable space group: P B C M
;
_chemical_formula_sum "Si O2"
_cell_formula_units_Z 48
_cell_length_a 15.418281
_cell_length_b 19.315076
_cell_length_c 8.689418
_cell_angle_alpha 90.000000
_cell_angle_beta 90.000000
_cell_angle_gamma 90.000000
_cell_volume 2587.754468
_symmetry_space_group_name_H-M "P B C M"
_symmetry_group_IT_number 57
_symmetry_cell_setting 'orthorhombic'
loop_
_space_group_symop_operation_xyz
x,y,z
-x,-y,1/2+z
x,1/2-y,-z
-x,1/2+y,1/2-z
-x,-y,-z
x,y,1/2-z
-x,1/2+y,z
x,1/2-y,1/2+z
loop_
_atom_site_type_symbol
_atom_site_label
_atom_site_fract_x
_atom_site_fract_y
_atom_site_fract_z
Si Si1 0.629046 0.827205 0.435062
Si Si2 0.972477 0.925238 0.433986
Si Si3 0.528479 0.425803 0.064550
Si Si4 0.726810 0.419524 0.065089
Si Si5 0.217939 0.078147 0.434194
Si Si6 0.879123 0.327053 0.566660
O O1 0.628951 0.750000 0.500000
O O2 0.633249 0.825651 0.250000
O O3 0.541660 0.868323 0.481527
O O4 0.710238 0.870275 0.499608
O O5 0.975886 0.927606 0.250000
O O6 0.875615 0.909625 0.491218
O O7 0.040121 0.869061 0.496245
O O8 0.000000 0.000000 0.500000
O O9 0.528204 0.430444 0.250000
O O10 0.626961 0.409295 0.017571
O O11 0.500000 0.500000 0.000000
O O12 0.733896 0.409458 0.250000
O O13 0.753319 0.499015 0.032695
O O14 0.792861 0.368480 0.982240
O O15 0.212310 0.085660 0.250000
O O16 0.876592 0.250000 0.500000
O O17 0.886726 0.325300 0.750000
#
# Coordination Sequence:
#
# PCOD9438839 Si02
#       6
#     8   8   8   8   8   8
#     4  11  24  41  62  91 129 167 211 261 317 375
#     4  12  24  41  66  96 128 165 212 259 311 374
#     4  10  21  38  63  93 125 163 210 260 310 372
#     4  10  21  39  64  94 128 165 210 259 311 374
#     4  11  22  39  66  95 127 165 209 259 313 372
#     4  12  26  44  66  94 130 168 209 261 318 374
#
# _framework density 18.548901000000001
#
# number of rings (size 3 to 8) (size 9 to 14) (size 15 to 20)
#    0.000    1.000    3.333    4.000    0.000    3.333 
#    0.000    5.000    0.000    0.000    0.000    0.000 
#    0.000    0.000    0.000    0.000    0.000    0.000 
#
# Total GULP energy -268511.483803 kJ/mol
# GULP energy per Si atom -5593.989246 kJ/mol
# Density = 1.850668 g / cm^3
# Si number density = 18.548901 Si / 1000 Ang^3
#
#
#
# Elastic Constant Matrix: (Units=GPa)
#
#
# Indices 1 2 3 4 5 6 
#
# 1 218.3803 110.5947 85.4130 0.0000 0.0000 0.0000
# 2 110.5947 181.1445 85.7769 0.0000 0.0000 0.0000
# 3 85.4130 85.7769 111.2885 0.0000 0.0000 0.0000
# 4 0.0000 0.0000 0.0000 32.6300 0.0000 0.0000
# 5 0.0000 0.0000 0.0000 0.0000 31.7442 0.0000
# 6 0.0000 0.0000 0.0000 0.0000 0.0000 32.6968
#
#
#
# Elastic Compliance Matrix: (Units=1/GPa)
#
#
# Indices 1 2 3 4 5 6 
#
# 1 0.007385 -0.002874 -0.003453 0.000000 0.000000 0.000000
# 2 -0.002874 0.009812 -0.005357 0.000000 0.000000 0.000000
# 3 -0.003453 -0.005357 0.015765 0.000000 0.000000 0.000000
# 4 0.000000 0.000000 0.000000 0.030647 0.000000 0.000000
# 5 0.000000 0.000000 0.000000 0.000000 0.031502 0.000000
# 6 0.000000 0.000000 0.000000 0.000000 0.000000 0.030584
#
#
# Mechanical properties :
#
#
# Convention : Reuss Voigt Hill
#
# Bulk Modulus (GPa) = 104.23015 119.37583 111.80299
# Shear Modulus (GPa) = 32.83882 34.68279 33.76080
#
# Velocity S-wave (km/s) = 4.21217 4.32881 4.27089
# Velocity P-wave (km/s) = 8.94262 9.45949 9.20468
#
# Compressibility (1/GPa) = 0.00959415
#
# Stress axis : x y z
#
# Youngs Moduli (GPa) = 135.40849 101.92067 63.43312
#
# Poissons Ratio (x) = 0.29289 0.21904
# Poissons Ratio (y) = 0.38913 0.33980
# Poissons Ratio (z) = 0.46757 0.54597
#
# Static dielectric constant tensor:
#      x y z
#    x 1.625480 0.000000 0.000000 
#    y 0.000000 1.595810 0.000000 
#    z 0.000000 0.000000 1.623690 
# 
# From -- ./inp_files/4614.got.cif
#   From: 2010.05.17/outbox.cif.g08.bks.cpg/sg57_3_cif.got.tgz:4614.got - 2010.06.03 13:58:18.
