data_PCOD9438508
_publ_section_title
;
Structure prediction by ZEFSAII (Michael W. Deem and Ramdas Pophale) SiO2 
 PCOD9438508
Probable space group: P B C M
;
_chemical_formula_sum "Si O2"
_cell_formula_units_Z 48
_cell_length_a 29.587374
_cell_length_b 10.446769
_cell_length_c 8.686226
_cell_angle_alpha 90.000000
_cell_angle_beta 90.000000
_cell_angle_gamma 90.000000
_cell_volume 2684.846975
_symmetry_space_group_name_H-M "P B C M"
_symmetry_group_IT_number 57
_symmetry_cell_setting 'orthorhombic'
loop_
_space_group_symop_operation_xyz
x,y,z
-x,-y,1/2+z
x,1/2-y,-z
-x,1/2+y,1/2-z
-x,-y,-z
x,y,1/2-z
-x,1/2+y,z
x,1/2-y,1/2+z
loop_
_atom_site_type_symbol
_atom_site_label
_atom_site_fract_x
_atom_site_fract_y
_atom_site_fract_z
Si Si1 0.968273 0.388765 0.565000
Si Si2 0.363510 0.888526 0.434135
Si Si3 0.804768 0.610306 0.565293
Si Si4 0.867309 0.387488 0.434526
Si Si5 0.468701 0.888795 0.065617
Si Si6 0.698641 0.888667 0.433645
O O1 0.982780 0.250000 0.500000
O O2 0.968746 0.387042 0.750000
O O3 0.917240 0.409190 0.504400
O O4 0.000000 0.500000 0.500000
O O5 0.350190 0.750000 0.500000
O O6 0.360833 0.885204 0.250000
O O7 0.416085 0.910583 0.477920
O O8 0.332029 0.999926 0.498028
O O9 0.817352 0.750000 0.500000
O O10 0.810194 0.608701 0.750000
O O11 0.834565 0.500065 0.489248
O O12 0.751644 0.590180 0.528947
O O13 0.851652 0.250000 0.500000
O O14 0.870093 0.381879 0.250000
O O15 0.471626 0.886356 0.250000
O O16 0.481924 0.750000 0.000000
O O17 0.500000 0.000000 0.000000
O O18 0.685746 0.750000 0.500000
O O19 0.694240 0.886400 0.250000
#
# Coordination Sequence:
#
# PCOD9438508 Si02
#       6
#     8   8   8   8   8   8
#     4  11  22  39  60  85 115 148 186 230 277 328
#     4  10  21  37  57  81 110 143 182 225 273 324
#     4  10  21  38  58  83 112 145 184 228 275 326
#     4  11  22  38  59  84 113 148 186 228 276 327
#     4  10  21  37  57  81 109 143 181 225 272 324
#     4  10  21  37  58  82 111 145 183 226 274 325
#
# _framework density 17.878114
#
# number of rings (size 3 to 8) (size 9 to 14) (size 15 to 20)
#    0.000    1.667    0.000    6.000    0.000    6.000 
#    0.000    3.333    0.000    0.000    0.000    0.000 
#    0.000    0.000    0.000    0.000    0.000    0.000 
#
# Total GULP energy -268247.157108 kJ/mol
# GULP energy per Si atom -5588.482440 kJ/mol
# Density = 1.783742 g / cm^3
# Si number density = 17.878114 Si / 1000 Ang^3
#
#
#
# Elastic Constant Matrix: (Units=GPa)
#
#
# Indices 1 2 3 4 5 6 
#
# 1 79.6402 116.3466 57.1582 0.0000 0.0000 0.0000
# 2 116.3466 212.6757 87.1660 0.0000 0.0000 0.0000
# 3 57.1582 87.1660 121.1547 0.0000 0.0000 0.0000
# 4 0.0000 0.0000 0.0000 41.0041 0.0000 0.0000
# 5 0.0000 0.0000 0.0000 0.0000 30.8717 0.0000
# 6 0.0000 0.0000 0.0000 0.0000 0.0000 50.8563
#
#
#
# Elastic Compliance Matrix: (Units=1/GPa)
#
#
# Indices 1 2 3 4 5 6 
#
# 1 0.066930 -0.033573 -0.007422 0.000000 0.000000 0.000000
# 2 -0.033573 0.023509 -0.001075 0.000000 0.000000 0.000000
# 3 -0.007422 -0.001075 0.012529 0.000000 0.000000 0.000000
# 4 0.000000 0.000000 0.000000 0.024388 0.000000 0.000000
# 5 0.000000 0.000000 0.000000 0.000000 0.032392 0.000000
# 6 0.000000 0.000000 0.000000 0.000000 0.000000 0.019663
#
#
# Mechanical properties :
#
#
# Convention : Reuss Voigt Hill
#
# Bulk Modulus (GPa) = 53.11080 103.86802 78.48941
# Shear Modulus (GPa) = 18.53055 34.73306 26.63181
#
# Velocity S-wave (km/s) = 3.22295 4.41247 3.86376
# Velocity P-wave (km/s) = 6.60466 9.17517 7.99392
#
# Compressibility (1/GPa) = 0.01882856
#
# Stress axis : x y z
#
# Youngs Moduli (GPa) = 14.94108 42.53716 79.81779
#
# Poissons Ratio (x) = 1.42809 0.59238
# Poissons Ratio (y) = 0.50161 0.08579
# Poissons Ratio (z) = 0.11089 0.04572
#
# Static dielectric constant tensor:
#      x y z
#    x 1.596080 0.000000 0.000000 
#    y 0.000000 1.576040 0.000000 
#    z 0.000000 0.000000 1.594970 
# 
# From -- ./inp_files/9973.got.cif
#   From: 2010.05.17/outbox.cif.g08.bks.cpg/sg57_5_cif.got.tgz:9973.got - 2010.06.03 13:58:18.
