data_PCOD9438870
_publ_section_title
;
Structure prediction by ZEFSAII (Michael W. Deem and Ramdas Pophale) SiO2 
 PCOD9438870
Probable space group: P B C M
;
_chemical_formula_sum "Si O2"
_cell_formula_units_Z 32
_cell_length_a 9.688462
_cell_length_b 8.444326
_cell_length_c 18.374947
_cell_angle_alpha 90.000000
_cell_angle_beta 90.000000
_cell_angle_gamma 90.000000
_cell_volume 1503.300931
_symmetry_space_group_name_H-M "P B C M"
_symmetry_group_IT_number 57
_symmetry_cell_setting 'orthorhombic'
loop_
_space_group_symop_operation_xyz
x,y,z
-x,-y,1/2+z
x,1/2-y,-z
-x,1/2+y,1/2-z
-x,-y,-z
x,y,1/2-z
-x,1/2+y,z
x,1/2-y,1/2+z
loop_
_atom_site_type_symbol
_atom_site_label
_atom_site_fract_x
_atom_site_fract_y
_atom_site_fract_z
Si Si1 0.338633 0.516585 0.166270
Si Si2 0.177990 0.475743 0.564762
Si Si3 0.097398 0.374552 0.097758
Si Si4 0.556863 0.319104 0.080529
O O1 0.381801 0.513981 0.250000
O O2 0.177961 0.473511 0.158073
O O3 0.422093 0.386045 0.119656
O O4 0.375670 0.682291 0.129189
O O5 0.150522 0.447105 0.479172
O O6 0.141404 0.308048 0.600863
O O7 0.331403 0.539648 0.574805
O O8 0.066597 0.602040 0.594293
O O9 0.529925 0.250000 0.000000
#
# Coordination Sequence:
#
# PCOD9438870 Si02
#       4
#     8   8   8   8
#     4  12  26  43  63  95 137 174 214 271 337 391
#     4  10  21  38  67  98 125 164 220 268 316 375
#     4  10  21  39  65  97 132 165 211 270 320 386
#     4  12  24  42  67  98 126 176 224 274 318 392
#
# _framework density 21.286490000000001
#
# number of rings (size 3 to 8) (size 9 to 14) (size 15 to 20)
#    0.000    1.000    2.500    4.500    7.000    0.000 
#    0.000    7.500    0.000    0.000    0.000    0.000 
#    0.000    0.000    0.000    0.000    0.000    0.000 
#
# Total GULP energy -179100.944334 kJ/mol
# GULP energy per Si atom -5596.904510 kJ/mol
# Density = 2.123804 g / cm^3
# Si number density = 21.286490 Si / 1000 Ang^3
#
#
#
# Elastic Constant Matrix: (Units=GPa)
#
#
# Indices 1 2 3 4 5 6 
#
# 1 65.6244 10.3936 27.7792 0.0000 0.0000 0.0000
# 2 10.3936 95.9458 32.5106 0.0000 0.0000 0.0000
# 3 27.7792 32.5106 90.9033 0.0000 0.0000 0.0000
# 4 0.0000 0.0000 0.0000 7.3103 0.0000 0.0000
# 5 0.0000 0.0000 0.0000 0.0000 14.5618 0.0000
# 6 0.0000 0.0000 0.0000 0.0000 0.0000 39.4891
#
#
#
# Elastic Compliance Matrix: (Units=1/GPa)
#
#
# Indices 1 2 3 4 5 6 
#
# 1 0.017503 -0.000095 -0.005315 0.000000 0.000000 0.000000
# 2 -0.000095 0.011860 -0.004213 0.000000 0.000000 0.000000
# 3 -0.005315 -0.004213 0.014131 0.000000 0.000000 0.000000
# 4 0.000000 0.000000 0.000000 0.136793 0.000000 0.000000
# 5 0.000000 0.000000 0.000000 0.000000 0.068673 0.000000
# 6 0.000000 0.000000 0.000000 0.000000 0.000000 0.025323
#
#
# Mechanical properties :
#
#
# Convention : Reuss Voigt Hill
#
# Bulk Modulus (GPa) = 41.23764 43.76003 42.49883
# Shear Modulus (GPa) = 16.57757 24.39158 20.48458
#
# Velocity S-wave (km/s) = 2.79370 3.38874 3.10551
# Velocity P-wave (km/s) = 5.46087 5.99281 5.73301
#
# Compressibility (1/GPa) = 0.02424969
#
# Stress axis : x y z
#
# Youngs Moduli (GPa) = 57.13283 84.31510 70.76430
#
# Poissons Ratio (x) = 0.00803 0.37609
# Poissons Ratio (y) = 0.00544 0.29810
# Poissons Ratio (z) = 0.30365 0.35519
#
# Static dielectric constant tensor:
#      x y z
#    x 1.768390 0.000000 0.000000 
#    y 0.000000 1.778960 0.000000 
#    z 0.000000 0.000000 1.733460 
# 
# From -- ./inp_files/17265.got.cif
#   From: 2010.05.17/outbox.cif.g08.bks.cpg/sg57_9_cif.got.tgz:17265.got - 2010.06.03 13:58:18.
