data_PCOD9438308
_publ_section_title
;
Structure prediction by ZEFSAII (Michael W. Deem and Ramdas Pophale) SiO2 
 PCOD9438308
Probable space group: P B C M
;
_chemical_formula_sum "Si O2"
_cell_formula_units_Z 20
_cell_length_a 8.388802
_cell_length_b 10.432151
_cell_length_c 8.428867
_cell_angle_alpha 90.000000
_cell_angle_beta 90.000000
_cell_angle_gamma 90.000000
_cell_volume 737.637538
_symmetry_space_group_name_H-M "P B C M"
_symmetry_group_IT_number 57
_symmetry_cell_setting 'orthorhombic'
loop_
_space_group_symop_operation_xyz
x,y,z
-x,-y,1/2+z
x,1/2-y,-z
-x,1/2+y,1/2-z
-x,-y,-z
x,y,1/2-z
-x,1/2+y,z
x,1/2-y,1/2+z
loop_
_atom_site_type_symbol
_atom_site_label
_atom_site_fract_x
_atom_site_fract_y
_atom_site_fract_z
Si Si1 0.362252 0.996535 0.750000
Si Si2 0.904824 0.250000 0.500000
Si Si3 0.346119 0.694358 0.750000
Si Si4 0.780540 0.885730 0.564039
O O1 0.510220 0.095561 0.750000
O O2 0.269219 0.027659 0.586476
O O3 0.398341 0.844320 0.750000
O O4 0.781691 0.320807 0.388607
O O5 0.030443 0.146771 0.433088
O O6 0.707392 0.750000 0.500000
O O7 0.739478 0.908447 0.750000
#
# Coordination Sequence:
#
# PCOD9438308 Si02
#       4
#     4   4   4   8
#     4  12  29  52  80 118 170 214 277 324 428 478
#     4  10  22  52  78 116 158 202 276 334 416 468
#     4  12  29  52  78 120 164 220 265 348 398 508
#     4  10  20  48  83 115 158 209 265 345 407 488
#
# _framework density 27.113589000000001
#
# number of rings (size 3 to 8) (size 9 to 14) (size 15 to 20)
#    1.200    0.000    4.000    1.200    2.800    3.200 
#    3.600    4.000    0.000    0.000    0.000    0.000 
#    0.000    0.000    0.000    0.000    0.000    0.000 
#
# Total GULP energy -111654.344411 kJ/mol
# GULP energy per Si atom -5582.717221 kJ/mol
# Density = 2.705188 g / cm^3
# Si number density = 27.113589 Si / 1000 Ang^3
#
#
#
# Elastic Constant Matrix: (Units=GPa)
#
#
# Indices 1 2 3 4 5 6 
#
# 1 197.7142 93.9749 120.7581 0.0000 0.0000 0.0000
# 2 93.9749 194.6427 99.3622 0.0000 0.0000 0.0000
# 3 120.7581 99.3622 302.7760 0.0000 0.0000 0.0000
# 4 0.0000 0.0000 0.0000 45.1831 0.0000 0.0000
# 5 0.0000 0.0000 0.0000 0.0000 44.1679 0.0000
# 6 0.0000 0.0000 0.0000 0.0000 0.0000 53.5930
#
#
#
# Elastic Compliance Matrix: (Units=1/GPa)
#
#
# Indices 1 2 3 4 5 6 
#
# 1 0.007615 -0.002554 -0.002199 0.000000 0.000000 0.000000
# 2 -0.002554 0.007028 -0.001288 0.000000 0.000000 0.000000
# 3 -0.002199 -0.001288 0.004602 0.000000 0.000000 0.000000
# 4 0.000000 0.000000 0.000000 0.022132 0.000000 0.000000
# 5 0.000000 0.000000 0.000000 0.000000 0.022641 0.000000
# 6 0.000000 0.000000 0.000000 0.000000 0.000000 0.018659
#
#
# Mechanical properties :
#
#
# Convention : Reuss Voigt Hill
#
# Bulk Modulus (GPa) = 139.58853 147.03592 143.31223
# Shear Modulus (GPa) = 51.46855 53.99132 52.72994
#
# Velocity S-wave (km/s) = 4.36163 4.46724 4.41475
# Velocity P-wave (km/s) = 8.77267 8.99754 8.88581
#
# Compressibility (1/GPa) = 0.00716391
#
# Stress axis : x y z
#
# Youngs Moduli (GPa) = 131.32430 142.28625 217.27813
#
# Poissons Ratio (x) = 0.36339 0.47777
# Poissons Ratio (y) = 0.33539 0.27981
# Poissons Ratio (z) = 0.28877 0.18324
#
# Static dielectric constant tensor:
#      x y z
#    x 2.058520 0.000000 0.000000 
#    y 0.000000 2.250780 0.000000 
#    z 0.000000 0.000000 2.116660 
# 
# From -- ./inp_files/939.got.cif
#   From: 2010.05.17/outbox.cif.g08.bks.cpg/sg57_1_cif.got.tgz:939.got - 2010.06.03 13:58:18.
