data_PCOD9438460
_publ_section_title
;
Structure prediction by ZEFSAII (Michael W. Deem and Ramdas Pophale) SiO2 
 PCOD9438460
Probable space group: P B C M
;
_chemical_formula_sum "Si O2"
_cell_formula_units_Z 48
_cell_length_a 12.196731
_cell_length_b 12.071407
_cell_length_c 15.997539
_cell_angle_alpha 90.000000
_cell_angle_beta 90.000000
_cell_angle_gamma 90.000000
_cell_volume 2355.344926
_symmetry_space_group_name_H-M "P B C M"
_symmetry_group_IT_number 57
_symmetry_cell_setting 'orthorhombic'
loop_
_space_group_symop_operation_xyz
x,y,z
-x,-y,1/2+z
x,1/2-y,-z
-x,1/2+y,1/2-z
-x,-y,-z
x,y,1/2-z
-x,1/2+y,z
x,1/2-y,1/2+z
loop_
_atom_site_type_symbol
_atom_site_label
_atom_site_fract_x
_atom_site_fract_y
_atom_site_fract_z
Si Si1 0.296951 0.638738 0.388108
Si Si2 0.855506 0.944941 0.915554
Si Si3 0.096165 0.007713 0.611976
Si Si4 0.668978 0.115428 0.912505
Si Si5 0.566546 0.928291 0.153410
Si Si6 0.226236 0.282229 0.154439
O O1 0.177607 0.592187 0.364659
O O2 0.313930 0.766600 0.367777
O O3 0.311133 0.630027 0.488444
O O4 0.382469 0.550967 0.351368
O O5 0.815933 0.820145 0.899593
O O6 0.758451 0.025404 0.885587
O O7 0.880204 0.967136 0.013591
O O8 0.971328 0.974226 0.873150
O O9 0.136592 0.119862 0.654928
O O10 0.544721 0.078816 0.897710
O O11 0.543033 0.902188 0.250000
O O12 0.661624 0.842606 0.124115
O O13 0.244099 0.244455 0.250000
#
# Coordination Sequence:
#
# PCOD9438460 Si02
#       6
#     8   8   8   8   8   8
#     4   9  20  39  58  85 116 148 186 240 291 339
#     4  10  21  36  63  90 113 146 194 244 284 341
#     4   9  20  39  62  87 115 149 189 238 294 341
#     4  10  21  36  59  89 114 146 193 239 285 337
#     4  10  22  39  58  81 117 158 193 232 285 344
#     4  10  22  39  57  83 119 155 191 233 288 348
#
# _framework density 20.379180000000002
#
# number of rings (size 3 to 8) (size 9 to 14) (size 15 to 20)
#    0.000    2.333    0.000    1.000    4.667    2.000 
#    6.000    0.000    0.000    0.000    0.000    0.000 
#    0.000    0.000    0.000    0.000    0.000    0.000 
#
# Total GULP energy -267974.402229 kJ/mol
# GULP energy per Si atom -5582.800046 kJ/mol
# Density = 2.033280 g / cm^3
# Si number density = 20.379180 Si / 1000 Ang^3
#
#
#
# Elastic Constant Matrix: (Units=GPa)
#
#
# Indices 1 2 3 4 5 6 
#
# 1 161.9756 78.4330 18.6574 0.0000 0.0000 0.0000
# 2 78.4330 125.4636 17.2034 0.0000 0.0000 0.0000
# 3 18.6574 17.2034 17.2631 0.0000 0.0000 0.0000
# 4 0.0000 0.0000 0.0000 11.6385 0.0000 0.0000
# 5 0.0000 0.0000 0.0000 0.0000 -1.8642 0.0000
# 6 0.0000 0.0000 0.0000 0.0000 0.0000 12.6970
#
#
#
# Elastic Compliance Matrix: (Units=1/GPa)
#
#
# Indices 1 2 3 4 5 6 
#
# 1 0.009195 -0.005080 -0.004876 0.000000 0.000000 0.000000
# 2 -0.005080 0.012038 -0.006506 0.000000 0.000000 0.000000
# 3 -0.004876 -0.006506 0.069680 0.000000 0.000000 0.000000
# 4 0.000000 0.000000 0.000000 0.085922 0.000000 0.000000
# 5 0.000000 0.000000 0.000000 0.000000 -0.536418 0.000000
# 6 0.000000 0.000000 0.000000 0.000000 0.000000 0.078759
#
#
# Mechanical properties :
#
#
# Convention : Reuss Voigt Hill
#
# Bulk Modulus (GPa) = 17.24440 59.25441 38.24941
# Shear Modulus (GPa) = -21.87511 17.18816 -2.34348
#
# Velocity S-wave (km/s) = -3.27984 2.90732 -1.07351
# Velocity P-wave (km/s) = 2.42136 6.35681 4.15608
#
# Compressibility (1/GPa) = 0.05798983
#
# Stress axis : x y z
#
# Youngs Moduli (GPa) = 108.75333 83.06898 14.35129
#
# Poissons Ratio (x) = 0.42197 0.06997
# Poissons Ratio (y) = 0.55244 0.09338
# Poissons Ratio (z) = 0.53023 0.54049
#
# Static dielectric constant tensor:
#      x y z
#    x 1.696630 0.000000 0.000000 
#    y 0.000000 1.697670 0.000000 
#    z 0.000000 0.000000 1.766980 
# 
# From -- ./inp_files/21784.got.cif
#   From: 2010.05.17/outbox.cif.g08.bks.cpg/sg57_11_cif.got.tgz:21784.got - 2010.06.03 13:58:18.
