data_PCOD9438082
_publ_section_title
;
Structure prediction by ZEFSAII (Michael W. Deem and Ramdas Pophale) SiO2 
 PCOD9438082
Probable space group: P B C M
;
_chemical_formula_sum "Si O2"
_cell_formula_units_Z 60
_cell_length_a 16.838561
_cell_length_b 17.790809
_cell_length_c 9.633533
_cell_angle_alpha 90.000000
_cell_angle_beta 90.000000
_cell_angle_gamma 90.000000
_cell_volume 2885.933112
_symmetry_space_group_name_H-M "P B C M"
_symmetry_group_IT_number 57
_symmetry_cell_setting 'orthorhombic'
loop_
_space_group_symop_operation_xyz
x,y,z
-x,-y,1/2+z
x,1/2-y,-z
-x,1/2+y,1/2-z
-x,-y,-z
x,y,1/2-z
-x,1/2+y,z
x,1/2-y,1/2+z
loop_
_atom_site_type_symbol
_atom_site_label
_atom_site_fract_x
_atom_site_fract_y
_atom_site_fract_z
Si Si1 0.694974 0.678450 0.411453
Si Si2 0.160448 0.531930 0.090286
Si Si3 0.730228 0.324277 0.586902
Si Si4 0.925067 0.225759 0.750000
Si Si5 0.038397 0.854994 0.977065
Si Si6 0.589106 0.922754 0.410841
Si Si7 0.863110 0.613179 0.088085
Si Si8 0.560963 0.101245 0.408941
O O1 0.668324 0.750000 0.500000
O O2 0.671441 0.682273 0.250000
O O3 0.657408 0.607433 0.489434
O O4 0.789938 0.670631 0.417149
O O5 0.178301 0.510789 0.250000
O O6 0.218201 0.601862 0.053406
O O7 0.072574 0.566410 0.077673
O O8 0.165142 0.461558 0.990018
O O9 0.749711 0.250000 0.500000
O O10 0.744617 0.307144 0.750000
O O11 0.638278 0.347747 0.567555
O O12 0.927100 0.162169 0.627341
O O13 0.933917 0.291759 0.630580
O O14 0.943084 0.856008 0.980832
O O15 0.599163 0.900434 0.250000
O O16 0.507832 0.890516 0.477671
O O17 0.585671 0.013319 0.415086
O O18 0.880407 0.598320 0.250000
O O19 0.532474 0.114770 0.250000
#
# Coordination Sequence:
#
# PCOD9438082 Si02
#       8
#     8   8   8   4   8   8   8   8
#     4  11  25  41  61  89 122 159 200 250 304 363
#     4  11  24  41  63  89 123 160 204 252 303 360
#     4  10  23  39  59  88 120 158 200 246 300 357
#     4  10  24  38  64  92 124 158 198 260 302 362
#     4  11  23  41  63  91 123 163 205 250 303 360
#     4  10  20  38  65  92 120 158 201 245 300 359
#     4  11  25  42  62  90 123 157 206 254 301 361
#     4   9  19  38  62  88 123 160 200 245 295 358
#
# _framework density 20.790503000000001
#
# number of rings (size 3 to 8) (size 9 to 14) (size 15 to 20)
#    0.000    1.600    1.333    2.000    5.600    4.267 
#    0.000    1.333    0.000    0.000    0.000    0.000 
#    0.000    0.000    0.000    0.000    0.000    0.000 
#
# Total GULP energy -334332.993945 kJ/mol
# GULP energy per Si atom -5572.216566 kJ/mol
# Density = 2.074318 g / cm^3
# Si number density = 20.790503 Si / 1000 Ang^3
#
#
#
# Elastic Constant Matrix: (Units=GPa)
#
#
# Indices 1 2 3 4 5 6 
#
# 1 61.0848 -4.7546 16.4672 0.0000 0.0000 0.0000
# 2 -4.7546 38.5150 28.9729 0.0000 0.0000 0.0000
# 3 16.4672 28.9729 140.1849 0.0000 0.0000 0.0000
# 4 0.0000 0.0000 0.0000 35.4390 0.0000 0.0000
# 5 0.0000 0.0000 0.0000 0.0000 2.0048 0.0000
# 6 0.0000 0.0000 0.0000 0.0000 0.0000 -19.2490
#
#
#
# Elastic Compliance Matrix: (Units=1/GPa)
#
#
# Indices 1 2 3 4 5 6 
#
# 1 0.017512 0.004392 -0.002965 0.000000 0.000000 0.000000
# 2 0.004392 0.031845 -0.007098 0.000000 0.000000 0.000000
# 3 -0.002965 -0.007098 0.008949 0.000000 0.000000 0.000000
# 4 0.000000 0.000000 0.000000 0.028217 0.000000 0.000000
# 5 0.000000 0.000000 0.000000 0.000000 0.498813 0.000000
# 6 0.000000 0.000000 0.000000 0.000000 0.000000 -0.051951
#
#
# Mechanical properties :
#
#
# Convention : Reuss Voigt Hill
#
# Bulk Modulus (GPa) = 21.29242 35.68396 28.48819
# Shear Modulus (GPa) = 8.92250 16.91224 12.91737
#
# Velocity S-wave (km/s) = 2.07387 2.85522 2.49532
# Velocity P-wave (km/s) = 3.99978 5.29816 4.69408
#
# Compressibility (1/GPa) = 0.04696507
#
# Stress axis : x y z
#
# Youngs Moduli (GPa) = 57.10432 31.40179 111.74914
#
# Poissons Ratio (x) = -0.13792 0.33132
# Poissons Ratio (y) = -0.25081 0.79315
# Poissons Ratio (z) = 0.16930 0.22288
#
# Static dielectric constant tensor:
#      x y z
#    x 1.808770 0.000000 0.000000 
#    y 0.000000 1.781640 0.000000 
#    z 0.000000 0.000000 1.710030 
# 
# From -- ./inp_files/6926.got.cif
#   From: 2010.05.17/outbox.cif.g08.bks.cpg/sg57_4_cif.got.tgz:6926.got - 2010.06.03 13:58:18.
