data_PCOD9438445
_publ_section_title
;
Structure prediction by ZEFSAII (Michael W. Deem and Ramdas Pophale) SiO2 
 PCOD9438445
Probable space group: P B C M
;
_chemical_formula_sum "Si O2"
_cell_formula_units_Z 48
_cell_length_a 15.387200
_cell_length_b 19.680085
_cell_length_c 8.661153
_cell_angle_alpha 90.000000
_cell_angle_beta 90.000000
_cell_angle_gamma 90.000000
_cell_volume 2622.782511
_symmetry_space_group_name_H-M "P B C M"
_symmetry_group_IT_number 57
_symmetry_cell_setting 'orthorhombic'
loop_
_space_group_symop_operation_xyz
x,y,z
-x,-y,1/2+z
x,1/2-y,-z
-x,1/2+y,1/2-z
-x,-y,-z
x,y,1/2-z
-x,1/2+y,z
x,1/2-y,1/2+z
loop_
_atom_site_type_symbol
_atom_site_label
_atom_site_fract_x
_atom_site_fract_y
_atom_site_fract_z
Si Si1 0.432480 0.824547 0.436272
Si Si2 0.896478 0.325886 0.064975
Si Si3 0.272330 0.916244 0.063784
Si Si4 0.369046 0.175579 0.936199
Si Si5 0.963303 0.928953 0.934286
Si Si6 0.228588 0.436355 0.435233
O O1 0.410152 0.750000 0.500000
O O2 0.430299 0.821398 0.250000
O O3 0.361563 0.879764 0.484964
O O4 0.531553 0.840397 0.484598
O O5 0.904095 0.323920 0.250000
O O6 0.808231 0.366732 0.026124
O O7 0.893609 0.250000 0.000000
O O8 0.976219 0.368558 0.996005
O O9 0.273229 0.924980 0.250000
O O10 0.257647 0.988724 0.986534
O O11 0.368225 0.178394 0.750000
O O12 0.300451 0.118740 0.985001
O O13 0.347049 0.250000 0.000000
O O14 0.966335 0.931453 0.750000
O O15 0.864732 0.921131 0.990919
O O16 0.000000 0.000000 0.000000
O O17 0.220613 0.434105 0.250000
#
# Coordination Sequence:
#
# PCOD9438445 Si02
#       6
#     8   8   8   8   8   8
#     4   9  18  35  57  83 116 154 195 240 290 344
#     4  11  23  39  60  89 121 155 197 242 290 348
#     4  10  21  36  57  85 119 156 194 239 291 348
#     4   9  20  38  59  84 115 152 196 244 291 343
#     4  12  24  41  63  86 115 154 195 242 297 354
#     4  11  23  38  59  86 117 154 196 242 293 352
#
# _framework density 18.301175000000001
#
# number of rings (size 3 to 8) (size 9 to 14) (size 15 to 20)
#    0.000    1.667    1.667    3.000    0.000    4.000 
#    0.000    1.667    0.000    0.000    0.000    0.000 
#    0.000    0.000    0.000    0.000    0.000    0.000 
#
# Total GULP energy -268215.534756 kJ/mol
# GULP energy per Si atom -5587.823641 kJ/mol
# Density = 1.825952 g / cm^3
# Si number density = 18.301175 Si / 1000 Ang^3
#
#
#
# Elastic Constant Matrix: (Units=GPa)
#
#
# Indices 1 2 3 4 5 6 
#
# 1 158.6993 119.0711 56.9332 0.0000 0.0000 0.0000
# 2 119.0711 173.8520 59.3546 0.0000 0.0000 0.0000
# 3 56.9332 59.3546 56.4106 0.0000 0.0000 0.0000
# 4 0.0000 0.0000 0.0000 36.0573 0.0000 0.0000
# 5 0.0000 0.0000 0.0000 0.0000 14.6560 0.0000
# 6 0.0000 0.0000 0.0000 0.0000 0.0000 41.5429
#
#
#
# Elastic Compliance Matrix: (Units=1/GPa)
#
#
# Indices 1 2 3 4 5 6 
#
# 1 0.014324 -0.007608 -0.006452 0.000000 0.000000 0.000000
# 2 -0.007608 0.013017 -0.006018 0.000000 0.000000 0.000000
# 3 -0.006452 -0.006018 0.030571 0.000000 0.000000 0.000000
# 4 0.000000 0.000000 0.000000 0.027734 0.000000 0.000000
# 5 0.000000 0.000000 0.000000 0.000000 0.068231 0.000000
# 6 0.000000 0.000000 0.000000 0.000000 0.000000 0.024072
#
#
# Mechanical properties :
#
#
# Convention : Reuss Voigt Hill
#
# Bulk Modulus (GPa) = 56.31746 95.51997 75.91872
# Shear Modulus (GPa) = 22.31908 28.69143 25.50526
#
# Velocity S-wave (km/s) = 3.49599 3.96376 3.73720
# Velocity P-wave (km/s) = 6.86551 8.55893 7.75856
#
# Compressibility (1/GPa) = 0.01775648
#
# Stress axis : x y z
#
# Youngs Moduli (GPa) = 69.81406 76.82116 32.71045
#
# Poissons Ratio (x) = 0.58443 0.21104
# Poissons Ratio (y) = 0.53112 0.19687
# Poissons Ratio (z) = 0.45043 0.46235
#
# Static dielectric constant tensor:
#      x y z
#    x 1.625690 0.000000 0.000000 
#    y 0.000000 1.584530 0.000000 
#    z 0.000000 0.000000 1.617600 
# 
# From -- ./inp_files/4666.got.cif
#   From: 2010.05.17/outbox.cif.g08.bks.cpg/sg57_3_cif.got.tgz:4666.got - 2010.06.03 13:58:18.
