data_PCOD9438658
_publ_section_title
;
Structure prediction by ZEFSAII (Michael W. Deem and Ramdas Pophale) SiO2 
 PCOD9438658
Probable space group: P B C M
;
_chemical_formula_sum "Si O2"
_cell_formula_units_Z 40
_cell_length_a 4.918953
_cell_length_b 33.265870
_cell_length_c 12.045017
_cell_angle_alpha 90.000000
_cell_angle_beta 90.000000
_cell_angle_gamma 90.000000
_cell_volume 1970.965290
_symmetry_space_group_name_H-M "P B C M"
_symmetry_group_IT_number 57
_symmetry_cell_setting 'orthorhombic'
loop_
_space_group_symop_operation_xyz
x,y,z
-x,-y,1/2+z
x,1/2-y,-z
-x,1/2+y,1/2-z
-x,-y,-z
x,y,1/2-z
-x,1/2+y,z
x,1/2-y,1/2+z
loop_
_atom_site_type_symbol
_atom_site_label
_atom_site_fract_x
_atom_site_fract_y
_atom_site_fract_z
Si Si1 0.233273 0.297307 0.250000
Si Si2 0.729826 0.256861 0.750000
Si Si3 0.064062 0.977116 0.118158
Si Si4 0.476293 0.337901 0.466915
Si Si5 0.561951 0.577970 0.624175
Si Si6 0.999272 0.205630 0.042324
O O1 0.421672 0.257484 0.250000
O O2 0.319587 0.321970 0.357608
O O3 0.924909 0.282507 0.250000
O O4 0.819581 0.282784 0.853207
O O5 0.034342 0.993438 0.250000
O O6 0.368719 0.960413 0.108201
O O7 0.866389 0.938448 0.116831
O O8 0.000000 0.000000 0.000000
O O9 0.493988 0.385700 0.458920
O O10 0.772344 0.318031 0.471056
O O11 0.265959 0.321261 0.559022
O O12 0.509525 0.592703 0.750000
O O13 0.089429 0.250000 0.000000
#
# Coordination Sequence:
#
# PCOD9438658 Si02
#       6
#     4   4   8   8   8   8
#     4  12  20  34  58  82 108 140 192 256 294 330
#     4  12  24  36  54  76 108 148 202 242 286 348
#     4  10  21  39  66  95 123 154 190 232 286 354
#     4  12  22  37  58  85 112 146 191 249 294 327
#     4  10  21  37  62  93 117 146 190 241 291 338
#     4  12  23  37  55  79 109 152 198 238 292 345
#
# _framework density 20.294623000000001
#
# number of rings (size 3 to 8) (size 9 to 14) (size 15 to 20)
#    0.000    0.800    5.000    3.600    0.000    0.000 
#    0.000    0.000   13.200    0.000    0.000    0.000 
#    0.000    0.000    0.000    0.000    0.000    0.000 
#
# Total GULP energy -222933.508949 kJ/mol
# GULP energy per Si atom -5573.337724 kJ/mol
# Density = 2.024843 g / cm^3
# Si number density = 20.294623 Si / 1000 Ang^3
#
#
#
# Elastic Constant Matrix: (Units=GPa)
#
#
# Indices 1 2 3 4 5 6 
#
# 1 64.7926 -2.6756 -11.0324 0.0000 0.0000 0.0000
# 2 -2.6756 58.4454 26.5529 0.0000 0.0000 0.0000
# 3 -11.0324 26.5529 70.7988 0.0000 0.0000 0.0000
# 4 0.0000 0.0000 0.0000 33.6413 0.0000 0.0000
# 5 0.0000 0.0000 0.0000 0.0000 10.4790 0.0000
# 6 0.0000 0.0000 0.0000 0.0000 0.0000 21.1665
#
#
#
# Elastic Compliance Matrix: (Units=1/GPa)
#
#
# Indices 1 2 3 4 5 6 
#
# 1 0.015866 -0.000478 0.002652 0.000000 0.000000 0.000000
# 2 -0.000478 0.020639 -0.007815 0.000000 0.000000 0.000000
# 3 0.002652 -0.007815 0.017469 0.000000 0.000000 0.000000
# 4 0.000000 0.000000 0.000000 0.029725 0.000000 0.000000
# 5 0.000000 0.000000 0.000000 0.000000 0.095429 0.000000
# 6 0.000000 0.000000 0.000000 0.000000 0.000000 0.047245
#
#
# Mechanical properties :
#
#
# Convention : Reuss Voigt Hill
#
# Bulk Modulus (GPa) = 23.42492 24.41407 23.91949
# Shear Modulus (GPa) = 19.85032 25.13682 22.49357
#
# Velocity S-wave (km/s) = 3.13086 3.52319 3.33280
# Velocity P-wave (km/s) = 4.96359 5.34849 5.15963
#
# Compressibility (1/GPa) = 0.04268959
#
# Stress axis : x y z
#
# Youngs Moduli (GPa) = 63.02933 48.45292 57.24510
#
# Poissons Ratio (x) = 0.02318 -0.15180
# Poissons Ratio (y) = 0.03015 0.44737
# Poissons Ratio (z) = -0.16714 0.37866
#
# Static dielectric constant tensor:
#      x y z
#    x 1.693350 0.000000 0.000000 
#    y 0.000000 1.714890 0.000000 
#    z 0.000000 0.000000 1.923050 
# 
# From -- ./inp_files/11055.got.cif
#   From: 2010.05.17/outbox.cif.g08.bks.cpg/sg57_6_cif.got.tgz:11055.got - 2010.06.03 13:58:18.
