data_PCOD9438796
_publ_section_title
;
Structure prediction by ZEFSAII (Michael W. Deem and Ramdas Pophale) SiO2 
 PCOD9438796
Probable space group: P B C M
;
_chemical_formula_sum "Si O2"
_cell_formula_units_Z 48
_cell_length_a 5.503657
_cell_length_b 23.599694
_cell_length_c 17.627739
_cell_angle_alpha 90.000000
_cell_angle_beta 90.000000
_cell_angle_gamma 90.000000
_cell_volume 2289.572201
_symmetry_space_group_name_H-M "P B C M"
_symmetry_group_IT_number 57
_symmetry_cell_setting 'orthorhombic'
loop_
_space_group_symop_operation_xyz
x,y,z
-x,-y,1/2+z
x,1/2-y,-z
-x,1/2+y,1/2-z
-x,-y,-z
x,y,1/2-z
-x,1/2+y,z
x,1/2-y,1/2+z
loop_
_atom_site_type_symbol
_atom_site_label
_atom_site_fract_x
_atom_site_fract_y
_atom_site_fract_z
Si Si1 0.543894 0.442099 0.659367
Si Si2 0.389044 0.292459 0.447674
Si Si3 0.994639 0.873316 0.075952
Si Si4 0.228250 0.735593 0.839587
Si Si5 0.950481 0.008663 0.840968
Si Si6 0.244111 0.840504 0.930318
O O1 0.534744 0.432672 0.750000
O O2 0.289872 0.472349 0.637735
O O3 0.590307 0.383464 0.616556
O O4 0.789234 0.478722 0.644039
O O5 0.224861 0.250000 0.500000
O O6 0.494392 0.266048 0.370855
O O7 0.594145 0.306222 0.509489
O O8 0.282246 0.353086 0.425545
O O9 0.112189 0.820290 0.122256
O O10 0.051354 0.931671 0.116113
O O11 0.068936 0.873679 0.987579
O O12 0.209789 0.733793 0.750000
O O13 0.126850 0.794344 0.874073
O O14 0.936394 0.017871 0.750000
#
# Coordination Sequence:
#
# PCOD9438796 Si02
#       6
#     8   8   8   8   8   8
#     4  10  23  44  64  91 126 167 213 262 311 367
#     4   9  20  38  57  87 123 157 197 254 316 375
#     4  11  22  38  61  90 124 160 205 257 314 376
#     4  10  21  38  61  90 120 159 205 255 316 374
#     4  10  24  42  64  90 126 168 211 259 312 371
#     4  10  22  38  63  88 122 161 205 260 311 375
#
# _framework density 20.964614000000001
#
# number of rings (size 3 to 8) (size 9 to 14) (size 15 to 20)
#    0.000    2.000    0.000    3.500    7.000    2.667 
#    0.000    0.000    0.000    0.000    0.000    0.000 
#    0.000    0.000    0.000    0.000    0.000    0.000 
#
# Total GULP energy -267528.678489 kJ/mol
# GULP energy per Si atom -5573.514135 kJ/mol
# Density = 2.091690 g / cm^3
# Si number density = 20.964614 Si / 1000 Ang^3
#
#
#
# Elastic Constant Matrix: (Units=GPa)
#
#
# Indices 1 2 3 4 5 6 
#
# 1 58.0680 12.9677 21.1576 0.0000 0.0000 0.0000
# 2 12.9677 100.6761 45.2486 0.0000 0.0000 0.0000
# 3 21.1576 45.2486 100.5745 0.0000 0.0000 0.0000
# 4 0.0000 0.0000 0.0000 49.2706 0.0000 0.0000
# 5 0.0000 0.0000 0.0000 0.0000 5.0373 0.0000
# 6 0.0000 0.0000 0.0000 0.0000 0.0000 29.2634
#
#
#
# Elastic Compliance Matrix: (Units=1/GPa)
#
#
# Indices 1 2 3 4 5 6 
#
# 1 0.018702 -0.000803 -0.003573 0.000000 0.000000 0.000000
# 2 -0.000803 0.012485 -0.005448 0.000000 0.000000 0.000000
# 3 -0.003573 -0.005448 0.013146 0.000000 0.000000 0.000000
# 4 0.000000 0.000000 0.000000 0.020296 0.000000 0.000000
# 5 0.000000 0.000000 0.000000 0.000000 0.198518 0.000000
# 6 0.000000 0.000000 0.000000 0.000000 0.000000 0.034172
#
#
# Mechanical properties :
#
#
# Convention : Reuss Voigt Hill
#
# Bulk Modulus (GPa) = 40.51118 46.45184 43.48151
# Shear Modulus (GPa) = 15.37536 28.71059 22.04297
#
# Velocity S-wave (km/s) = 2.71107 3.70466 3.24610
# Velocity P-wave (km/s) = 5.40050 6.36433 5.90212
#
# Compressibility (1/GPa) = 0.02468454
#
# Stress axis : x y z
#
# Youngs Moduli (GPa) = 53.46906 80.09681 76.07104
#
# Poissons Ratio (x) = 0.06432 0.27181
# Poissons Ratio (y) = 0.04294 0.41444
# Poissons Ratio (z) = 0.19105 0.43637
#
# Static dielectric constant tensor:
#      x y z
#    x 1.904080 0.000000 0.000000 
#    y 0.000000 1.815110 0.000000 
#    z 0.000000 0.000000 1.725630 
# 
# From -- ./inp_files/20192.got.cif
#   From: 2010.05.17/outbox.cif.g08.bks.cpg/sg57_11_cif.got.tgz:20192.got - 2010.06.03 13:58:18.
