data_PCOD9438238
_publ_section_title
;
Structure prediction by ZEFSAII (Michael W. Deem and Ramdas Pophale) SiO2 
 PCOD9438238
Probable space group: P B C M
;
_chemical_formula_sum "Si O2"
_cell_formula_units_Z 52
_cell_length_a 7.518938
_cell_length_b 14.573648
_cell_length_c 18.985645
_cell_angle_alpha 90.000000
_cell_angle_beta 90.000000
_cell_angle_gamma 90.000000
_cell_volume 2080.415762
_symmetry_space_group_name_H-M "P B C M"
_symmetry_group_IT_number 57
_symmetry_cell_setting 'orthorhombic'
loop_
_space_group_symop_operation_xyz
x,y,z
-x,-y,1/2+z
x,1/2-y,-z
-x,1/2+y,1/2-z
-x,-y,-z
x,y,1/2-z
-x,1/2+y,z
x,1/2-y,1/2+z
loop_
_atom_site_type_symbol
_atom_site_label
_atom_site_fract_x
_atom_site_fract_y
_atom_site_fract_z
Si Si1 0.828120 0.927806 0.389537
Si Si2 0.130707 0.630558 0.543654
Si Si3 0.681215 0.835935 0.250000
Si Si4 0.474107 0.108756 0.511744
Si Si5 0.608250 0.490819 0.250000
Si Si6 0.587790 0.392732 0.634350
Si Si7 0.162032 0.363014 0.750000
Si Si8 0.077084 0.810210 0.618400
O O1 0.786891 0.876191 0.317018
O O2 0.707632 0.875964 0.448493
O O3 0.021656 0.951878 0.421970
O O4 0.727675 0.025235 0.381967
O O5 0.343055 0.634957 0.550708
O O6 0.045513 0.706376 0.594802
O O7 0.090669 0.647889 0.461528
O O8 0.692518 0.724137 0.250000
O O9 0.489391 0.892332 0.250000
O O10 0.483981 0.146726 0.432923
O O11 0.500000 0.000000 0.500000
O O12 0.541370 0.553189 0.184918
O O13 0.810883 0.524402 0.250000
O O14 0.727935 0.315753 0.655589
O O15 0.057709 0.344441 0.822918
#
# Coordination Sequence:
#
# PCOD9438238 Si02
#       8
#     8   8   4   8   4   8   4   8
#     4  10  20  40  66  88 133 172 219 279 338 392
#     4  10  21  40  62  97 130 167 221 280 326 404
#     4  10  22  44  62  94 135 170 228 288 335 423
#     4   9  20  36  62  94 122 166 214 261 334 402
#     4  10  23  39  63  92 130 175 219 283 338 404
#     4   9  20  40  60  86 130 167 210 278 332 397
#     4  12  23  41  69  94 127 185 227 273 355 417
#     4  10  22  39  62  94 129 166 226 275 339 408
#
# _framework density 24.995004999999999
#
# number of rings (size 3 to 8) (size 9 to 14) (size 15 to 20)
#    0.000    2.154    1.538    0.462    2.154    6.769 
#    5.538    3.077    0.000    0.000    0.000    0.000 
#    0.000    0.000    0.000    0.000    0.000    0.000 
#
# Total GULP energy -289505.158749 kJ/mol
# GULP energy per Si atom -5567.406899 kJ/mol
# Density = 2.493811 g / cm^3
# Si number density = 24.995005 Si / 1000 Ang^3
#
#
#
# Elastic Constant Matrix: (Units=GPa)
#
#
# Indices 1 2 3 4 5 6 
#
# 1 41.1730 -5.4138 5.7718 0.0000 0.0000 0.0000
# 2 -5.4138 42.6536 -7.2249 0.0000 0.0000 0.0000
# 3 5.7718 -7.2249 43.0773 0.0000 0.0000 0.0000
# 4 0.0000 0.0000 0.0000 17.7452 0.0000 0.0000
# 5 0.0000 0.0000 0.0000 0.0000 24.1816 0.0000
# 6 0.0000 0.0000 0.0000 0.0000 0.0000 34.9246
#
#
#
# Elastic Compliance Matrix: (Units=1/GPa)
#
#
# Indices 1 2 3 4 5 6 
#
# 1 0.025048 0.002687 -0.002905 0.000000 0.000000 0.000000
# 2 0.002687 0.024418 0.003735 0.000000 0.000000 0.000000
# 3 -0.002905 0.003735 0.024230 0.000000 0.000000 0.000000
# 4 0.000000 0.000000 0.000000 0.056353 0.000000 0.000000
# 5 0.000000 0.000000 0.000000 0.000000 0.041354 0.000000
# 6 0.000000 0.000000 0.000000 0.000000 0.000000 0.028633
#
#
# Mechanical properties :
#
#
# Convention : Reuss Voigt Hill
#
# Bulk Modulus (GPa) = 12.38683 12.57445 12.48064
# Shear Modulus (GPa) = 22.73623 24.28831 23.51227
#
# Velocity S-wave (km/s) = 3.01928 3.12063 3.07038
# Velocity P-wave (km/s) = 4.13778 4.24573 4.19210
#
# Compressibility (1/GPa) = 0.08073090
#
# Stress axis : x y z
#
# Youngs Moduli (GPa) = 39.92269 40.95256 41.27137
#
# Poissons Ratio (x) = -0.11004 0.11991
# Poissons Ratio (y) = -0.10728 -0.15417
# Poissons Ratio (z) = 0.11599 -0.15298
#
# Static dielectric constant tensor:
#      x y z
#    x 2.396350 0.000000 0.000000 
#    y 0.000000 2.230780 0.000000 
#    z 0.000000 0.000000 2.009800 
# 
# From -- ./inp_files/21239.got.cif
#   From: 2010.05.17/outbox.cif.g08.bks.cpg/sg57_11_cif.got.tgz:21239.got - 2010.06.03 13:58:18.
