data_PCOD9438145
_publ_section_title
;
Structure prediction by ZEFSAII (Michael W. Deem and Ramdas Pophale) SiO2 
 PCOD9438145
Probable space group: P B C M
;
_chemical_formula_sum "Si O2"
_cell_formula_units_Z 64
_cell_length_a 13.470105
_cell_length_b 8.879253
_cell_length_c 23.108911
_cell_angle_alpha 90.000000
_cell_angle_beta 90.000000
_cell_angle_gamma 90.000000
_cell_volume 2763.929058
_symmetry_space_group_name_H-M "P B C M"
_symmetry_group_IT_number 57
_symmetry_cell_setting 'orthorhombic'
loop_
_space_group_symop_operation_xyz
x,y,z
-x,-y,1/2+z
x,1/2-y,-z
-x,1/2+y,1/2-z
-x,-y,-z
x,y,1/2-z
-x,1/2+y,z
x,1/2-y,1/2+z
loop_
_atom_site_type_symbol
_atom_site_label
_atom_site_fract_x
_atom_site_fract_y
_atom_site_fract_z
Si Si1 0.600948 0.821351 0.317761
Si Si2 0.000299 0.773438 0.073137
Si Si3 0.720644 0.154180 0.687403
Si Si4 0.800894 0.004104 0.313056
Si Si5 0.561770 0.997488 0.880789
Si Si6 0.862338 0.960710 0.620920
Si Si7 0.694245 0.918383 0.977191
Si Si8 0.142937 0.988868 0.557232
O O1 0.567417 0.822129 0.250000
O O2 0.586498 0.657046 0.346080
O O3 0.713673 0.880342 0.316431
O O4 0.542791 0.939988 0.358701
O O5 0.074397 0.652810 0.045086
O O6 0.937012 0.679447 0.121128
O O7 0.072993 0.899970 0.098015
O O8 0.917911 0.865685 0.037300
O O9 0.675431 0.125172 0.750000
O O10 0.758701 0.324696 0.686188
O O11 0.637483 0.127185 0.640056
O O12 0.805934 0.030183 0.675786
O O13 0.851491 0.985418 0.250000
O O14 0.855724 0.994972 0.373587
O O15 0.591922 0.971612 0.947449
O O16 0.775809 0.921990 0.574664
O O17 0.681417 0.750000 0.000000
O O18 0.749196 0.012730 0.027872
#
# Coordination Sequence:
#
# PCOD9438145 Si02
#       8
#     8   8   8   8   8   8   8   8
#     4  11  22  40  71 103 134 172 215 266 324 400
#     4  10  22  38  64  91 127 167 236 280 323 402
#     4  10  20  39  62  90 130 170 212 269 334 396
#     4  10  22  41  66  96 133 174 220 274 335 404
#     4  11  24  42  67 103 131 167 217 266 323 392
#     4  10  21  38  57  92 122 167 218 275 329 385
#     4  11  23  41  66  91 132 171 215 273 326 389
#     4  11  22  42  63  95 131 176 224 280 336 393
#
# _framework density 23.155441
#
# number of rings (size 3 to 8) (size 9 to 14) (size 15 to 20)
#    0.000    1.500    2.500    2.625    1.750    4.500 
#    0.000    6.250    0.000    0.000    0.000    0.000 
#    0.000    0.000    0.000    0.000    0.000    0.000 
#
# Total GULP energy -357419.732175 kJ/mol
# GULP energy per Si atom -5584.683315 kJ/mol
# Density = 2.310274 g / cm^3
# Si number density = 23.155441 Si / 1000 Ang^3
#
#
#
# Elastic Constant Matrix: (Units=GPa)
#
#
# Indices 1 2 3 4 5 6 
#
# 1 40.5686 3.9683 25.8364 0.0000 0.0000 0.0000
# 2 3.9683 105.4367 20.1137 0.0000 0.0000 0.0000
# 3 25.8364 20.1137 106.9282 0.0000 0.0000 0.0000
# 4 0.0000 0.0000 0.0000 -460.7013 0.0000 0.0000
# 5 0.0000 0.0000 0.0000 0.0000 27.2922 0.0000
# 6 0.0000 0.0000 0.0000 0.0000 0.0000 23.3777
#
#
#
# Elastic Compliance Matrix: (Units=1/GPa)
#
#
# Indices 1 2 3 4 5 6 
#
# 1 0.029139 0.000256 -0.007089 0.000000 0.000000 0.000000
# 2 0.000256 0.009840 -0.001913 0.000000 0.000000 0.000000
# 3 -0.007089 -0.001913 0.011425 0.000000 0.000000 0.000000
# 4 0.000000 0.000000 0.000000 -0.002171 0.000000 0.000000
# 5 0.000000 0.000000 0.000000 0.000000 0.036640 0.000000
# 6 0.000000 0.000000 0.000000 0.000000 0.000000 0.042776
#
#
# Mechanical properties :
#
#
# Convention : Reuss Voigt Hill
#
# Bulk Modulus (GPa) = 30.38429 39.19670 34.79049
# Shear Modulus (GPa) = 32.02843 -68.47194 -18.22175
#
# Velocity S-wave (km/s) = 3.72316 -5.44378 -2.80827
# Velocity P-wave (km/s) = 5.62432 4.74854 2.13124
#
# Compressibility (1/GPa) = 0.03291175
#
# Stress axis : x y z
#
# Youngs Moduli (GPa) = 34.31812 101.63002 87.52990
#
# Poissons Ratio (x) = -0.02598 0.62048
# Poissons Ratio (y) = -0.00877 0.16741
# Poissons Ratio (z) = 0.24327 0.19438
#
# Static dielectric constant tensor:
#      x y z
#    x 1.880180 0.000000 0.000000 
#    y 0.000000 1.858720 0.000000 
#    z 0.000000 0.000000 1.920410 
# 
# From -- ./inp_files/27449.got.cif
#   From: 2010.05.17/outbox.cif.g08.bks.cpg/sg57_14_cif.got.tgz:27449.got - 2010.06.03 13:58:18.
