data_PCOD9438693
_publ_section_title
;
Structure prediction by ZEFSAII (Michael W. Deem and Ramdas Pophale) SiO2 
 PCOD9438693
Probable space group: P B C M
;
_chemical_formula_sum "Si O2"
_cell_formula_units_Z 56
_cell_length_a 15.234004
_cell_length_b 23.068677
_cell_length_c 8.483746
_cell_angle_alpha 90.000000
_cell_angle_beta 90.000000
_cell_angle_gamma 90.000000
_cell_volume 2981.428585
_symmetry_space_group_name_H-M "P B C M"
_symmetry_group_IT_number 57
_symmetry_cell_setting 'orthorhombic'
loop_
_space_group_symop_operation_xyz
x,y,z
-x,-y,1/2+z
x,1/2-y,-z
-x,1/2+y,1/2-z
-x,-y,-z
x,y,1/2-z
-x,1/2+y,z
x,1/2-y,1/2+z
loop_
_atom_site_type_symbol
_atom_site_label
_atom_site_fract_x
_atom_site_fract_y
_atom_site_fract_z
Si Si1 0.107017 0.445777 0.939907
Si Si2 0.700728 0.581969 0.059053
Si Si3 0.082545 0.922184 0.060607
Si Si4 0.422016 0.188066 0.437664
Si Si5 0.803467 0.312109 0.440869
Si Si6 0.407465 0.524125 0.062970
Si Si7 0.389068 0.652379 0.937466
O O1 0.098333 0.445941 0.750000
O O2 0.196744 0.413089 0.980517
O O3 0.113450 0.513496 0.992042
O O4 0.018986 0.418884 0.010857
O O5 0.693440 0.576388 0.250000
O O6 0.640084 0.635511 0.007270
O O7 0.663631 0.523900 0.981662
O O8 0.088370 0.921985 0.250000
O O9 0.140150 0.867776 0.004047
O O10 0.391794 0.250000 0.500000
O O11 0.419290 0.188293 0.250000
O O12 0.522257 0.177628 0.489372
O O13 0.836714 0.250000 0.500000
O O14 0.804135 0.312285 0.250000
O O15 0.702306 0.320056 0.493939
O O16 0.413090 0.533079 0.250000
O O17 0.500000 0.500000 0.000000
O O18 0.386757 0.584558 0.979504
O O19 0.394494 0.659839 0.750000
#
# Coordination Sequence:
#
# PCOD9438693 Si02
#       7
#     8   8   8   8   8   8   8
#     4   9  18  35  60  85 110 143 182 228 284 340
#     4  10  21  38  58  81 112 148 187 231 281 336
#     4   9  18  35  57  83 113 143 179 227 284 339
#     4  11  23  38  56  77 107 148 192 233 277 331
#     4  10  22  38  57  82 114 153 191 233 284 338
#     4  12  23  35  55  84 116 149 186 230 282 334
#     4  11  22  38  59  82 113 150 190 235 285 338
#
# _framework density 18.78294
#
# number of rings (size 3 to 8) (size 9 to 14) (size 15 to 20)
#    0.000    1.714    1.429    3.429    0.000    6.286 
#    0.000    3.571    0.000    3.429    0.000    0.000 
#    0.000    0.000    0.000    0.000    0.000    0.000 
#
# Total GULP energy -312806.653652 kJ/mol
# GULP energy per Si atom -5585.833101 kJ/mol
# Density = 1.874019 g / cm^3
# Si number density = 18.782940 Si / 1000 Ang^3
#
#
#
# Elastic Constant Matrix: (Units=GPa)
#
#
# Indices 1 2 3 4 5 6 
#
# 1 108.6161 36.5601 8.8526 0.0000 0.0000 0.0000
# 2 36.5601 89.5025 -0.4242 0.0000 0.0000 0.0000
# 3 8.8526 -0.4242 10.0678 0.0000 0.0000 0.0000
# 4 0.0000 0.0000 0.0000 29.6144 0.0000 0.0000
# 5 0.0000 0.0000 0.0000 0.0000 27.1255 0.0000
# 6 0.0000 0.0000 0.0000 0.0000 0.0000 17.5979
#
#
#
# Elastic Compliance Matrix: (Units=1/GPa)
#
#
# Indices 1 2 3 4 5 6 
#
# 1 0.011684 -0.004822 -0.010477 0.000000 0.000000 0.000000
# 2 -0.004822 0.013165 0.004795 0.000000 0.000000 0.000000
# 3 -0.010477 0.004795 0.108741 0.000000 0.000000 0.000000
# 4 0.000000 0.000000 0.000000 0.033767 0.000000 0.000000
# 5 0.000000 0.000000 0.000000 0.000000 0.036866 0.000000
# 6 0.000000 0.000000 0.000000 0.000000 0.000000 0.056825
#
#
# Mechanical properties :
#
#
# Convention : Reuss Voigt Hill
#
# Bulk Modulus (GPa) = 8.88241 33.12925 21.00583
# Shear Modulus (GPa) = 15.64536 25.74741 20.69639
#
# Velocity S-wave (km/s) = 2.88923 3.70643 3.32305
# Velocity P-wave (km/s) = 3.98365 5.99942 5.09227
#
# Compressibility (1/GPa) = 0.11258208
#
# Stress axis : x y z
#
# Youngs Moduli (GPa) = 85.58855 75.95661 9.19617
#
# Poissons Ratio (x) = 0.36628 0.09635
# Poissons Ratio (y) = 0.41273 -0.04410
# Poissons Ratio (z) = 0.89669 -0.36421
#
# Static dielectric constant tensor:
#      x y z
#    x 1.615130 0.000000 0.000000 
#    y 0.000000 1.628620 0.000000 
#    z 0.000000 0.000000 1.645560 
# 
# From -- ./inp_files/5135.got.cif
#   From: 2010.05.17/outbox.cif.g08.bks.cpg/sg57_3_cif.got.tgz:5135.got - 2010.06.03 13:58:18.
