data_PCOD9438086
_publ_section_title
;
Structure prediction by ZEFSAII (Michael W. Deem and Ramdas Pophale) SiO2 
 PCOD9438086
Probable space group: P B C M
;
_chemical_formula_sum "Si O2"
_cell_formula_units_Z 56
_cell_length_a 5.443450
_cell_length_b 15.372865
_cell_length_c 31.342588
_cell_angle_alpha 90.000000
_cell_angle_beta 90.000000
_cell_angle_gamma 90.000000
_cell_volume 2622.792333
_symmetry_space_group_name_H-M "P B C M"
_symmetry_group_IT_number 57
_symmetry_cell_setting 'orthorhombic'
loop_
_space_group_symop_operation_xyz
x,y,z
-x,-y,1/2+z
x,1/2-y,-z
-x,1/2+y,1/2-z
-x,-y,-z
x,y,1/2-z
-x,1/2+y,z
x,1/2-y,1/2+z
loop_
_atom_site_type_symbol
_atom_site_label
_atom_site_fract_x
_atom_site_fract_y
_atom_site_fract_z
Si Si1 0.265462 0.534113 0.860562
Si Si2 0.033899 0.772088 0.049447
Si Si3 0.977349 0.126860 0.380313
Si Si4 0.615256 0.427735 0.685955
Si Si5 0.084077 0.401962 0.203779
Si Si6 0.532680 0.667453 0.589165
Si Si7 0.645511 0.764649 0.673961
O O1 0.129661 0.461097 0.887613
O O2 0.372189 0.484392 0.819617
O O3 0.481360 0.577495 0.886911
O O4 0.081864 0.602873 0.838893
O O5 0.035604 0.685373 0.078292
O O6 0.792950 0.824368 0.065687
O O7 0.294956 0.817131 0.059622
O O8 0.011008 0.750000 0.000000
O O9 0.113601 0.182056 0.342510
O O10 0.722696 0.095315 0.360581
O O11 0.803095 0.499686 0.703946
O O12 0.525675 0.332082 0.700127
O O13 0.962763 0.388203 0.250000
O O14 0.280166 0.323996 0.197708
O O15 0.528524 0.735400 0.628680
#
# Coordination Sequence:
#
# PCOD9438086 Si02
#       7
#     8   8   8   8   8   8   8
#     4  10  21  39  63  88 121 174 227 271 321 411
#     4  11  23  40  64 100 137 169 216 285 347 388
#     4   9  20  37  63  90 122 171 222 269 322 411
#     4  10  20  39  65  90 123 166 231 265 329 398
#     4  11  24  39  60  95 135 169 219 288 344 386
#     4  11  21  40  68  91 126 178 228 259 328 417
#     4  10  20  38  65  93 122 177 224 264 322 408
#
# _framework density 21.351289000000001
#
# number of rings (size 3 to 8) (size 9 to 14) (size 15 to 20)
#    0.000    1.714    2.857    2.143    2.000    1.143 
#    0.000    7.143    0.000    0.000    0.000    0.000 
#    0.000    0.000    0.000    0.000    0.000    0.000 
#
# Total GULP energy -312038.270791 kJ/mol
# GULP energy per Si atom -5572.111978 kJ/mol
# Density = 2.130269 g / cm^3
# Si number density = 21.351289 Si / 1000 Ang^3
#
#
#
# Elastic Constant Matrix: (Units=GPa)
#
#
# Indices 1 2 3 4 5 6 
#
# 1 85.3878 28.8738 21.5025 0.0000 0.0000 0.0000
# 2 28.8738 94.1191 23.0659 0.0000 0.0000 0.0000
# 3 21.5025 23.0659 95.9447 0.0000 0.0000 0.0000
# 4 0.0000 0.0000 0.0000 277.6742 0.0000 0.0000
# 5 0.0000 0.0000 0.0000 0.0000 -53.1802 0.0000
# 6 0.0000 0.0000 0.0000 0.0000 0.0000 38.2551
#
#
#
# Elastic Compliance Matrix: (Units=1/GPa)
#
#
# Indices 1 2 3 4 5 6 
#
# 1 0.013473 -0.003606 -0.002153 0.000000 0.000000 0.000000
# 2 -0.003606 0.012255 -0.002138 0.000000 0.000000 0.000000
# 3 -0.002153 -0.002138 0.011419 0.000000 0.000000 0.000000
# 4 0.000000 0.000000 0.000000 0.003601 0.000000 0.000000
# 5 0.000000 0.000000 0.000000 0.000000 -0.018804 0.000000
# 6 0.000000 0.000000 0.000000 0.000000 0.000000 0.026140
#
#
# Mechanical properties :
#
#
# Convention : Reuss Voigt Hill
#
# Bulk Modulus (GPa) = 46.82948 46.92622 46.87785
# Shear Modulus (GPa) = 70.42764 66.01710 68.22237
#
# Velocity S-wave (km/s) = 5.74950 5.56656 5.65877
# Velocity P-wave (km/s) = 8.12750 7.95873 8.04356
#
# Compressibility (1/GPa) = 0.02135407
#
# Stress axis : x y z
#
# Youngs Moduli (GPa) = 74.22493 81.59977 87.57244
#
# Poissons Ratio (x) = 0.29421 0.18851
# Poissons Ratio (y) = 0.26762 0.18724
# Poissons Ratio (z) = 0.15977 0.17447
#
# Static dielectric constant tensor:
#      x y z
#    x 1.829840 0.000000 0.000000 
#    y 0.000000 1.824600 0.000000 
#    z 0.000000 0.000000 1.714370 
# 
# From -- ./inp_files/29147.got.cif
#   From: 2010.05.17/outbox.cif.g08.bks.cpg/sg57_15_cif.got.tgz:29147.got - 2010.06.03 13:58:18.
