data_PCOD9438975
_publ_section_title
;
Structure prediction by ZEFSAII (Michael W. Deem and Ramdas Pophale) SiO2 
 PCOD9438975
Probable space group: P B C M
;
_chemical_formula_sum "Si O2"
_cell_formula_units_Z 64
_cell_length_a 12.760308
_cell_length_b 14.196143
_cell_length_c 17.301398
_cell_angle_alpha 90.000000
_cell_angle_beta 90.000000
_cell_angle_gamma 90.000000
_cell_volume 3134.099061
_symmetry_space_group_name_H-M "P B C M"
_symmetry_group_IT_number 57
_symmetry_cell_setting 'orthorhombic'
loop_
_space_group_symop_operation_xyz
x,y,z
-x,-y,1/2+z
x,1/2-y,-z
-x,1/2+y,1/2-z
-x,-y,-z
x,y,1/2-z
-x,1/2+y,z
x,1/2-y,1/2+z
loop_
_atom_site_type_symbol
_atom_site_label
_atom_site_fract_x
_atom_site_fract_y
_atom_site_fract_z
Si Si1 0.429914 0.564676 0.161442
Si Si2 0.017780 0.959269 0.164761
Si Si3 0.253830 0.663805 0.442539
Si Si4 0.136731 0.131944 0.384834
Si Si5 0.622234 0.830816 0.606702
Si Si6 0.934683 0.245376 0.340695
Si Si7 0.379472 0.117691 0.573080
Si Si8 0.835463 0.534071 0.955682
O O1 0.394139 0.551052 0.250000
O O2 0.348832 0.629583 0.112461
O O3 0.542109 0.614369 0.159823
O O4 0.439476 0.466091 0.115416
O O5 0.968783 0.956435 0.250000
O O6 0.065906 0.857436 0.148956
O O7 0.930791 0.983209 0.101617
O O8 0.104767 0.039478 0.162205
O O9 0.281901 0.750000 0.500000
O O10 0.156679 0.699214 0.390783
O O11 0.213250 0.566357 0.482233
O O12 0.255903 0.161430 0.371384
O O13 0.129148 0.098564 0.473638
O O14 0.049007 0.208940 0.366388
O O15 0.609262 0.874422 0.519917
O O16 0.594668 0.720702 0.603758
O O17 0.920909 0.222851 0.250000
O O18 0.257672 0.090575 0.586229
#
# Coordination Sequence:
#
# PCOD9438975 Si02
#       8
#     8   8   8   8   8   8   8   8
#     4  11  25  44  68  98 135 173 220 278 335 397
#     4  11  23  37  57  89 131 173 208 259 321 385
#     4  11  24  41  66  91 124 176 223 272 325 392
#     4  11  22  39  64  95 130 162 212 266 324 384
#     4  10  22  43  70 100 130 169 221 271 331 394
#     4  11  24  39  60  94 134 172 211 263 327 391
#     4   9  21  42  69  96 126 174 218 273 322 395
#     4  10  21  39  63  94 124 166 217 267 314 387
#
# _framework density 20.420542000000001
#
# number of rings (size 3 to 8) (size 9 to 14) (size 15 to 20)
#    0.000    1.500    1.250    3.000    3.500    4.500 
#    2.250    0.000    0.000    0.000    0.000    0.000 
#    0.000    0.000    0.000    0.000    0.000    0.000 
#
# Total GULP energy -357644.422298 kJ/mol
# GULP energy per Si atom -5588.194098 kJ/mol
# Density = 2.037406 g / cm^3
# Si number density = 20.420542 Si / 1000 Ang^3
#
#
#
# Elastic Constant Matrix: (Units=GPa)
#
#
# Indices 1 2 3 4 5 6 
#
# 1 66.4263 27.9153 27.2296 0.0000 0.0000 0.0000
# 2 27.9153 91.2263 32.7073 0.0000 0.0000 0.0000
# 3 27.2296 32.7073 50.2063 0.0000 0.0000 0.0000
# 4 0.0000 0.0000 0.0000 17.6539 0.0000 0.0000
# 5 0.0000 0.0000 0.0000 0.0000 3.2666 0.0000
# 6 0.0000 0.0000 0.0000 0.0000 0.0000 24.6983
#
#
#
# Elastic Compliance Matrix: (Units=1/GPa)
#
#
# Indices 1 2 3 4 5 6 
#
# 1 0.019929 -0.002901 -0.008919 0.000000 0.000000 0.000000
# 2 -0.002901 0.014724 -0.008019 0.000000 0.000000 0.000000
# 3 -0.008919 -0.008019 0.029979 0.000000 0.000000 0.000000
# 4 0.000000 0.000000 0.000000 0.056645 0.000000 0.000000
# 5 0.000000 0.000000 0.000000 0.000000 0.306133 0.000000
# 6 0.000000 0.000000 0.000000 0.000000 0.000000 0.040489
#
#
# Mechanical properties :
#
#
# Convention : Reuss Voigt Hill
#
# Bulk Modulus (GPa) = 40.07178 42.61815 41.34497
# Shear Modulus (GPa) = 9.69188 17.12418 13.40803
#
# Velocity S-wave (km/s) = 2.18093 2.89896 2.56519
# Velocity P-wave (km/s) = 5.09978 5.66752 5.39113
#
# Compressibility (1/GPa) = 0.02495522
#
# Stress axis : x y z
#
# Youngs Moduli (GPa) = 50.17706 67.91419 33.35630
#
# Poissons Ratio (x) = 0.19699 0.29751
# Poissons Ratio (y) = 0.14554 0.26749
# Poissons Ratio (z) = 0.44754 0.54462
#
# Static dielectric constant tensor:
#      x y z
#    x 1.701520 0.000000 0.000000 
#    y 0.000000 1.730870 0.000000 
#    z 0.000000 0.000000 1.743170 
# 
# From -- ./inp_files/22083.got.cif
#   From: 2010.05.17/outbox.cif.g08.bks.cpg/sg57_12_cif.got.tgz:22083.got - 2010.06.03 13:58:18.
