data_PCOD9438561
_publ_section_title
;
Structure prediction by ZEFSAII (Michael W. Deem and Ramdas Pophale) SiO2 
 PCOD9438561
Probable space group: P B C M
;
_chemical_formula_sum "Si O2"
_cell_formula_units_Z 60
_cell_length_a 12.080263
_cell_length_b 25.746735
_cell_length_c 9.618662
_cell_angle_alpha 90.000000
_cell_angle_beta 90.000000
_cell_angle_gamma 90.000000
_cell_volume 2991.666762
_symmetry_space_group_name_H-M "P B C M"
_symmetry_group_IT_number 57
_symmetry_cell_setting 'orthorhombic'
loop_
_space_group_symop_operation_xyz
x,y,z
-x,-y,1/2+z
x,1/2-y,-z
-x,1/2+y,1/2-z
-x,-y,-z
x,y,1/2-z
-x,1/2+y,z
x,1/2-y,1/2+z
loop_
_atom_site_type_symbol
_atom_site_label
_atom_site_fract_x
_atom_site_fract_y
_atom_site_fract_z
Si Si1 0.400394 0.974463 0.085118
Si Si2 0.288343 0.796384 0.907950
Si Si3 0.913099 0.124904 0.404113
Si Si4 0.983261 0.980827 0.250000
Si Si5 0.318704 0.301220 0.087098
Si Si6 0.538020 0.145558 0.911941
Si Si7 0.938734 0.803319 0.084260
Si Si8 0.150660 0.509178 0.007806
O O1 0.407382 0.986214 0.250000
O O2 0.417280 0.912453 0.068910
O O3 0.280235 0.991148 0.028160
O O4 0.500000 0.000000 0.000000
O O5 0.310219 0.780105 0.750000
O O6 0.199278 0.842149 0.906029
O O7 0.240808 0.750000 0.000000
O O8 0.396424 0.816609 0.986159
O O9 0.964603 0.130503 0.250000
O O10 0.880370 0.065522 0.426371
O O11 0.989521 0.149847 0.521969
O O12 0.076743 0.993917 0.129459
O O13 0.890697 0.970108 0.374018
O O14 0.325382 0.287810 0.250000
O O15 0.407679 0.346383 0.061082
O O16 0.191058 0.314667 0.059144
O O17 0.347558 0.250000 0.000000
O O18 0.558587 0.159424 0.750000
O O19 0.957814 0.796717 0.250000
O O20 0.964252 0.750000 0.000000
#
# Coordination Sequence:
#
# PCOD9438561 Si02
#       8
#     8   8   8   4   8   8   8   8
#     4  11  25  44  68  96 132 174 219 276 343 406
#     4  11  23  37  58  91 126 165 205 253 310 380
#     4  11  23  39  62  91 128 163 207 261 323 388
#     4  10  24  42  72  94 128 166 214 272 338 400
#     4   9  19  37  58  84 120 160 204 253 304 366
#     4  10  21  40  62  90 120 160 207 258 313 380
#     4  10  21  37  58  86 124 168 211 255 313 377
#     4  11  22  46  66  99 128 170 220 277 341 405
#
# _framework density 20.055709
#
# number of rings (size 3 to 8) (size 9 to 14) (size 15 to 20)
#    0.000    1.600    2.667    1.600    1.867    4.800 
#    4.800    0.000    0.000    0.000    0.000    0.000 
#    0.000    0.000    0.000    0.000    0.000    0.000 
#
# Total GULP energy -334070.271579 kJ/mol
# GULP energy per Si atom -5567.837860 kJ/mol
# Density = 2.001006 g / cm^3
# Si number density = 20.055709 Si / 1000 Ang^3
#
#
#
# Elastic Constant Matrix: (Units=GPa)
#
#
# Indices 1 2 3 4 5 6 
#
# 1 124.6312 6.9299 46.8568 0.0000 0.0000 0.0000
# 2 6.9299 18.4229 8.7595 0.0000 0.0000 0.0000
# 3 46.8568 8.7595 120.8412 0.0000 0.0000 0.0000
# 4 0.0000 0.0000 0.0000 32.8087 0.0000 0.0000
# 5 0.0000 0.0000 0.0000 0.0000 35.0721 0.0000
# 6 0.0000 0.0000 0.0000 0.0000 0.0000 15.4763
#
#
#
# Elastic Compliance Matrix: (Units=1/GPa)
#
#
# Indices 1 2 3 4 5 6 
#
# 1 0.009455 -0.001878 -0.003530 0.000000 0.000000 0.000000
# 2 -0.001878 0.056591 -0.003374 0.000000 0.000000 0.000000
# 3 -0.003530 -0.003374 0.009889 0.000000 0.000000 0.000000
# 4 0.000000 0.000000 0.000000 0.030480 0.000000 0.000000
# 5 0.000000 0.000000 0.000000 0.000000 0.028513 0.000000
# 6 0.000000 0.000000 0.000000 0.000000 0.000000 0.064615
#
#
# Mechanical properties :
#
#
# Convention : Reuss Voigt Hill
#
# Bulk Modulus (GPa) = 17.13194 43.22085 30.17639
# Shear Modulus (GPa) = 21.13593 30.09468 25.61530
#
# Velocity S-wave (km/s) = 3.24984 3.87790 3.57768
# Velocity P-wave (km/s) = 4.75844 6.45353 5.66969
#
# Compressibility (1/GPa) = 0.05837052
#
# Stress axis : x y z
#
# Youngs Moduli (GPa) = 105.76032 17.67066 101.12497
#
# Poissons Ratio (x) = 0.03319 0.35699
# Poissons Ratio (y) = 0.19863 0.34119
# Poissons Ratio (z) = 0.37336 0.05962
#
# Static dielectric constant tensor:
#      x y z
#    x 1.710950 0.000000 0.000000 
#    y 0.000000 1.751880 0.000000 
#    z 0.000000 0.000000 1.691170 
# 
# From -- ./inp_files/3467.got.cif
#   From: 2010.05.17/outbox.cif.g08.bks.cpg/sg57_2_cif.got.tgz:3467.got - 2010.06.03 13:58:18.
