data_PCOD9438356
_publ_section_title
;
Structure prediction by ZEFSAII (Michael W. Deem and Ramdas Pophale) SiO2 
 PCOD9438356
Probable space group: P B C M
;
_chemical_formula_sum "Si O2"
_cell_formula_units_Z 56
_cell_length_a 16.983647
_cell_length_b 9.239011
_cell_length_c 16.878553
_cell_angle_alpha 90.000000
_cell_angle_beta 90.000000
_cell_angle_gamma 90.000000
_cell_volume 2648.449221
_symmetry_space_group_name_H-M "P B C M"
_symmetry_group_IT_number 57
_symmetry_cell_setting 'orthorhombic'
loop_
_space_group_symop_operation_xyz
x,y,z
-x,-y,1/2+z
x,1/2-y,-z
-x,1/2+y,1/2-z
-x,-y,-z
x,y,1/2-z
-x,1/2+y,z
x,1/2-y,1/2+z
loop_
_atom_site_type_symbol
_atom_site_label
_atom_site_fract_x
_atom_site_fract_y
_atom_site_fract_z
Si Si1 0.782053 0.599598 0.160558
Si Si2 0.247436 0.075758 0.846053
Si Si3 0.605430 0.498910 0.950580
Si Si4 0.917279 0.420088 0.654144
Si Si5 0.499949 0.249620 0.620675
Si Si6 0.926829 0.089086 0.847420
Si Si7 0.388431 0.500907 0.639558
O O1 0.809430 0.634663 0.250000
O O2 0.761503 0.756985 0.126649
O O3 0.852439 0.506161 0.124470
O O4 0.701427 0.509850 0.165616
O O5 0.263251 0.070609 0.750000
O O6 0.317288 0.005537 0.896426
O O7 0.165734 0.994985 0.862920
O O8 0.554422 0.639302 0.927914
O O9 0.554744 0.359501 0.927385
O O10 0.618268 0.498538 0.043924
O O11 0.922831 0.415536 0.750000
O O12 0.991932 0.514091 0.627429
O O13 0.921279 0.254869 0.625734
O O14 0.438316 0.357946 0.662742
O O15 0.560967 0.141088 0.663313
O O16 0.924923 0.092145 0.750000
#
# Coordination Sequence:
#
# PCOD9438356 Si02
#       7
#     8   8   8   8   8   8   8
#     4  10  21  35  51  78 113 141 171 217 268 313
#     4  10  21  35  51  78 113 141 171 217 268 313
#     4  11  20  36  57  78 102 138 182 223 263 310
#     4   9  17  31  53  78 105 140 177 212 254 310
#     4  10  21  36  57  78 101 136 185 228 259 308
#     4   9  17  31  53  78 105 140 177 212 254 310
#     4  11  20  36  57  78 102 138 182 223 263 310
#
# _framework density 21.144449000000002
#
# number of rings (size 3 to 8) (size 9 to 14) (size 15 to 20)
#    0.000    2.000    1.429    4.286    2.000    3.429 
#    0.000    4.286    0.000    0.857    0.000    0.000 
#    0.000    0.000    0.000    0.000    0.000    0.000 
#
# Total GULP energy -312639.486266 kJ/mol
# GULP energy per Si atom -5582.847969 kJ/mol
# Density = 2.109632 g / cm^3
# Si number density = 21.144449 Si / 1000 Ang^3
#
#
#
# Elastic Constant Matrix: (Units=GPa)
#
#
# Indices 1 2 3 4 5 6 
#
# 1 181.5233 60.7552 35.5050 0.0000 0.0000 0.0000
# 2 60.7552 106.6861 24.5911 0.0000 0.0000 0.0000
# 3 35.5050 24.5911 68.9761 0.0000 0.0000 0.0000
# 4 0.0000 0.0000 0.0000 -38.8836 0.0000 0.0000
# 5 0.0000 0.0000 0.0000 0.0000 18.2686 0.0000
# 6 0.0000 0.0000 0.0000 0.0000 0.0000 31.4205
#
#
#
# Elastic Compliance Matrix: (Units=1/GPa)
#
#
# Indices 1 2 3 4 5 6 
#
# 1 0.007162 -0.003518 -0.002432 0.000000 0.000000 0.000000
# 2 -0.003518 0.011941 -0.002446 0.000000 0.000000 0.000000
# 3 -0.002432 -0.002446 0.016622 0.000000 0.000000 0.000000
# 4 0.000000 0.000000 0.000000 -0.025718 0.000000 0.000000
# 5 0.000000 0.000000 0.000000 0.000000 0.054739 0.000000
# 6 0.000000 0.000000 0.000000 0.000000 0.000000 0.031826
#
#
# Mechanical properties :
#
#
# Convention : Reuss Voigt Hill
#
# Bulk Modulus (GPa) = 52.82206 66.54312 59.68259
# Shear Modulus (GPa) = 41.77959 17.91671 29.84815
#
# Velocity S-wave (km/s) = 4.44995 2.91408 3.76124
# Velocity P-wave (km/s) = 7.17206 6.54687 6.86659
#
# Compressibility (1/GPa) = 0.01893148
#
# Stress axis : x y z
#
# Youngs Moduli (GPa) = 139.62238 83.74823 60.16146
#
# Poissons Ratio (x) = 0.29463 0.14634
# Poissons Ratio (y) = 0.49119 0.14716
# Poissons Ratio (z) = 0.33962 0.20486
#
# Static dielectric constant tensor:
#      x y z
#    x 1.739680 0.000000 0.000000 
#    y 0.000000 1.762290 0.000000 
#    z 0.000000 0.000000 1.767960 
# 
# From -- ./inp_files/25387.got.cif
#   From: 2010.05.17/outbox.cif.g08.bks.cpg/sg57_13_cif.got.tgz:25387.got - 2010.06.03 13:58:18.
