data_PCOD9438489
_publ_section_title
;
Structure prediction by ZEFSAII (Michael W. Deem and Ramdas Pophale) SiO2 
 PCOD9438489
Probable space group: P B C M
;
_chemical_formula_sum "Si O2"
_cell_formula_units_Z 64
_cell_length_a 16.278423
_cell_length_b 23.854428
_cell_length_c 8.415395
_cell_angle_alpha 90.000000
_cell_angle_beta 90.000000
_cell_angle_gamma 90.000000
_cell_volume 3267.802813
_symmetry_space_group_name_H-M "P B C M"
_symmetry_group_IT_number 57
_symmetry_cell_setting 'orthorhombic'
loop_
_space_group_symop_operation_xyz
x,y,z
-x,-y,1/2+z
x,1/2-y,-z
-x,1/2+y,1/2-z
-x,-y,-z
x,y,1/2-z
-x,1/2+y,z
x,1/2-y,1/2+z
loop_
_atom_site_type_symbol
_atom_site_label
_atom_site_fract_x
_atom_site_fract_y
_atom_site_fract_z
Si Si1 0.545728 0.088342 0.559185
Si Si2 0.906461 0.003441 0.057939
Si Si3 0.662316 0.185156 0.441375
Si Si4 0.145499 0.189008 0.434190
Si Si5 0.823149 0.383419 0.937745
Si Si6 0.027902 0.686789 0.937120
Si Si7 0.380699 0.468401 0.939148
Si Si8 0.778867 0.911021 0.436416
O O1 0.538739 0.091571 0.750000
O O2 0.586788 0.145407 0.495804
O O3 0.458070 0.070420 0.487043
O O4 0.601087 0.033441 0.519596
O O5 0.908699 0.007213 0.250000
O O6 0.856395 0.948352 0.012979
O O7 0.851485 0.055972 0.997430
O O8 0.000000 0.000000 0.000000
O O9 0.660273 0.250000 0.500000
O O10 0.664122 0.187160 0.250000
O O11 0.744242 0.151220 0.499899
O O12 0.165894 0.250000 0.500000
O O13 0.123908 0.193324 0.250000
O O14 0.218041 0.145913 0.465243
O O15 0.064752 0.167669 0.527292
O O16 0.808007 0.390591 0.750000
O O17 0.903994 0.346837 0.967915
O O18 0.044574 0.683704 0.750000
O O19 0.030725 0.750000 0.000000
O O20 0.368647 0.465267 0.750000
O O21 0.301780 0.446497 0.030066
O O22 0.785115 0.898305 0.250000
#
# Coordination Sequence:
#
# PCOD9438489 Si02
#       8
#     8   8   8   8   8   8   8   8
#     4  10  21  39  63  90 120 153 192 237 287 346
#     4  10  22  37  55  81 116 156 196 240 292 345
#     4  11  23  39  60  86 120 160 202 249 303 363
#     4  11  22  38  58  80 108 144 185 230 280 333
#     4  10  21  37  55  79 112 152 196 242 290 343
#     4  11  21  34  53  77 105 143 190 238 284 332
#     4  10  21  38  63  93 120 151 191 236 288 345
#     4  11  22  38  59  86 117 149 188 233 283 339
#
# _framework density 19.585025999999999
#
# number of rings (size 3 to 8) (size 9 to 14) (size 15 to 20)
#    0.000    1.500    0.000    6.375    0.000    8.000 
#    0.000    0.625    0.000    0.000    0.000    0.000 
#    0.000    0.000    0.000    0.000    0.000    0.000 
#
# Total GULP energy -357428.034734 kJ/mol
# GULP energy per Si atom -5584.813043 kJ/mol
# Density = 1.954045 g / cm^3
# Si number density = 19.585026 Si / 1000 Ang^3
#
#
#
# Elastic Constant Matrix: (Units=GPa)
#
#
# Indices 1 2 3 4 5 6 
#
# 1 49.1469 44.1489 10.5603 0.0000 0.0000 0.0000
# 2 44.1489 125.9609 19.3189 0.0000 0.0000 0.0000
# 3 10.5603 19.3189 34.0832 0.0000 0.0000 0.0000
# 4 0.0000 0.0000 0.0000 25.9320 0.0000 0.0000
# 5 0.0000 0.0000 0.0000 0.0000 29.6510 0.0000
# 6 0.0000 0.0000 0.0000 0.0000 0.0000 26.5082
#
#
#
# Elastic Compliance Matrix: (Units=1/GPa)
#
#
# Indices 1 2 3 4 5 6 
#
# 1 0.030110 -0.009991 -0.003666 0.000000 0.000000 0.000000
# 2 -0.009991 0.012010 -0.003712 0.000000 0.000000 0.000000
# 3 -0.003666 -0.003712 0.032580 0.000000 0.000000 0.000000
# 4 0.000000 0.000000 0.000000 0.038562 0.000000 0.000000
# 5 0.000000 0.000000 0.000000 0.000000 0.033726 0.000000
# 6 0.000000 0.000000 0.000000 0.000000 0.000000 0.037724
#
#
# Mechanical properties :
#
#
# Convention : Reuss Voigt Hill
#
# Bulk Modulus (GPa) = 25.02397 39.69412 32.35904
# Shear Modulus (GPa) = 21.48032 25.42910 23.45471
#
# Velocity S-wave (km/s) = 3.31535 3.60723 3.46437
# Velocity P-wave (km/s) = 5.24025 6.13686 5.70619
#
# Compressibility (1/GPa) = 0.03996169
#
# Stress axis : x y z
#
# Youngs Moduli (GPa) = 33.21148 83.26279 30.69386
#
# Poissons Ratio (x) = 0.83190 0.11253
# Poissons Ratio (y) = 0.33182 0.11393
# Poissons Ratio (z) = 0.12176 0.30906
#
# Static dielectric constant tensor:
#      x y z
#    x 1.681170 0.000000 0.000000 
#    y 0.000000 1.735080 0.000000 
#    z 0.000000 0.000000 1.671200 
# 
# From -- ./inp_files/5630.got.cif
#   From: 2010.05.17/outbox.cif.g08.bks.cpg/sg57_3_cif.got.tgz:5630.got - 2010.06.03 13:58:18.
