data_PCOD9438779
_publ_section_title
;
Structure prediction by ZEFSAII (Michael W. Deem and Ramdas Pophale) SiO2 
 PCOD9438779
Probable space group: P B C M
;
_chemical_formula_sum "Si O2"
_cell_formula_units_Z 48
_cell_length_a 27.210199
_cell_length_b 5.321370
_cell_length_c 14.502773
_cell_angle_alpha 90.000000
_cell_angle_beta 90.000000
_cell_angle_gamma 90.000000
_cell_volume 2099.936799
_symmetry_space_group_name_H-M "P B C M"
_symmetry_group_IT_number 57
_symmetry_cell_setting 'orthorhombic'
loop_
_space_group_symop_operation_xyz
x,y,z
-x,-y,1/2+z
x,1/2-y,-z
-x,1/2+y,1/2-z
-x,-y,-z
x,y,1/2-z
-x,1/2+y,z
x,1/2-y,1/2+z
loop_
_atom_site_type_symbol
_atom_site_label
_atom_site_fract_x
_atom_site_fract_y
_atom_site_fract_z
Si Si1 0.858312 0.103874 0.362849
Si Si2 0.689540 0.845214 0.643145
Si Si3 0.198980 0.102749 0.362881
Si Si4 0.631577 0.349453 0.600602
Si Si5 0.478944 0.884265 0.855668
Si Si6 0.028569 0.615611 0.362919
O O1 0.858744 0.105058 0.250000
O O2 0.829880 0.354159 0.392632
O O3 0.914901 0.102138 0.392883
O O4 0.829486 0.853976 0.391044
O O5 0.693563 0.766147 0.750000
O O6 0.744494 0.889836 0.606505
O O7 0.662520 0.607226 0.597352
O O8 0.661141 0.111404 0.641300
O O9 0.199542 0.097225 0.250000
O O10 0.619083 0.250000 0.500000
O O11 0.579550 0.404589 0.647060
O O12 0.498263 0.872435 0.750000
O O13 0.496081 0.625325 0.899621
O O14 0.028865 0.615451 0.250000
O O15 0.997769 0.372202 0.391939
#
# Coordination Sequence:
#
# PCOD9438779 Si02
#       6
#     8   8   8   8   8   8
#     4   9  15  24  37  57  86 118 165 224 268 309
#     4  11  22  39  61  83 111 150 197 239 281 339
#     4   9  17  28  45  67  89 122 172 228 271 308
#     4  12  25  40  60  89 122 152 186 233 290 340
#     4  10  21  38  61  87 115 150 191 231 273 326
#     4   9  15  21  30  47  76 118 163 205 255 318
#
# _framework density 22.857828999999999
#
# number of rings (size 3 to 8) (size 9 to 14) (size 15 to 20)
#    0.000    2.000    0.000    5.000    0.000    8.667 
#    0.000    0.000    0.000    0.000    0.000    0.000 
#    0.000    0.000    0.000    0.000    0.000  210.000 
#
# Total GULP energy -268493.285784 kJ/mol
# GULP energy per Si atom -5593.610121 kJ/mol
# Density = 2.280580 g / cm^3
# Si number density = 22.857829 Si / 1000 Ang^3
#
#
#
# Elastic Constant Matrix: (Units=GPa)
#
#
# Indices 1 2 3 4 5 6 
#
# 1 184.7842 104.2076 -14.2224 0.0000 0.0000 0.0000
# 2 104.2076 195.8578 -8.8419 0.0000 0.0000 0.0000
# 3 -14.2224 -8.8419 45.6520 0.0000 0.0000 0.0000
# 4 0.0000 0.0000 0.0000 8.2742 0.0000 0.0000
# 5 0.0000 0.0000 0.0000 0.0000 51.0927 0.0000
# 6 0.0000 0.0000 0.0000 0.0000 0.0000 32.8372
#
#
#
# Elastic Compliance Matrix: (Units=1/GPa)
#
#
# Indices 1 2 3 4 5 6 
#
# 1 0.007853 -0.004104 0.001652 0.000000 0.000000 0.000000
# 2 -0.004104 0.007295 0.000134 0.000000 0.000000 0.000000
# 3 0.001652 0.000134 0.022445 0.000000 0.000000 0.000000
# 4 0.000000 0.000000 0.000000 0.120858 0.000000 0.000000
# 5 0.000000 0.000000 0.000000 0.000000 0.019572 0.000000
# 6 0.000000 0.000000 0.000000 0.000000 0.000000 0.030453
#
#
# Mechanical properties :
#
#
# Convention : Reuss Voigt Hill
#
# Bulk Modulus (GPa) = 30.34095 65.39785 47.86940
# Shear Modulus (GPa) = 22.31162 41.45085 31.88124
#
# Velocity S-wave (km/s) = 3.12766 4.26305 3.73870
# Velocity P-wave (km/s) = 5.13279 7.27353 6.29483
#
# Compressibility (1/GPa) = 0.03295875
#
# Stress axis : x y z
#
# Youngs Moduli (GPa) = 127.33782 137.07559 44.55245
#
# Poissons Ratio (x) = 0.56252 -0.07359
# Poissons Ratio (y) = 0.52256 -0.00599
# Poissons Ratio (z) = -0.21033 -0.01843
#
# Static dielectric constant tensor:
#      x y z
#    x 1.781350 0.000000 0.000000 
#    y 0.000000 1.768300 0.000000 
#    z 0.000000 0.000000 1.921860 
# 
# From -- ./inp_files/19565.got.cif
#   From: 2010.05.17/outbox.cif.g08.bks.cpg/sg57_10_cif.got.tgz:19565.got - 2010.06.03 13:58:18.
