data_PCOD9438088
_publ_section_title
;
Structure prediction by ZEFSAII (Michael W. Deem and Ramdas Pophale) SiO2 
 PCOD9438088
Probable space group: P B C M
;
_chemical_formula_sum "Si O2"
_cell_formula_units_Z 40
_cell_length_a 5.149148
_cell_length_b 18.879606
_cell_length_c 18.834772
_cell_angle_alpha 90.000000
_cell_angle_beta 90.000000
_cell_angle_gamma 90.000000
_cell_volume 1831.001368
_symmetry_space_group_name_H-M "P B C M"
_symmetry_group_IT_number 57
_symmetry_cell_setting 'orthorhombic'
loop_
_space_group_symop_operation_xyz
x,y,z
-x,-y,1/2+z
x,1/2-y,-z
-x,1/2+y,1/2-z
-x,-y,-z
x,y,1/2-z
-x,1/2+y,z
x,1/2-y,1/2+z
loop_
_atom_site_type_symbol
_atom_site_label
_atom_site_fract_x
_atom_site_fract_y
_atom_site_fract_z
Si Si1 0.791300 0.231550 0.083837
Si Si2 0.664768 0.010780 0.617844
Si Si3 0.508203 0.849568 0.170879
Si Si4 0.824046 0.574652 0.559511
Si Si5 0.278320 0.359983 0.905457
O O1 0.682167 0.297686 0.128299
O O2 0.561009 0.174251 0.091510
O O3 0.058892 0.197672 0.111521
O O4 0.819119 0.250000 0.000000
O O5 0.624861 0.072817 0.674502
O O6 0.394323 0.015103 0.574795
O O7 0.897978 0.040316 0.569954
O O8 0.721700 0.931288 0.641340
O O9 0.570278 0.824348 0.250000
O O10 0.753331 0.866705 0.119790
O O11 0.788122 0.611028 0.484176
#
# Coordination Sequence:
#
# PCOD9438088 Si02
#       5
#     8   8   8   8   8
#     4  12  24  40  64  99 131 172 214 269 324 386
#     4  10  22  39  64  95 122 164 210 268 323 380
#     4  10  25  44  65  91 132 178 220 262 326 404
#     4  10  20  38  65  94 121 161 209 264 322 377
#     4  12  22  39  66  97 130 159 215 275 326 368
#
# _framework density 21.845970000000001
#
# number of rings (size 3 to 8) (size 9 to 14) (size 15 to 20)
#    1.200    0.000    2.000    5.400    2.800    0.800 
#    0.000    2.000    0.000    0.000    0.000    0.000 
#    0.000    0.000    0.000    0.000    0.000    0.000 
#
# Total GULP energy -223313.616623 kJ/mol
# GULP energy per Si atom -5582.840416 kJ/mol
# Density = 2.179625 g / cm^3
# Si number density = 21.845970 Si / 1000 Ang^3
#
#
#
# Elastic Constant Matrix: (Units=GPa)
#
#
# Indices 1 2 3 4 5 6 
#
# 1 87.3634 3.4312 -21.0164 0.0000 0.0000 0.0000
# 2 3.4312 120.6174 9.7990 0.0000 0.0000 0.0000
# 3 -21.0164 9.7990 61.2762 0.0000 0.0000 0.0000
# 4 0.0000 0.0000 0.0000 7.8936 0.0000 0.0000
# 5 0.0000 0.0000 0.0000 0.0000 1.0877 0.0000
# 6 0.0000 0.0000 0.0000 0.0000 0.0000 44.4459
#
#
#
# Elastic Compliance Matrix: (Units=1/GPa)
#
#
# Indices 1 2 3 4 5 6 
#
# 1 0.012536 -0.000715 0.004414 0.000000 0.000000 0.000000
# 2 -0.000715 0.008441 -0.001595 0.000000 0.000000 0.000000
# 3 0.004414 -0.001595 0.018089 0.000000 0.000000 0.000000
# 4 0.000000 0.000000 0.000000 0.126685 0.000000 0.000000
# 5 0.000000 0.000000 0.000000 0.000000 0.919351 0.000000
# 6 0.000000 0.000000 0.000000 0.000000 0.000000 0.022499
#
#
# Mechanical properties :
#
#
# Convention : Reuss Voigt Hill
#
# Bulk Modulus (GPa) = 23.10905 28.18718 25.64811
# Shear Modulus (GPa) = 4.47300 29.15499 16.81400
#
# Velocity S-wave (km/s) = 1.43247 3.65714 2.77729
# Velocity P-wave (km/s) = 3.65200 5.54650 4.69578
#
# Compressibility (1/GPa) = 0.04327310
#
# Stress axis : x y z
#
# Youngs Moduli (GPa) = 79.76777 118.47490 55.28359
#
# Poissons Ratio (x) = 0.08474 -0.24403
# Poissons Ratio (y) = 0.05705 0.08818
# Poissons Ratio (z) = -0.35210 0.18898
#
# Static dielectric constant tensor:
#      x y z
#    x 1.778770 0.000000 0.000000 
#    y 0.000000 1.870650 0.000000 
#    z 0.000000 0.000000 1.868730 
# 
# From -- ./inp_files/23579.got.cif
#   From: 2010.05.17/outbox.cif.g08.bks.cpg/sg57_12_cif.got.tgz:23579.got - 2010.06.03 13:58:18.
