data_PCOD9438832
_publ_section_title
;
Structure prediction by ZEFSAII (Michael W. Deem and Ramdas Pophale) SiO2 
 PCOD9438832
Probable space group: P B C M
;
_chemical_formula_sum "Si O2"
_cell_formula_units_Z 56
_cell_length_a 11.569784
_cell_length_b 12.189284
_cell_length_c 16.239365
_cell_angle_alpha 90.000000
_cell_angle_beta 90.000000
_cell_angle_gamma 90.000000
_cell_volume 2290.195147
_symmetry_space_group_name_H-M "P B C M"
_symmetry_group_IT_number 57
_symmetry_cell_setting 'orthorhombic'
loop_
_space_group_symop_operation_xyz
x,y,z
-x,-y,1/2+z
x,1/2-y,-z
-x,1/2+y,1/2-z
-x,-y,-z
x,y,1/2-z
-x,1/2+y,z
x,1/2-y,1/2+z
loop_
_atom_site_type_symbol
_atom_site_label
_atom_site_fract_x
_atom_site_fract_y
_atom_site_fract_z
Si Si1 0.318238 0.071487 0.111722
Si Si2 0.370092 0.665881 0.662163
Si Si3 0.741885 0.817069 0.343988
Si Si4 0.010749 0.819557 0.155232
Si Si5 0.563312 0.864331 0.033781
Si Si6 0.819104 0.359686 0.841607
Si Si7 0.872816 0.040978 0.984195
O O1 0.300256 0.189112 0.152916
O O2 0.324862 0.959541 0.163010
O O3 0.431018 0.068247 0.050902
O O4 0.209195 0.051513 0.052840
O O5 0.433704 0.683252 0.750000
O O6 0.447631 0.668922 0.580691
O O7 0.274970 0.761244 0.658233
O O8 0.737271 0.849834 0.250000
O O9 0.876537 0.826979 0.369766
O O10 0.654834 0.893102 0.395622
O O11 0.024270 0.862948 0.250000
O O12 0.053014 0.694316 0.159231
O O13 0.097456 0.872346 0.088651
O O14 0.615708 0.750000 0.000000
O O15 0.806042 0.413330 0.750000
O O16 0.816884 0.416325 0.930826
O O17 0.000000 0.000000 0.000000
#
# Coordination Sequence:
#
# PCOD9438832 Si02
#       7
#     8   8   8   8   8   8   8
#     4  11  23  38  62  97 128 159 218 268 324 391
#     4  11  23  42  66  91 126 171 218 268 330 394
#     4  10  21  41  64  90 128 168 212 266 319 386
#     4  10  21  38  63  90 125 170 217 259 318 394
#     4  10  23  40  64  92 124 165 216 266 326 392
#     4  10  23  42  63  92 126 172 222 267 326 400
#     4  12  24  38  65  96 134 172 210 271 336 394
#
# _framework density 24.452065000000001
#
# number of rings (size 3 to 8) (size 9 to 14) (size 15 to 20)
#    0.000    1.429    1.429    3.429    2.000    3.429 
#    0.000    1.429    0.000    0.000    0.000    0.000 
#    0.000    0.000    0.000    0.000    0.000    0.000 
#
# Total GULP energy -312351.424185 kJ/mol
# GULP energy per Si atom -5577.704003 kJ/mol
# Density = 2.439641 g / cm^3
# Si number density = 24.452065 Si / 1000 Ang^3
#
#
#
# Elastic Constant Matrix: (Units=GPa)
#
#
# Indices 1 2 3 4 5 6 
#
# 1 66.6659 4.3979 35.6645 0.0000 0.0000 0.0000
# 2 4.3979 68.0455 44.3177 0.0000 0.0000 0.0000
# 3 35.6645 44.3177 157.4178 0.0000 0.0000 0.0000
# 4 0.0000 0.0000 0.0000 -7.8337 0.0000 0.0000
# 5 0.0000 0.0000 0.0000 0.0000 19.3807 0.0000
# 6 0.0000 0.0000 0.0000 0.0000 0.0000 21.8393
#
#
#
# Elastic Compliance Matrix: (Units=1/GPa)
#
#
# Indices 1 2 3 4 5 6 
#
# 1 0.017238 0.001750 -0.004398 0.000000 0.000000 0.000000
# 2 0.001750 0.018173 -0.005513 0.000000 0.000000 0.000000
# 3 -0.004398 -0.005513 0.008901 0.000000 0.000000 0.000000
# 4 0.000000 0.000000 0.000000 -0.127653 0.000000 0.000000
# 5 0.000000 0.000000 0.000000 0.000000 0.051598 0.000000
# 6 0.000000 0.000000 0.000000 0.000000 0.000000 0.045789
#
#
# Mechanical properties :
#
#
# Convention : Reuss Voigt Hill
#
# Bulk Modulus (GPa) = 35.72616 51.20993 43.46805
# Shear Modulus (GPa) = 125.95379 20.52718 73.24049
#
# Velocity S-wave (km/s) = 7.18487 2.90053 5.47884
# Velocity P-wave (km/s) = 9.13631 5.67503 7.60520
#
# Compressibility (1/GPa) = 0.02799069
#
# Stress axis : x y z
#
# Youngs Moduli (GPa) = 58.01281 55.02534 112.34690
#
# Poissons Ratio (x) = -0.09631 0.49411
# Poissons Ratio (y) = -0.10154 0.61936
# Poissons Ratio (z) = 0.25515 0.30335
#
# Static dielectric constant tensor:
#      x y z
#    x 1.931990 0.000000 0.000000 
#    y 0.000000 2.027790 0.000000 
#    z 0.000000 0.000000 2.187550 
# 
# From -- ./inp_files/17744.got.cif
#   From: 2010.05.17/outbox.cif.g08.bks.cpg/sg57_9_cif.got.tgz:17744.got - 2010.06.03 13:58:18.
