data_PCOD9438988
_publ_section_title
;
Structure prediction by ZEFSAII (Michael W. Deem and Ramdas Pophale) SiO2 
 PCOD9438988
Probable space group: P B C M
;
_chemical_formula_sum "Si O2"
_cell_formula_units_Z 64
_cell_length_a 24.110516
_cell_length_b 8.810857
_cell_length_c 14.090630
_cell_angle_alpha 90.000000
_cell_angle_beta 90.000000
_cell_angle_gamma 90.000000
_cell_volume 2993.333243
_symmetry_space_group_name_H-M "P B C M"
_symmetry_group_IT_number 57
_symmetry_cell_setting 'orthorhombic'
loop_
_space_group_symop_operation_xyz
x,y,z
-x,-y,1/2+z
x,1/2-y,-z
-x,1/2+y,1/2-z
-x,-y,-z
x,y,1/2-z
-x,1/2+y,z
x,1/2-y,1/2+z
loop_
_atom_site_type_symbol
_atom_site_label
_atom_site_fract_x
_atom_site_fract_y
_atom_site_fract_z
Si Si1 0.459052 0.922512 0.362912
Si Si2 0.746317 0.074194 0.977219
Si Si3 0.852349 0.163472 0.638897
Si Si4 0.574154 0.424045 0.862699
Si Si5 0.182812 0.014106 0.639176
Si Si6 0.636997 0.573307 0.477545
Si Si7 0.963040 0.496040 0.366083
Si Si8 0.927651 0.832001 0.365952
O O1 0.454815 0.940763 0.250000
O O2 0.443759 0.748488 0.385257
O O3 0.521783 0.968510 0.387541
O O4 0.415109 0.032468 0.411917
O O5 0.802220 0.081486 0.914946
O O6 0.732589 0.250000 0.000000
O O7 0.763767 0.986825 0.073028
O O8 0.693621 0.991496 0.933405
O O9 0.849080 0.123754 0.750000
O O10 0.842158 0.343263 0.630809
O O11 0.913278 0.115837 0.604672
O O12 0.584739 0.433838 0.750000
O O13 0.625069 0.479128 0.925852
O O14 0.195001 0.041749 0.750000
O O15 0.134002 0.123854 0.604443
O O16 0.640351 0.750000 0.500000
O O17 0.964827 0.492571 0.250000
O O18 0.945897 0.664515 0.394081
O O19 0.024048 0.446510 0.397308
O O20 0.926249 0.837671 0.250000
#
# Coordination Sequence:
#
# PCOD9438988 Si02
#       8
#     8   8   8   8   8   8   8   8
#     4  10  21  39  64  92 122 155 192 235 283 336
#     4  10  22  39  56  77 106 142 189 234 273 326
#     4   9  18  34  55  76 101 135 174 221 276 328
#     4  10  21  39  64  92 122 155 192 235 283 336
#     4   9  18  34  55  76 101 135 174 221 276 328
#     4  12  25  39  58  85 120 158 195 238 284 334
#     4   9  16  27  47  75 104 133 168 212 264 325
#     4   9  16  27  47  75 104 133 168 212 264 325
#
# _framework density 21.380846999999999
#
# number of rings (size 3 to 8) (size 9 to 14) (size 15 to 20)
#    0.000    2.250    0.000    3.000    0.000    6.500 
#    0.000    3.125    0.000    0.000    0.000    0.000 
#    0.000    0.000    0.000    0.000    0.000    0.000 
#
# Total GULP energy -357844.279925 kJ/mol
# GULP energy per Si atom -5591.316874 kJ/mol
# Density = 2.133218 g / cm^3
# Si number density = 21.380847 Si / 1000 Ang^3
#
#
#
# Elastic Constant Matrix: (Units=GPa)
#
#
# Indices 1 2 3 4 5 6 
#
# 1 60.7314 3.6858 9.7163 0.0000 0.0000 0.0000
# 2 3.6858 48.7007 -0.0729 0.0000 0.0000 0.0000
# 3 9.7163 -0.0729 52.2705 0.0000 0.0000 0.0000
# 4 0.0000 0.0000 0.0000 22.4747 0.0000 0.0000
# 5 0.0000 0.0000 0.0000 0.0000 23.9303 0.0000
# 6 0.0000 0.0000 0.0000 0.0000 0.0000 30.5924
#
#
#
# Elastic Compliance Matrix: (Units=1/GPa)
#
#
# Indices 1 2 3 4 5 6 
#
# 1 0.017052 -0.001295 -0.003172 0.000000 0.000000 0.000000
# 2 -0.001295 0.020632 0.000270 0.000000 0.000000 0.000000
# 3 -0.003172 0.000270 0.019721 0.000000 0.000000 0.000000
# 4 0.000000 0.000000 0.000000 0.044494 0.000000 0.000000
# 5 0.000000 0.000000 0.000000 0.000000 0.041788 0.000000
# 6 0.000000 0.000000 0.000000 0.000000 0.000000 0.032688
#
#
# Mechanical properties :
#
#
# Convention : Reuss Voigt Hill
#
# Bulk Modulus (GPa) = 20.40375 20.92902 20.66638
# Shear Modulus (GPa) = 24.86240 25.29103 25.07672
#
# Velocity S-wave (km/s) = 3.41374 3.44304 3.42842
# Velocity P-wave (km/s) = 5.01017 5.06122 5.03576
#
# Compressibility (1/GPa) = 0.04901061
#
# Stress axis : x y z
#
# Youngs Moduli (GPa) = 58.64427 48.46838 50.70698
#
# Poissons Ratio (x) = 0.06278 0.16082
# Poissons Ratio (y) = 0.07596 -0.01367
# Poissons Ratio (z) = 0.18599 -0.01306
#
# Static dielectric constant tensor:
#      x y z
#    x 1.713830 0.000000 0.000000 
#    y 0.000000 1.745730 0.000000 
#    z 0.000000 0.000000 1.821120 
# 
# From -- ./inp_files/19494.got.cif
#   From: 2010.05.17/outbox.cif.g08.bks.cpg/sg57_10_cif.got.tgz:19494.got - 2010.06.03 13:58:18.
