data_PCOD9438449
_publ_section_title
;
Structure prediction by ZEFSAII (Michael W. Deem and Ramdas Pophale) SiO2 
 PCOD9438449
Probable space group: P B C M
;
_chemical_formula_sum "Si O2"
_cell_formula_units_Z 64
_cell_length_a 9.814648
_cell_length_b 18.933624
_cell_length_c 19.087714
_cell_angle_alpha 90.000000
_cell_angle_beta 90.000000
_cell_angle_gamma 90.000000
_cell_volume 3547.009860
_symmetry_space_group_name_H-M "P B C M"
_symmetry_group_IT_number 57
_symmetry_cell_setting 'orthorhombic'
loop_
_space_group_symop_operation_xyz
x,y,z
-x,-y,1/2+z
x,1/2-y,-z
-x,1/2+y,1/2-z
-x,-y,-z
x,y,1/2-z
-x,1/2+y,z
x,1/2-y,1/2+z
loop_
_atom_site_type_symbol
_atom_site_label
_atom_site_fract_x
_atom_site_fract_y
_atom_site_fract_z
Si Si1 0.565868 0.923059 0.887881
Si Si2 0.887175 0.777693 0.074529
Si Si3 0.974859 0.466385 0.830729
Si Si4 0.915667 0.374263 0.332967
Si Si5 0.274546 0.546411 0.071044
Si Si6 0.642515 0.885454 0.454252
Si Si7 0.651575 0.084019 0.587492
Si Si8 0.200760 0.152003 0.326954
O O1 0.403294 0.921920 0.887373
O O2 0.645963 0.876152 0.833086
O O3 0.614369 0.004762 0.886412
O O4 0.612410 0.893337 0.963421
O O5 0.755809 0.827468 0.061030
O O6 0.836204 0.710174 0.116972
O O7 0.996923 0.820269 0.120436
O O8 0.941944 0.750000 0.000000
O O9 0.924703 0.460062 0.750000
O O10 0.864351 0.442575 0.887585
O O11 0.018784 0.547474 0.841693
O O12 0.105714 0.416386 0.837668
O O13 0.917780 0.357407 0.250000
O O14 0.762567 0.380551 0.362842
O O15 0.300870 0.462186 0.067991
O O16 0.285611 0.574297 0.991087
O O17 0.493686 0.876311 0.419091
O O18 0.173392 0.181227 0.250000
#
# Coordination Sequence:
#
# PCOD9438449 Si02
#       8
#     8   8   8   8   8   8   8   8
#     4   9  17  34  57  88 118 146 188 249 299 345
#     4  12  24  39  62  86 117 162 205 241 297 358
#     4  10  21  36  57  86 121 157 195 245 299 348
#     4  11  23  40  59  89 124 156 199 250 296 356
#     4   9  18  33  60  89 118 142 194 254 294 338
#     4   9  18  37  56  89 114 147 197 247 289 348
#     4   9  19  34  63  88 115 149 192 249 302 338
#     4  11  23  38  56  84 123 160 192 238 302 363
#
# _framework density 18.043367
#
# number of rings (size 3 to 8) (size 9 to 14) (size 15 to 20)
#    0.000    2.000    3.750    1.875    1.750    1.000 
#    0.000    5.000    0.000    0.000    0.000    0.000 
#    0.000    0.000    0.000    0.000    0.000    0.000 
#
# Total GULP energy -357019.933851 kJ/mol
# GULP energy per Si atom -5578.436466 kJ/mol
# Density = 1.800230 g / cm^3
# Si number density = 18.043367 Si / 1000 Ang^3
#
#
#
# Elastic Constant Matrix: (Units=GPa)
#
#
# Indices 1 2 3 4 5 6 
#
# 1 74.6679 16.4526 43.1501 0.0000 0.0000 0.0000
# 2 16.4526 54.7595 39.9085 0.0000 0.0000 0.0000
# 3 43.1501 39.9085 78.0140 0.0000 0.0000 0.0000
# 4 0.0000 0.0000 0.0000 21.7875 0.0000 0.0000
# 5 0.0000 0.0000 0.0000 0.0000 21.8046 0.0000
# 6 0.0000 0.0000 0.0000 0.0000 0.0000 22.2721
#
#
#
# Elastic Compliance Matrix: (Units=1/GPa)
#
#
# Indices 1 2 3 4 5 6 
#
# 1 0.020048 0.003281 -0.012767 0.000000 0.000000 0.000000
# 2 0.003281 0.029654 -0.016985 0.000000 0.000000 0.000000
# 3 -0.012767 -0.016985 0.028568 0.000000 0.000000 0.000000
# 4 0.000000 0.000000 0.000000 0.045898 0.000000 0.000000
# 5 0.000000 0.000000 0.000000 0.000000 0.045862 0.000000
# 6 0.000000 0.000000 0.000000 0.000000 0.000000 0.044899
#
#
# Mechanical properties :
#
#
# Convention : Reuss Voigt Hill
#
# Bulk Modulus (GPa) = 39.48003 45.16264 42.32134
# Shear Modulus (GPa) = 18.09542 20.36817 19.23179
#
# Velocity S-wave (km/s) = 3.17027 3.36347 3.26830
# Velocity P-wave (km/s) = 5.94382 6.33785 6.14399
#
# Compressibility (1/GPa) = 0.02532926
#
# Stress axis : x y z
#
# Youngs Moduli (GPa) = 49.88118 33.72212 35.00382
#
# Poissons Ratio (x) = -0.11065 0.44689
# Poissons Ratio (y) = -0.16367 0.59453
# Poissons Ratio (z) = 0.63683 0.57276
#
# Static dielectric constant tensor:
#      x y z
#    x 1.613710 0.000000 0.000000 
#    y 0.000000 1.597300 0.000000 
#    z 0.000000 0.000000 1.634930 
# 
# From -- ./inp_files/24614.got.cif
#   From: 2010.05.17/outbox.cif.g08.bks.cpg/sg57_13_cif.got.tgz:24614.got - 2010.06.03 13:58:18.
