data_PCOD9438783
_publ_section_title
;
Structure prediction by ZEFSAII (Michael W. Deem and Ramdas Pophale) SiO2 
 PCOD9438783
Probable space group: P B C M
;
_chemical_formula_sum "Si O2"
_cell_formula_units_Z 56
_cell_length_a 16.378926
_cell_length_b 10.028441
_cell_length_c 18.123740
_cell_angle_alpha 90.000000
_cell_angle_beta 90.000000
_cell_angle_gamma 90.000000
_cell_volume 2976.916600
_symmetry_space_group_name_H-M "P B C M"
_symmetry_group_IT_number 57
_symmetry_cell_setting 'orthorhombic'
loop_
_space_group_symop_operation_xyz
x,y,z
-x,-y,1/2+z
x,1/2-y,-z
-x,1/2+y,1/2-z
-x,-y,-z
x,y,1/2-z
-x,1/2+y,z
x,1/2-y,1/2+z
loop_
_atom_site_type_symbol
_atom_site_label
_atom_site_fract_x
_atom_site_fract_y
_atom_site_fract_z
Si Si1 0.969219 0.377429 0.550953
Si Si2 0.790123 0.123310 0.093706
Si Si3 0.858652 0.689376 0.417127
Si Si4 0.271779 0.370971 0.163685
Si Si5 0.412665 0.532936 0.660937
Si Si6 0.244537 0.577597 0.923533
Si Si7 0.446355 0.268927 0.338866
O O1 0.947265 0.250000 0.500000
O O2 0.885790 0.415396 0.591047
O O3 0.000000 0.500000 0.500000
O O4 0.045676 0.330344 0.600218
O O5 0.783720 0.280218 0.108742
O O6 0.742567 0.026334 0.148105
O O7 0.753265 0.096661 0.012037
O O8 0.857387 0.750000 0.500000
O O9 0.802864 0.788779 0.370774
O O10 0.817398 0.544388 0.412288
O O11 0.272507 0.343674 0.250000
O O12 0.359196 0.322734 0.132450
O O13 0.397293 0.543187 0.750000
O O14 0.329494 0.542940 0.615311
O O15 0.451599 0.387904 0.647053
O O16 0.476174 0.646174 0.636287
O O17 0.444831 0.286626 0.250000
#
# Coordination Sequence:
#
# PCOD9438783 Si02
#       7
#     8   8   8   8   8   8   8
#     4  11  18  34  60  91 114 153 205 250 292 353
#     4  11  22  38  57  90 126 158 203 249 301 364
#     4  11  20  36  65  90 115 159 204 256 303 355
#     4  11  23  40  61  87 122 163 205 248 306 371
#     4  10  21  38  61  88 116 155 201 251 305 360
#     4  11  21  36  60  88 125 154 200 257 297 363
#     4   9  20  37  59  85 114 151 201 245 294 371
#
# _framework density 18.811411
#
# number of rings (size 3 to 8) (size 9 to 14) (size 15 to 20)
#    0.000    1.429    5.714    0.857    2.000    0.571 
#    0.000    1.429    3.143    1.714    0.000    0.000 
#    0.000    0.000    0.000    0.000    0.000    0.000 
#
# Total GULP energy -312489.230074 kJ/mol
# GULP energy per Si atom -5580.164823 kJ/mol
# Density = 1.876860 g / cm^3
# Si number density = 18.811411 Si / 1000 Ang^3
#
#
#
# Elastic Constant Matrix: (Units=GPa)
#
#
# Indices 1 2 3 4 5 6 
#
# 1 108.7898 20.1156 26.1522 0.0000 0.0000 0.0000
# 2 20.1156 87.0724 4.7796 0.0000 0.0000 0.0000
# 3 26.1522 4.7796 25.7758 0.0000 0.0000 0.0000
# 4 0.0000 0.0000 0.0000 25.1773 0.0000 0.0000
# 5 0.0000 0.0000 0.0000 0.0000 -9.0073 0.0000
# 6 0.0000 0.0000 0.0000 0.0000 0.0000 39.3842
#
#
#
# Elastic Compliance Matrix: (Units=1/GPa)
#
#
# Indices 1 2 3 4 5 6 
#
# 1 0.012570 -0.002227 -0.012341 0.000000 0.000000 0.000000
# 2 -0.002227 0.011997 0.000035 0.000000 0.000000 0.000000
# 3 -0.012341 0.000035 0.051311 0.000000 0.000000 0.000000
# 4 0.000000 0.000000 0.000000 0.039718 0.000000 0.000000
# 5 0.000000 0.000000 0.000000 0.000000 -0.111021 0.000000
# 6 0.000000 0.000000 0.000000 0.000000 0.000000 0.025391
#
#
# Mechanical properties :
#
#
# Convention : Reuss Voigt Hill
#
# Bulk Modulus (GPa) = 21.36194 35.97032 28.66613
# Shear Modulus (GPa) = 66.99010 22.48355 44.73683
#
# Velocity S-wave (km/s) = 5.97400 3.46093 4.88194
# Velocity P-wave (km/s) = 7.67890 5.92737 6.85927
#
# Compressibility (1/GPa) = 0.04681222
#
# Stress axis : x y z
#
# Youngs Moduli (GPa) = 79.55150 83.35281 19.48895
#
# Poissons Ratio (x) = 0.18560 0.24052
# Poissons Ratio (y) = 0.17713 -0.00067
# Poissons Ratio (z) = 0.98176 -0.00288
#
# Static dielectric constant tensor:
#      x y z
#    x 1.657600 0.000000 0.000000 
#    y 0.000000 1.677710 0.000000 
#    z 0.000000 0.000000 1.640750 
# 
# From -- ./inp_files/25374.got.cif
#   From: 2010.05.17/outbox.cif.g08.bks.cpg/sg57_13_cif.got.tgz:25374.got - 2010.06.03 13:58:18.
