data_PCOD9438279
_publ_section_title
;
Structure prediction by ZEFSAII (Michael W. Deem and Ramdas Pophale) SiO2 
 PCOD9438279
Probable space group: P B C M
;
_chemical_formula_sum "Si O2"
_cell_formula_units_Z 40
_cell_length_a 16.091113
_cell_length_b 7.298866
_cell_length_c 14.060548
_cell_angle_alpha 90.000000
_cell_angle_beta 90.000000
_cell_angle_gamma 90.000000
_cell_volume 1651.367460
_symmetry_space_group_name_H-M "P B C M"
_symmetry_group_IT_number 57
_symmetry_cell_setting 'orthorhombic'
loop_
_space_group_symop_operation_xyz
x,y,z
-x,-y,1/2+z
x,1/2-y,-z
-x,1/2+y,1/2-z
-x,-y,-z
x,y,1/2-z
-x,1/2+y,z
x,1/2-y,1/2+z
loop_
_atom_site_type_symbol
_atom_site_label
_atom_site_fract_x
_atom_site_fract_y
_atom_site_fract_z
Si Si1 0.403267 0.224501 0.142142
Si Si2 0.937923 0.635981 0.637378
Si Si3 0.278063 0.609265 0.855615
Si Si4 0.110329 0.528294 0.559174
Si Si5 0.414471 0.880069 0.908838
O O1 0.389174 0.293479 0.250000
O O2 0.337307 0.064952 0.124717
O O3 0.399688 0.404763 0.077195
O O4 0.495634 0.139325 0.139436
O O5 0.928361 0.590995 0.750000
O O6 0.902971 0.505554 0.553385
O O7 0.897341 0.831867 0.612773
O O8 0.035385 0.640550 0.608110
O O9 0.243572 0.587501 0.750000
O O10 0.200500 0.608528 0.924014
O O11 0.336343 0.787302 0.858068
O O12 0.421926 0.750000 0.000000
#
# Coordination Sequence:
#
# PCOD9438279 Si02
#       5
#     8   8   8   8   8
#     4  11  23  42  69  96 130 181 232 277 344 415
#     4  10  20  41  69  95 132 176 219 275 348 415
#     4  11  24  44  70  99 139 181 232 293 340 407
#     4  10  23  42  67 102 134 174 227 280 340 412
#     4  12  25  41  65 100 137 182 227 284 346 412
#
# _framework density 24.222349999999999
#
# number of rings (size 3 to 8) (size 9 to 14) (size 15 to 20)
#    0.000    1.200    2.000    4.200    0.000    3.200 
#   10.800    0.000    0.000    1.200    0.000    0.000 
#    0.000    0.000    0.000    0.000    0.000    0.000 
#
# Total GULP energy -223898.529901 kJ/mol
# GULP energy per Si atom -5597.463248 kJ/mol
# Density = 2.416722 g / cm^3
# Si number density = 24.222350 Si / 1000 Ang^3
#
#
#
# Elastic Constant Matrix: (Units=GPa)
#
#
# Indices 1 2 3 4 5 6 
#
# 1 160.5703 54.0903 54.7650 0.0000 0.0000 0.0000
# 2 54.0903 127.8646 27.8299 0.0000 0.0000 0.0000
# 3 54.7650 27.8299 182.8277 0.0000 0.0000 0.0000
# 4 0.0000 0.0000 0.0000 26.6228 0.0000 0.0000
# 5 0.0000 0.0000 0.0000 0.0000 22.6945 0.0000
# 6 0.0000 0.0000 0.0000 0.0000 0.0000 30.2740
#
#
#
# Elastic Compliance Matrix: (Units=1/GPa)
#
#
# Indices 1 2 3 4 5 6 
#
# 1 0.007860 -0.002909 -0.001912 0.000000 0.000000 0.000000
# 2 -0.002909 0.009165 -0.000524 0.000000 0.000000 0.000000
# 3 -0.001912 -0.000524 0.006122 0.000000 0.000000 0.000000
# 4 0.000000 0.000000 0.000000 0.037562 0.000000 0.000000
# 5 0.000000 0.000000 0.000000 0.000000 0.044064 0.000000
# 6 0.000000 0.000000 0.000000 0.000000 0.000000 0.033032
#
#
# Mechanical properties :
#
#
# Convention : Reuss Voigt Hill
#
# Bulk Modulus (GPa) = 80.26602 82.73701 81.50151
# Shear Modulus (GPa) = 32.75576 38.22344 35.48960
#
# Velocity S-wave (km/s) = 3.68135 3.97674 3.83189
# Velocity P-wave (km/s) = 7.16093 7.43757 7.30056
#
# Compressibility (1/GPa) = 0.01245857
#
# Stress axis : x y z
#
# Youngs Moduli (GPa) = 127.23249 109.10736 163.34654
#
# Poissons Ratio (x) = 0.31737 0.31224
# Poissons Ratio (y) = 0.37009 0.08556
# Poissons Ratio (z) = 0.24321 0.05715
#
# Static dielectric constant tensor:
#      x y z
#    x 1.868190 0.000000 0.000000 
#    y 0.000000 1.957060 0.000000 
#    z 0.000000 0.000000 1.923780 
# 
# From -- ./inp_files/18190.got.cif
#   From: 2010.05.17/outbox.cif.g08.bks.cpg/sg57_10_cif.got.tgz:18190.got - 2010.06.03 13:58:18.
