data_PCOD9438517
_publ_section_title
;
Structure prediction by ZEFSAII (Michael W. Deem and Ramdas Pophale) SiO2 
 PCOD9438517
Probable space group: P B C M
;
_chemical_formula_sum "Si O2"
_cell_formula_units_Z 56
_cell_length_a 21.127335
_cell_length_b 15.570618
_cell_length_c 8.696285
_cell_angle_alpha 90.000000
_cell_angle_beta 90.000000
_cell_angle_gamma 90.000000
_cell_volume 2860.779158
_symmetry_space_group_name_H-M "P B C M"
_symmetry_group_IT_number 57
_symmetry_cell_setting 'orthorhombic'
loop_
_space_group_symop_operation_xyz
x,y,z
-x,-y,1/2+z
x,1/2-y,-z
-x,1/2+y,1/2-z
-x,-y,-z
x,y,1/2-z
-x,1/2+y,z
x,1/2-y,1/2+z
loop_
_atom_site_type_symbol
_atom_site_label
_atom_site_fract_x
_atom_site_fract_y
_atom_site_fract_z
Si Si1 0.788669 0.991007 0.066478
Si Si2 0.600165 0.338000 0.433996
Si Si3 0.114636 0.337522 0.066077
Si Si4 0.013273 0.594844 0.433810
Si Si5 0.529569 0.587763 0.934455
Si Si6 0.653173 0.975057 0.934577
Si Si7 0.852718 0.157287 0.933488
O O1 0.786672 0.002315 0.250000
O O2 0.842361 0.920316 0.031468
O O3 0.721591 0.958732 0.004546
O O4 0.806938 0.080989 0.988505
O O5 0.627346 0.250000 0.500000
O O6 0.604237 0.335304 0.250000
O O7 0.525551 0.345339 0.476207
O O8 0.632992 0.427354 0.482961
O O9 0.106814 0.332179 0.250000
O O10 0.143698 0.250000 0.000000
O O11 0.047074 0.350194 0.985229
O O12 0.018790 0.591084 0.250000
O O13 0.077683 0.632701 0.503053
O O14 0.000000 0.500000 0.500000
O O15 0.533961 0.583924 0.750000
O O16 0.500000 0.500000 0.000000
O O17 0.599262 0.590032 0.005638
O O18 0.654459 0.972784 0.750000
O O19 0.854277 0.160794 0.750000
O O20 0.834472 0.250000 0.000000
#
# Coordination Sequence:
#
# PCOD9438517 Si02
#       7
#     8   8   8   8   8   8   8
#     4  11  24  42  63  88 121 161 206 254 304 363
#     4   9  19  33  53  83 115 146 184 233 284 343
#     4  11  24  42  65  91 121 156 202 254 310 370
#     4  12  23  39  64  93 124 158 200 250 310 368
#     4   9  17  32  53  79 108 140 182 228 277 331
#     4  10  21  37  57  82 113 152 196 238 289 351
#     4  12  25  42  64  90 124 163 204 253 307 367
#
# _framework density 19.575085999999999
#
# number of rings (size 3 to 8) (size 9 to 14) (size 15 to 20)
#    0.000    1.429    1.429    5.571    0.000    5.714 
#    0.000    2.143    0.000    0.000    0.000    0.000 
#    0.000    0.000    0.000    0.000    0.000    0.000 
#
# Total GULP energy -312881.347101 kJ/mol
# GULP energy per Si atom -5587.166913 kJ/mol
# Density = 1.953053 g / cm^3
# Si number density = 19.575086 Si / 1000 Ang^3
#
#
#
# Elastic Constant Matrix: (Units=GPa)
#
#
# Indices 1 2 3 4 5 6 
#
# 1 70.4903 -20.5371 20.7727 0.0000 0.0000 0.0000
# 2 -20.5371 60.6334 20.6918 0.0000 0.0000 0.0000
# 3 20.7727 20.6918 88.2770 0.0000 0.0000 0.0000
# 4 0.0000 0.0000 0.0000 30.3060 0.0000 0.0000
# 5 0.0000 0.0000 0.0000 0.0000 30.8637 0.0000
# 6 0.0000 0.0000 0.0000 0.0000 0.0000 11.6436
#
#
#
# Elastic Compliance Matrix: (Units=1/GPa)
#
#
# Indices 1 2 3 4 5 6 
#
# 1 0.018508 0.008429 -0.006331 0.000000 0.000000 0.000000
# 2 0.008429 0.021766 -0.007085 0.000000 0.000000 0.000000
# 3 -0.006331 -0.007085 0.014478 0.000000 0.000000 0.000000
# 4 0.000000 0.000000 0.000000 0.032997 0.000000 0.000000
# 5 0.000000 0.000000 0.000000 0.000000 0.032401 0.000000
# 6 0.000000 0.000000 0.000000 0.000000 0.000000 0.085884
#
#
# Mechanical properties :
#
#
# Convention : Reuss Voigt Hill
#
# Bulk Modulus (GPa) = 22.33239 29.02838 25.68038
# Shear Modulus (GPa) = 21.65130 27.79421 24.72276
#
# Velocity S-wave (km/s) = 3.32936 3.77221 3.55769
# Velocity P-wave (km/s) = 5.11985 5.81672 5.47938
#
# Compressibility (1/GPa) = 0.04477801
#
# Stress axis : x y z
#
# Youngs Moduli (GPa) = 54.03120 45.94419 69.06802
#
# Poissons Ratio (x) = -0.38728 0.43726
# Poissons Ratio (y) = -0.45544 0.48937
# Poissons Ratio (z) = 0.34207 0.32553
#
# Static dielectric constant tensor:
#      x y z
#    x 1.690180 0.000000 0.000000 
#    y 0.000000 1.707830 0.000000 
#    z 0.000000 0.000000 1.653350 
# 
# From -- ./inp_files/8209.got.cif
#   From: 2010.05.17/outbox.cif.g08.bks.cpg/sg57_5_cif.got.tgz:8209.got - 2010.06.03 13:58:18.
