data_PCOD9438651
_publ_section_title
;
Structure prediction by ZEFSAII (Michael W. Deem and Ramdas Pophale) SiO2 
 PCOD9438651
Probable space group: P B C M
;
_chemical_formula_sum "Si O2"
_cell_formula_units_Z 40
_cell_length_a 22.602001
_cell_length_b 9.134405
_cell_length_c 9.098764
_cell_angle_alpha 90.000000
_cell_angle_beta 90.000000
_cell_angle_gamma 90.000000
_cell_volume 1878.492882
_symmetry_space_group_name_H-M "P B C M"
_symmetry_group_IT_number 57
_symmetry_cell_setting 'orthorhombic'
loop_
_space_group_symop_operation_xyz
x,y,z
-x,-y,1/2+z
x,1/2-y,-z
-x,1/2+y,1/2-z
-x,-y,-z
x,y,1/2-z
-x,1/2+y,z
x,1/2-y,1/2+z
loop_
_atom_site_type_symbol
_atom_site_label
_atom_site_fract_x
_atom_site_fract_y
_atom_site_fract_z
Si Si1 0.736845 0.391825 0.915201
Si Si2 0.414918 0.250000 0.000000
Si Si3 0.052178 0.090184 0.073898
Si Si4 0.470544 0.045137 0.750000
Si Si5 0.182107 0.403956 0.922897
Si Si6 0.390991 0.034437 0.250000
Si Si7 0.628747 0.309777 0.750000
O O1 0.761729 0.400462 0.750000
O O2 0.666963 0.372814 0.886491
O O3 0.758357 0.250000 0.000000
O O4 0.760492 0.522244 0.009883
O O5 0.452977 0.144469 0.891444
O O6 0.379858 0.360962 0.891470
O O7 0.044431 0.102150 0.250000
O O8 0.117945 0.022128 0.048455
O O9 0.051311 0.250000 0.000000
O O10 0.000000 0.000000 0.000000
O O11 0.538610 0.000462 0.750000
O O12 0.433331 0.892725 0.750000
O O13 0.188780 0.389470 0.750000
O O14 0.177259 0.250000 0.000000
O O15 0.366026 0.867343 0.250000
#
# Coordination Sequence:
#
# PCOD9438651 Si02
#       7
#     8   4   8   4   8   4   4
#     4  10  23  41  62  91 123 167 219 267 336 397
#     4  10  24  40  60 100 124 166 216 252 330 400
#     4  10  21  37  61  94 132 177 226 276 334 394
#     4  11  23  43  65  95 131 173 211 269 329 404
#     4  10  21  41  66  94 132 175 222 282 340 396
#     4  11  23  43  69  93 135 165 209 270 327 418
#     4  10  26  42  70  94 134 170 224 269 348 404
#
# _framework density 21.293666000000002
#
# number of rings (size 3 to 8) (size 9 to 14) (size 15 to 20)
#    0.600    1.200    0.000    3.600    2.800    3.200 
#    1.800    0.000    0.000    0.000    0.000    0.000 
#    0.000    0.000    0.000    0.000    0.000    0.000 
#
# Total GULP energy -223157.002754 kJ/mol
# GULP energy per Si atom -5578.925069 kJ/mol
# Density = 2.124520 g / cm^3
# Si number density = 21.293666 Si / 1000 Ang^3
#
#
#
# Elastic Constant Matrix: (Units=GPa)
#
#
# Indices 1 2 3 4 5 6 
#
# 1 90.2144 46.5084 43.8734 0.0000 0.0000 0.0000
# 2 46.5084 84.3662 26.6809 0.0000 0.0000 0.0000
# 3 43.8734 26.6809 117.9891 0.0000 0.0000 0.0000
# 4 0.0000 0.0000 0.0000 42.7470 0.0000 0.0000
# 5 0.0000 0.0000 0.0000 0.0000 26.3139 0.0000
# 6 0.0000 0.0000 0.0000 0.0000 0.0000 37.0411
#
#
#
# Elastic Compliance Matrix: (Units=1/GPa)
#
#
# Indices 1 2 3 4 5 6 
#
# 1 0.017602 -0.008222 -0.004686 0.000000 0.000000 0.000000
# 2 -0.008222 0.016606 -0.000698 0.000000 0.000000 0.000000
# 3 -0.004686 -0.000698 0.010376 0.000000 0.000000 0.000000
# 4 0.000000 0.000000 0.000000 0.023393 0.000000 0.000000
# 5 0.000000 0.000000 0.000000 0.000000 0.038003 0.000000
# 6 0.000000 0.000000 0.000000 0.000000 0.000000 0.026997
#
#
# Mechanical properties :
#
#
# Convention : Reuss Voigt Hill
#
# Bulk Modulus (GPa) = 57.56174 58.52168 58.04171
# Shear Modulus (GPa) = 30.12424 32.92085 31.52255
#
# Velocity S-wave (km/s) = 3.76534 3.93624 3.85173
# Velocity P-wave (km/s) = 6.78194 6.94272 6.86280
#
# Compressibility (1/GPa) = 0.01737265
#
# Stress axis : x y z
#
# Youngs Moduli (GPa) = 56.81135 60.21888 96.37902
#
# Poissons Ratio (x) = 0.49509 0.45164
# Poissons Ratio (y) = 0.46707 0.06728
# Poissons Ratio (z) = 0.26622 0.04203
#
# Static dielectric constant tensor:
#      x y z
#    x 1.785260 0.000000 0.000000 
#    y 0.000000 1.763990 0.000000 
#    z 0.000000 0.000000 1.772940 
# 
# From -- ./inp_files/9665.got.cif
#   From: 2010.05.17/outbox.cif.g08.bks.cpg/sg57_5_cif.got.tgz:9665.got - 2010.06.03 13:58:18.
