data_PCOD9438775
_publ_section_title
;
Structure prediction by ZEFSAII (Michael W. Deem and Ramdas Pophale) SiO2 
 PCOD9438775
Probable space group: P B C M
;
_chemical_formula_sum "Si O2"
_cell_formula_units_Z 32
_cell_length_a 20.253141
_cell_length_b 4.915033
_cell_length_c 13.987880
_cell_angle_alpha 90.000000
_cell_angle_beta 90.000000
_cell_angle_gamma 90.000000
_cell_volume 1392.421506
_symmetry_space_group_name_H-M "P B C M"
_symmetry_group_IT_number 57
_symmetry_cell_setting 'orthorhombic'
loop_
_space_group_symop_operation_xyz
x,y,z
-x,-y,1/2+z
x,1/2-y,-z
-x,1/2+y,1/2-z
-x,-y,-z
x,y,1/2-z
-x,1/2+y,z
x,1/2-y,1/2+z
loop_
_atom_site_type_symbol
_atom_site_label
_atom_site_fract_x
_atom_site_fract_y
_atom_site_fract_z
Si Si1 0.655884 0.246733 0.385675
Si Si2 0.264081 0.246276 0.114468
Si Si3 0.455932 0.553257 0.250000
Si Si4 0.958098 0.178592 0.750000
Si Si5 0.128915 0.495953 0.929152
O O1 0.649308 0.250000 0.500000
O O2 0.678405 0.543771 0.353863
O O3 0.589778 0.134171 0.339275
O O4 0.716225 0.047582 0.356915
O O5 0.191783 0.125363 0.128918
O O6 0.267271 0.250000 0.000000
O O7 0.479766 0.244811 0.250000
O O8 0.920808 0.098900 0.652069
O O9 0.975438 0.496673 0.750000
O O10 0.146690 0.750000 0.000000
O O11 0.105769 0.250000 0.000000
#
# Coordination Sequence:
#
# PCOD9438775 Si02
#       5
#     8   8   4   4   8
#     4  10  21  38  61  86 117 151 189 248 305 356
#     4   9  18  37  63  92 117 145 193 247 314 376
#     4  12  26  40  56  84 118 160 210 240 282 364
#     4  12  28  44  62  94 130 176 230 256 298 384
#     4  11  23  42  68  96 130 166 207 270 327 374
#
# _framework density 22.981545000000001
#
# number of rings (size 3 to 8) (size 9 to 14) (size 15 to 20)
#    0.000    1.500    0.000    6.750    0.000    6.000 
#    0.000    0.000    0.000    1.500    0.000    0.000 
#    0.000    0.000    0.000    0.000    0.000    0.000 
#
# Total GULP energy -178826.289313 kJ/mol
# GULP energy per Si atom -5588.321541 kJ/mol
# Density = 2.292924 g / cm^3
# Si number density = 22.981545 Si / 1000 Ang^3
#
#
#
# Elastic Constant Matrix: (Units=GPa)
#
#
# Indices 1 2 3 4 5 6 
#
# 1 64.4386 -5.4940 21.8622 0.0000 0.0000 0.0000
# 2 -5.4940 80.2716 1.1555 0.0000 0.0000 0.0000
# 3 21.8622 1.1555 135.1536 0.0000 0.0000 0.0000
# 4 0.0000 0.0000 0.0000 -1.8745 0.0000 0.0000
# 5 0.0000 0.0000 0.0000 0.0000 46.1617 0.0000
# 6 0.0000 0.0000 0.0000 0.0000 0.0000 42.5111
#
#
#
# Elastic Compliance Matrix: (Units=1/GPa)
#
#
# Indices 1 2 3 4 5 6 
#
# 1 0.016529 0.001170 -0.002684 0.000000 0.000000 0.000000
# 2 0.001170 0.012542 -0.000296 0.000000 0.000000 0.000000
# 3 -0.002684 -0.000296 0.007836 0.000000 0.000000 0.000000
# 4 0.000000 0.000000 0.000000 -0.533469 0.000000 0.000000
# 5 0.000000 0.000000 0.000000 0.000000 0.021663 0.000000
# 6 0.000000 0.000000 0.000000 0.000000 0.000000 0.023523
#
#
# Mechanical properties :
#
#
# Convention : Reuss Voigt Hill
#
# Bulk Modulus (GPa) = 30.04260 34.99014 32.51637
# Shear Modulus (GPa) = -11.45055 34.84900 11.69923
#
# Velocity S-wave (km/s) = -2.23457 3.89831 2.25871
# Velocity P-wave (km/s) = 2.53833 5.95993 4.58061
#
# Compressibility (1/GPa) = 0.03328607
#
# Stress axis : x y z
#
# Youngs Moduli (GPa) = 60.50017 79.73178 127.62212
#
# Poissons Ratio (x) = -0.09328 0.34250
# Poissons Ratio (y) = -0.07078 0.03784
# Poissons Ratio (z) = 0.16236 0.02364
#
# Static dielectric constant tensor:
#      x y z
#    x 1.864940 0.000000 0.000000 
#    y 0.000000 1.833580 0.000000 
#    z 0.000000 0.000000 1.751380 
# 
# From -- ./inp_files/18803.got.cif
#   From: 2010.05.17/outbox.cif.g08.bks.cpg/sg57_10_cif.got.tgz:18803.got - 2010.06.03 13:58:18.
