data_PCOD9438074
_publ_section_title
;
Structure prediction by ZEFSAII (Michael W. Deem and Ramdas Pophale) SiO2 
 PCOD9438074
Probable space group: P B C M
;
_chemical_formula_sum "Si O2"
_cell_formula_units_Z 40
_cell_length_a 8.988365
_cell_length_b 8.499814
_cell_length_c 23.225192
_cell_angle_alpha 90.000000
_cell_angle_beta 90.000000
_cell_angle_gamma 90.000000
_cell_volume 1774.391446
_symmetry_space_group_name_H-M "P B C M"
_symmetry_group_IT_number 57
_symmetry_cell_setting 'orthorhombic'
loop_
_space_group_symop_operation_xyz
x,y,z
-x,-y,1/2+z
x,1/2-y,-z
-x,1/2+y,1/2-z
-x,-y,-z
x,y,1/2-z
-x,1/2+y,z
x,1/2-y,1/2+z
loop_
_atom_site_type_symbol
_atom_site_label
_atom_site_fract_x
_atom_site_fract_y
_atom_site_fract_z
Si Si1 0.938841 0.238592 0.619668
Si Si2 0.236937 0.545826 0.750000
Si Si3 0.027322 0.697256 0.250000
Si Si4 0.422866 0.188890 0.557532
Si Si5 0.668458 0.998494 0.875552
Si Si6 0.125397 0.463964 0.047604
O O1 0.003625 0.248814 0.684089
O O2 0.871993 0.401205 0.596650
O O3 0.819318 0.098160 0.612818
O O4 0.068178 0.194575 0.576667
O O5 0.200597 0.734985 0.750000
O O6 0.324321 0.491735 0.693622
O O7 0.070603 0.464656 0.750000
O O8 0.504257 0.250000 0.500000
O O9 0.352801 0.331541 0.594123
O O10 0.532895 0.099748 0.599802
O O11 0.294296 0.074638 0.531763
O O12 0.000000 0.500000 0.000000
#
# Coordination Sequence:
#
# PCOD9438074 Si02
#       6
#     8   4   4   8   8   8
#     4  11  22  40  64  96 128 168 220 272 329 393
#     4  10  22  42  68 100 134 172 222 274 332 394
#     4  10  20  38  64  92 128 168 210 268 322 384
#     4  12  25  44  65  93 133 178 219 271 333 398
#     4  11  25  43  66  96 133 175 220 272 333 399
#     4  12  24  40  65  96 130 170 220 276 330 393
#
# _framework density 22.542940000000002
#
# number of rings (size 3 to 8) (size 9 to 14) (size 15 to 20)
#    0.000    0.800    0.000    9.600    0.000    2.400 
#    0.000    4.000    0.000    0.000    0.000    0.000 
#    0.000    0.000    0.000    0.000    0.000    0.000 
#
# Total GULP energy -223008.382427 kJ/mol
# GULP energy per Si atom -5575.209561 kJ/mol
# Density = 2.249163 g / cm^3
# Si number density = 22.542940 Si / 1000 Ang^3
#
#
#
# Elastic Constant Matrix: (Units=GPa)
#
#
# Indices 1 2 3 4 5 6 
#
# 1 97.1049 48.6905 51.2196 0.0000 0.0000 0.0000
# 2 48.6905 99.0482 42.1704 0.0000 0.0000 0.0000
# 3 51.2196 42.1704 172.2679 0.0000 0.0000 0.0000
# 4 0.0000 0.0000 0.0000 26.8072 0.0000 0.0000
# 5 0.0000 0.0000 0.0000 0.0000 33.9579 0.0000
# 6 0.0000 0.0000 0.0000 0.0000 0.0000 30.2561
#
#
#
# Elastic Compliance Matrix: (Units=1/GPa)
#
#
# Indices 1 2 3 4 5 6 
#
# 1 0.014893 -0.006068 -0.002943 0.000000 0.000000 0.000000
# 2 -0.006068 0.013743 -0.001560 0.000000 0.000000 0.000000
# 3 -0.002943 -0.001560 0.007062 0.000000 0.000000 0.000000
# 4 0.000000 0.000000 0.000000 0.037303 0.000000 0.000000
# 5 0.000000 0.000000 0.000000 0.000000 0.029448 0.000000
# 6 0.000000 0.000000 0.000000 0.000000 0.000000 0.033051
#
#
# Mechanical properties :
#
#
# Convention : Reuss Voigt Hill
#
# Bulk Modulus (GPa) = 68.69926 72.50912 70.60419
# Shear Modulus (GPa) = 30.96071 33.29361 32.12716
#
# Velocity S-wave (km/s) = 3.70998 3.84721 3.77922
# Velocity P-wave (km/s) = 6.99235 7.20898 7.10149
#
# Compressibility (1/GPa) = 0.01455620
#
# Stress axis : x y z
#
# Youngs Moduli (GPa) = 67.14536 72.76220 141.60884
#
# Poissons Ratio (x) = 0.44155 0.41670
# Poissons Ratio (y) = 0.40746 0.22092
# Poissons Ratio (z) = 0.19758 0.11351
#
# Static dielectric constant tensor:
#      x y z
#    x 1.846210 0.000000 0.000000 
#    y 0.000000 1.904000 0.000000 
#    z 0.000000 0.000000 1.846900 
# 
# From -- ./inp_files/26552.got.cif
#   From: 2010.05.17/outbox.cif.g08.bks.cpg/sg57_14_cif.got.tgz:26552.got - 2010.06.03 13:58:18.
