data_PCOD9438556
_publ_section_title
;
Structure prediction by ZEFSAII (Michael W. Deem and Ramdas Pophale) SiO2 
 PCOD9438556
Probable space group: P B C M
;
_chemical_formula_sum "Si O2"
_cell_formula_units_Z 64
_cell_length_a 26.773928
_cell_length_b 14.907853
_cell_length_c 8.707035
_cell_angle_alpha 90.000000
_cell_angle_beta 90.000000
_cell_angle_gamma 90.000000
_cell_volume 3475.341473
_symmetry_space_group_name_H-M "P B C M"
_symmetry_group_IT_number 57
_symmetry_cell_setting 'orthorhombic'
loop_
_space_group_symop_operation_xyz
x,y,z
-x,-y,1/2+z
x,1/2-y,-z
-x,1/2+y,1/2-z
-x,-y,-z
x,y,1/2-z
-x,1/2+y,z
x,1/2-y,1/2+z
loop_
_atom_site_type_symbol
_atom_site_label
_atom_site_fract_x
_atom_site_fract_y
_atom_site_fract_z
Si Si1 0.625651 0.150230 0.934309
Si Si2 0.186712 0.501940 0.066831
Si Si3 0.740361 0.150481 0.933692
Si Si4 0.000769 0.350712 0.434158
Si Si5 0.628797 0.850166 0.933749
Si Si6 0.076239 0.006243 0.433787
Si Si7 0.555603 0.997120 0.066543
Si Si8 0.265451 0.151005 0.933760
O O1 0.619700 0.149980 0.750000
O O2 0.683052 0.122830 0.969191
O O3 0.618926 0.250000 0.000000
O O4 0.586763 0.083283 0.010799
O O5 0.180690 0.507816 0.250000
O O6 0.219375 0.413600 0.031557
O O7 0.219785 0.584347 0.007333
O O8 0.132855 0.499146 0.989214
O O9 0.745798 0.151625 0.750000
O O10 0.746967 0.250000 0.000000
O O11 0.998122 0.250000 0.500000
O O12 0.002660 0.345078 0.250000
O O13 0.048131 0.407941 0.493931
O O14 0.954006 0.415338 0.477810
O O15 0.627668 0.849145 0.750000
O O16 0.623672 0.750000 0.000000
O O17 0.683119 0.883412 0.990863
O O18 0.585624 0.912452 0.999846
O O19 0.073798 0.013957 0.250000
O O20 0.554240 0.993217 0.250000
O O21 0.500000 0.000000 0.000000
O O22 0.272408 0.155613 0.750000
O O23 0.256731 0.250000 0.000000
#
# Coordination Sequence:
#
# PCOD9438556 Si02
#       8
#     8   8   8   8   8   8   8   8
#     4  10  21  39  62  88 116 151 192 235 284 340
#     4  11  23  37  56  84 121 157 192 237 286 336
#     4  10  21  37  59  85 115 151 192 234 281 339
#     4  10  21  39  63  87 112 148 192 238 288 341
#     4  11  22  39  62  87 115 150 190 235 285 341
#     4  10  22  39  59  85 117 152 193 238 285 338
#     4  12  25  41  60  85 115 148 189 237 288 344
#     4  10  21  37  58  85 115 152 193 234 281 336
#
# _framework density 18.415457
#
# number of rings (size 3 to 8) (size 9 to 14) (size 15 to 20)
#    0.000    1.500    0.000    6.000    0.000    8.500 
#    0.000    5.000    0.000    0.000    0.000    0.000 
#    0.000    0.000    0.000    0.000    0.000    0.000 
#
# Total GULP energy -357777.697267 kJ/mol
# GULP energy per Si atom -5590.276520 kJ/mol
# Density = 1.837354 g / cm^3
# Si number density = 18.415457 Si / 1000 Ang^3
#
#
#
# Elastic Constant Matrix: (Units=GPa)
#
#
# Indices 1 2 3 4 5 6 
#
# 1 167.8836 91.6625 75.2116 0.0000 0.0000 0.0000
# 2 91.6625 129.3761 59.5051 0.0000 0.0000 0.0000
# 3 75.2116 59.5051 108.4226 0.0000 0.0000 0.0000
# 4 0.0000 0.0000 0.0000 36.4492 0.0000 0.0000
# 5 0.0000 0.0000 0.0000 0.0000 39.1003 0.0000
# 6 0.0000 0.0000 0.0000 0.0000 0.0000 48.8119
#
#
#
# Elastic Compliance Matrix: (Units=1/GPa)
#
#
# Indices 1 2 3 4 5 6 
#
# 1 0.011178 -0.005823 -0.004558 0.000000 0.000000 0.000000
# 2 -0.005823 0.013373 -0.003300 0.000000 0.000000 0.000000
# 3 -0.004558 -0.003300 0.014196 0.000000 0.000000 0.000000
# 4 0.000000 0.000000 0.000000 0.027435 0.000000 0.000000
# 5 0.000000 0.000000 0.000000 0.000000 0.025575 0.000000
# 6 0.000000 0.000000 0.000000 0.000000 0.000000 0.020487
#
#
# Mechanical properties :
#
#
# Convention : Reuss Voigt Hill
#
# Bulk Modulus (GPa) = 87.83787 95.38230 91.61009
# Shear Modulus (GPa) = 34.86716 36.82580 35.84648
#
# Velocity S-wave (km/s) = 4.35600 4.47668 4.41675
# Velocity P-wave (km/s) = 8.54992 8.86724 8.71003
#
# Compressibility (1/GPa) = 0.01138461
#
# Stress axis : x y z
#
# Youngs Moduli (GPa) = 89.46269 74.77888 70.44131
#
# Poissons Ratio (x) = 0.43544 0.32108
# Poissons Ratio (y) = 0.52094 0.23245
# Poissons Ratio (z) = 0.40778 0.24677
#
# Static dielectric constant tensor:
#      x y z
#    x 1.609360 0.000000 0.000000 
#    y 0.000000 1.632380 0.000000 
#    z 0.000000 0.000000 1.673260 
# 
# From -- ./inp_files/9443.got.cif
#   From: 2010.05.17/outbox.cif.g08.bks.cpg/sg57_5_cif.got.tgz:9443.got - 2010.06.03 13:58:18.
