data_PCOD9438371
_publ_section_title
;
Structure prediction by ZEFSAII (Michael W. Deem and Ramdas Pophale) SiO2 
 PCOD9438371
Probable space group: P B C M
;
_chemical_formula_sum "Si O2"
_cell_formula_units_Z 64
_cell_length_a 6.049869
_cell_length_b 19.323730
_cell_length_c 27.844363
_cell_angle_alpha 90.000000
_cell_angle_beta 90.000000
_cell_angle_gamma 90.000000
_cell_volume 3255.174078
_symmetry_space_group_name_H-M "P B C M"
_symmetry_group_IT_number 57
_symmetry_cell_setting 'orthorhombic'
loop_
_space_group_symop_operation_xyz
x,y,z
-x,-y,1/2+z
x,1/2-y,-z
-x,1/2+y,1/2-z
-x,-y,-z
x,y,1/2-z
-x,1/2+y,z
x,1/2-y,1/2+z
loop_
_atom_site_type_symbol
_atom_site_label
_atom_site_fract_x
_atom_site_fract_y
_atom_site_fract_z
Si Si1 0.915252 0.033526 0.932113
Si Si2 0.248621 0.581170 0.470147
Si Si3 0.325621 0.802410 0.381699
Si Si4 0.307912 0.309737 0.636071
Si Si5 0.550492 0.541586 0.382656
Si Si6 0.946878 0.695825 0.693313
Si Si7 0.296755 0.090617 0.627912
Si Si8 0.017469 0.722929 0.450253
O O1 0.768344 0.004018 0.889421
O O2 0.048787 0.967480 0.951878
O O3 0.102826 0.084777 0.911852
O O4 0.755296 0.063230 0.973523
O O5 0.455310 0.562938 0.435778
O O6 0.181539 0.660089 0.462312
O O7 0.474552 0.735400 0.372139
O O8 0.177099 0.814233 0.334676
O O9 0.495740 0.864573 0.390928
O O10 0.159436 0.782479 0.424317
O O11 0.384254 0.388261 0.644312
O O12 0.162771 0.268350 0.675438
O O13 0.162226 0.304388 0.587521
O O14 0.371747 0.487975 0.361463
O O15 0.968963 0.694203 0.750000
O O16 0.792983 0.634326 0.672710
O O17 0.917150 0.750000 0.500000
#
# Coordination Sequence:
#
# PCOD9438371 Si02
#       8
#     8   8   8   8   8   8   8   8
#     4  10  21  37  56  85 127 168 211 255 295 350
#     4  10  21  35  53  86 125 172 216 247 290 349
#     4  10  22  42  59  89 119 165 204 254 313 369
#     4  10  22  41  63  91 123 162 204 253 313 363
#     4  11  20  39  62  88 127 171 207 253 300 363
#     4  10  23  44  68  91 119 152 198 257 322 390
#     4  10  23  38  65  90 122 161 205 261 311 368
#     4  11  23  36  55  86 131 169 213 257 294 354
#
# _framework density 19.661006
#
# number of rings (size 3 to 8) (size 9 to 14) (size 15 to 20)
#    0.000    1.750    2.500    1.125    7.000    2.500 
#    0.000    0.625    0.000    3.750    0.000    0.000 
#    0.000    0.000    0.000    0.000    0.000    0.000 
#
# Total GULP energy -357190.180120 kJ/mol
# GULP energy per Si atom -5581.096564 kJ/mol
# Density = 1.961626 g / cm^3
# Si number density = 19.661006 Si / 1000 Ang^3
#
#
#
# Elastic Constant Matrix: (Units=GPa)
#
#
# Indices 1 2 3 4 5 6 
#
# 1 62.9262 33.8746 8.2878 0.0000 0.0000 0.0000
# 2 33.8746 133.2763 31.8764 0.0000 0.0000 0.0000
# 3 8.2878 31.8764 79.3776 0.0000 0.0000 0.0000
# 4 0.0000 0.0000 0.0000 18.5999 0.0000 0.0000
# 5 0.0000 0.0000 0.0000 0.0000 12.7315 0.0000
# 6 0.0000 0.0000 0.0000 0.0000 0.0000 38.4975
#
#
#
# Elastic Compliance Matrix: (Units=1/GPa)
#
#
# Indices 1 2 3 4 5 6 
#
# 1 0.018411 -0.004668 -0.000048 0.000000 0.000000 0.000000
# 2 -0.004668 0.009484 -0.003321 0.000000 0.000000 0.000000
# 3 -0.000048 -0.003321 0.013937 0.000000 0.000000 0.000000
# 4 0.000000 0.000000 0.000000 0.053764 0.000000 0.000000
# 5 0.000000 0.000000 0.000000 0.000000 0.078546 0.000000
# 6 0.000000 0.000000 0.000000 0.000000 0.000000 0.025976
#
#
# Mechanical properties :
#
#
# Convention : Reuss Voigt Hill
#
# Bulk Modulus (GPa) = 38.82329 47.07306 42.94817
# Shear Modulus (GPa) = 22.24434 27.40186 24.82310
#
# Velocity S-wave (km/s) = 3.36727 3.73730 3.55710
# Velocity P-wave (km/s) = 5.90823 6.52821 6.22594
#
# Compressibility (1/GPa) = 0.02575774
#
# Stress axis : x y z
#
# Youngs Moduli (GPa) = 54.31587 105.44042 71.75288
#
# Poissons Ratio (x) = 0.49220 0.00342
# Poissons Ratio (y) = 0.25355 0.23831
# Poissons Ratio (z) = 0.00259 0.35019
#
# Static dielectric constant tensor:
#      x y z
#    x 1.695170 0.000000 0.000000 
#    y 0.000000 1.721260 0.000000 
#    z 0.000000 0.000000 1.661640 
# 
# From -- ./inp_files/29266.got.cif
#   From: 2010.05.17/outbox.cif.g08.bks.cpg/sg57_15_cif.got.tgz:29266.got - 2010.06.03 13:58:18.
