data_PCOD9438836
_publ_section_title
;
Structure prediction by ZEFSAII (Michael W. Deem and Ramdas Pophale) SiO2 
 PCOD9438836
Probable space group: P B C M
;
_chemical_formula_sum "Si O2"
_cell_formula_units_Z 32
_cell_length_a 6.663312
_cell_length_b 16.816942
_cell_length_c 13.084659
_cell_angle_alpha 90.000000
_cell_angle_beta 90.000000
_cell_angle_gamma 90.000000
_cell_volume 1466.221503
_symmetry_space_group_name_H-M "P B C M"
_symmetry_group_IT_number 57
_symmetry_cell_setting 'orthorhombic'
loop_
_space_group_symop_operation_xyz
x,y,z
-x,-y,1/2+z
x,1/2-y,-z
-x,1/2+y,1/2-z
-x,-y,-z
x,y,1/2-z
-x,1/2+y,z
x,1/2-y,1/2+z
loop_
_atom_site_type_symbol
_atom_site_label
_atom_site_fract_x
_atom_site_fract_y
_atom_site_fract_z
Si Si1 0.232915 0.199680 0.369251
Si Si2 0.709808 0.524791 0.869800
Si Si3 0.011179 0.356424 0.445225
Si Si4 0.416403 0.869817 0.507788
O O1 0.237402 0.181836 0.250000
O O2 0.135370 0.286214 0.389143
O O3 0.092575 0.143161 0.438231
O O4 0.451116 0.187944 0.420843
O O5 0.672948 0.522468 0.750000
O O6 0.929757 0.560942 0.893045
O O7 0.668667 0.440172 0.920375
O O8 0.561330 0.586895 0.926446
O O9 0.777435 0.336836 0.449539
#
# Coordination Sequence:
#
# PCOD9438836 Si02
#       4
#     8   8   8   8
#     4  10  22  39  60  89 123 160 204 251 304 366
#     4  10  21  38  63  92 121 159 206 253 308 368
#     4  10  22  39  60  90 124 159 205 256 304 363
#     4  10  22  41  61  89 127 161 201 256 308 361
#
# _framework density 21.824805000000001
#
# number of rings (size 3 to 8) (size 9 to 14) (size 15 to 20)
#    0.000    2.000    0.000    2.250    0.000   12.000 
#    0.000    0.000    0.000    0.000    0.000    0.000 
#    0.000    0.000    0.000    0.000    0.000    0.000 
#
# Total GULP energy -178783.609856 kJ/mol
# GULP energy per Si atom -5586.987808 kJ/mol
# Density = 2.177513 g / cm^3
# Si number density = 21.824805 Si / 1000 Ang^3
#
#
#
# Elastic Constant Matrix: (Units=GPa)
#
#
# Indices 1 2 3 4 5 6 
#
# 1 106.0513 18.3967 -17.2479 0.0000 0.0000 0.0000
# 2 18.3967 64.4237 10.2431 0.0000 0.0000 0.0000
# 3 -17.2479 10.2431 91.3537 0.0000 0.0000 0.0000
# 4 0.0000 0.0000 0.0000 12.7103 0.0000 0.0000
# 5 0.0000 0.0000 0.0000 0.0000 9.9654 0.0000
# 6 0.0000 0.0000 0.0000 0.0000 0.0000 27.8433
#
#
#
# Elastic Compliance Matrix: (Units=1/GPa)
#
#
# Indices 1 2 3 4 5 6 
#
# 1 0.010388 -0.003338 0.002336 0.000000 0.000000 0.000000
# 2 -0.003338 0.016876 -0.002522 0.000000 0.000000 0.000000
# 3 0.002336 -0.002522 0.011670 0.000000 0.000000 0.000000
# 4 0.000000 0.000000 0.000000 0.078676 0.000000 0.000000
# 5 0.000000 0.000000 0.000000 0.000000 0.100347 0.000000
# 6 0.000000 0.000000 0.000000 0.000000 0.000000 0.035915
#
#
# Mechanical properties :
#
#
# Convention : Reuss Voigt Hill
#
# Bulk Modulus (GPa) = 31.36211 31.62361 31.49286
# Shear Modulus (GPa) = 18.41270 26.79958 22.60614
#
# Velocity S-wave (km/s) = 2.90773 3.50800 3.22188
# Velocity P-wave (km/s) = 5.06699 5.56141 5.31995
#
# Compressibility (1/GPa) = 0.03188561
#
# Stress axis : x y z
#
# Youngs Moduli (GPa) = 96.26250 59.25420 85.68784
#
# Poissons Ratio (x) = 0.19778 -0.20013
# Poissons Ratio (y) = 0.32131 0.21615
# Poissons Ratio (z) = -0.22483 0.14947
#
# Static dielectric constant tensor:
#      x y z
#    x 1.841140 0.000000 0.000000 
#    y 0.000000 1.856850 0.000000 
#    z 0.000000 0.000000 1.744190 
# 
# From -- ./inp_files/10665.got.cif
#   From: 2010.05.17/outbox.cif.g08.bks.cpg/sg57_6_cif.got.tgz:10665.got - 2010.06.03 13:58:18.
