data_PCOD9438604
_publ_section_title
;
Structure prediction by ZEFSAII (Michael W. Deem and Ramdas Pophale) SiO2 
 PCOD9438604
Probable space group: P B C M
;
_chemical_formula_sum "Si O2"
_cell_formula_units_Z 64
_cell_length_a 24.846804
_cell_length_b 7.933452
_cell_length_c 15.665088
_cell_angle_alpha 90.000000
_cell_angle_beta 90.000000
_cell_angle_gamma 90.000000
_cell_volume 3087.916666
_symmetry_space_group_name_H-M "P B C M"
_symmetry_group_IT_number 57
_symmetry_cell_setting 'orthorhombic'
loop_
_space_group_symop_operation_xyz
x,y,z
-x,-y,1/2+z
x,1/2-y,-z
-x,1/2+y,1/2-z
-x,-y,-z
x,y,1/2-z
-x,1/2+y,z
x,1/2-y,1/2+z
loop_
_atom_site_type_symbol
_atom_site_label
_atom_site_fract_x
_atom_site_fract_y
_atom_site_fract_z
Si Si1 0.428427 0.123880 0.645808
Si Si2 0.050952 0.550836 0.849016
Si Si3 0.062893 0.177954 0.906915
Si Si4 0.456033 0.503891 0.650315
Si Si5 0.872208 0.352939 0.850816
Si Si6 0.668473 0.561812 0.972331
Si Si7 0.750509 0.159306 0.407812
Si Si8 0.345214 0.876757 0.153457
O O1 0.421805 0.108712 0.750000
O O2 0.431346 0.324228 0.623154
O O3 0.380303 0.036204 0.594263
O O4 0.486042 0.052330 0.614831
O O5 0.039582 0.589478 0.750000
O O6 0.065302 0.352697 0.853542
O O7 0.096523 0.682827 0.880147
O O8 0.996136 0.594818 0.898012
O O9 0.103513 0.025771 0.887728
O O10 0.071974 0.250000 0.000000
O O11 0.467771 0.477926 0.750000
O O12 0.410108 0.648073 0.646390
O O13 0.881117 0.363580 0.750000
O O14 0.809016 0.338674 0.868223
O O15 0.725114 0.521414 0.928134
O O16 0.666717 0.750000 0.000000
O O17 0.664075 0.463133 0.061430
O O18 0.754483 0.250000 0.500000
O O19 0.702937 0.242494 0.351358
O O20 0.340434 0.956776 0.250000
#
# Coordination Sequence:
#
# PCOD9438604 Si02
#       8
#     8   8   8   8   8   8   8   8
#     4  10  21  37  59  94 131 167 211 267 329 399
#     4  11  23  42  68  99 142 185 225 276 331 398
#     4  12  25  39  69 105 142 182 225 275 337 397
#     4   9  19  35  58  90 128 168 210 261 326 393
#     4  11  25  45  70  99 136 180 229 277 336 402
#     4  11  23  42  64  95 127 166 216 269 335 393
#     4  10  25  44  68  91 126 172 224 274 327 390
#     4  10  21  43  66  88 125 170 218 268 322 390
#
# _framework density 20.725947999999999
#
# number of rings (size 3 to 8) (size 9 to 14) (size 15 to 20)
#    0.000    1.500    2.500    1.875    3.500    2.000 
#    2.250    0.000    0.000    0.000    0.000    0.000 
#    0.000    0.000    0.000    0.000    0.000    0.000 
#
# Total GULP energy -356555.092737 kJ/mol
# GULP energy per Si atom -5571.173324 kJ/mol
# Density = 2.067877 g / cm^3
# Si number density = 20.725948 Si / 1000 Ang^3
#
#
#
# Elastic Constant Matrix: (Units=GPa)
#
#
# Indices 1 2 3 4 5 6 
#
# 1 115.7204 44.8976 12.4528 0.0000 0.0000 0.0000
# 2 44.8976 80.0672 24.8472 0.0000 0.0000 0.0000
# 3 12.4528 24.8472 63.6843 0.0000 0.0000 0.0000
# 4 0.0000 0.0000 0.0000 17.6519 0.0000 0.0000
# 5 0.0000 0.0000 0.0000 0.0000 40.5210 0.0000
# 6 0.0000 0.0000 0.0000 0.0000 0.0000 36.1276
#
#
#
# Elastic Compliance Matrix: (Units=1/GPa)
#
#
# Indices 1 2 3 4 5 6 
#
# 1 0.011049 -0.006286 0.000292 0.000000 0.000000 0.000000
# 2 -0.006286 0.017787 -0.005710 0.000000 0.000000 0.000000
# 3 0.000292 -0.005710 0.017873 0.000000 0.000000 0.000000
# 4 0.000000 0.000000 0.000000 0.056651 0.000000 0.000000
# 5 0.000000 0.000000 0.000000 0.000000 0.024679 0.000000
# 6 0.000000 0.000000 0.000000 0.000000 0.000000 0.027680
#
#
# Mechanical properties :
#
#
# Convention : Reuss Voigt Hill
#
# Bulk Modulus (GPa) = 42.91890 47.09634 45.00762
# Shear Modulus (GPa) = 26.75307 30.67840 28.71574
#
# Velocity S-wave (km/s) = 3.59667 3.85150 3.72626
# Velocity P-wave (km/s) = 6.16448 6.52315 6.34635
#
# Compressibility (1/GPa) = 0.02329976
#
# Stress axis : x y z
#
# Youngs Moduli (GPa) = 90.50497 56.22160 55.94925
#
# Poissons Ratio (x) = 0.35343 -0.01635
# Poissons Ratio (y) = 0.56896 0.31950
# Poissons Ratio (z) = -0.02645 0.32105
#
# Static dielectric constant tensor:
#      x y z
#    x 1.730360 0.000000 0.000000 
#    y 0.000000 1.799350 0.000000 
#    z 0.000000 0.000000 1.696100 
# 
# From -- ./inp_files/19538.got.cif
#   From: 2010.05.17/outbox.cif.g08.bks.cpg/sg57_10_cif.got.tgz:19538.got - 2010.06.03 13:58:18.
