data_PCOD9438184
_publ_section_title
;
Structure prediction by ZEFSAII (Michael W. Deem and Ramdas Pophale) SiO2 
 PCOD9438184
Probable space group: P B C M
;
_chemical_formula_sum "Si O2"
_cell_formula_units_Z 48
_cell_length_a 16.389107
_cell_length_b 9.983954
_cell_length_c 14.853896
_cell_angle_alpha 90.000000
_cell_angle_beta 90.000000
_cell_angle_gamma 90.000000
_cell_volume 2430.514637
_symmetry_space_group_name_H-M "P B C M"
_symmetry_group_IT_number 57
_symmetry_cell_setting 'orthorhombic'
loop_
_space_group_symop_operation_xyz
x,y,z
-x,-y,1/2+z
x,1/2-y,-z
-x,1/2+y,1/2-z
-x,-y,-z
x,y,1/2-z
-x,1/2+y,z
x,1/2-y,1/2+z
loop_
_atom_site_type_symbol
_atom_site_label
_atom_site_fract_x
_atom_site_fract_y
_atom_site_fract_z
Si Si1 0.641229 0.239404 0.647890
Si Si2 0.814853 0.338145 0.408685
Si Si3 0.594137 0.462370 0.997769
Si Si4 0.098475 0.447776 0.140913
Si Si5 0.762205 0.594122 0.511562
Si Si6 0.981052 0.279238 0.645712
O O1 0.612279 0.249874 0.750000
O O2 0.739033 0.221914 0.645982
O O3 0.613224 0.360795 0.584227
O O4 0.610543 0.110776 0.592720
O O5 0.815603 0.250000 0.500000
O O6 0.796881 0.491976 0.435459
O O7 0.900577 0.313189 0.361668
O O8 0.664819 0.572481 0.986377
O O9 0.500000 0.500000 0.000000
O O10 0.100565 0.451264 0.250000
O O11 0.188757 0.452701 0.100299
O O12 0.046118 0.576672 0.107851
O O13 0.054056 0.311574 0.109087
O O14 0.778985 0.750000 0.500000
O O15 0.000966 0.303581 0.750000
#
# Coordination Sequence:
#
# PCOD9438184 Si02
#       6
#     8   8   8   8   8   8
#     4  10  20  39  66  92 119 163 214 258 310 386
#     4  11  19  39  59  88 117 159 215 254 311 371
#     4  10  22  41  65  93 128 161 204 267 325 391
#     4  10  22  40  58  86 123 166 216 262 318 376
#     4  11  24  39  59  89 121 163 201 257 327 381
#     4  10  21  36  59  85 120 163 209 264 309 363
#
# _framework density 19.748904
#
# number of rings (size 3 to 8) (size 9 to 14) (size 15 to 20)
#    0.000    1.667    5.000    0.500    4.667    4.000 
#    0.000    3.333    0.000    0.000    0.000    0.000 
#    0.000    0.000    0.000    0.000    0.000    0.000 
#
# Total GULP energy -267734.334111 kJ/mol
# GULP energy per Si atom -5577.798627 kJ/mol
# Density = 1.970395 g / cm^3
# Si number density = 19.748904 Si / 1000 Ang^3
#
#
#
# Elastic Constant Matrix: (Units=GPa)
#
#
# Indices 1 2 3 4 5 6 
#
# 1 94.0298 21.0254 8.4640 0.0000 0.0000 0.0000
# 2 21.0254 116.5871 18.6088 0.0000 0.0000 0.0000
# 3 8.4640 18.6088 76.8212 0.0000 0.0000 0.0000
# 4 0.0000 0.0000 0.0000 10.1640 0.0000 0.0000
# 5 0.0000 0.0000 0.0000 0.0000 10.1801 0.0000
# 6 0.0000 0.0000 0.0000 0.0000 0.0000 13.7395
#
#
#
# Elastic Compliance Matrix: (Units=1/GPa)
#
#
# Indices 1 2 3 4 5 6 
#
# 1 0.011125 -0.001884 -0.000770 0.000000 0.000000 0.000000
# 2 -0.001884 0.009241 -0.002031 0.000000 0.000000 0.000000
# 3 -0.000770 -0.002031 0.013594 0.000000 0.000000 0.000000
# 4 0.000000 0.000000 0.000000 0.098386 0.000000 0.000000
# 5 0.000000 0.000000 0.000000 0.000000 0.098231 0.000000
# 6 0.000000 0.000000 0.000000 0.000000 0.000000 0.072783
#
#
# Mechanical properties :
#
#
# Convention : Reuss Voigt Hill
#
# Bulk Modulus (GPa) = 40.66298 42.62607 41.64453
# Shear Modulus (GPa) = 15.57991 22.77271 19.17631
#
# Velocity S-wave (km/s) = 2.81178 3.39944 3.11948
# Velocity P-wave (km/s) = 5.58356 6.08597 5.84017
#
# Compressibility (1/GPa) = 0.02459239
#
# Stress axis : x y z
#
# Youngs Moduli (GPa) = 89.88480 108.21188 73.56187
#
# Poissons Ratio (x) = 0.20382 0.05661
# Poissons Ratio (y) = 0.16930 0.14940
# Poissons Ratio (z) = 0.06917 0.21978
#
# Static dielectric constant tensor:
#      x y z
#    x 1.715100 0.000000 0.000000 
#    y 0.000000 1.727520 0.000000 
#    z 0.000000 0.000000 1.713120 
# 
# From -- ./inp_files/18944.got.cif
#   From: 2010.05.17/outbox.cif.g08.bks.cpg/sg57_10_cif.got.tgz:18944.got - 2010.06.03 13:58:18.
