data_PCOD9438200
_publ_section_title
;
Structure prediction by ZEFSAII (Michael W. Deem and Ramdas Pophale) SiO2 
 PCOD9438200
Probable space group: P B C M
;
_chemical_formula_sum "Si O2"
_cell_formula_units_Z 24
_cell_length_a 9.255485
_cell_length_b 7.990756
_cell_length_c 15.137021
_cell_angle_alpha 90.000000
_cell_angle_beta 90.000000
_cell_angle_gamma 90.000000
_cell_volume 1119.508678
_symmetry_space_group_name_H-M "P B C M"
_symmetry_group_IT_number 57
_symmetry_cell_setting 'orthorhombic'
loop_
_space_group_symop_operation_xyz
x,y,z
-x,-y,1/2+z
x,1/2-y,-z
-x,1/2+y,1/2-z
-x,-y,-z
x,y,1/2-z
-x,1/2+y,z
x,1/2-y,1/2+z
loop_
_atom_site_type_symbol
_atom_site_label
_atom_site_fract_x
_atom_site_fract_y
_atom_site_fract_z
Si Si1 0.579394 0.657425 0.850436
Si Si2 0.900661 0.240205 0.750000
Si Si3 0.213896 0.364415 0.750000
Si Si4 0.712472 0.333435 0.589565
O O1 0.567756 0.581895 0.750000
O O2 0.686612 0.813498 0.833311
O O3 0.424998 0.722589 0.879960
O O4 0.649556 0.521119 0.914140
O O5 0.834689 0.328375 0.663962
O O6 0.072526 0.248509 0.750000
O O7 0.840424 0.052084 0.750000
O O8 0.766238 0.250000 0.500000
#
# Coordination Sequence:
#
# PCOD9438200 Si02
#       4
#     8   4   4   8
#     4  10  20  40  60  89 121 160 202 245 303 350
#     4  12  21  44  59  90 122 160 208 244 311 354
#     4  10  23  38  71  82 120 172 196 254 301 364
#     4  12  23  38  65  93 124 159 202 253 301 359
#
# _framework density 21.437975999999999
#
# number of rings (size 3 to 8) (size 9 to 14) (size 15 to 20)
#    1.000    0.000    3.333    5.000    0.000    0.000 
#    0.000    8.333    0.000    0.000    0.000    0.000 
#    0.000    0.000    0.000    0.000    0.000    0.000 
#
# Total GULP energy -134173.250584 kJ/mol
# GULP energy per Si atom -5590.552108 kJ/mol
# Density = 2.138918 g / cm^3
# Si number density = 21.437976 Si / 1000 Ang^3
#
#
#
# Elastic Constant Matrix: (Units=GPa)
#
#
# Indices 1 2 3 4 5 6 
#
# 1 65.4756 -10.3525 34.8851 0.0000 0.0000 0.0000
# 2 -10.3525 55.9871 -27.1072 0.0000 0.0000 0.0000
# 3 34.8851 -27.1072 40.4556 0.0000 0.0000 0.0000
# 4 0.0000 0.0000 0.0000 -16.1415 0.0000 0.0000
# 5 0.0000 0.0000 0.0000 0.0000 -0.5952 0.0000
# 6 0.0000 0.0000 0.0000 0.0000 0.0000 34.1211
#
#
#
# Elastic Compliance Matrix: (Units=1/GPa)
#
#
# Indices 1 2 3 4 5 6 
#
# 1 0.032351 -0.011138 -0.035360 0.000000 0.000000 0.000000
# 2 -0.011138 0.030273 0.029889 0.000000 0.000000 0.000000
# 3 -0.035360 0.029889 0.075236 0.000000 0.000000 0.000000
# 4 0.000000 0.000000 0.000000 -0.061952 0.000000 0.000000
# 5 0.000000 0.000000 0.000000 0.000000 -1.680037 0.000000
# 6 0.000000 0.000000 0.000000 0.000000 0.000000 0.029307
#
#
# Mechanical properties :
#
#
# Convention : Reuss Voigt Hill
#
# Bulk Modulus (GPa) = 9.55635 17.41878 13.48757
# Shear Modulus (GPa) = -3.31846 14.44307 5.56231
#
# Velocity S-wave (km/s) = -1.24551 2.59842 1.61252
# Velocity P-wave (km/s) = 1.54886 4.14068 3.12603
#
# Compressibility (1/GPa) = 0.10464246
#
# Stress axis : x y z
#
# Youngs Moduli (GPa) = 30.91060 33.03279 13.29143
#
# Poissons Ratio (x) = 0.36792 0.46998
# Poissons Ratio (y) = 0.34428 -0.39726
# Poissons Ratio (z) = 1.09299 -0.98731
#
# Static dielectric constant tensor:
#      x y z
#    x 1.730280 0.000000 0.000000 
#    y 0.000000 1.820050 0.000000 
#    z 0.000000 0.000000 1.803120 
# 
# From -- ./inp_files/15388.got.cif
#   From: 2010.05.17/outbox.cif.g08.bks.cpg/sg57_8_cif.got.tgz:15388.got - 2010.06.03 13:58:18.
