data_PCOD9438595
_publ_section_title
;
Structure prediction by ZEFSAII (Michael W. Deem and Ramdas Pophale) SiO2 
 PCOD9438595
Probable space group: P B C M
;
_chemical_formula_sum "Si O2"
_cell_formula_units_Z 32
_cell_length_a 5.256965
_cell_length_b 9.320674
_cell_length_c 26.241527
_cell_angle_alpha 90.000000
_cell_angle_beta 90.000000
_cell_angle_gamma 90.000000
_cell_volume 1285.794332
_symmetry_space_group_name_H-M "P B C M"
_symmetry_group_IT_number 57
_symmetry_cell_setting 'orthorhombic'
loop_
_space_group_symop_operation_xyz
x,y,z
-x,-y,1/2+z
x,1/2-y,-z
-x,1/2+y,1/2-z
-x,-y,-z
x,y,1/2-z
-x,1/2+y,z
x,1/2-y,1/2+z
loop_
_atom_site_type_symbol
_atom_site_label
_atom_site_fract_x
_atom_site_fract_y
_atom_site_fract_z
Si Si1 0.191180 0.634892 0.654011
Si Si2 0.530075 0.123730 0.460064
Si Si3 0.306662 0.308374 0.689533
Si Si4 0.011396 0.278131 0.560367
O O1 0.246245 0.471974 0.671120
O O2 0.442304 0.729837 0.666446
O O3 0.943347 0.709214 0.679676
O O4 0.113630 0.653468 0.594152
O O5 0.576164 0.250000 0.500000
O O6 0.291846 0.167936 0.426018
O O7 0.795178 0.101383 0.431787
O O8 0.500000 0.000000 0.500000
O O9 0.351071 0.317057 0.750000
O O10 0.049377 0.250000 0.500000
#
# Coordination Sequence:
#
# PCOD9438595 Si02
#       4
#     8   8   8   8
#     4  12  27  46  76 111 145 193 247 301 377 451
#     4  10  21  37  59  86 125 178 223 267 328 395
#     4  12  26  49  75 106 145 192 250 318 379 443
#     4  10  23  42  66  99 141 183 229 286 348 431
#
# _framework density 24.887336000000001
#
# number of rings (size 3 to 8) (size 9 to 14) (size 15 to 20)
#    0.000    1.000    0.000    6.000    0.000   12.000 
#    0.000    0.000    0.000    0.000    0.000    0.000 
#    0.000    0.000    0.000    0.000    0.000    0.000 
#
# Total GULP energy -178668.776092 kJ/mol
# GULP energy per Si atom -5583.399253 kJ/mol
# Density = 2.483069 g / cm^3
# Si number density = 24.887336 Si / 1000 Ang^3
#
#
#
# Elastic Constant Matrix: (Units=GPa)
#
#
# Indices 1 2 3 4 5 6 
#
# 1 250.0668 52.0697 56.6239 0.0000 0.0000 0.0000
# 2 52.0697 161.3901 62.7960 0.0000 0.0000 0.0000
# 3 56.6239 62.7960 153.3265 0.0000 0.0000 0.0000
# 4 0.0000 0.0000 0.0000 24.3554 0.0000 0.0000
# 5 0.0000 0.0000 0.0000 0.0000 48.5522 0.0000
# 6 0.0000 0.0000 0.0000 0.0000 0.0000 57.8048
#
#
#
# Elastic Compliance Matrix: (Units=1/GPa)
#
#
# Indices 1 2 3 4 5 6 
#
# 1 0.004484 -0.000954 -0.001265 0.000000 0.000000 0.000000
# 2 -0.000954 0.007574 -0.002749 0.000000 0.000000 0.000000
# 3 -0.001265 -0.002749 0.008115 0.000000 0.000000 0.000000
# 4 0.000000 0.000000 0.000000 0.041059 0.000000 0.000000
# 5 0.000000 0.000000 0.000000 0.000000 0.020596 0.000000
# 6 0.000000 0.000000 0.000000 0.000000 0.000000 0.017300
#
#
# Mechanical properties :
#
#
# Convention : Reuss Voigt Hill
#
# Bulk Modulus (GPa) = 97.70132 100.86251 99.28192
# Shear Modulus (GPa) = 44.45317 52.36204 48.40761
#
# Velocity S-wave (km/s) = 4.23090 4.59187 4.41508
# Velocity P-wave (km/s) = 7.95048 8.29032 8.12217
#
# Compressibility (1/GPa) = 0.01023528
#
# Stress axis : x y z
#
# Youngs Moduli (GPa) = 223.00824 132.03211 123.22420
#
# Poissons Ratio (x) = 0.12602 0.15589
# Poissons Ratio (y) = 0.21286 0.33880
# Poissons Ratio (z) = 0.28212 0.36302
#
# Static dielectric constant tensor:
#      x y z
#    x 2.179080 0.000000 0.000000 
#    y 0.000000 1.953780 0.000000 
#    z 0.000000 0.000000 2.146630 
# 
# From -- ./inp_files/28977.got.cif
#   From: 2010.05.17/outbox.cif.g08.bks.cpg/sg57_15_cif.got.tgz:28977.got - 2010.06.03 13:58:18.
