data_PCOD9438818
_publ_section_title
;
Structure prediction by ZEFSAII (Michael W. Deem and Ramdas Pophale) SiO2 
 PCOD9438818
Probable space group: P B C M
;
_chemical_formula_sum "Si O2"
_cell_formula_units_Z 56
_cell_length_a 5.281662
_cell_length_b 30.703744
_cell_length_c 15.194263
_cell_angle_alpha 90.000000
_cell_angle_beta 90.000000
_cell_angle_gamma 90.000000
_cell_volume 2464.004978
_symmetry_space_group_name_H-M "P B C M"
_symmetry_group_IT_number 57
_symmetry_cell_setting 'orthorhombic'
loop_
_space_group_symop_operation_xyz
x,y,z
-x,-y,1/2+z
x,1/2-y,-z
-x,1/2+y,1/2-z
-x,-y,-z
x,y,1/2-z
-x,1/2+y,z
x,1/2-y,1/2+z
loop_
_atom_site_type_symbol
_atom_site_label
_atom_site_fract_x
_atom_site_fract_y
_atom_site_fract_z
Si Si1 0.225871 0.688562 0.648972
Si Si2 0.572527 0.321934 0.842674
Si Si3 0.183539 0.631923 0.486881
Si Si4 0.734745 0.741396 0.896489
Si Si5 0.213572 0.097803 0.346712
Si Si6 0.072793 0.494484 0.648127
Si Si7 0.308774 0.539480 0.010770
O O1 0.242795 0.674947 0.750000
O O2 0.145731 0.649702 0.584048
O O3 0.499119 0.708429 0.621414
O O4 0.000574 0.723753 0.638935
O O5 0.708285 0.313608 0.750000
O O6 0.734353 0.325692 0.930542
O O7 0.355931 0.286283 0.853031
O O8 0.446062 0.369469 0.839793
O O9 0.373641 0.590444 0.491919
O O10 0.950773 0.613338 0.429861
O O11 0.758081 0.750000 0.000000
O O12 0.078207 0.101668 0.250000
O O13 0.269784 0.046378 0.353745
O O14 0.039742 0.507532 0.750000
O O15 0.138388 0.531906 0.577922
O O16 0.835186 0.471139 0.601653
O O17 0.500000 0.500000 0.000000
#
# Coordination Sequence:
#
# PCOD9438818 Si02
#       7
#     8   8   8   8   8   8   8
#     4  12  27  47  67  98 139 183 229 281 334 405
#     4  11  22  37  62  94 122 161 211 270 333 400
#     4  11  23  39  62  90 130 170 220 269 342 404
#     4  12  25  47  71  98 133 177 228 284 341 402
#     4   9  19  36  60  92 126 157 206 273 338 398
#     4   9  19  37  59  88 124 162 207 268 330 390
#     4  10  21  38  62  91 126 166 217 271 329 402
#
# _framework density 22.727226999999999
#
# number of rings (size 3 to 8) (size 9 to 14) (size 15 to 20)
#    0.000    1.429    1.429    3.857    2.000    1.714 
#    0.000    0.000    0.000    0.000    0.000    0.000 
#    0.000    0.000    0.000    0.000    0.000    0.000 
#
# Total GULP energy -312499.344600 kJ/mol
# GULP energy per Si atom -5580.345439 kJ/mol
# Density = 2.267550 g / cm^3
# Si number density = 22.727227 Si / 1000 Ang^3
#
#
#
# Elastic Constant Matrix: (Units=GPa)
#
#
# Indices 1 2 3 4 5 6 
#
# 1 42.5014 -2.6640 13.0416 0.0000 0.0000 0.0000
# 2 -2.6640 74.6783 27.2534 0.0000 0.0000 0.0000
# 3 13.0416 27.2534 192.0900 0.0000 0.0000 0.0000
# 4 0.0000 0.0000 0.0000 9.3974 0.0000 0.0000
# 5 0.0000 0.0000 0.0000 0.0000 18.6471 0.0000
# 6 0.0000 0.0000 0.0000 0.0000 0.0000 34.7306
#
#
#
# Elastic Compliance Matrix: (Units=1/GPa)
#
#
# Indices 1 2 3 4 5 6 
#
# 1 0.024197 0.001543 -0.001862 0.000000 0.000000 0.000000
# 2 0.001543 0.014220 -0.002122 0.000000 0.000000 0.000000
# 3 -0.001862 -0.002122 0.005633 0.000000 0.000000 0.000000
# 4 0.000000 0.000000 0.000000 0.106412 0.000000 0.000000
# 5 0.000000 0.000000 0.000000 0.000000 0.053628 0.000000
# 6 0.000000 0.000000 0.000000 0.000000 0.000000 0.028793
#
#
# Mechanical properties :
#
#
# Convention : Reuss Voigt Hill
#
# Bulk Modulus (GPa) = 25.53137 42.72576 34.12857
# Shear Modulus (GPa) = 19.93447 30.66425 25.29936
#
# Velocity S-wave (km/s) = 2.96483 3.67717 3.34005
# Velocity P-wave (km/s) = 4.79359 6.07198 5.47026
#
# Compressibility (1/GPa) = 0.03916750
#
# Stress axis : x y z
#
# Youngs Moduli (GPa) = 41.32822 70.32193 177.51294
#
# Poissons Ratio (x) = -0.10847 0.33046
# Poissons Ratio (y) = -0.06375 0.37673
# Poissons Ratio (z) = 0.07694 0.14924
#
# Static dielectric constant tensor:
#      x y z
#    x 1.947480 0.000000 0.000000 
#    y 0.000000 1.862480 0.000000 
#    z 0.000000 0.000000 1.914250 
# 
# From -- ./inp_files/15234.got.cif
#   From: 2010.05.17/outbox.cif.g08.bks.cpg/sg57_8_cif.got.tgz:15234.got - 2010.06.03 13:58:18.
