data_PCOD9438328
_publ_section_title
;
Structure prediction by ZEFSAII (Michael W. Deem and Ramdas Pophale) SiO2 
 PCOD9438328
Probable space group: P B C M
;
_chemical_formula_sum "Si O2"
_cell_formula_units_Z 48
_cell_length_a 11.412299
_cell_length_b 9.081929
_cell_length_c 25.605121
_cell_angle_alpha 90.000000
_cell_angle_beta 90.000000
_cell_angle_gamma 90.000000
_cell_volume 2653.860414
_symmetry_space_group_name_H-M "P B C M"
_symmetry_group_IT_number 57
_symmetry_cell_setting 'orthorhombic'
loop_
_space_group_symop_operation_xyz
x,y,z
-x,-y,1/2+z
x,1/2-y,-z
-x,1/2+y,1/2-z
-x,-y,-z
x,y,1/2-z
-x,1/2+y,z
x,1/2-y,1/2+z
loop_
_atom_site_type_symbol
_atom_site_label
_atom_site_fract_x
_atom_site_fract_y
_atom_site_fract_z
Si Si1 0.156994 0.627245 0.690146
Si Si2 0.202745 0.148377 0.597088
Si Si3 0.088489 0.536349 0.189601
Si Si4 0.034491 0.629254 0.962039
Si Si5 0.373714 0.426140 0.005722
Si Si6 0.762595 0.516101 0.401289
O O1 0.197457 0.627139 0.750000
O O2 0.105981 0.790211 0.679038
O O3 0.259334 0.578530 0.650617
O O4 0.047340 0.513439 0.686741
O O5 0.295368 0.064464 0.558931
O O6 0.243499 0.311566 0.613081
O O7 0.086425 0.184579 0.562895
O O8 0.162020 0.053016 0.646492
O O9 0.124819 0.506981 0.250000
O O10 0.114514 0.558057 0.918282
O O11 0.091489 0.750000 0.000000
O O12 0.000000 0.500000 0.000000
O O13 0.385670 0.250000 0.000000
O O14 0.500000 0.500000 0.000000
O O15 0.306116 0.491085 0.955693
#
# Coordination Sequence:
#
# PCOD9438328 Si02
#       6
#     8   8   8   8   8   8
#     4  10  21  34  50  78 113 148 185 222 265 323
#     4  11  21  36  54  79 112 144 179 225 273 326
#     4  10  21  34  51  78 113 149 184 222 267 323
#     4  12  21  32  48  78 114 143 178 217 266 330
#     4  10  23  41  57  80 109 140 181 227 275 325
#     4  11  22  35  55  79 111 146 179 225 273 324
#
# _framework density 18.086859
#
# number of rings (size 3 to 8) (size 9 to 14) (size 15 to 20)
#    0.000    1.333    5.000    1.500    2.333    4.000 
#    0.000    0.000    0.000    1.000    0.000    0.000 
#    0.000    0.000    0.000    0.000    0.000    0.000 
#
# Total GULP energy -267370.233614 kJ/mol
# GULP energy per Si atom -5570.213200 kJ/mol
# Density = 1.804569 g / cm^3
# Si number density = 18.086859 Si / 1000 Ang^3
#
#
#
# Elastic Constant Matrix: (Units=GPa)
#
#
# Indices 1 2 3 4 5 6 
#
# 1 42.9931 1.4255 21.1056 0.0000 0.0000 0.0000
# 2 1.4255 62.7801 43.9344 0.0000 0.0000 0.0000
# 3 21.1056 43.9344 118.8482 0.0000 0.0000 0.0000
# 4 0.0000 0.0000 0.0000 38.3648 0.0000 0.0000
# 5 0.0000 0.0000 0.0000 0.0000 8.4200 0.0000
# 6 0.0000 0.0000 0.0000 0.0000 0.0000 23.0062
#
#
#
# Elastic Compliance Matrix: (Units=1/GPa)
#
#
# Indices 1 2 3 4 5 6 
#
# 1 0.026061 0.003571 -0.005948 0.000000 0.000000 0.000000
# 2 0.003571 0.021977 -0.008758 0.000000 0.000000 0.000000
# 3 -0.005948 -0.008758 0.012708 0.000000 0.000000 0.000000
# 4 0.000000 0.000000 0.000000 0.026066 0.000000 0.000000
# 5 0.000000 0.000000 0.000000 0.000000 0.118765 0.000000
# 6 0.000000 0.000000 0.000000 0.000000 0.000000 0.043467
#
#
# Mechanical properties :
#
#
# Convention : Reuss Voigt Hill
#
# Bulk Modulus (GPa) = 25.99099 39.72804 32.85952
# Shear Modulus (GPa) = 17.59702 24.50191 21.04946
#
# Velocity S-wave (km/s) = 3.12255 3.68459 3.41515
# Velocity P-wave (km/s) = 5.23466 6.33360 5.81017
#
# Compressibility (1/GPa) = 0.03847487
#
# Stress axis : x y z
#
# Youngs Moduli (GPa) = 38.37133 45.50283 78.69049
#
# Poissons Ratio (x) = -0.16248 0.46806
# Poissons Ratio (y) = -0.13702 0.68919
# Poissons Ratio (z) = 0.22824 0.39852
#
# Static dielectric constant tensor:
#      x y z
#    x 1.433470 0.000000 0.000000 
#    y 0.000000 1.826380 0.000000 
#    z 0.000000 0.000000 1.574940 
# 
# From -- ./inp_files/28511.got.cif
#   From: 2010.05.17/outbox.cif.g08.bks.cpg/sg57_15_cif.got.tgz:28511.got - 2010.06.03 13:58:18.
