data_PCOD9438696
_publ_section_title
;
Structure prediction by ZEFSAII (Michael W. Deem and Ramdas Pophale) SiO2 
 PCOD9438696
Probable space group: P B C M
;
_chemical_formula_sum "Si O2"
_cell_formula_units_Z 44
_cell_length_a 6.584716
_cell_length_b 8.277849
_cell_length_c 34.398999
_cell_angle_alpha 90.000000
_cell_angle_beta 90.000000
_cell_angle_gamma 90.000000
_cell_volume 1874.996034
_symmetry_space_group_name_H-M "P B C M"
_symmetry_group_IT_number 57
_symmetry_cell_setting 'orthorhombic'
loop_
_space_group_symop_operation_xyz
x,y,z
-x,-y,1/2+z
x,1/2-y,-z
-x,1/2+y,1/2-z
-x,-y,-z
x,y,1/2-z
-x,1/2+y,z
x,1/2-y,1/2+z
loop_
_atom_site_type_symbol
_atom_site_label
_atom_site_fract_x
_atom_site_fract_y
_atom_site_fract_z
Si Si1 0.330252 0.210954 0.607623
Si Si2 0.635565 0.250000 0.000000
Si Si3 0.183910 0.133835 0.750000
Si Si4 0.686447 0.274131 0.167938
Si Si5 0.966198 0.532282 0.666024
Si Si6 0.524110 0.168426 0.250000
Si Si7 0.617689 0.989044 0.555018
O O1 0.510904 0.257192 0.637279
O O2 0.155602 0.129658 0.633003
O O3 0.262701 0.368253 0.583361
O O4 0.441569 0.082963 0.578924
O O5 0.495142 0.367384 0.974341
O O6 0.738914 0.126285 0.969363
O O7 0.072104 0.100927 0.790313
O O8 0.281230 0.312440 0.750000
O O9 0.368945 0.004520 0.750000
O O10 0.598457 0.253744 0.210747
O O11 0.793791 0.445681 0.160832
O O12 0.864776 0.142477 0.164519
#
# Coordination Sequence:
#
# PCOD9438696 Si02
#       7
#     8   4   4   8   8   4   8
#     4  11  20  36  58  91 120 154 200 243 304 342
#     4   8  16  34  56  96 118 148 196 226 288 358
#     4  10  21  38  58  81 113 163 209 249 297 344
#     4  11  24  38  57  85 120 161 207 251 297 346
#     4  11  24  38  57  85 120 161 207 251 297 346
#     4  10  21  38  58  81 113 163 209 249 297 344
#     4   9  18  32  60  89 124 148 190 243 282 366
#
# _framework density 23.466716999999999
#
# number of rings (size 3 to 8) (size 9 to 14) (size 15 to 20)
#    0.000    1.818    3.636    0.545    2.545    1.455 
#    0.000    0.000    0.000    0.000    0.000   89.091 
#    0.000    0.000    0.000    0.000    0.000    0.000 
#
# Total GULP energy -245873.671051 kJ/mol
# GULP energy per Si atom -5588.037978 kJ/mol
# Density = 2.341331 g / cm^3
# Si number density = 23.466717 Si / 1000 Ang^3
#
#
#
# Elastic Constant Matrix: (Units=GPa)
#
#
# Indices 1 2 3 4 5 6 
#
# 1 27.6957 22.2117 10.1235 0.0000 0.0000 0.0000
# 2 22.2117 90.5487 65.5743 0.0000 0.0000 0.0000
# 3 10.1235 65.5743 134.7422 0.0000 0.0000 0.0000
# 4 0.0000 0.0000 0.0000 57.4427 0.0000 0.0000
# 5 0.0000 0.0000 0.0000 0.0000 14.1879 0.0000
# 6 0.0000 0.0000 0.0000 0.0000 0.0000 32.9817
#
#
#
# Elastic Compliance Matrix: (Units=1/GPa)
#
#
# Indices 1 2 3 4 5 6 
#
# 1 0.045788 -0.013498 0.003129 0.000000 0.000000 0.000000
# 2 -0.013498 0.021033 -0.009222 0.000000 0.000000 0.000000
# 3 0.003129 -0.009222 0.011675 0.000000 0.000000 0.000000
# 4 0.000000 0.000000 0.000000 0.017409 0.000000 0.000000
# 5 0.000000 0.000000 0.000000 0.000000 0.070483 0.000000
# 6 0.000000 0.000000 0.000000 0.000000 0.000000 0.030320
#
#
# Mechanical properties :
#
#
# Convention : Reuss Voigt Hill
#
# Bulk Modulus (GPa) = 25.43633 49.86730 37.65182
# Shear Modulus (GPa) = 20.08084 31.26094 25.67089
#
# Velocity S-wave (km/s) = 2.92844 3.65381 3.31105
# Velocity P-wave (km/s) = 4.72199 6.25274 5.54048
#
# Compressibility (1/GPa) = 0.03931384
#
# Stress axis : x y z
#
# Youngs Moduli (GPa) = 21.83979 47.54377 85.65633
#
# Poissons Ratio (x) = 0.64173 -0.26799
# Poissons Ratio (y) = 0.29478 0.78993
# Poissons Ratio (z) = -0.06833 0.43845
#
# Static dielectric constant tensor:
#      x y z
#    x 1.805360 0.000000 0.000000 
#    y 0.000000 1.947410 0.000000 
#    z 0.000000 0.000000 1.909420 
# 
# From -- ./inp_files/29428.got.cif
#   From: 2010.05.17/outbox.cif.g08.bks.cpg/sg57_15_cif.got.tgz:29428.got - 2010.06.03 13:58:18.
