data_PCOD9438056
_publ_section_title
;
Structure prediction by ZEFSAII (Michael W. Deem and Ramdas Pophale) SiO2 
 PCOD9438056
Probable space group: P B C M
;
_chemical_formula_sum "Si O2"
_cell_formula_units_Z 40
_cell_length_a 7.247807
_cell_length_b 16.329958
_cell_length_c 13.334970
_cell_angle_alpha 90.000000
_cell_angle_beta 90.000000
_cell_angle_gamma 90.000000
_cell_volume 1578.278829
_symmetry_space_group_name_H-M "P B C M"
_symmetry_group_IT_number 57
_symmetry_cell_setting 'orthorhombic'
loop_
_space_group_symop_operation_xyz
x,y,z
-x,-y,1/2+z
x,1/2-y,-z
-x,1/2+y,1/2-z
-x,-y,-z
x,y,1/2-z
-x,1/2+y,z
x,1/2-y,1/2+z
loop_
_atom_site_type_symbol
_atom_site_label
_atom_site_fract_x
_atom_site_fract_y
_atom_site_fract_z
Si Si1 0.247862 0.169520 0.445439
Si Si2 0.613911 0.266367 0.883025
Si Si3 0.883306 0.089270 0.414734
Si Si4 0.353875 0.435935 0.138058
Si Si5 0.755852 0.085108 0.857613
O O1 0.159373 0.250000 0.500000
O O2 0.406557 0.199716 0.369264
O O3 0.330721 0.121691 0.541583
O O4 0.094357 0.112323 0.396357
O O5 0.761133 0.337561 0.868807
O O6 0.680423 0.178468 0.846657
O O7 0.611400 0.250000 0.000000
O O8 0.861727 0.083496 0.536927
O O9 0.793520 0.007542 0.373078
O O10 0.331802 0.398663 0.250000
O O11 0.566194 0.466762 0.132187
O O12 0.846704 0.065258 0.750000
#
# Coordination Sequence:
#
# PCOD9438056 Si02
#       5
#     8   8   8   8   8
#     4  11  20  39  65  85 114 163 205 248 307 362
#     4   9  18  37  60  87 117 151 203 252 295 358
#     4  11  22  38  64  91 121 163 201 253 307 365
#     4  11  23  40  60  89 128 161 198 256 309 358
#     4  10  20  38  63  89 122 164 205 249 303 361
#
# _framework density 25.344062000000001
#
# number of rings (size 3 to 8) (size 9 to 14) (size 15 to 20)
#    0.000    1.600    6.000    3.000    0.000    1.600 
#    0.000    2.000    0.000    1.200    0.000    0.000 
#    0.000    0.000    0.000    0.000    0.000    0.000 
#
# Total GULP energy -223530.563182 kJ/mol
# GULP energy per Si atom -5588.264080 kJ/mol
# Density = 2.528638 g / cm^3
# Si number density = 25.344062 Si / 1000 Ang^3
#
#
#
# Elastic Constant Matrix: (Units=GPa)
#
#
# Indices 1 2 3 4 5 6 
#
# 1 105.5581 16.2165 15.4495 0.0000 0.0000 0.0000
# 2 16.2165 63.1507 11.8413 0.0000 0.0000 0.0000
# 3 15.4495 11.8413 124.5660 0.0000 0.0000 0.0000
# 4 0.0000 0.0000 0.0000 -7.9406 0.0000 0.0000
# 5 0.0000 0.0000 0.0000 0.0000 -20.6948 0.0000
# 6 0.0000 0.0000 0.0000 0.0000 0.0000 44.5561
#
#
#
# Elastic Compliance Matrix: (Units=1/GPa)
#
#
# Indices 1 2 3 4 5 6 
#
# 1 0.009986 -0.002375 -0.001013 0.000000 0.000000 0.000000
# 2 -0.002375 0.016687 -0.001292 0.000000 0.000000 0.000000
# 3 -0.001013 -0.001292 0.008276 0.000000 0.000000 0.000000
# 4 0.000000 0.000000 0.000000 -0.125934 0.000000 0.000000
# 5 0.000000 0.000000 0.000000 0.000000 -0.048321 0.000000
# 6 0.000000 0.000000 0.000000 0.000000 0.000000 0.022444
#
#
# Mechanical properties :
#
#
# Convention : Reuss Voigt Hill
#
# Bulk Modulus (GPa) = 39.07534 42.25435 40.66485
# Shear Modulus (GPa) = -50.51867 19.83528 -15.34169
#
# Velocity S-wave (km/s) = -4.46950 2.80061 -2.46303
# Velocity P-wave (km/s) = 3.34422 5.21213 2.82688
#
# Compressibility (1/GPa) = 0.02559159
#
# Stress axis : x y z
#
# Youngs Moduli (GPa) = 100.13535 59.92647 120.82700
#
# Poissons Ratio (x) = 0.14230 0.12238
# Poissons Ratio (y) = 0.23777 0.15608
# Poissons Ratio (z) = 0.10142 0.07741
#
# Static dielectric constant tensor:
#      x y z
#    x 2.058590 0.000000 0.000000 
#    y 0.000000 2.043390 0.000000 
#    z 0.000000 0.000000 1.948490 
# 
# From -- ./inp_files/16112.got.cif
#   From: 2010.05.17/outbox.cif.g08.bks.cpg/sg57_9_cif.got.tgz:16112.got - 2010.06.03 13:58:18.
