data_PCOD9438803
_publ_section_title
;
Structure prediction by ZEFSAII (Michael W. Deem and Ramdas Pophale) SiO2 
 PCOD9438803
Probable space group: P B C M
;
_chemical_formula_sum "Si O2"
_cell_formula_units_Z 48
_cell_length_a 15.001335
_cell_length_b 16.760755
_cell_length_c 10.205406
_cell_angle_alpha 90.000000
_cell_angle_beta 90.000000
_cell_angle_gamma 90.000000
_cell_volume 2565.982997
_symmetry_space_group_name_H-M "P B C M"
_symmetry_group_IT_number 57
_symmetry_cell_setting 'orthorhombic'
loop_
_space_group_symop_operation_xyz
x,y,z
-x,-y,1/2+z
x,1/2-y,-z
-x,1/2+y,1/2-z
-x,-y,-z
x,y,1/2-z
-x,1/2+y,z
x,1/2-y,1/2+z
loop_
_atom_site_type_symbol
_atom_site_label
_atom_site_fract_x
_atom_site_fract_y
_atom_site_fract_z
Si Si1 0.847553 0.845666 0.750000
Si Si2 0.418085 0.986909 0.097108
Si Si3 0.236049 0.434158 0.997429
Si Si4 0.813205 0.841976 0.250000
Si Si5 0.056630 0.679707 0.250000
Si Si6 0.859788 0.100364 0.506340
Si Si7 0.976553 0.368785 0.250000
Si Si8 0.321466 0.818416 0.101069
O O1 0.810776 0.889722 0.622683
O O2 0.817238 0.753578 0.750000
O O3 0.954210 0.847739 0.750000
O O4 0.438067 0.005298 0.250000
O O5 0.385216 0.895142 0.091583
O O6 0.333883 0.038719 0.048314
O O7 0.500000 0.000000 0.000000
O O8 0.234096 0.377052 0.122230
O O9 0.179894 0.514111 0.028773
O O10 0.916689 0.870650 0.250000
O O11 0.103406 0.645909 0.120201
O O12 0.053082 0.775687 0.250000
O O13 0.934430 0.093406 0.619295
O O14 0.777431 0.149942 0.567080
O O15 0.322080 0.788334 0.250000
O O16 0.346452 0.750000 0.000000
#
# Coordination Sequence:
#
# PCOD9438803 Si02
#       8
#     4   8   8   4   4   8   4   8
#     4  11  23  43  62  81 123 172 210 258 307 349
#     4  10  23  44  70  94 122 158 194 246 311 374
#     4  11  23  42  63  90 121 156 208 256 310 372
#     4  11  25  39  60  89 121 166 216 256 297 351
#     4  11  23  35  55  87 124 168 215 254 299 356
#     4  11  22  35  57  88 122 164 206 256 308 355
#     4  11  21  37  55  83 126 170 211 252 299 354
#     4  10  21  38  61  92 127 159 196 245 305 368
#
# _framework density 18.706282000000002
#
# number of rings (size 3 to 8) (size 9 to 14) (size 15 to 20)
#    0.000    1.333    1.667    4.000    2.333    7.333 
#    0.000    1.667    0.000    0.000    0.000    0.000 
#    0.000    0.000    0.000    0.000    0.000    0.000 
#
# Total GULP energy -268462.616395 kJ/mol
# GULP energy per Si atom -5592.971175 kJ/mol
# Density = 1.866371 g / cm^3
# Si number density = 18.706282 Si / 1000 Ang^3
#
#
#
# Elastic Constant Matrix: (Units=GPa)
#
#
# Indices 1 2 3 4 5 6 
#
# 1 89.8742 43.1265 47.9773 0.0000 0.0000 0.0000
# 2 43.1265 58.9454 45.2393 0.0000 0.0000 0.0000
# 3 47.9773 45.2393 147.8660 0.0000 0.0000 0.0000
# 4 0.0000 0.0000 0.0000 42.5087 0.0000 0.0000
# 5 0.0000 0.0000 0.0000 0.0000 32.9744 0.0000
# 6 0.0000 0.0000 0.0000 0.0000 0.0000 10.6285
#
#
#
# Elastic Compliance Matrix: (Units=1/GPa)
#
#
# Indices 1 2 3 4 5 6 
#
# 1 0.017742 -0.011190 -0.002333 0.000000 0.000000 0.000000
# 2 -0.011190 0.029228 -0.005312 0.000000 0.000000 0.000000
# 3 -0.002333 -0.005312 0.009145 0.000000 0.000000 0.000000
# 4 0.000000 0.000000 0.000000 0.023525 0.000000 0.000000
# 5 0.000000 0.000000 0.000000 0.000000 0.030327 0.000000
# 6 0.000000 0.000000 0.000000 0.000000 0.000000 0.094087
#
#
# Mechanical properties :
#
#
# Convention : Reuss Voigt Hill
#
# Bulk Modulus (GPa) = 54.21267 63.26351 58.73809
# Shear Modulus (GPa) = 20.17182 27.91181 24.04182
#
# Velocity S-wave (km/s) = 3.28738 3.86697 3.58890
# Velocity P-wave (km/s) = 6.59189 7.33695 6.97438
#
# Compressibility (1/GPa) = 0.01844587
#
# Stress axis : x y z
#
# Youngs Moduli (GPa) = 56.36478 34.21346 109.35005
#
# Poissons Ratio (x) = 0.38284 0.25512
# Poissons Ratio (y) = 0.63071 0.58083
# Poissons Ratio (z) = 0.13150 0.18173
#
# Static dielectric constant tensor:
#      x y z
#    x 1.621230 0.000000 0.000000 
#    y 0.000000 1.636020 0.000000 
#    z 0.000000 0.000000 1.613880 
# 
# From -- ./inp_files/4780.got.cif
#   From: 2010.05.17/outbox.cif.g08.bks.cpg/sg57_3_cif.got.tgz:4780.got - 2010.06.03 13:58:18.
