data_PCOD9438811
_publ_section_title
;
Structure prediction by ZEFSAII (Michael W. Deem and Ramdas Pophale) SiO2 
 PCOD9438811
Probable space group: P B C M
;
_chemical_formula_sum "Si O2"
_cell_formula_units_Z 40
_cell_length_a 12.849938
_cell_length_b 18.232540
_cell_length_c 8.846236
_cell_angle_alpha 90.000000
_cell_angle_beta 90.000000
_cell_angle_gamma 90.000000
_cell_volume 2072.558170
_symmetry_space_group_name_H-M "P B C M"
_symmetry_group_IT_number 57
_symmetry_cell_setting 'orthorhombic'
loop_
_space_group_symop_operation_xyz
x,y,z
-x,-y,1/2+z
x,1/2-y,-z
-x,1/2+y,1/2-z
-x,-y,-z
x,y,1/2-z
-x,1/2+y,z
x,1/2-y,1/2+z
loop_
_atom_site_type_symbol
_atom_site_label
_atom_site_fract_x
_atom_site_fract_y
_atom_site_fract_z
Si Si1 0.185976 0.330913 0.069823
Si Si2 0.373761 0.076702 0.069923
Si Si3 0.403368 0.595791 0.929777
Si Si4 0.208212 0.828645 0.569875
Si Si5 0.975627 0.078903 0.930313
O O1 0.201129 0.326884 0.250000
O O2 0.074057 0.368101 0.041188
O O3 0.190053 0.250000 0.000000
O O4 0.275299 0.381760 0.998438
O O5 0.378570 0.087908 0.250000
O O6 0.369973 0.989004 0.042360
O O7 0.480357 0.104069 0.993296
O O8 0.401298 0.608582 0.750000
O O9 0.321954 0.647653 0.013046
O O10 0.181199 0.750000 0.500000
O O11 0.204378 0.825787 0.750000
O O12 0.125961 0.887060 0.506696
O O13 0.960208 0.073048 0.750000
O O14 0.000000 0.000000 0.000000
#
# Coordination Sequence:
#
# PCOD9438811 Si02
#       5
#     8   8   8   8   8
#     4  11  24  40  60  87 120 157 198 244 295 352
#     4  10  21  38  62  90 121 157 198 245 296 352
#     4  10  21  39  63  90 121 157 200 247 296 354
#     4  12  25  41  62  89 123 160 201 249 302 359
#     4  11  24  42  65  92 121 157 201 247 298 357
#
# _framework density 19.29982
#
# number of rings (size 3 to 8) (size 9 to 14) (size 15 to 20)
#    0.000    1.200    0.000    6.000    0.000   11.200 
#    0.000    4.000    0.000    0.000    0.000    0.000 
#    0.000    0.000    0.000    0.000    0.000    0.000 
#
# Total GULP energy -223860.452919 kJ/mol
# GULP energy per Si atom -5596.511323 kJ/mol
# Density = 1.925589 g / cm^3
# Si number density = 19.299820 Si / 1000 Ang^3
#
#
#
# Elastic Constant Matrix: (Units=GPa)
#
#
# Indices 1 2 3 4 5 6 
#
# 1 53.2556 -1.3483 31.9151 0.0000 0.0000 0.0000
# 2 -1.3483 34.1564 20.5077 0.0000 0.0000 0.0000
# 3 31.9151 20.5077 88.3131 0.0000 0.0000 0.0000
# 4 0.0000 0.0000 0.0000 36.0482 0.0000 0.0000
# 5 0.0000 0.0000 0.0000 0.0000 32.9662 0.0000
# 6 0.0000 0.0000 0.0000 0.0000 0.0000 -8.3638
#
#
#
# Elastic Compliance Matrix: (Units=1/GPa)
#
#
# Indices 1 2 3 4 5 6 
#
# 1 0.025568 0.007619 -0.011009 0.000000 0.000000 0.000000
# 2 0.007619 0.036291 -0.011181 0.000000 0.000000 0.000000
# 3 -0.011009 -0.011181 0.017898 0.000000 0.000000 0.000000
# 4 0.000000 0.000000 0.000000 0.027741 0.000000 0.000000
# 5 0.000000 0.000000 0.000000 0.000000 0.030334 0.000000
# 6 0.000000 0.000000 0.000000 0.000000 0.000000 -0.119562
#
#
# Mechanical properties :
#
#
# Convention : Reuss Voigt Hill
#
# Bulk Modulus (GPa) = 19.75679 30.87490 25.31584
# Shear Modulus (GPa) = 77.78140 20.44016 49.11078
#
# Velocity S-wave (km/s) = 6.35524 3.25789 5.04990
# Velocity P-wave (km/s) = 8.00694 5.49400 6.86641
#
# Compressibility (1/GPa) = 0.05061552
#
# Stress axis : x y z
#
# Youngs Moduli (GPa) = 39.11163 27.55515 55.87134
#
# Poissons Ratio (x) = -0.20995 0.61510
# Poissons Ratio (y) = -0.29800 0.62469
# Poissons Ratio (z) = 0.43059 0.30809
#
# Static dielectric constant tensor:
#      x y z
#    x 1.636630 0.000000 0.000000 
#    y 0.000000 1.481090 0.000000 
#    z 0.000000 0.000000 1.636890 
# 
# From -- ./inp_files/2649.got.cif
#   From: 2010.05.17/outbox.cif.g08.bks.cpg/sg57_2_cif.got.tgz:2649.got - 2010.06.03 13:58:18.
