data_PCOD9438962
_publ_section_title
;
Structure prediction by ZEFSAII (Michael W. Deem and Ramdas Pophale) SiO2 
 PCOD9438962
Probable space group: P B C M
;
_chemical_formula_sum "Si O2"
_cell_formula_units_Z 40
_cell_length_a 15.986027
_cell_length_b 8.131490
_cell_length_c 14.314037
_cell_angle_alpha 90.000000
_cell_angle_beta 90.000000
_cell_angle_gamma 90.000000
_cell_volume 1860.684800
_symmetry_space_group_name_H-M "P B C M"
_symmetry_group_IT_number 57
_symmetry_cell_setting 'orthorhombic'
loop_
_space_group_symop_operation_xyz
x,y,z
-x,-y,1/2+z
x,1/2-y,-z
-x,1/2+y,1/2-z
-x,-y,-z
x,y,1/2-z
-x,1/2+y,z
x,1/2-y,1/2+z
loop_
_atom_site_type_symbol
_atom_site_label
_atom_site_fract_x
_atom_site_fract_y
_atom_site_fract_z
Si Si1 0.216511 0.064539 0.510305
Si Si2 0.926251 0.498614 0.849822
Si Si3 0.393055 0.524649 0.444259
Si Si4 0.462402 0.639172 0.861502
Si Si5 0.097499 0.647169 0.905468
O O1 0.247325 0.250000 0.500000
O O2 0.134914 0.076542 0.574970
O O3 0.293342 0.972005 0.558035
O O4 0.181200 0.958384 0.423173
O O5 0.914654 0.581574 0.750000
O O6 0.901077 0.307585 0.841853
O O7 0.022066 0.527043 0.879115
O O8 0.440214 0.376860 0.391556
O O9 0.418221 0.531494 0.554980
O O10 0.428491 0.681501 0.388219
O O11 0.451079 0.603669 0.750000
O O12 0.077952 0.750000 0.000000
#
# Coordination Sequence:
#
# PCOD9438962 Si02
#       5
#     8   8   8   8   8
#     4  11  24  42  63  89 129 174 215 265 324 388
#     4  11  22  38  64  96 128 167 217 268 320 385
#     4  10  24  41  67  99 128 171 218 268 330 396
#     4  10  22  42  67  93 128 168 212 267 329 393
#     4  10  21  39  63  90 124 173 210 255 327 384
#
# _framework density 21.49746
#
# number of rings (size 3 to 8) (size 9 to 14) (size 15 to 20)
#    0.000    1.600    0.000    5.400   14.000    1.600 
#    0.000    3.000    0.000    0.000    0.000    0.000 
#    0.000    0.000    0.000    0.000    0.000    0.000 
#
# Total GULP energy -222742.116845 kJ/mol
# GULP energy per Si atom -5568.552921 kJ/mol
# Density = 2.144853 g / cm^3
# Si number density = 21.497460 Si / 1000 Ang^3
#
#
#
# Elastic Constant Matrix: (Units=GPa)
#
#
# Indices 1 2 3 4 5 6 
#
# 1 67.2856 -0.8204 -16.9530 0.0000 0.0000 0.0000
# 2 -0.8204 75.1070 -1.1775 0.0000 0.0000 0.0000
# 3 -16.9530 -1.1775 121.6960 0.0000 0.0000 0.0000
# 4 0.0000 0.0000 0.0000 -5.7786 0.0000 0.0000
# 5 0.0000 0.0000 0.0000 0.0000 22.2245 0.0000
# 6 0.0000 0.0000 0.0000 0.0000 0.0000 25.8939
#
#
#
# Elastic Compliance Matrix: (Units=1/GPa)
#
#
# Indices 1 2 3 4 5 6 
#
# 1 0.015406 0.000202 0.002148 0.000000 0.000000 0.000000
# 2 0.000202 0.013319 0.000157 0.000000 0.000000 0.000000
# 3 0.002148 0.000157 0.008518 0.000000 0.000000 0.000000
# 4 0.000000 0.000000 0.000000 -0.173052 0.000000 0.000000
# 5 0.000000 0.000000 0.000000 0.000000 0.044995 0.000000
# 6 0.000000 0.000000 0.000000 0.000000 0.000000 0.038619
#
#
# Mechanical properties :
#
#
# Convention : Reuss Voigt Hill
#
# Bulk Modulus (GPa) = 23.66488 25.13186 24.39837
# Shear Modulus (GPa) = -115.94569 27.33727 -44.30421
#
# Velocity S-wave (km/s) = -7.35199 3.56989 -4.54464
# Velocity P-wave (km/s) = 7.81260 5.35800 4.02049
#
# Compressibility (1/GPa) = 0.04225672
#
# Stress axis : x y z
#
# Youngs Moduli (GPa) = 64.91103 75.08071 117.39913
#
# Poissons Ratio (x) = -0.01516 -0.25218
# Poissons Ratio (y) = -0.01311 -0.01843
# Poissons Ratio (z) = -0.13943 -0.01179
#
# Static dielectric constant tensor:
#      x y z
#    x 1.752830 0.000000 0.000000 
#    y 0.000000 1.866990 0.000000 
#    z 0.000000 0.000000 2.086140 
# 
# From -- ./inp_files/18236.got.cif
#   From: 2010.05.17/outbox.cif.g08.bks.cpg/sg57_10_cif.got.tgz:18236.got - 2010.06.03 13:58:18.
