data_PCOD9438330
_publ_section_title
;
Structure prediction by ZEFSAII (Michael W. Deem and Ramdas Pophale) SiO2 
 PCOD9438330
Probable space group: P B C M
;
_chemical_formula_sum "Si O2"
_cell_formula_units_Z 40
_cell_length_a 25.096474
_cell_length_b 5.293258
_cell_length_c 14.754202
_cell_angle_alpha 90.000000
_cell_angle_beta 90.000000
_cell_angle_gamma 90.000000
_cell_volume 1959.979351
_symmetry_space_group_name_H-M "P B C M"
_symmetry_group_IT_number 57
_symmetry_cell_setting 'orthorhombic'
loop_
_space_group_symop_operation_xyz
x,y,z
-x,-y,1/2+z
x,1/2-y,-z
-x,1/2+y,1/2-z
-x,-y,-z
x,y,1/2-z
-x,1/2+y,z
x,1/2-y,1/2+z
loop_
_atom_site_type_symbol
_atom_site_label
_atom_site_fract_x
_atom_site_fract_y
_atom_site_fract_z
Si Si1 0.302200 0.295041 0.250000
Si Si2 0.373148 0.794603 0.250000
Si Si3 0.022801 0.855969 0.354965
Si Si4 0.791074 0.745182 0.390702
Si Si5 0.533941 0.246210 0.107925
Si Si6 0.855821 0.254894 0.608905
O O1 0.332360 0.561527 0.250000
O O2 0.263816 0.274184 0.162732
O O3 0.342915 0.061172 0.250000
O O4 0.412021 0.771598 0.336340
O O5 0.005610 0.885899 0.250000
O O6 0.084397 0.782231 0.357326
O O7 0.988895 0.628431 0.396969
O O8 0.783729 0.750000 0.500000
O O9 0.819216 0.482289 0.364526
O O10 0.829167 0.980178 0.365219
O O11 0.496071 0.484641 0.130018
O O12 0.543820 0.250000 0.000000
O O13 0.858940 0.250000 0.500000
#
# Coordination Sequence:
#
# PCOD9438330 Si02
#       6
#     4   4   8   8   8   8
#     4  12  26  39  62  88 116 163 194 242 314 330
#     4  12  24  39  60  94 124 155 204 244 290 344
#     4  10  21  34  51  82 114 141 176 225 288 353
#     4  10  23  41  59  84 112 147 201 245 285 350
#     4  10  21  39  64  92 125 166 201 236 286 339
#     4  10  21  38  60  81 107 148 189 236 290 344
#
# _framework density 20.408379
#
# number of rings (size 3 to 8) (size 9 to 14) (size 15 to 20)
#    0.000    1.600    0.000    4.200    2.800    2.400 
#    0.000    0.000    0.000    0.000    0.000    0.000 
#    0.000    0.000    0.000    0.000    0.000    0.000 
#
# Total GULP energy -223696.392384 kJ/mol
# GULP energy per Si atom -5592.409810 kJ/mol
# Density = 2.036193 g / cm^3
# Si number density = 20.408379 Si / 1000 Ang^3
#
#
#
# Elastic Constant Matrix: (Units=GPa)
#
#
# Indices 1 2 3 4 5 6 
#
# 1 61.5202 -6.4254 16.5403 0.0000 0.0000 0.0000
# 2 -6.4254 93.4969 13.3427 0.0000 0.0000 0.0000
# 3 16.5403 13.3427 64.5437 0.0000 0.0000 0.0000
# 4 0.0000 0.0000 0.0000 4.2074 0.0000 0.0000
# 5 0.0000 0.0000 0.0000 0.0000 263.4744 0.0000
# 6 0.0000 0.0000 0.0000 0.0000 0.0000 49.4932
#
#
#
# Elastic Compliance Matrix: (Units=1/GPa)
#
#
# Indices 1 2 3 4 5 6 
#
# 1 0.017789 0.001930 -0.004958 0.000000 0.000000 0.000000
# 2 0.001930 0.011230 -0.002816 0.000000 0.000000 0.000000
# 3 -0.004958 -0.002816 0.017346 0.000000 0.000000 0.000000
# 4 0.000000 0.000000 0.000000 0.237678 0.000000 0.000000
# 5 0.000000 0.000000 0.000000 0.000000 0.003795 0.000000
# 6 0.000000 0.000000 0.000000 0.000000 0.000000 0.020205
#
#
# Mechanical properties :
#
#
# Convention : Reuss Voigt Hill
#
# Bulk Modulus (GPa) = 28.83692 29.60843 29.22268
# Shear Modulus (GPa) = 15.09247 76.50853 45.80050
#
# Velocity S-wave (km/s) = 2.72237 6.12945 4.74244
# Velocity P-wave (km/s) = 4.90330 8.03947 6.65865
#
# Compressibility (1/GPa) = 0.03467777
#
# Stress axis : x y z
#
# Youngs Moduli (GPa) = 56.21343 89.04669 57.65005
#
# Poissons Ratio (x) = -0.17186 0.28582
# Poissons Ratio (y) = -0.10849 0.16235
# Poissons Ratio (z) = 0.27869 0.25077
#
# Static dielectric constant tensor:
#      x y z
#    x 1.659350 0.000000 0.000000 
#    y 0.000000 1.736480 0.000000 
#    z 0.000000 0.000000 1.750280 
# 
# From -- ./inp_files/19440.got.cif
#   From: 2010.05.17/outbox.cif.g08.bks.cpg/sg57_10_cif.got.tgz:19440.got - 2010.06.03 13:58:18.
