data_PCOD9438844
_publ_section_title
;
Structure prediction by ZEFSAII (Michael W. Deem and Ramdas Pophale) SiO2 
 PCOD9438844
Probable space group: P B C M
;
_chemical_formula_sum "Si O2"
_cell_formula_units_Z 60
_cell_length_a 12.689269
_cell_length_b 21.335937
_cell_length_c 10.911362
_cell_angle_alpha 90.000000
_cell_angle_beta 90.000000
_cell_angle_gamma 90.000000
_cell_volume 2954.114258
_symmetry_space_group_name_H-M "P B C M"
_symmetry_group_IT_number 57
_symmetry_cell_setting 'orthorhombic'
loop_
_space_group_symop_operation_xyz
x,y,z
-x,-y,1/2+z
x,1/2-y,-z
-x,1/2+y,1/2-z
-x,-y,-z
x,y,1/2-z
-x,1/2+y,z
x,1/2-y,1/2+z
loop_
_atom_site_type_symbol
_atom_site_label
_atom_site_fract_x
_atom_site_fract_y
_atom_site_fract_z
Si Si1 0.357362 0.750000 0.000000
Si Si2 0.260253 0.206122 0.893095
Si Si3 0.281041 0.958771 0.942111
Si Si4 0.454676 0.864450 0.883370
Si Si5 0.199924 0.853430 0.105039
Si Si6 0.967772 0.663186 0.612585
Si Si7 0.939313 0.984144 0.377976
Si Si8 0.594543 0.584260 0.605721
O O1 0.427673 0.707976 0.090509
O O2 0.282941 0.800203 0.067833
O O3 0.265655 0.228892 0.750000
O O4 0.138628 0.195182 0.931432
O O5 0.318296 0.139127 0.893217
O O6 0.307597 0.250000 0.000000
O O7 0.346261 0.903818 0.877119
O O8 0.175078 0.984898 0.881935
O O9 0.357382 0.018953 0.943334
O O10 0.240035 0.921560 0.061581
O O11 0.508643 0.871600 0.750000
O O12 0.511009 0.892219 0.004447
O O13 0.189384 0.855742 0.250000
O O14 0.083336 0.836714 0.051188
O O15 0.983207 0.689030 0.750000
O O16 0.935314 0.590619 0.622163
O O17 0.992777 0.003898 0.250000
O O18 0.000000 0.000000 0.500000
O O19 0.559754 0.576627 0.750000
#
# Coordination Sequence:
#
# PCOD9438844 Si02
#       8
#     4   8   8   8   8   8   8   8
#     4  10  24  42  64  90 124 170 206 258 314 380
#     4  10  22  40  63  89 124 166 210 258 314 373
#     4  11  22  39  65  93 125 164 206 257 318 377
#     4  11  25  43  64  92 124 161 211 268 319 374
#     4  10  21  38  63  95 130 167 211 257 307 371
#     4   9  18  35  59  87 123 167 207 248 302 368
#     4  11  20  35  59  88 124 164 203 247 302 370
#     4  11  24  43  67  92 122 165 210 262 325 381
#
# _framework density 20.310656999999999
#
# number of rings (size 3 to 8) (size 9 to 14) (size 15 to 20)
#    0.000    1.600    2.667    2.000    1.867    3.733 
#    0.000    0.667    0.000    0.000    0.000    0.000 
#    0.000    0.000    0.000    0.000    0.000    0.000 
#
# Total GULP energy -334152.508226 kJ/mol
# GULP energy per Si atom -5569.208470 kJ/mol
# Density = 2.026443 g / cm^3
# Si number density = 20.310657 Si / 1000 Ang^3
#
#
#
# Elastic Constant Matrix: (Units=GPa)
#
#
# Indices 1 2 3 4 5 6 
#
# 1 72.7123 14.4855 49.1048 0.0000 0.0000 0.0000
# 2 14.4855 91.9668 37.2598 0.0000 0.0000 0.0000
# 3 49.1048 37.2598 109.7089 0.0000 0.0000 0.0000
# 4 0.0000 0.0000 0.0000 16.5965 0.0000 0.0000
# 5 0.0000 0.0000 0.0000 0.0000 -7.2616 0.0000
# 6 0.0000 0.0000 0.0000 0.0000 0.0000 25.8747
#
#
#
# Elastic Compliance Matrix: (Units=1/GPa)
#
#
# Indices 1 2 3 4 5 6 
#
# 1 0.019734 0.000545 -0.009018 0.000000 0.000000 0.000000
# 2 0.000545 0.012623 -0.004531 0.000000 0.000000 0.000000
# 3 -0.009018 -0.004531 0.014690 0.000000 0.000000 0.000000
# 4 0.000000 0.000000 0.000000 0.060254 0.000000 0.000000
# 5 0.000000 0.000000 0.000000 0.000000 -0.137710 0.000000
# 6 0.000000 0.000000 0.000000 0.000000 0.000000 0.038648
#
#
# Mechanical properties :
#
#
# Convention : Reuss Voigt Hill
#
# Bulk Modulus (GPa) = 47.52852 52.89869 50.21360
# Shear Modulus (GPa) = 121.17839 18.61111 69.89475
#
# Velocity S-wave (km/s) = 7.73253 3.03037 5.87261
# Velocity P-wave (km/s) = 10.15747 6.19237 8.41189
#
# Compressibility (1/GPa) = 0.02104000
#
# Stress axis : x y z
#
# Youngs Moduli (GPa) = 50.67277 79.21771 68.07138
#
# Poissons Ratio (x) = -0.04320 0.61388
# Poissons Ratio (y) = -0.02763 0.30845
# Poissons Ratio (z) = 0.45698 0.35896
#
# Static dielectric constant tensor:
#      x y z
#    x 1.768190 0.000000 0.000000 
#    y 0.000000 1.715100 0.000000 
#    z 0.000000 0.000000 1.808550 
# 
# From -- ./inp_files/13150.got.cif
#   From: 2010.05.17/outbox.cif.g08.bks.cpg/sg57_7_cif.got.tgz:13150.got - 2010.06.03 13:58:18.
