data_PCOD9438889
_publ_section_title
;
Structure prediction by ZEFSAII (Michael W. Deem and Ramdas Pophale) SiO2 
 PCOD9438889
Probable space group: P B C M
;
_chemical_formula_sum "Si O2"
_cell_formula_units_Z 36
_cell_length_a 11.405211
_cell_length_b 10.578890
_cell_length_c 14.705755
_cell_angle_alpha 90.000000
_cell_angle_beta 90.000000
_cell_angle_gamma 90.000000
_cell_volume 1774.315114
_symmetry_space_group_name_H-M "P B C M"
_symmetry_group_IT_number 57
_symmetry_cell_setting 'orthorhombic'
loop_
_space_group_symop_operation_xyz
x,y,z
-x,-y,1/2+z
x,1/2-y,-z
-x,1/2+y,1/2-z
-x,-y,-z
x,y,1/2-z
-x,1/2+y,z
x,1/2-y,1/2+z
loop_
_atom_site_type_symbol
_atom_site_label
_atom_site_fract_x
_atom_site_fract_y
_atom_site_fract_z
Si Si1 0.528633 0.486284 0.393404
Si Si2 0.938824 0.250000 0.000000
Si Si3 0.882996 0.831311 0.651029
Si Si4 0.374388 0.243375 0.889893
Si Si5 0.783545 0.387511 0.350988
O O1 0.500000 0.500000 0.500000
O O2 0.554846 0.629507 0.358480
O O3 0.429496 0.389451 0.358086
O O4 0.649207 0.410766 0.378107
O O5 0.853696 0.321252 0.069158
O O6 0.026712 0.178880 0.068680
O O7 0.933225 0.794136 0.750000
O O8 0.762246 0.754472 0.635622
O O9 0.840785 0.974693 0.655471
O O10 0.379568 0.250000 0.000000
O O11 0.788968 0.328140 0.250000
#
# Coordination Sequence:
#
# PCOD9438889 Si02
#       5
#     8   4   8   8   8
#     4   9  19  34  62  87 122 155 199 244 312 372
#     4  12  22  38  64  84 118 164 212 258 304 372
#     4  10  21  39  60  86 121 162 207 257 314 373
#     4   9  17  34  57  88 118 158 199 249 306 374
#     4  10  23  40  60  89 124 162 205 261 318 368
#
# _framework density 20.289518999999999
#
# number of rings (size 3 to 8) (size 9 to 14) (size 15 to 20)
#    0.000    2.222    1.111    1.333    4.667    0.889 
#    0.000    0.000    0.000    0.000    0.000    0.000 
#    0.000    0.000    0.000    0.000    0.000    0.000 
#
# Total GULP energy -200616.727985 kJ/mol
# GULP energy per Si atom -5572.686888 kJ/mol
# Density = 2.024334 g / cm^3
# Si number density = 20.289519 Si / 1000 Ang^3
#
#
#
# Elastic Constant Matrix: (Units=GPa)
#
#
# Indices 1 2 3 4 5 6 
#
# 1 75.2580 39.5907 67.6570 0.0000 0.0000 0.0000
# 2 39.5907 50.9411 28.0024 0.0000 0.0000 0.0000
# 3 67.6570 28.0024 160.6626 0.0000 0.0000 0.0000
# 4 0.0000 0.0000 0.0000 1.7721 0.0000 0.0000
# 5 0.0000 0.0000 0.0000 0.0000 -3.6812 0.0000
# 6 0.0000 0.0000 0.0000 0.0000 0.0000 11.4043
#
#
#
# Elastic Compliance Matrix: (Units=1/GPa)
#
#
# Indices 1 2 3 4 5 6 
#
# 1 0.033345 -0.020124 -0.010534 0.000000 0.000000 0.000000
# 2 -0.020124 0.033856 0.002574 0.000000 0.000000 0.000000
# 3 -0.010534 0.002574 0.010212 0.000000 0.000000 0.000000
# 4 0.000000 0.000000 0.000000 0.564312 0.000000 0.000000
# 5 0.000000 0.000000 0.000000 0.000000 -0.271647 0.000000
# 6 0.000000 0.000000 0.000000 0.000000 0.000000 0.087687
#
#
# Mechanical properties :
#
#
# Convention : Reuss Voigt Hill
#
# Bulk Modulus (GPa) = 47.07503 61.92911 54.50207
# Shear Modulus (GPa) = 9.59666 12.00646 10.80156
#
# Velocity S-wave (km/s) = 2.17718 2.43524 2.30982
# Velocity P-wave (km/s) = 5.43803 6.20453 5.83388
#
# Compressibility (1/GPa) = 0.02124268
#
# Stress axis : x y z
#
# Youngs Moduli (GPa) = 29.98981 29.53686 97.92614
#
# Poissons Ratio (x) = 0.59441 1.03159
# Poissons Ratio (y) = 0.60352 -0.25203
# Poissons Ratio (z) = 0.31592 -0.07602
#
# Static dielectric constant tensor:
#      x y z
#    x 1.713890 0.000000 0.000000 
#    y 0.000000 1.730370 0.000000 
#    z 0.000000 0.000000 1.236100 
# 
# From -- ./inp_files/17329.got.cif
#   From: 2010.05.17/outbox.cif.g08.bks.cpg/sg57_9_cif.got.tgz:17329.got - 2010.06.03 13:58:18.
