data_PCOD9438465
_publ_section_title
;
Structure prediction by ZEFSAII (Michael W. Deem and Ramdas Pophale) SiO2 
 PCOD9438465
Probable space group: P B C M
;
_chemical_formula_sum "Si O2"
_cell_formula_units_Z 40
_cell_length_a 27.296822
_cell_length_b 7.489047
_cell_length_c 10.039323
_cell_angle_alpha 90.000000
_cell_angle_beta 90.000000
_cell_angle_gamma 90.000000
_cell_volume 2052.310519
_symmetry_space_group_name_H-M "P B C M"
_symmetry_group_IT_number 57
_symmetry_cell_setting 'orthorhombic'
loop_
_space_group_symop_operation_xyz
x,y,z
-x,-y,1/2+z
x,1/2-y,-z
-x,1/2+y,1/2-z
-x,-y,-z
x,y,1/2-z
-x,1/2+y,z
x,1/2-y,1/2+z
loop_
_atom_site_type_symbol
_atom_site_label
_atom_site_fract_x
_atom_site_fract_y
_atom_site_fract_z
Si Si1 0.879218 0.052986 0.250000
Si Si2 0.723286 0.750000 0.500000
Si Si3 0.206172 0.279117 0.250000
Si Si4 0.653724 0.428889 0.408138
Si Si5 0.121262 0.511844 0.750000
Si Si6 0.942516 0.037503 0.500291
Si Si7 0.543862 0.422098 0.409855
O O1 0.871874 0.269991 0.250000
O O2 0.911686 0.986409 0.372598
O O3 0.828259 0.951987 0.250000
O O4 0.758807 0.716709 0.623512
O O5 0.689957 0.579510 0.463188
O O6 0.170816 0.103640 0.250000
O O7 0.658058 0.250000 0.500000
O O8 0.662871 0.388493 0.250000
O O9 0.597939 0.508516 0.411970
O O10 0.087218 0.465761 0.625007
O O11 0.939118 0.250000 0.500000
O O12 0.000000 0.000000 0.500000
O O13 0.553961 0.250000 0.500000
O O14 0.500000 0.500000 0.500000
O O15 0.531181 0.398025 0.250000
#
# Coordination Sequence:
#
# PCOD9438465 Si02
#       7
#     4   4   4   8   4   8   8
#     4  10  23  41  60  90 124 166 209 264 327 391
#     4  12  26  46  66 104 126 174 240 284 346 398
#     4  12  26  42  70  90 128 176 220 282 340 390
#     4  10  24  45  70  99 140 179 228 288 346 412
#     4  10  23  41  58  90 128 160 213 266 319 401
#     4  10  21  36  60  90 124 164 204 254 323 394
#     4  10  21  39  62  98 135 181 223 270 342 411
#
# _framework density 19.49023
#
# number of rings (size 3 to 8) (size 9 to 14) (size 15 to 20)
#    0.000    1.600    1.000    2.400    5.600    2.400 
#    0.000    0.000    0.000    0.000    0.000    0.000 
#    0.000    0.000    0.000    0.000    0.000    0.000 
#
# Total GULP energy -222827.014286 kJ/mol
# GULP energy per Si atom -5570.675357 kJ/mol
# Density = 1.944587 g / cm^3
# Si number density = 19.490230 Si / 1000 Ang^3
#
#
#
# Elastic Constant Matrix: (Units=GPa)
#
#
# Indices 1 2 3 4 5 6 
#
# 1 178.5992 64.8796 107.4340 0.0000 0.0000 0.0000
# 2 64.8796 83.4367 51.2980 0.0000 0.0000 0.0000
# 3 107.4340 51.2980 223.2331 0.0000 0.0000 0.0000
# 4 0.0000 0.0000 0.0000 33.0481 0.0000 0.0000
# 5 0.0000 0.0000 0.0000 0.0000 43.1606 0.0000
# 6 0.0000 0.0000 0.0000 0.0000 0.0000 48.6748
#
#
#
# Elastic Compliance Matrix: (Units=1/GPa)
#
#
# Indices 1 2 3 4 5 6 
#
# 1 0.009583 -0.005376 -0.003377 0.000000 0.000000 0.000000
# 2 -0.005376 0.016973 -0.001313 0.000000 0.000000 0.000000
# 3 -0.003377 -0.001313 0.006406 0.000000 0.000000 0.000000
# 4 0.000000 0.000000 0.000000 0.030259 0.000000 0.000000
# 5 0.000000 0.000000 0.000000 0.000000 0.023169 0.000000
# 6 0.000000 0.000000 0.000000 0.000000 0.000000 0.020544
#
#
# Mechanical properties :
#
#
# Convention : Reuss Voigt Hill
#
# Bulk Modulus (GPa) = 77.93543 103.61023 90.77283
# Shear Modulus (GPa) = 38.06826 42.42054 40.24440
#
# Velocity S-wave (km/s) = 4.42429 4.67036 4.54899
# Velocity P-wave (km/s) = 8.13467 9.07516 8.61776
#
# Compressibility (1/GPa) = 0.01283113
#
# Stress axis : x y z
#
# Youngs Moduli (GPa) = 104.34931 58.91861 156.09266
#
# Poissons Ratio (x) = 0.31673 0.52708
# Poissons Ratio (y) = 0.56096 0.20496
# Poissons Ratio (z) = 0.35236 0.07736
#
# Static dielectric constant tensor:
#      x y z
#    x 1.762130 0.000000 0.000000 
#    y 0.000000 1.750960 0.000000 
#    z 0.000000 0.000000 1.664160 
# 
# From -- ./inp_files/9669.got.cif
#   From: 2010.05.17/outbox.cif.g08.bks.cpg/sg57_5_cif.got.tgz:9669.got - 2010.06.03 13:58:18.
