data_PCOD9438797
_publ_section_title
;
Structure prediction by ZEFSAII (Michael W. Deem and Ramdas Pophale) SiO2 
 PCOD9438797
Probable space group: P B C M
;
_chemical_formula_sum "Si O2"
_cell_formula_units_Z 64
_cell_length_a 16.905161
_cell_length_b 21.188161
_cell_length_c 8.623963
_cell_angle_alpha 90.000000
_cell_angle_beta 90.000000
_cell_angle_gamma 90.000000
_cell_volume 3089.011037
_symmetry_space_group_name_H-M "P B C M"
_symmetry_group_IT_number 57
_symmetry_cell_setting 'orthorhombic'
loop_
_space_group_symop_operation_xyz
x,y,z
-x,-y,1/2+z
x,1/2-y,-z
-x,1/2+y,1/2-z
-x,-y,-z
x,y,1/2-z
-x,1/2+y,z
x,1/2-y,1/2+z
loop_
_atom_site_type_symbol
_atom_site_label
_atom_site_fract_x
_atom_site_fract_y
_atom_site_fract_z
Si Si1 0.950762 0.084744 0.933122
Si Si2 0.936434 0.815376 0.930776
Si Si3 0.519709 0.430969 0.063327
Si Si4 0.699571 0.399562 0.068387
Si Si5 0.222741 0.145410 0.566829
Si Si6 0.174576 0.486761 0.933432
Si Si7 0.402009 0.180642 0.562796
Si Si8 0.825304 0.318925 0.568593
O O1 0.963132 0.078663 0.750000
O O2 0.907982 0.019859 0.987234
O O3 0.883217 0.136288 0.971096
O O4 0.025856 0.119488 0.006612
O O5 0.949418 0.813364 0.750000
O O6 0.970192 0.750000 0.000000
O O7 0.844287 0.818035 0.972859
O O8 0.513982 0.433528 0.250000
O O9 0.610177 0.414711 0.024219
O O10 0.460351 0.375514 0.009651
O O11 0.500000 0.500000 0.000000
O O12 0.701610 0.379924 0.250000
O O13 0.756202 0.460795 0.056107
O O14 0.738375 0.346513 0.961998
O O15 0.213319 0.157799 0.750000
O O16 0.203613 0.072502 0.530553
O O17 0.311550 0.163486 0.519299
O O18 0.165817 0.470117 0.750000
O O19 0.422392 0.250000 0.500000
O O20 0.405305 0.182575 0.750000
O O21 0.831037 0.250000 0.500000
O O22 0.845698 0.321477 0.750000
#
# Coordination Sequence:
#
# PCOD9438797 Si02
#       8
#     8   8   8   8   8   8   8   8
#     4  10  21  39  60  85 118 152 190 234 285 346
#     4  12  25  41  61  85 114 149 193 241 292 349
#     4  10  21  38  61  90 122 155 197 248 302 361
#     4   9  19  36  56  81 115 151 189 235 286 345
#     4  11  23  39  60  85 115 152 196 246 297 353
#     4   9  19  36  59  86 116 152 191 234 287 347
#     4  10  23  41  61  88 121 159 204 254 307 364
#     4  11  21  34  54  80 112 150 190 231 280 339
#
# _framework density 20.718605
#
# number of rings (size 3 to 8) (size 9 to 14) (size 15 to 20)
#    0.000    1.750    0.000    5.250    0.000    6.500 
#    0.000    1.250    0.000    0.000    0.000    0.000 
#    0.000    0.000    0.000    0.000    0.000    0.000 
#
# Total GULP energy -357640.347351 kJ/mol
# GULP energy per Si atom -5588.130427 kJ/mol
# Density = 2.067145 g / cm^3
# Si number density = 20.718605 Si / 1000 Ang^3
#
#
#
# Elastic Constant Matrix: (Units=GPa)
#
#
# Indices 1 2 3 4 5 6 
#
# 1 118.7099 32.4727 14.7001 0.0000 0.0000 0.0000
# 2 32.4727 118.8857 13.7907 0.0000 0.0000 0.0000
# 3 14.7001 13.7907 38.7263 0.0000 0.0000 0.0000
# 4 0.0000 0.0000 0.0000 34.3453 0.0000 0.0000
# 5 0.0000 0.0000 0.0000 0.0000 15.3280 0.0000
# 6 0.0000 0.0000 0.0000 0.0000 0.0000 27.2038
#
#
#
# Elastic Compliance Matrix: (Units=1/GPa)
#
#
# Indices 1 2 3 4 5 6 
#
# 1 0.009379 -0.002241 -0.002762 0.000000 0.000000 0.000000
# 2 -0.002241 0.009310 -0.002464 0.000000 0.000000 0.000000
# 3 -0.002762 -0.002464 0.027748 0.000000 0.000000 0.000000
# 4 0.000000 0.000000 0.000000 0.029116 0.000000 0.000000
# 5 0.000000 0.000000 0.000000 0.000000 0.065240 0.000000
# 6 0.000000 0.000000 0.000000 0.000000 0.000000 0.036760
#
#
# Mechanical properties :
#
#
# Convention : Reuss Voigt Hill
#
# Bulk Modulus (GPa) = 31.74481 44.24989 37.99735
# Shear Modulus (GPa) = 24.63192 29.73265 27.18228
#
# Velocity S-wave (km/s) = 3.45175 3.79234 3.62605
# Velocity P-wave (km/s) = 5.58939 6.37022 5.99254
#
# Compressibility (1/GPa) = 0.03150121
#
# Stress axis : x y z
#
# Youngs Moduli (GPa) = 106.62053 107.41681 36.03835
#
# Poissons Ratio (x) = 0.24077 0.09954
# Poissons Ratio (y) = 0.23898 0.08881
# Poissons Ratio (z) = 0.29449 0.26471
#
# Static dielectric constant tensor:
#      x y z
#    x 1.772480 0.000000 0.000000 
#    y 0.000000 1.725390 0.000000 
#    z 0.000000 0.000000 1.714610 
# 
# From -- ./inp_files/7192.got.cif
#   From: 2010.05.17/outbox.cif.g08.bks.cpg/sg57_4_cif.got.tgz:7192.got - 2010.06.03 13:58:18.
