data_PCOD9438111
_publ_section_title
;
Structure prediction by ZEFSAII (Michael W. Deem and Ramdas Pophale) SiO2 
 PCOD9438111
Probable space group: P B C M
;
_chemical_formula_sum "Si O2"
_cell_formula_units_Z 28
_cell_length_a 16.186119
_cell_length_b 4.869942
_cell_length_c 17.092219
_cell_angle_alpha 90.000000
_cell_angle_beta 90.000000
_cell_angle_gamma 90.000000
_cell_volume 1347.302038
_symmetry_space_group_name_H-M "P B C M"
_symmetry_group_IT_number 57
_symmetry_cell_setting 'orthorhombic'
loop_
_space_group_symop_operation_xyz
x,y,z
-x,-y,1/2+z
x,1/2-y,-z
-x,1/2+y,1/2-z
-x,-y,-z
x,y,1/2-z
-x,1/2+y,z
x,1/2-y,1/2+z
loop_
_atom_site_type_symbol
_atom_site_label
_atom_site_fract_x
_atom_site_fract_y
_atom_site_fract_z
Si Si1 0.946468 0.614439 0.343192
Si Si2 0.553995 0.050750 0.250000
Si Si3 0.217583 0.860888 0.412525
Si Si4 0.703538 0.844887 0.163242
O O1 0.930816 0.589281 0.250000
O O2 0.867934 0.505884 0.389349
O O3 0.025473 0.422208 0.360995
O O4 0.472033 0.865817 0.250000
O O5 0.611885 0.965712 0.176936
O O6 0.217063 0.750000 0.500000
O O7 0.238498 0.900586 0.641185
O O8 0.285487 0.097426 0.396546
O O9 0.727508 0.737309 0.250000
#
# Coordination Sequence:
#
# PCOD9438111 Si02
#       4
#     8   4   8   8
#     4  10  21  36  56  81 114 158 205 253 293 337
#     4  10  20  38  68  96 112 144 202 252 282 344
#     4  12  23  38  59  89 127 158 199 247 300 356
#     4  10  22  38  64  89 115 158 196 249 284 362
#
# _framework density 20.782274000000001
#
# number of rings (size 3 to 8) (size 9 to 14) (size 15 to 20)
#    0.857    0.571    0.000    6.857    0.000    3.429 
#    0.000    0.000    0.000   17.143    0.000    0.000 
#    0.000    0.000    0.000    0.000    0.000    0.000 
#
# Total GULP energy -156428.895172 kJ/mol
# GULP energy per Si atom -5586.746256 kJ/mol
# Density = 2.073497 g / cm^3
# Si number density = 20.782274 Si / 1000 Ang^3
#
#
#
# Elastic Constant Matrix: (Units=GPa)
#
#
# Indices 1 2 3 4 5 6 
#
# 1 55.7109 -12.9277 10.5063 0.0000 0.0000 0.0000
# 2 -12.9277 50.0643 -14.8382 0.0000 0.0000 0.0000
# 3 10.5063 -14.8382 34.8488 0.0000 0.0000 0.0000
# 4 0.0000 0.0000 0.0000 112.8081 0.0000 0.0000
# 5 0.0000 0.0000 0.0000 0.0000 -4.9473 0.0000
# 6 0.0000 0.0000 0.0000 0.0000 0.0000 37.2272
#
#
#
# Elastic Compliance Matrix: (Units=1/GPa)
#
#
# Indices 1 2 3 4 5 6 
#
# 1 0.019643 0.003796 -0.004306 0.000000 0.000000 0.000000
# 2 0.003796 0.023593 0.008901 0.000000 0.000000 0.000000
# 3 -0.004306 0.008901 0.033783 0.000000 0.000000 0.000000
# 4 0.000000 0.000000 0.000000 0.008865 0.000000 0.000000
# 5 0.000000 0.000000 0.000000 0.000000 -0.202130 0.000000
# 6 0.000000 0.000000 0.000000 0.000000 0.000000 0.026862
#
#
# Mechanical properties :
#
#
# Convention : Reuss Voigt Hill
#
# Bulk Modulus (GPa) = 10.66079 11.78941 11.22510
# Shear Modulus (GPa) = -66.75540 39.54318 -13.60611
#
# Velocity S-wave (km/s) = -5.67372 4.36677 -2.56148
# Velocity P-wave (km/s) = 6.14659 5.57764 1.82627
#
# Compressibility (1/GPa) = 0.09380170
#
# Stress axis : x y z
#
# Youngs Moduli (GPa) = 50.90964 42.38611 29.60033
#
# Poissons Ratio (x) = -0.16090 0.12745
# Poissons Ratio (y) = -0.19326 -0.26347
# Poissons Ratio (z) = 0.21920 -0.37728
#
# Static dielectric constant tensor:
#      x y z
#    x 1.770340 0.000000 0.000000 
#    y 0.000000 1.726950 0.000000 
#    z 0.000000 0.000000 1.737350 
# 
# From -- ./inp_files/18714.got.cif
#   From: 2010.05.17/outbox.cif.g08.bks.cpg/sg57_10_cif.got.tgz:18714.got - 2010.06.03 13:58:18.
