data_PCOD9438117
_publ_section_title
;
Structure prediction by ZEFSAII (Michael W. Deem and Ramdas Pophale) SiO2 
 PCOD9438117
Probable space group: P B C M
;
_chemical_formula_sum "Si O2"
_cell_formula_units_Z 36
_cell_length_a 7.137196
_cell_length_b 21.147201
_cell_length_c 10.723704
_cell_angle_alpha 90.000000
_cell_angle_beta 90.000000
_cell_angle_gamma 90.000000
_cell_volume 1618.547072
_symmetry_space_group_name_H-M "P B C M"
_symmetry_group_IT_number 57
_symmetry_cell_setting 'orthorhombic'
loop_
_space_group_symop_operation_xyz
x,y,z
-x,-y,1/2+z
x,1/2-y,-z
-x,1/2+y,1/2-z
-x,-y,-z
x,y,1/2-z
-x,1/2+y,z
x,1/2-y,1/2+z
loop_
_atom_site_type_symbol
_atom_site_label
_atom_site_fract_x
_atom_site_fract_y
_atom_site_fract_z
Si Si1 0.815594 0.750000 0.500000
Si Si2 0.811843 0.008882 0.250000
Si Si3 0.174605 0.581041 0.750000
Si Si4 0.773422 0.999947 0.520463
Si Si5 0.378142 0.366540 0.889287
Si Si6 0.739691 0.357070 0.750000
Si Si7 0.946637 0.225828 0.750000
O O1 0.690210 0.688573 0.477250
O O2 0.936422 0.765874 0.377485
O O3 0.878893 0.082820 0.250000
O O4 0.699292 0.003413 0.378735
O O5 0.972530 0.955700 0.250000
O O6 0.267135 0.553981 0.877100
O O7 0.147302 0.656195 0.750000
O O8 0.703732 0.933626 0.573119
O O9 0.000000 0.000000 0.500000
O O10 0.304567 0.351352 0.750000
O O11 0.601151 0.365265 0.868095
O O12 0.813881 0.286929 0.750000
#
# Coordination Sequence:
#
# PCOD9438117 Si02
#       7
#     4   4   4   8   8   4   4
#     4  12  24  44  76  96 144 186 258 296 356 438
#     4  10  22  37  67 107 135 188 233 303 354 429
#     4  10  21  39  64 102 142 177 248 299 346 423
#     4  10  20  38  71  99 135 178 244 294 344 429
#     4  10  23  47  66 100 145 198 225 298 379 433
#     4  10  26  45  69 104 157 192 231 300 398 439
#     4  12  27  41  70 117 132 197 248 314 346 439
#
# _framework density 22.242170000000002
#
# number of rings (size 3 to 8) (size 9 to 14) (size 15 to 20)
#    0.667    0.889    2.222    2.667    9.333    1.778 
#    0.000    0.000    4.889    0.000    0.000    0.000 
#    0.000    0.000    0.000    0.000    0.000    0.000 
#
# Total GULP energy -200930.177785 kJ/mol
# GULP energy per Si atom -5581.393827 kJ/mol
# Density = 2.219155 g / cm^3
# Si number density = 22.242170 Si / 1000 Ang^3
#
#
#
# Elastic Constant Matrix: (Units=GPa)
#
#
# Indices 1 2 3 4 5 6 
#
# 1 55.1364 32.2675 -0.0613 0.0000 0.0000 0.0000
# 2 32.2675 168.4001 3.8822 0.0000 0.0000 0.0000
# 3 -0.0613 3.8822 131.5776 0.0000 0.0000 0.0000
# 4 0.0000 0.0000 0.0000 43.0391 0.0000 0.0000
# 5 0.0000 0.0000 0.0000 0.0000 3327.8741 0.0000
# 6 0.0000 0.0000 0.0000 0.0000 0.0000 40.0081
#
#
#
# Elastic Compliance Matrix: (Units=1/GPa)
#
#
# Indices 1 2 3 4 5 6 
#
# 1 0.020430 -0.003917 0.000125 0.000000 0.000000 0.000000
# 2 -0.003917 0.006693 -0.000199 0.000000 0.000000 0.000000
# 3 0.000125 -0.000199 0.007606 0.000000 0.000000 0.000000
# 4 0.000000 0.000000 0.000000 0.023235 0.000000 0.000000
# 5 0.000000 0.000000 0.000000 0.000000 0.000300 0.000000
# 6 0.000000 0.000000 0.000000 0.000000 0.000000 0.024995
#
#
# Mechanical properties :
#
#
# Convention : Reuss Voigt Hill
#
# Bulk Modulus (GPa) = 37.38910 47.47675 42.43293
# Shear Modulus (GPa) = 49.92122 703.45262 376.68692
#
# Velocity S-wave (km/s) = 4.74269 17.80327 13.02785
# Velocity P-wave (km/s) = 6.84378 21.07131 15.66585
#
# Compressibility (1/GPa) = 0.02674576
#
# Stress axis : x y z
#
# Youngs Moduli (GPa) = 48.94860 149.39957 131.47482
#
# Poissons Ratio (x) = 0.58526 -0.01645
# Poissons Ratio (y) = 0.19175 0.02620
# Poissons Ratio (z) = -0.00612 0.02978
#
# Static dielectric constant tensor:
#      x y z
#    x 1.882690 0.000000 0.000000 
#    y 0.000000 1.398450 0.000000 
#    z 0.000000 0.000000 1.776130 
# 
# From -- ./inp_files/11744.got.cif
#   From: 2010.05.17/outbox.cif.g08.bks.cpg/sg57_6_cif.got.tgz:11744.got - 2010.06.03 13:58:18.
