data_PCOD9438525
_publ_section_title
;
Structure prediction by ZEFSAII (Michael W. Deem and Ramdas Pophale) SiO2 
 PCOD9438525
Probable space group: P B C M
;
_chemical_formula_sum "Si O2"
_cell_formula_units_Z 48
_cell_length_a 15.449299
_cell_length_b 19.818508
_cell_length_c 8.482417
_cell_angle_alpha 90.000000
_cell_angle_beta 90.000000
_cell_angle_gamma 90.000000
_cell_volume 2597.163875
_symmetry_space_group_name_H-M "P B C M"
_symmetry_group_IT_number 57
_symmetry_cell_setting 'orthorhombic'
loop_
_space_group_symop_operation_xyz
x,y,z
-x,-y,1/2+z
x,1/2-y,-z
-x,1/2+y,1/2-z
-x,-y,-z
x,y,1/2-z
-x,1/2+y,z
x,1/2-y,1/2+z
loop_
_atom_site_type_symbol
_atom_site_label
_atom_site_fract_x
_atom_site_fract_y
_atom_site_fract_z
Si Si1 0.064158 0.324832 0.440349
Si Si2 0.224929 0.087308 0.557681
Si Si3 0.608285 0.826091 0.059693
Si Si4 0.866255 0.175049 0.560876
Si Si5 0.732631 0.435542 0.560894
Si Si6 0.539047 0.070464 0.939234
O O1 0.086835 0.250000 0.500000
O O2 0.065351 0.323597 0.250000
O O3 0.135258 0.378713 0.494470
O O4 0.965520 0.339793 0.490400
O O5 0.224816 0.086816 0.750000
O O6 0.305733 0.133642 0.507715
O O7 0.239118 0.010467 0.506060
O O8 0.609148 0.825028 0.250000
O O9 0.524621 0.869199 0.009073
O O10 0.607429 0.750000 0.000000
O O11 0.844917 0.250000 0.500000
O O12 0.863800 0.175181 0.750000
O O13 0.800007 0.120114 0.497071
O O14 0.730934 0.435887 0.750000
O O15 0.636197 0.421301 0.500109
O O16 0.539254 0.068885 0.750000
O O17 0.500000 0.000000 0.000000
#
# Coordination Sequence:
#
# PCOD9438525 Si02
#       6
#     8   8   8   8   8   8
#     4   9  18  34  57  81 113 151 189 234 284 338
#     4   9  18  35  56  82 116 151 184 228 286 341
#     4  10  21  37  57  84 115 147 186 231 281 337
#     4  10  21  38  58  84 113 148 193 240 286 339
#     4  11  22  38  60  84 114 153 190 235 292 344
#     4  11  22  39  60  83 114 152 194 238 286 344
#
# _framework density 18.481698999999999
#
# number of rings (size 3 to 8) (size 9 to 14) (size 15 to 20)
#    0.000    2.000    1.667    2.000    0.000    3.333 
#    0.000    3.333    0.000    0.000    0.000    0.000 
#    0.000    0.000    0.000    0.000    0.000    0.000 
#
# Total GULP energy -268052.598106 kJ/mol
# GULP energy per Si atom -5584.429127 kJ/mol
# Density = 1.843963 g / cm^3
# Si number density = 18.481699 Si / 1000 Ang^3
#
#
#
# Elastic Constant Matrix: (Units=GPa)
#
#
# Indices 1 2 3 4 5 6 
#
# 1 171.2935 131.8823 30.5239 0.0000 0.0000 0.0000
# 2 131.8823 188.8116 31.6925 0.0000 0.0000 0.0000
# 3 30.5239 31.6925 29.8899 0.0000 0.0000 0.0000
# 4 0.0000 0.0000 0.0000 31.7235 0.0000 0.0000
# 5 0.0000 0.0000 0.0000 0.0000 22.9189 0.0000
# 6 0.0000 0.0000 0.0000 0.0000 0.0000 42.4843
#
#
#
# Elastic Compliance Matrix: (Units=1/GPa)
#
#
# Indices 1 2 3 4 5 6 
#
# 1 0.013104 -0.008402 -0.004473 0.000000 0.000000 0.000000
# 2 -0.008402 0.011830 -0.003963 0.000000 0.000000 0.000000
# 3 -0.004473 -0.003963 0.042226 0.000000 0.000000 0.000000
# 4 0.000000 0.000000 0.000000 0.031522 0.000000 0.000000
# 5 0.000000 0.000000 0.000000 0.000000 0.043632 0.000000
# 6 0.000000 0.000000 0.000000 0.000000 0.000000 0.023538
#
#
# Mechanical properties :
#
#
# Convention : Reuss Voigt Hill
#
# Bulk Modulus (GPa) = 29.86546 86.46582 58.16564
# Shear Modulus (GPa) = 23.73133 32.48510 28.10822
#
# Velocity S-wave (km/s) = 3.58724 4.19703 3.90406
# Velocity P-wave (km/s) = 5.77515 8.38885 7.20157
#
# Compressibility (1/GPa) = 0.03348350
#
# Stress axis : x y z
#
# Youngs Moduli (GPa) = 76.31259 84.52848 23.68182
#
# Poissons Ratio (x) = 0.71022 0.10593
# Poissons Ratio (y) = 0.64119 0.09386
# Poissons Ratio (z) = 0.34135 0.33502
#
# Static dielectric constant tensor:
#      x y z
#    x 1.629140 0.000000 0.000000 
#    y 0.000000 1.601070 0.000000 
#    z 0.000000 0.000000 1.637730 
# 
# From -- ./inp_files/4627.got.cif
#   From: 2010.05.17/outbox.cif.g08.bks.cpg/sg57_3_cif.got.tgz:4627.got - 2010.06.03 13:58:18.
