data_PCOD9438791
_publ_section_title
;
Structure prediction by ZEFSAII (Michael W. Deem and Ramdas Pophale) SiO2 
 PCOD9438791
Probable space group: P B C M
;
_chemical_formula_sum "Si O2"
_cell_formula_units_Z 64
_cell_length_a 7.398626
_cell_length_b 11.985831
_cell_length_c 29.996773
_cell_angle_alpha 90.000000
_cell_angle_beta 90.000000
_cell_angle_gamma 90.000000
_cell_volume 2660.074260
_symmetry_space_group_name_H-M "P B C M"
_symmetry_group_IT_number 57
_symmetry_cell_setting 'orthorhombic'
loop_
_space_group_symop_operation_xyz
x,y,z
-x,-y,1/2+z
x,1/2-y,-z
-x,1/2+y,1/2-z
-x,-y,-z
x,y,1/2-z
-x,1/2+y,z
x,1/2-y,1/2+z
loop_
_atom_site_type_symbol
_atom_site_label
_atom_site_fract_x
_atom_site_fract_y
_atom_site_fract_z
Si Si1 0.767174 0.232890 0.051260
Si Si2 0.666125 0.692808 0.453961
Si Si3 0.118099 0.593630 0.370163
Si Si4 0.868304 0.277959 0.199982
Si Si5 0.694427 0.740459 0.798720
Si Si6 0.741717 0.979386 0.672285
Si Si7 0.323142 0.132198 0.888144
Si Si8 0.650610 0.039342 0.922056
O O1 0.554400 0.195901 0.052147
O O2 0.873695 0.144824 0.080579
O O3 0.779151 0.354469 0.074387
O O4 0.818448 0.250000 0.000000
O O5 0.714556 0.750000 0.500000
O O6 0.757742 0.759570 0.413066
O O7 0.709483 0.562175 0.452008
O O8 0.196961 0.689058 0.337005
O O9 0.211348 0.473814 0.373276
O O10 0.926322 0.565724 0.349294
O O11 0.828657 0.236596 0.250000
O O12 0.786623 0.401842 0.194236
O O13 0.088786 0.284695 0.196682
O O14 0.636153 0.698079 0.750000
O O15 0.670643 0.874467 0.800104
O O16 0.603081 0.685462 0.841911
O O17 0.623886 0.998368 0.628413
O O18 0.451642 0.088933 0.928698
#
# Coordination Sequence:
#
# PCOD9438791 Si02
#       8
#     8   8   8   8   8   8   8   8
#     4  10  22  38  62  90 122 160 208 255 304 363
#     4  10  22  38  64  93 118 160 210 251 300 366
#     4  11  22  38  62  91 122 158 201 254 305 354
#     4  10  21  38  63  91 117 158 208 247 295 364
#     4  10  21  38  61  89 118 157 203 249 298 357
#     4  11  21  39  63  87 123 158 200 247 305 361
#     4  11  22  38  64  87 122 154 201 254 304 355
#     4  11  22  39  64  87 124 160 200 252 306 362
#
# _framework density 24.059477999999999
#
# number of rings (size 3 to 8) (size 9 to 14) (size 15 to 20)
#    0.000    1.500    5.000    0.375    1.750    2.500 
#    0.000    2.500    0.000    0.000    0.000    0.000 
#    0.000    0.000    0.000    0.000    0.000    0.000 
#
# Total GULP energy -357467.052664 kJ/mol
# GULP energy per Si atom -5585.422698 kJ/mol
# Density = 2.400472 g / cm^3
# Si number density = 24.059478 Si / 1000 Ang^3
#
#
#
# Elastic Constant Matrix: (Units=GPa)
#
#
# Indices 1 2 3 4 5 6 
#
# 1 40.8523 15.3716 -0.0687 0.0000 0.0000 0.0000
# 2 15.3716 126.5361 28.7974 0.0000 0.0000 0.0000
# 3 -0.0687 28.7974 126.5919 0.0000 0.0000 0.0000
# 4 0.0000 0.0000 0.0000 28.7865 0.0000 0.0000
# 5 0.0000 0.0000 0.0000 0.0000 14.8217 0.0000
# 6 0.0000 0.0000 0.0000 0.0000 0.0000 21.8738
#
#
#
# Elastic Compliance Matrix: (Units=1/GPa)
#
#
# Indices 1 2 3 4 5 6 
#
# 1 0.025721 -0.003299 0.000764 0.000000 0.000000 0.000000
# 2 -0.003299 0.008757 -0.001994 0.000000 0.000000 0.000000
# 3 0.000764 -0.001994 0.008353 0.000000 0.000000 0.000000
# 4 0.000000 0.000000 0.000000 0.034738 0.000000 0.000000
# 5 0.000000 0.000000 0.000000 0.000000 0.067469 0.000000
# 6 0.000000 0.000000 0.000000 0.000000 0.000000 0.045717
#
#
# Mechanical properties :
#
#
# Convention : Reuss Voigt Hill
#
# Bulk Modulus (GPa) = 29.60739 42.46453 36.03596
# Shear Modulus (GPa) = 23.68879 29.75508 26.72193
#
# Velocity S-wave (km/s) = 3.14123 3.52053 3.33627
# Velocity P-wave (km/s) = 5.04867 5.84924 5.46364
#
# Compressibility (1/GPa) = 0.03377535
#
# Stress axis : x y z
#
# Youngs Moduli (GPa) = 38.87896 114.18953 119.71179
#
# Poissons Ratio (x) = 0.37666 -0.09150
# Poissons Ratio (y) = 0.12824 0.23870
# Poissons Ratio (z) = -0.02972 0.22769
#
# Static dielectric constant tensor:
#      x y z
#    x 2.061900 0.000000 0.000000 
#    y 0.000000 1.977580 0.000000 
#    z 0.000000 0.000000 1.893630 
# 
# From -- ./inp_files/29616.got.cif
#   From: 2010.05.17/outbox.cif.g08.bks.cpg/sg57_15_cif.got.tgz:29616.got - 2010.06.03 13:58:18.
