data_PCOD9438068
_publ_section_title
;
Structure prediction by ZEFSAII (Michael W. Deem and Ramdas Pophale) SiO2 
 PCOD9438068
Probable space group: P B C M
;
_chemical_formula_sum "Si O2"
_cell_formula_units_Z 56
_cell_length_a 11.483370
_cell_length_b 15.833789
_cell_length_c 14.033227
_cell_angle_alpha 90.000000
_cell_angle_beta 90.000000
_cell_angle_gamma 90.000000
_cell_volume 2551.595114
_symmetry_space_group_name_H-M "P B C M"
_symmetry_group_IT_number 57
_symmetry_cell_setting 'orthorhombic'
loop_
_space_group_symop_operation_xyz
x,y,z
-x,-y,1/2+z
x,1/2-y,-z
-x,1/2+y,1/2-z
-x,-y,-z
x,y,1/2-z
-x,1/2+y,z
x,1/2-y,1/2+z
loop_
_atom_site_type_symbol
_atom_site_label
_atom_site_fract_x
_atom_site_fract_y
_atom_site_fract_z
Si Si1 0.138965 0.922527 0.355757
Si Si2 0.587563 0.108914 0.637454
Si Si3 0.746117 0.824763 0.643788
Si Si4 0.047693 0.300468 0.095604
Si Si5 0.512782 0.287039 0.635364
Si Si6 0.816205 0.543124 0.513506
Si Si7 0.603711 0.471296 0.633749
O O1 0.115136 0.959895 0.250000
O O2 0.277288 0.913050 0.368192
O O3 0.071135 0.833310 0.357890
O O4 0.109499 0.978907 0.448027
O O5 0.561059 0.115378 0.750000
O O6 0.568087 0.201821 0.595906
O O7 0.497842 0.037281 0.605025
O O8 0.733941 0.860974 0.750000
O O9 0.856769 0.762000 0.641889
O O10 0.625785 0.778324 0.620793
O O11 0.757959 0.897589 0.566856
O O12 0.113862 0.388596 0.075614
O O13 0.016447 0.250000 0.000000
O O14 0.530764 0.288736 0.750000
O O15 0.562735 0.377430 0.604911
O O16 0.721971 0.496906 0.579807
O O17 0.618192 0.474158 0.750000
#
# Coordination Sequence:
#
# PCOD9438068 Si02
#       7
#     8   8   8   8   8   8   8
#     4  11  23  40  61  84 118 161 200 246 307 366
#     4   9  19  36  58  86 120 158 202 249 300 364
#     4  10  20  38  64  89 118 156 198 247 302 360
#     4  10  23  41  60  85 116 154 207 258 299 355
#     4   9  18  34  58  89 122 157 200 247 298 364
#     4  11  23  39  60  91 122 152 199 253 302 367
#     4  10  21  38  61  91 128 165 201 251 315 375
#
# _framework density 21.947054999999999
#
# number of rings (size 3 to 8) (size 9 to 14) (size 15 to 20)
#    0.000    2.000    0.000    3.000    0.000    8.000 
#    0.000    1.429    0.000    4.286    0.000    0.000 
#    0.000    0.000    0.000    0.000    0.000    0.000 
#
# Total GULP energy -312640.958386 kJ/mol
# GULP energy per Si atom -5582.874257 kJ/mol
# Density = 2.189710 g / cm^3
# Si number density = 21.947055 Si / 1000 Ang^3
#
#
#
# Elastic Constant Matrix: (Units=GPa)
#
#
# Indices 1 2 3 4 5 6 
#
# 1 63.3351 43.1873 37.7896 0.0000 0.0000 0.0000
# 2 43.1873 132.6658 38.9546 0.0000 0.0000 0.0000
# 3 37.7896 38.9546 99.3183 0.0000 0.0000 0.0000
# 4 0.0000 0.0000 0.0000 16.4555 0.0000 0.0000
# 5 0.0000 0.0000 0.0000 0.0000 24.2027 0.0000
# 6 0.0000 0.0000 0.0000 0.0000 0.0000 35.9302
#
#
#
# Elastic Compliance Matrix: (Units=1/GPa)
#
#
# Indices 1 2 3 4 5 6 
#
# 1 0.023752 -0.005739 -0.006786 0.000000 0.000000 0.000000
# 2 -0.005739 0.009906 -0.001701 0.000000 0.000000 0.000000
# 3 -0.006786 -0.001701 0.013318 0.000000 0.000000 0.000000
# 4 0.000000 0.000000 0.000000 0.060770 0.000000 0.000000
# 5 0.000000 0.000000 0.000000 0.000000 0.041318 0.000000
# 6 0.000000 0.000000 0.000000 0.000000 0.000000 0.027832
#
#
# Mechanical properties :
#
#
# Convention : Reuss Voigt Hill
#
# Bulk Modulus (GPa) = 53.99144 59.46469 56.72806
# Shear Modulus (GPa) = 23.63811 27.01018 25.32415
#
# Velocity S-wave (km/s) = 3.28541 3.51194 3.40056
# Velocity P-wave (km/s) = 6.24868 6.60290 6.42823
#
# Compressibility (1/GPa) = 0.01852146
#
# Stress axis : x y z
#
# Youngs Moduli (GPa) = 42.10226 100.95205 75.08605
#
# Poissons Ratio (x) = 0.57940 0.50955
# Poissons Ratio (y) = 0.24164 0.12775
# Poissons Ratio (z) = 0.28571 0.17176
#
# Static dielectric constant tensor:
#      x y z
#    x 1.796060 0.000000 0.000000 
#    y 0.000000 1.829920 0.000000 
#    z 0.000000 0.000000 1.860040 
# 
# From -- ./inp_files/17720.got.cif
#   From: 2010.05.17/outbox.cif.g08.bks.cpg/sg57_9_cif.got.tgz:17720.got - 2010.06.03 13:58:18.
