data_PCOD9438239
_publ_section_title
;
Structure prediction by ZEFSAII (Michael W. Deem and Ramdas Pophale) SiO2 
 PCOD9438239
Probable space group: P B C M
;
_chemical_formula_sum "Si O2"
_cell_formula_units_Z 48
_cell_length_a 9.390501
_cell_length_b 15.213874
_cell_length_c 18.064707
_cell_angle_alpha 90.000000
_cell_angle_beta 90.000000
_cell_angle_gamma 90.000000
_cell_volume 2580.830606
_symmetry_space_group_name_H-M "P B C M"
_symmetry_group_IT_number 57
_symmetry_cell_setting 'orthorhombic'
loop_
_space_group_symop_operation_xyz
x,y,z
-x,-y,1/2+z
x,1/2-y,-z
-x,1/2+y,1/2-z
-x,-y,-z
x,y,1/2-z
-x,1/2+y,z
x,1/2-y,1/2+z
loop_
_atom_site_type_symbol
_atom_site_label
_atom_site_fract_x
_atom_site_fract_y
_atom_site_fract_z
Si Si1 0.356333 0.213778 0.418679
Si Si2 0.826027 0.366887 0.337851
Si Si3 0.345984 0.689614 0.161546
Si Si4 0.151177 0.149436 0.837006
Si Si5 0.824200 0.536453 0.428800
Si Si6 0.155172 0.535663 0.095148
O O1 0.394967 0.250000 0.500000
O O2 0.495853 0.194867 0.370545
O O3 0.255660 0.286587 0.380585
O O4 0.268897 0.123385 0.424618
O O5 0.834527 0.382601 0.250000
O O6 0.725677 0.284461 0.351498
O O7 0.776634 0.455719 0.377157
O O8 0.986712 0.342842 0.363316
O O9 0.345088 0.672914 0.250000
O O10 0.252389 0.616287 0.119876
O O11 0.158044 0.169626 0.750000
O O12 0.185659 0.047428 0.851978
O O13 0.819900 0.498875 0.511992
O O14 0.986658 0.557842 0.404082
#
# Coordination Sequence:
#
# PCOD9438239 Si02
#       6
#     8   8   8   8   8   8
#     4  12  25  40  58  91 127 166 202 251 304 369
#     4   9  21  40  64  91 120 157 203 252 301 360
#     4  11  25  42  60  89 126 166 205 245 302 367
#     4  10  20  40  66  90 119 158 204 254 304 358
#     4  10  22  40  65  94 122 153 205 254 311 357
#     4  10  21  40  66  94 119 157 201 259 305 361
#
# _framework density 18.598662999999998
#
# number of rings (size 3 to 8) (size 9 to 14) (size 15 to 20)
#    0.000    1.667    1.667    2.000    2.333    4.000 
#    0.000    1.667    0.000    0.000    0.000    0.000 
#    0.000    0.000    0.000    0.000    0.000    0.000 
#
# Total GULP energy -268136.916866 kJ/mol
# GULP energy per Si atom -5586.185768 kJ/mol
# Density = 1.855633 g / cm^3
# Si number density = 18.598663 Si / 1000 Ang^3
#
#
#
# Elastic Constant Matrix: (Units=GPa)
#
#
# Indices 1 2 3 4 5 6 
#
# 1 83.7819 71.7470 34.5833 0.0000 0.0000 0.0000
# 2 71.7470 103.6356 34.8154 0.0000 0.0000 0.0000
# 3 34.5833 34.8154 44.2839 0.0000 0.0000 0.0000
# 4 0.0000 0.0000 0.0000 32.8948 0.0000 0.0000
# 5 0.0000 0.0000 0.0000 0.0000 23.9982 0.0000
# 6 0.0000 0.0000 0.0000 0.0000 0.0000 -13.4268
#
#
#
# Elastic Compliance Matrix: (Units=1/GPa)
#
#
# Indices 1 2 3 4 5 6 
#
# 1 0.032530 -0.019006 -0.010462 0.000000 0.000000 0.000000
# 2 -0.019006 0.024217 -0.004196 0.000000 0.000000 0.000000
# 3 -0.010462 -0.004196 0.034051 0.000000 0.000000 0.000000
# 4 0.000000 0.000000 0.000000 0.030400 0.000000 0.000000
# 5 0.000000 0.000000 0.000000 0.000000 0.041670 0.000000
# 6 0.000000 0.000000 0.000000 0.000000 0.000000 -0.074478
#
#
# Mechanical properties :
#
#
# Convention : Reuss Voigt Hill
#
# Bulk Modulus (GPa) = 42.60892 57.11031 49.85961
# Shear Modulus (GPa) = 30.57332 14.73028 22.65180
#
# Velocity S-wave (km/s) = 4.05883 2.81732 3.49367
# Velocity P-wave (km/s) = 6.70261 6.43089 6.56815
#
# Compressibility (1/GPa) = 0.02346926
#
# Stress axis : x y z
#
# Youngs Moduli (GPa) = 30.74067 41.29364 29.36788
#
# Poissons Ratio (x) = 0.78483 0.30725
# Poissons Ratio (y) = 0.58426 0.12323
# Poissons Ratio (z) = 0.32161 0.17328
#
# Static dielectric constant tensor:
#      x y z
#    x 1.632400 0.000000 0.000000 
#    y 0.000000 1.603300 0.000000 
#    z 0.000000 0.000000 1.637600 
# 
# From -- ./inp_files/20964.got.cif
#   From: 2010.05.17/outbox.cif.g08.bks.cpg/sg57_11_cif.got.tgz:20964.got - 2010.06.03 13:58:18.
