data_PCOD9438906
_publ_section_title
;
Structure prediction by ZEFSAII (Michael W. Deem and Ramdas Pophale) SiO2 
 PCOD9438906
Probable space group: P B C M
;
_chemical_formula_sum "Si O2"
_cell_formula_units_Z 48
_cell_length_a 10.152132
_cell_length_b 29.655952
_cell_length_c 8.670517
_cell_angle_alpha 90.000000
_cell_angle_beta 90.000000
_cell_angle_gamma 90.000000
_cell_volume 2610.442431
_symmetry_space_group_name_H-M "P B C M"
_symmetry_group_IT_number 57
_symmetry_cell_setting 'orthorhombic'
loop_
_space_group_symop_operation_xyz
x,y,z
-x,-y,1/2+z
x,1/2-y,-z
-x,1/2+y,1/2-z
-x,-y,-z
x,y,1/2-z
-x,1/2+y,z
x,1/2-y,1/2+z
loop_
_atom_site_type_symbol
_atom_site_label
_atom_site_fract_x
_atom_site_fract_y
_atom_site_fract_z
Si Si1 0.217797 0.700142 0.565719
Si Si2 0.370965 0.476030 0.064431
Si Si3 0.708651 0.878271 0.564238
Si Si4 0.480752 0.300607 0.435563
Si Si5 0.016235 0.628327 0.063813
Si Si6 0.114052 0.531156 0.435526
O O1 0.199250 0.750000 0.500000
O O2 0.211492 0.701051 0.750000
O O3 0.367976 0.686238 0.522534
O O4 0.104207 0.668340 0.501426
O O5 0.376425 0.473253 0.250000
O O6 0.250639 0.508655 0.017986
O O7 0.500000 0.500000 0.000000
O O8 0.344538 0.426050 0.998934
O O9 0.703151 0.879112 0.750000
O O10 0.620456 0.837092 0.502316
O O11 0.862361 0.872203 0.517523
O O12 0.457630 0.250000 0.500000
O O13 0.470762 0.299455 0.250000
O O14 0.018710 0.630374 0.250000
O O15 0.085537 0.581875 0.012673
O O16 0.108639 0.531079 0.250000
O O17 0.000000 0.500000 0.500000
#
# Coordination Sequence:
#
# PCOD9438906 Si02
#       6
#     8   8   8   8   8   8
#     4  10  22  40  63  90 118 153 194 242 295 351
#     4  11  24  40  60  89 122 159 201 247 297 352
#     4  11  23  40  62  88 120 159 199 246 298 350
#     4  10  22  41  63  90 120 155 198 245 297 356
#     4  10  22  39  60  88 120 156 197 242 293 351
#     4  10  21  39  61  86 118 158 198 241 292 345
#
# _framework density 18.387689000000002
#
# number of rings (size 3 to 8) (size 9 to 14) (size 15 to 20)
#    0.000    1.667    1.667    2.000    2.333    5.333 
#    0.000    0.000    0.000    0.000    0.000    0.000 
#    0.000    0.000    0.000    0.000    0.000    0.000 
#
# Total GULP energy -268107.171125 kJ/mol
# GULP energy per Si atom -5585.566065 kJ/mol
# Density = 1.834584 g / cm^3
# Si number density = 18.387689 Si / 1000 Ang^3
#
#
#
# Elastic Constant Matrix: (Units=GPa)
#
#
# Indices 1 2 3 4 5 6 
#
# 1 195.6439 125.2143 57.4884 0.0000 0.0000 0.0000
# 2 125.2143 153.1371 46.4785 0.0000 0.0000 0.0000
# 3 57.4884 46.4785 41.8560 0.0000 0.0000 0.0000
# 4 0.0000 0.0000 0.0000 37.2255 0.0000 0.0000
# 5 0.0000 0.0000 0.0000 0.0000 31.1445 0.0000
# 6 0.0000 0.0000 0.0000 0.0000 0.0000 39.8663
#
#
#
# Elastic Compliance Matrix: (Units=1/GPa)
#
#
# Indices 1 2 3 4 5 6 
#
# 1 0.012566 -0.007597 -0.008823 0.000000 0.000000 0.000000
# 2 -0.007597 0.014442 -0.005603 0.000000 0.000000 0.000000
# 3 -0.008823 -0.005603 0.042232 0.000000 0.000000 0.000000
# 4 0.000000 0.000000 0.000000 0.026863 0.000000 0.000000
# 5 0.000000 0.000000 0.000000 0.000000 0.032108 0.000000
# 6 0.000000 0.000000 0.000000 0.000000 0.000000 0.025084
#
#
# Mechanical properties :
#
#
# Convention : Reuss Voigt Hill
#
# Bulk Modulus (GPa) = 39.69251 94.33326 67.01289
# Shear Modulus (GPa) = 24.30238 32.41100 28.35669
#
# Velocity S-wave (km/s) = 3.63942 4.20294 3.93129
# Velocity P-wave (km/s) = 6.26848 8.65833 7.55846
#
# Compressibility (1/GPa) = 0.02519367
#
# Stress axis : x y z
#
# Youngs Moduli (GPa) = 79.57962 69.24091 23.67852
#
# Poissons Ratio (x) = 0.52601 0.20893
# Poissons Ratio (y) = 0.60455 0.13268
# Poissons Ratio (z) = 0.70217 0.38798
#
# Static dielectric constant tensor:
#      x y z
#    x 1.610570 0.000000 0.000000 
#    y 0.000000 1.599250 0.000000 
#    z 0.000000 0.000000 1.621610 
# 
# From -- ./inp_files/2058.got.cif
#   From: 2010.05.17/outbox.cif.g08.bks.cpg/sg57_2_cif.got.tgz:2058.got - 2010.06.03 13:58:18.
