data_PCOD9438868
_publ_section_title
;
Structure prediction by ZEFSAII (Michael W. Deem and Ramdas Pophale) SiO2 
 PCOD9438868
Probable space group: P B C M
;
_chemical_formula_sum "Si O2"
_cell_formula_units_Z 40
_cell_length_a 5.733095
_cell_length_b 16.143524
_cell_length_c 18.227206
_cell_angle_alpha 90.000000
_cell_angle_beta 90.000000
_cell_angle_gamma 90.000000
_cell_volume 1686.970872
_symmetry_space_group_name_H-M "P B C M"
_symmetry_group_IT_number 57
_symmetry_cell_setting 'orthorhombic'
loop_
_space_group_symop_operation_xyz
x,y,z
-x,-y,1/2+z
x,1/2-y,-z
-x,1/2+y,1/2-z
-x,-y,-z
x,y,1/2-z
-x,1/2+y,z
x,1/2-y,1/2+z
loop_
_atom_site_type_symbol
_atom_site_label
_atom_site_fract_x
_atom_site_fract_y
_atom_site_fract_z
Si Si1 0.728524 0.409821 0.337117
Si Si2 0.778003 0.610162 0.336681
Si Si3 0.725240 0.371444 0.895559
Si Si4 0.027045 0.666864 0.532863
Si Si5 0.649836 0.953946 0.438382
O O1 0.724494 0.395339 0.250000
O O2 0.902646 0.350592 0.383060
O O3 0.486487 0.396646 0.380980
O O4 0.772728 0.509187 0.350269
O O5 0.765279 0.618615 0.250000
O O6 0.023260 0.652140 0.360995
O O7 0.151231 0.406831 0.481817
O O8 0.466423 0.351700 0.866964
O O9 0.741035 0.470588 0.889862
O O10 0.749650 0.344759 0.980150
O O11 0.919327 0.750000 0.500000
O O12 0.500000 0.000000 0.500000
#
# Coordination Sequence:
#
# PCOD9438868 Si02
#       5
#     8   8   8   8   8
#     4  10  22  40  65  97 133 175 227 288 356 429
#     4  10  21  38  67 101 135 174 229 290 350 408
#     4  11  21  39  67  98 131 179 231 292 344 413
#     4  12  25  41  66  98 136 182 235 295 357 438
#     4  11  21  41  69 100 134 177 242 301 350 418
#
# _framework density 23.71114
#
# number of rings (size 3 to 8) (size 9 to 14) (size 15 to 20)
#    0.000    1.200    4.000    3.600    0.000    2.400 
#    0.000    2.000    0.000    1.200    0.000    0.000 
#    0.000    0.000    0.000    0.000    0.000    0.000 
#
# Total GULP energy -222953.545254 kJ/mol
# GULP energy per Si atom -5573.838631 kJ/mol
# Density = 2.365717 g / cm^3
# Si number density = 23.711140 Si / 1000 Ang^3
#
#
#
# Elastic Constant Matrix: (Units=GPa)
#
#
# Indices 1 2 3 4 5 6 
#
# 1 144.9590 17.6851 65.8939 0.0000 0.0000 0.0000
# 2 17.6851 49.4689 17.5001 0.0000 0.0000 0.0000
# 3 65.8939 17.5001 170.4304 0.0000 0.0000 0.0000
# 4 0.0000 0.0000 0.0000 15.9028 0.0000 0.0000
# 5 0.0000 0.0000 0.0000 0.0000 38.3492 0.0000
# 6 0.0000 0.0000 0.0000 0.0000 0.0000 0.7695
#
#
#
# Elastic Compliance Matrix: (Units=1/GPa)
#
#
# Indices 1 2 3 4 5 6 
#
# 1 0.008548 -0.001958 -0.003104 0.000000 0.000000 0.000000
# 2 -0.001958 0.021425 -0.001443 0.000000 0.000000 0.000000
# 3 -0.003104 -0.001443 0.007216 0.000000 0.000000 0.000000
# 4 0.000000 0.000000 0.000000 0.062882 0.000000 0.000000
# 5 0.000000 0.000000 0.000000 0.000000 0.026076 0.000000
# 6 0.000000 0.000000 0.000000 0.000000 0.000000 1.299611
#
#
# Mechanical properties :
#
#
# Convention : Reuss Voigt Hill
#
# Bulk Modulus (GPa) = 41.35752 63.00185 52.17968
# Shear Modulus (GPa) = 3.45583 28.58957 16.02270
#
# Velocity S-wave (km/s) = 1.20857 3.47615 2.60233
# Velocity P-wave (km/s) = 4.40768 6.53756 5.57527
#
# Compressibility (1/GPa) = 0.02417940
#
# Stress axis : x y z
#
# Youngs Moduli (GPa) = 116.98140 46.67413 138.58511
#
# Poissons Ratio (x) = 0.09139 0.43017
# Poissons Ratio (y) = 0.22904 0.19997
# Poissons Ratio (z) = 0.36311 0.06735
#
# Static dielectric constant tensor:
#      x y z
#    x 2.033100 0.000000 0.000000 
#    y 0.000000 1.974040 0.000000 
#    z 0.000000 0.000000 1.885640 
# 
# From -- ./inp_files/23588.got.cif
#   From: 2010.05.17/outbox.cif.g08.bks.cpg/sg57_12_cif.got.tgz:23588.got - 2010.06.03 13:58:18.
