data_PCOD9438875
_publ_section_title
;
Structure prediction by ZEFSAII (Michael W. Deem and Ramdas Pophale) SiO2 
 PCOD9438875
Probable space group: P B C M
;
_chemical_formula_sum "Si O2"
_cell_formula_units_Z 48
_cell_length_a 15.426332
_cell_length_b 9.303667
_cell_length_c 15.933305
_cell_angle_alpha 90.000000
_cell_angle_beta 90.000000
_cell_angle_gamma 90.000000
_cell_volume 2286.771132
_symmetry_space_group_name_H-M "P B C M"
_symmetry_group_IT_number 57
_symmetry_cell_setting 'orthorhombic'
loop_
_space_group_symop_operation_xyz
x,y,z
-x,-y,1/2+z
x,1/2-y,-z
-x,1/2+y,1/2-z
-x,-y,-z
x,y,1/2-z
-x,1/2+y,z
x,1/2-y,1/2+z
loop_
_atom_site_type_symbol
_atom_site_label
_atom_site_fract_x
_atom_site_fract_y
_atom_site_fract_z
Si Si1 0.759713 0.415018 0.351293
Si Si2 0.274896 0.905871 0.650975
Si Si3 0.435941 0.097356 0.605052
Si Si4 0.907790 0.004876 0.346825
Si Si5 0.402164 0.416951 0.905055
Si Si6 0.940280 0.314147 0.407569
O O1 0.757802 0.425020 0.250000
O O2 0.724111 0.257903 0.380259
O O3 0.695392 0.533137 0.388407
O O4 0.858765 0.413320 0.381952
O O5 0.257843 0.893385 0.750000
O O6 0.190253 0.989387 0.617544
O O7 0.362462 0.990929 0.638044
O O8 0.421722 0.260747 0.632968
O O9 0.422236 0.093990 0.504230
O O10 0.530051 0.035762 0.627835
O O11 0.908420 0.955596 0.250000
O O12 0.937887 0.171368 0.350150
O O13 0.972626 0.904717 0.397711
O O14 0.929524 0.250000 0.500000
#
# Coordination Sequence:
#
# PCOD9438875 Si02
#       6
#     8   8   8   8   8   8
#     4  10  22  39  60  89 120 161 206 249 312 370
#     4   9  20  37  59  83 116 158 199 248 304 362
#     4  10  21  39  58  89 118 155 204 246 306 364
#     4  10  21  40  61  86 123 165 204 249 312 373
#     4  10  22  37  60  86 118 158 197 251 303 366
#     4  11  23  39  62  94 122 162 207 262 304 367
#
# _framework density 20.990293000000001
#
# number of rings (size 3 to 8) (size 9 to 14) (size 15 to 20)
#    0.000    2.000    0.000    4.000    4.667    4.000 
#    3.000    1.667    0.000    0.000    0.000    0.000 
#    0.000    0.000    0.000    0.000    0.000    0.000 
#
# Total GULP energy -268124.892984 kJ/mol
# GULP energy per Si atom -5585.935270 kJ/mol
# Density = 2.094252 g / cm^3
# Si number density = 20.990293 Si / 1000 Ang^3
#
#
#
# Elastic Constant Matrix: (Units=GPa)
#
#
# Indices 1 2 3 4 5 6 
#
# 1 56.6578 6.8509 -1.1973 0.0000 0.0000 0.0000
# 2 6.8509 36.7634 2.7077 0.0000 0.0000 0.0000
# 3 -1.1973 2.7077 38.7342 0.0000 0.0000 0.0000
# 4 0.0000 0.0000 0.0000 17.4473 0.0000 0.0000
# 5 0.0000 0.0000 0.0000 0.0000 31.2395 0.0000
# 6 0.0000 0.0000 0.0000 0.0000 0.0000 46.3231
#
#
#
# Elastic Compliance Matrix: (Units=1/GPa)
#
#
# Indices 1 2 3 4 5 6 
#
# 1 0.018081 -0.003428 0.000799 0.000000 0.000000 0.000000
# 2 -0.003428 0.027992 -0.002063 0.000000 0.000000 0.000000
# 3 0.000799 -0.002063 0.025986 0.000000 0.000000 0.000000
# 4 0.000000 0.000000 0.000000 0.057316 0.000000 0.000000
# 5 0.000000 0.000000 0.000000 0.000000 0.032011 0.000000
# 6 0.000000 0.000000 0.000000 0.000000 0.000000 0.021587
#
#
# Mechanical properties :
#
#
# Convention : Reuss Voigt Hill
#
# Bulk Modulus (GPa) = 15.95559 16.54199 16.24879
# Shear Modulus (GPa) = 23.44679 27.25492 25.35085
#
# Velocity S-wave (km/s) = 3.34583 3.60732 3.47903
# Velocity P-wave (km/s) = 4.74805 5.02476 4.88836
#
# Compressibility (1/GPa) = 0.06267398
#
# Stress axis : x y z
#
# Youngs Moduli (GPa) = 55.30599 35.72483 38.48242
#
# Poissons Ratio (x) = 0.12247 -0.03073
# Poissons Ratio (y) = 0.18960 0.07938
# Poissons Ratio (z) = -0.04417 0.07369
#
# Static dielectric constant tensor:
#      x y z
#    x 1.730480 0.000000 0.000000 
#    y 0.000000 1.742610 0.000000 
#    z 0.000000 0.000000 1.795490 
# 
# From -- ./inp_files/18953.got.cif
#   From: 2010.05.17/outbox.cif.g08.bks.cpg/sg57_10_cif.got.tgz:18953.got - 2010.06.03 13:58:18.
