data_PCOD9438131
_publ_section_title
;
Structure prediction by ZEFSAII (Michael W. Deem and Ramdas Pophale) SiO2 
 PCOD9438131
Probable space group: P B C M
;
_chemical_formula_sum "Si O2"
_cell_formula_units_Z 56
_cell_length_a 9.531982
_cell_length_b 16.494262
_cell_length_c 19.510165
_cell_angle_alpha 90.000000
_cell_angle_beta 90.000000
_cell_angle_gamma 90.000000
_cell_volume 3067.446837
_symmetry_space_group_name_H-M "P B C M"
_symmetry_group_IT_number 57
_symmetry_cell_setting 'orthorhombic'
loop_
_space_group_symop_operation_xyz
x,y,z
-x,-y,1/2+z
x,1/2-y,-z
-x,1/2+y,1/2-z
-x,-y,-z
x,y,1/2-z
-x,1/2+y,z
x,1/2-y,1/2+z
loop_
_atom_site_type_symbol
_atom_site_label
_atom_site_fract_x
_atom_site_fract_y
_atom_site_fract_z
Si Si1 0.736200 0.077465 0.172933
Si Si2 0.117312 0.874555 0.457616
Si Si3 0.347664 0.487529 0.964351
Si Si4 0.186504 0.078033 0.915507
Si Si5 0.074627 0.705946 0.395263
Si Si6 0.217113 0.259902 0.168555
Si Si7 0.591522 0.607317 0.328462
O O1 0.760819 0.048188 0.250000
O O2 0.834221 0.152890 0.155818
O O3 0.576219 0.106111 0.166919
O O4 0.768286 0.004130 0.121951
O O5 0.138994 0.794289 0.411812
O O6 0.074002 0.841958 0.532694
O O7 0.980945 0.919764 0.427166
O O8 0.252640 0.931421 0.463259
O O9 0.358970 0.453556 0.887569
O O10 0.500000 0.500000 0.000000
O O11 0.263401 0.423718 0.011432
O O12 0.233012 0.155274 0.870974
O O13 0.921193 0.719593 0.364372
O O14 0.198162 0.273460 0.250000
O O15 0.343131 0.196079 0.159466
O O16 0.630732 0.583641 0.250000
#
# Coordination Sequence:
#
# PCOD9438131 Si02
#       7
#     8   8   8   8   8   8   8
#     4  11  22  39  60  86 120 161 201 246 306 366
#     4  10  22  37  61  89 123 152 201 256 305 355
#     4  12  22  39  62  93 121 158 210 253 304 366
#     4  11  22  38  62  90 120 156 201 255 305 363
#     4  10  20  39  60  88 117 160 199 250 305 361
#     4  10  22  40  61  89 123 162 206 253 304 368
#     4  10  23  41  59  84 123 162 203 250 310 368
#
# _framework density 18.256225000000001
#
# number of rings (size 3 to 8) (size 9 to 14) (size 15 to 20)
#    0.000    1.429    2.857    2.143    2.000    2.857 
#    0.000    3.571    0.000    0.000    0.000    0.000 
#    0.000    0.000    0.000    0.000    0.000    0.000 
#
# Total GULP energy -312664.266842 kJ/mol
# GULP energy per Si atom -5583.290479 kJ/mol
# Density = 1.821467 g / cm^3
# Si number density = 18.256225 Si / 1000 Ang^3
#
#
#
# Elastic Constant Matrix: (Units=GPa)
#
#
# Indices 1 2 3 4 5 6 
#
# 1 91.0168 71.6279 42.3063 0.0000 0.0000 0.0000
# 2 71.6279 100.3144 53.2472 0.0000 0.0000 0.0000
# 3 42.3063 53.2472 77.5610 0.0000 0.0000 0.0000
# 4 0.0000 0.0000 0.0000 36.9521 0.0000 0.0000
# 5 0.0000 0.0000 0.0000 0.0000 26.3542 0.0000
# 6 0.0000 0.0000 0.0000 0.0000 0.0000 9.0106
#
#
#
# Elastic Compliance Matrix: (Units=1/GPa)
#
#
# Indices 1 2 3 4 5 6 
#
# 1 0.025317 -0.016909 -0.002201 0.000000 0.000000 0.000000
# 2 -0.016909 0.026977 -0.009297 0.000000 0.000000 0.000000
# 3 -0.002201 -0.009297 0.020476 0.000000 0.000000 0.000000
# 4 0.000000 0.000000 0.000000 0.027062 0.000000 0.000000
# 5 0.000000 0.000000 0.000000 0.000000 0.037945 0.000000
# 6 0.000000 0.000000 0.000000 0.000000 0.000000 0.110980
#
#
# Mechanical properties :
#
#
# Convention : Reuss Voigt Hill
#
# Bulk Modulus (GPa) = 62.67185 67.02833 64.85009
# Shear Modulus (GPa) = 16.08285 21.24412 18.66348
#
# Velocity S-wave (km/s) = 2.97130 3.41495 3.20082
# Velocity P-wave (km/s) = 6.79522 7.23493 7.01852
#
# Compressibility (1/GPa) = 0.01595613
#
# Stress axis : x y z
#
# Youngs Moduli (GPa) = 39.49946 37.06857 48.83656
#
# Poissons Ratio (x) = 0.62678 0.10750
# Poissons Ratio (y) = 0.66788 0.45405
# Poissons Ratio (z) = 0.08694 0.34464
#
# Static dielectric constant tensor:
#      x y z
#    x 1.607090 0.000000 0.000000 
#    y 0.000000 1.604550 0.000000 
#    z 0.000000 0.000000 1.646220 
# 
# From -- ./inp_files/24453.got.cif
#   From: 2010.05.17/outbox.cif.g08.bks.cpg/sg57_13_cif.got.tgz:24453.got - 2010.06.03 13:58:18.
