data_PCOD9438690
_publ_section_title
;
Structure prediction by ZEFSAII (Michael W. Deem and Ramdas Pophale) SiO2 
 PCOD9438690
Probable space group: P B C M
;
_chemical_formula_sum "Si O2"
_cell_formula_units_Z 56
_cell_length_a 21.469861
_cell_length_b 14.613523
_cell_length_c 8.888938
_cell_angle_alpha 90.000000
_cell_angle_beta 90.000000
_cell_angle_gamma 90.000000
_cell_volume 2788.907031
_symmetry_space_group_name_H-M "P B C M"
_symmetry_group_IT_number 57
_symmetry_cell_setting 'orthorhombic'
loop_
_space_group_symop_operation_xyz
x,y,z
-x,-y,1/2+z
x,1/2-y,-z
-x,1/2+y,1/2-z
-x,-y,-z
x,y,1/2-z
-x,1/2+y,z
x,1/2-y,1/2+z
loop_
_atom_site_type_symbol
_atom_site_label
_atom_site_fract_x
_atom_site_fract_y
_atom_site_fract_z
Si Si1 0.476389 0.649535 0.569298
Si Si2 0.107331 0.599094 0.080847
Si Si3 0.227640 0.655542 0.927709
Si Si4 0.724728 0.534178 0.932015
Si Si5 0.150051 0.390490 0.082561
Si Si6 0.408423 0.039310 0.430382
Si Si7 0.022687 0.157249 0.072189
O O1 0.463123 0.750000 0.500000
O O2 0.481539 0.658114 0.750000
O O3 0.426943 0.567355 0.537610
O O4 0.539636 0.606447 0.500223
O O5 0.110864 0.640907 0.250000
O O6 0.133948 0.497655 0.094651
O O7 0.035193 0.591036 0.035053
O O8 0.153930 0.648168 0.967180
O O9 0.237588 0.654433 0.750000
O O10 0.251029 0.750000 0.000000
O O11 0.258598 0.566244 0.002718
O O12 0.725080 0.530584 0.750000
O O13 0.779590 0.605669 0.977855
O O14 0.657980 0.559923 0.996634
O O15 0.148953 0.348969 0.250000
O O16 0.091932 0.355194 0.989346
O O17 0.407308 0.049799 0.250000
O O18 0.027389 0.161261 0.250000
O O19 0.998179 0.250000 0.000000
#
# Coordination Sequence:
#
# PCOD9438690 Si02
#       7
#     8   8   8   8   8   8   8
#     4  10  21  38  62  92 125 159 194 235 281 329
#     4   9  19  35  53  75 101 132 171 218 275 334
#     4  11  21  33  51  76 107 143 183 228 279 335
#     4  10  21  38  58  80 110 147 185 227 275 328
#     4   9  19  36  55  75 102 134 172 218 267 321
#     4  10  21  38  61  90 123 158 196 236 281 336
#     4  11  22  34  51  74 101 133 172 220 273 326
#
# _framework density 20.079550999999999
#
# number of rings (size 3 to 8) (size 9 to 14) (size 15 to 20)
#    0.000    2.000    0.000    4.714    0.000    7.429 
#    0.000    2.143    0.000    3.429    0.000    0.000 
#    0.000    0.000    0.000    0.000    0.000    0.000 
#
# Total GULP energy -312231.321784 kJ/mol
# GULP energy per Si atom -5575.559318 kJ/mol
# Density = 2.003385 g / cm^3
# Si number density = 20.079551 Si / 1000 Ang^3
#
#
#
# Elastic Constant Matrix: (Units=GPa)
#
#
# Indices 1 2 3 4 5 6 
#
# 1 110.1101 -17.6106 15.8637 0.0000 0.0000 0.0000
# 2 -17.6106 19.5778 -4.4413 0.0000 0.0000 0.0000
# 3 15.8637 -4.4413 52.0029 0.0000 0.0000 0.0000
# 4 0.0000 0.0000 0.0000 27.2310 0.0000 0.0000
# 5 0.0000 0.0000 0.0000 0.0000 33.4788 0.0000
# 6 0.0000 0.0000 0.0000 0.0000 0.0000 15.4375
#
#
#
# Elastic Compliance Matrix: (Units=1/GPa)
#
#
# Indices 1 2 3 4 5 6 
#
# 1 0.010928 0.009253 -0.002543 0.000000 0.000000 0.000000
# 2 0.009253 0.059922 0.002295 0.000000 0.000000 0.000000
# 3 -0.002543 0.002295 0.020202 0.000000 0.000000 0.000000
# 4 0.000000 0.000000 0.000000 0.036723 0.000000 0.000000
# 5 0.000000 0.000000 0.000000 0.000000 0.029870 0.000000
# 6 0.000000 0.000000 0.000000 0.000000 0.000000 0.064777
#
#
# Mechanical properties :
#
#
# Convention : Reuss Voigt Hill
#
# Bulk Modulus (GPa) = 9.16917 18.81273 13.99095
# Shear Modulus (GPa) = 20.76701 27.75470 24.26086
#
# Velocity S-wave (km/s) = 3.21944 3.72188 3.47974
# Velocity P-wave (km/s) = 4.28907 5.27819 4.80913
#
# Compressibility (1/GPa) = 0.10906117
#
# Stress axis : x y z
#
# Youngs Moduli (GPa) = 91.50674 16.68830 49.50110
#
# Poissons Ratio (x) = -0.15442 0.12590
# Poissons Ratio (y) = -0.84672 -0.11360
# Poissons Ratio (z) = 0.23274 -0.03830
#
# Static dielectric constant tensor:
#      x y z
#    x 1.737320 0.000000 0.000000 
#    y 0.000000 1.728850 0.000000 
#    z 0.000000 0.000000 1.693560 
# 
# From -- ./inp_files/8159.got.cif
#   From: 2010.05.17/outbox.cif.g08.bks.cpg/sg57_5_cif.got.tgz:8159.got - 2010.06.03 13:58:18.
