data_PCOD9438641
_publ_section_title
;
Structure prediction by ZEFSAII (Michael W. Deem and Ramdas Pophale) SiO2 
 PCOD9438641
Probable space group: P B C M
;
_chemical_formula_sum "Si O2"
_cell_formula_units_Z 56
_cell_length_a 5.771977
_cell_length_b 31.793883
_cell_length_c 14.126183
_cell_angle_alpha 90.000000
_cell_angle_beta 90.000000
_cell_angle_gamma 90.000000
_cell_volume 2592.346152
_symmetry_space_group_name_H-M "P B C M"
_symmetry_group_IT_number 57
_symmetry_cell_setting 'orthorhombic'
loop_
_space_group_symop_operation_xyz
x,y,z
-x,-y,1/2+z
x,1/2-y,-z
-x,1/2+y,1/2-z
-x,-y,-z
x,y,1/2-z
-x,1/2+y,z
x,1/2-y,1/2+z
loop_
_atom_site_type_symbol
_atom_site_label
_atom_site_fract_x
_atom_site_fract_y
_atom_site_fract_z
Si Si1 0.755734 0.299145 0.515973
Si Si2 0.012337 0.345732 0.356237
Si Si3 0.248746 0.019864 0.137094
Si Si4 0.392919 0.364672 0.002257
Si Si5 0.316648 0.579211 0.642401
Si Si6 0.250275 0.946102 0.636886
Si Si7 0.002550 0.362117 0.860754
O O1 0.735805 0.250000 0.500000
O O2 0.831147 0.318827 0.415685
O O3 0.528401 0.325266 0.541753
O O4 0.937095 0.317302 0.593150
O O5 0.031430 0.331261 0.250000
O O6 0.918816 0.393573 0.358429
O O7 0.247246 0.344183 0.412565
O O8 0.241306 0.030811 0.250000
O O9 0.992271 0.033429 0.099843
O O10 0.498457 0.037955 0.101828
O O11 0.270252 0.969619 0.128318
O O12 0.533944 0.400369 0.058514
O O13 0.215339 0.379929 0.922129
O O14 0.416793 0.584927 0.750000
O O15 0.253881 0.954892 0.750000
O O16 0.205355 0.896023 0.625786
O O17 0.053860 0.359734 0.750000
#
# Coordination Sequence:
#
# PCOD9438641 Si02
#       7
#     8   8   8   8   8   8   8
#     4  10  23  42  62  88 121 152 195 256 318 385
#     4   9  19  37  62  88 122 158 196 246 311 384
#     4   9  18  32  56  90 128 171 222 270 312 367
#     4  10  21  37  61  90 124 158 206 254 317 375
#     4   9  18  33  58  91 128 171 208 252 315 372
#     4   9  19  35  57  88 125 171 222 269 312 367
#     4  10  23  42  65  87 119 167 212 256 314 375
#
# _framework density 21.602052
#
# number of rings (size 3 to 8) (size 9 to 14) (size 15 to 20)
#    0.000    2.571    0.000    0.429    4.000    4.000 
#    0.000    1.429    0.000    0.000    0.000    0.000 
#    0.000    0.000    0.000    0.000    0.000    0.000 
#
# Total GULP energy -312341.545923 kJ/mol
# GULP energy per Si atom -5577.527606 kJ/mol
# Density = 2.155288 g / cm^3
# Si number density = 21.602052 Si / 1000 Ang^3
#
#
#
# Elastic Constant Matrix: (Units=GPa)
#
#
# Indices 1 2 3 4 5 6 
#
# 1 82.5949 32.6225 9.4276 0.0000 0.0000 0.0000
# 2 32.6225 113.9260 16.6002 0.0000 0.0000 0.0000
# 3 9.4276 16.6002 106.1656 0.0000 0.0000 0.0000
# 4 0.0000 0.0000 0.0000 18.7879 0.0000 0.0000
# 5 0.0000 0.0000 0.0000 0.0000 17.2705 0.0000
# 6 0.0000 0.0000 0.0000 0.0000 0.0000 -8.3497
#
#
#
# Elastic Compliance Matrix: (Units=1/GPa)
#
#
# Indices 1 2 3 4 5 6 
#
# 1 0.013691 -0.003830 -0.000617 0.000000 0.000000 0.000000
# 2 -0.003830 0.010054 -0.001232 0.000000 0.000000 0.000000
# 3 -0.000617 -0.001232 0.009667 0.000000 0.000000 0.000000
# 4 0.000000 0.000000 0.000000 0.053226 0.000000 0.000000
# 5 0.000000 0.000000 0.000000 0.000000 0.057902 0.000000
# 6 0.000000 0.000000 0.000000 0.000000 0.000000 -0.119764
#
#
# Mechanical properties :
#
#
# Convention : Reuss Voigt Hill
#
# Bulk Modulus (GPa) = 45.34541 46.66524 46.00533
# Shear Modulus (GPa) = 114.98562 21.81083 68.39823
#
# Velocity S-wave (km/s) = 7.30374 3.18097 5.63308
# Velocity P-wave (km/s) = 9.60015 5.92795 7.97820
#
# Compressibility (1/GPa) = 0.02205295
#
# Stress axis : x y z
#
# Youngs Moduli (GPa) = 73.04289 99.46334 103.44858
#
# Poissons Ratio (x) = 0.38098 0.06381
# Poissons Ratio (y) = 0.27978 0.12744
# Poissons Ratio (z) = 0.04505 0.12253
#
# Static dielectric constant tensor:
#      x y z
#    x 1.868180 0.000000 0.000000 
#    y 0.000000 1.764850 0.000000 
#    z 0.000000 0.000000 1.794780 
# 
# From -- ./inp_files/15257.got.cif
#   From: 2010.05.17/outbox.cif.g08.bks.cpg/sg57_8_cif.got.tgz:15257.got - 2010.06.03 13:58:18.
