data_PCOD9438012
_publ_section_title
;
Structure prediction by ZEFSAII (Michael W. Deem and Ramdas Pophale) SiO2 
 PCOD9438012
Probable space group: P B C M
;
_chemical_formula_sum "Si O2"
_cell_formula_units_Z 52
_cell_length_a 8.951041
_cell_length_b 10.114013
_cell_length_c 29.631452
_cell_angle_alpha 90.000000
_cell_angle_beta 90.000000
_cell_angle_gamma 90.000000
_cell_volume 2682.563352
_symmetry_space_group_name_H-M "P B C M"
_symmetry_group_IT_number 57
_symmetry_cell_setting 'orthorhombic'
loop_
_space_group_symop_operation_xyz
x,y,z
-x,-y,1/2+z
x,1/2-y,-z
-x,1/2+y,1/2-z
-x,-y,-z
x,y,1/2-z
-x,1/2+y,z
x,1/2-y,1/2+z
loop_
_atom_site_type_symbol
_atom_site_label
_atom_site_fract_x
_atom_site_fract_y
_atom_site_fract_z
Si Si1 0.663980 0.750000 0.500000
Si Si2 0.716313 0.558712 0.925786
Si Si3 0.617102 0.515935 0.437360
Si Si4 0.823259 0.527962 0.250000
Si Si5 0.137945 0.899926 0.504352
Si Si6 0.081409 0.342835 0.151234
Si Si7 0.956509 0.696503 0.750000
Si Si8 0.178663 0.448080 0.851867
O O1 0.756781 0.671004 0.537325
O O2 0.579382 0.640087 0.470361
O O3 0.537767 0.554371 0.926122
O O4 0.790830 0.594699 0.879248
O O5 0.784824 0.427017 0.947355
O O6 0.737240 0.433614 0.466515
O O7 0.698105 0.555435 0.390947
O O8 0.951572 0.643952 0.250000
O O9 0.756026 0.549039 0.300305
O O10 0.885736 0.378846 0.250000
O O11 0.090303 0.750000 0.500000
O O12 0.000000 0.000000 0.500000
O O13 0.118345 0.352867 0.204199
O O14 0.079674 0.185282 0.142564
O O15 0.929300 0.424477 0.142892
#
# Coordination Sequence:
#
# PCOD9438012 Si02
#       8
#     4   8   8   4   8   8   4   8
#     4  10  20  40  54  74 114 146 194 236 282 336
#     4  11  24  37  62  82 115 155 195 239 294 344
#     4  11  24  37  62  82 115 155 195 239 294 344
#     4   8  16  32  59  86 116 150 186 232 289 342
#     4  11  26  40  59  83 115 152 199 243 290 340
#     4  10  20  38  61  90 119 151 192 240 289 345
#     4   8  16  32  59  86 116 150 186 232 289 342
#     4  10  20  38  61  90 119 151 192 240 289 345
#
# _framework density 19.384443999999998
#
# number of rings (size 3 to 8) (size 9 to 14) (size 15 to 20)
#    0.000    1.846    1.538    2.769    8.615    3.692 
#    0.000    0.769    0.000    0.000    0.000    0.000 
#    0.000    0.000    0.000    0.000    0.000    0.000 
#
# Total GULP energy -289797.309637 kJ/mol
# GULP energy per Si atom -5573.025185 kJ/mol
# Density = 1.934032 g / cm^3
# Si number density = 19.384444 Si / 1000 Ang^3
#
#
#
# Elastic Constant Matrix: (Units=GPa)
#
#
# Indices 1 2 3 4 5 6 
#
# 1 86.1650 27.3741 41.7293 0.0000 0.0000 0.0000
# 2 27.3741 89.8642 22.0245 0.0000 0.0000 0.0000
# 3 41.7293 22.0245 112.8333 0.0000 0.0000 0.0000
# 4 0.0000 0.0000 0.0000 18.9741 0.0000 0.0000
# 5 0.0000 0.0000 0.0000 0.0000 12.6171 0.0000
# 6 0.0000 0.0000 0.0000 0.0000 0.0000 11.7517
#
#
#
# Elastic Compliance Matrix: (Units=1/GPa)
#
#
# Indices 1 2 3 4 5 6 
#
# 1 0.015058 -0.003384 -0.004908 0.000000 0.000000 0.000000
# 2 -0.003384 0.012447 -0.001178 0.000000 0.000000 0.000000
# 3 -0.004908 -0.001178 0.010908 0.000000 0.000000 0.000000
# 4 0.000000 0.000000 0.000000 0.052703 0.000000 0.000000
# 5 0.000000 0.000000 0.000000 0.000000 0.079257 0.000000
# 6 0.000000 0.000000 0.000000 0.000000 0.000000 0.085094
#
#
# Mechanical properties :
#
#
# Convention : Reuss Voigt Hill
#
# Bulk Modulus (GPa) = 51.35512 52.34646 51.85079
# Shear Modulus (GPa) = 17.79999 21.85091 19.82545
#
# Velocity S-wave (km/s) = 3.03357 3.36108 3.20152
# Velocity P-wave (km/s) = 6.23061 6.49041 6.36184
#
# Compressibility (1/GPa) = 0.01947226
#
# Stress axis : x y z
#
# Youngs Moduli (GPa) = 66.41098 80.33772 91.67707
#
# Poissons Ratio (x) = 0.27185 0.44998
# Poissons Ratio (y) = 0.22473 0.10802
# Poissons Ratio (z) = 0.32597 0.09465
#
# Static dielectric constant tensor:
#      x y z
#    x 1.656330 0.000000 0.000000 
#    y 0.000000 1.750510 0.000000 
#    z 0.000000 0.000000 1.709200 
# 
# From -- ./inp_files/29573.got.cif
#   From: 2010.05.17/outbox.cif.g08.bks.cpg/sg57_15_cif.got.tgz:29573.got - 2010.06.03 13:58:18.
