data_PCOD9438416
_publ_section_title
;
Structure prediction by ZEFSAII (Michael W. Deem and Ramdas Pophale) SiO2 
 PCOD9438416
Probable space group: P B C M
;
_chemical_formula_sum "Si O2"
_cell_formula_units_Z 64
_cell_length_a 19.426571
_cell_length_b 8.317743
_cell_length_c 16.392071
_cell_angle_alpha 90.000000
_cell_angle_beta 90.000000
_cell_angle_gamma 90.000000
_cell_volume 2648.716480
_symmetry_space_group_name_H-M "P B C M"
_symmetry_group_IT_number 57
_symmetry_cell_setting 'orthorhombic'
loop_
_space_group_symop_operation_xyz
x,y,z
-x,-y,1/2+z
x,1/2-y,-z
-x,1/2+y,1/2-z
-x,-y,-z
x,y,1/2-z
-x,1/2+y,z
x,1/2-y,1/2+z
loop_
_atom_site_type_symbol
_atom_site_label
_atom_site_fract_x
_atom_site_fract_y
_atom_site_fract_z
Si Si1 0.271681 0.662356 0.583771
Si Si2 0.848666 0.967196 0.652861
Si Si3 0.641216 0.672698 0.083411
Si Si4 0.104785 0.524818 0.349673
Si Si5 0.974928 0.158340 0.849783
Si Si6 0.514192 0.003412 0.842664
Si Si7 0.594271 0.196348 0.405925
Si Si8 0.232021 0.150714 0.651693
O O1 0.252778 0.750000 0.500000
O O2 0.204974 0.610006 0.633483
O O3 0.314299 0.493298 0.570331
O O4 0.327873 0.781210 0.625348
O O5 0.853900 0.950284 0.750000
O O6 0.924324 0.013825 0.623912
O O7 0.813454 0.804685 0.623714
O O8 0.577035 0.617887 0.137434
O O9 0.692779 0.805749 0.120249
O O10 0.616024 0.750000 0.000000
O O11 0.106868 0.529681 0.250000
O O12 0.064673 0.682869 0.377746
O O13 0.183325 0.495723 0.376645
O O14 0.052891 0.380015 0.372925
O O15 0.975428 0.164756 0.750000
O O16 0.492208 0.988356 0.750000
O O17 0.447597 0.966891 0.897217
O O18 0.547328 0.175623 0.859057
O O19 0.596378 0.250000 0.500000
O O20 0.235590 0.147281 0.750000
#
# Coordination Sequence:
#
# PCOD9438416 Si02
#       8
#     8   8   8   8   8   8   8   8
#     4   9  20  36  54  75 101 136 175 212 256 313
#     4   9  17  30  50  73  99 130 168 212 260 310
#     4  10  21  36  55  76 104 141 177 216 265 324
#     4   9  16  26  43  68 101 134 168 210 258 311
#     4   9  16  26  42  69 100 133 168 207 257 312
#     4  11  22  37  58  85 113 143 183 231 275 321
#     4  10  21  38  58  81 111 148 185 223 272 332
#     4   9  17  31  50  73  99 131 170 215 261 309
#
# _framework density 24.162645999999999
#
# number of rings (size 3 to 8) (size 9 to 14) (size 15 to 20)
#    0.000    2.500    0.000    2.250    0.000    9.500 
#    0.000    0.000    0.000    4.500    0.000    5.250 
#    0.000    0.000    0.000    0.000    0.000    0.000 
#
# Total GULP energy -357579.717984 kJ/mol
# GULP energy per Si atom -5587.183094 kJ/mol
# Density = 2.410765 g / cm^3
# Si number density = 24.162646 Si / 1000 Ang^3
#
#
#
# Elastic Constant Matrix: (Units=GPa)
#
#
# Indices 1 2 3 4 5 6 
#
# 1 108.2088 17.1677 6.7742 0.0000 0.0000 0.0000
# 2 17.1677 54.5092 5.5352 0.0000 0.0000 0.0000
# 3 6.7742 5.5352 17.3708 0.0000 0.0000 0.0000
# 4 0.0000 0.0000 0.0000 -57.3933 0.0000 0.0000
# 5 0.0000 0.0000 0.0000 0.0000 64.4344 0.0000
# 6 0.0000 0.0000 0.0000 0.0000 0.0000 58.7734
#
#
#
# Elastic Compliance Matrix: (Units=1/GPa)
#
#
# Indices 1 2 3 4 5 6 
#
# 1 0.009872 -0.002809 -0.002955 0.000000 0.000000 0.000000
# 2 -0.002809 0.019758 -0.005201 0.000000 0.000000 0.000000
# 3 -0.002955 -0.005201 0.060377 0.000000 0.000000 0.000000
# 4 0.000000 0.000000 0.000000 -0.017424 0.000000 0.000000
# 5 0.000000 0.000000 0.000000 0.000000 0.015520 0.000000
# 6 0.000000 0.000000 0.000000 0.000000 0.000000 0.017015
#
#
# Mechanical properties :
#
#
# Convention : Reuss Voigt Hill
#
# Bulk Modulus (GPa) = 14.68883 26.56035 20.62459
# Shear Modulus (GPa) = 33.39119 23.20366 28.29742
#
# Velocity S-wave (km/s) = 3.72147 3.10225 3.42588
# Velocity P-wave (km/s) = 4.95562 4.88345 4.91967
#
# Compressibility (1/GPa) = 0.06807892
#
# Stress axis : x y z
#
# Youngs Moduli (GPa) = 101.29603 50.61145 16.56251
#
# Poissons Ratio (x) = 0.14218 0.04894
# Poissons Ratio (y) = 0.28456 0.08613
# Poissons Ratio (z) = 0.29930 0.26321
#
# Static dielectric constant tensor:
#      x y z
#    x 1.903260 0.000000 0.000000 
#    y 0.000000 2.034880 0.000000 
#    z 0.000000 0.000000 1.870960 
# 
# From -- ./inp_files/23047.got.cif
#   From: 2010.05.17/outbox.cif.g08.bks.cpg/sg57_12_cif.got.tgz:23047.got - 2010.06.03 13:58:18.
