data_PCOD9438700
_publ_section_title
;
Structure prediction by ZEFSAII (Michael W. Deem and Ramdas Pophale) SiO2 
 PCOD9438700
Probable space group: P B C M
;
_chemical_formula_sum "Si O2"
_cell_formula_units_Z 56
_cell_length_a 16.830044
_cell_length_b 19.235283
_cell_length_c 8.886441
_cell_angle_alpha 90.000000
_cell_angle_beta 90.000000
_cell_angle_gamma 90.000000
_cell_volume 2876.813403
_symmetry_space_group_name_H-M "P B C M"
_symmetry_group_IT_number 57
_symmetry_cell_setting 'orthorhombic'
loop_
_space_group_symop_operation_xyz
x,y,z
-x,-y,1/2+z
x,1/2-y,-z
-x,1/2+y,1/2-z
-x,-y,-z
x,y,1/2-z
-x,1/2+y,z
x,1/2-y,1/2+z
loop_
_atom_site_type_symbol
_atom_site_label
_atom_site_fract_x
_atom_site_fract_y
_atom_site_fract_z
Si Si1 0.020003 0.676027 0.426326
Si Si2 0.327382 0.911870 0.928516
Si Si3 0.644059 0.826872 0.067967
Si Si4 0.758355 0.946172 0.428130
Si Si5 0.926506 0.539815 0.424672
Si Si6 0.506856 0.077149 0.930725
Si Si7 0.816740 0.172978 0.930098
O O1 0.001016 0.750000 0.500000
O O2 0.039690 0.685564 0.250000
O O3 0.097919 0.646683 0.510555
O O4 0.949663 0.621113 0.438134
O O5 0.330837 0.897974 0.750000
O O6 0.307095 0.993465 0.948643
O O7 0.409912 0.893878 0.007485
O O8 0.254900 0.871276 0.003644
O O9 0.645822 0.822302 0.250000
O O10 0.719764 0.873706 0.019441
O O11 0.565693 0.871859 0.027267
O O12 0.643367 0.750000 0.000000
O O13 0.773634 0.940911 0.250000
O O14 0.840066 0.968926 0.504511
O O15 0.923892 0.520332 0.250000
O O16 0.000000 0.500000 0.500000
O O17 0.507730 0.071301 0.750000
O O18 0.500000 0.000000 0.000000
O O19 0.815202 0.174632 0.750000
O O20 0.810475 0.250000 0.000000
#
# Coordination Sequence:
#
# PCOD9438700 Si02
#       7
#     8   8   8   8   8   8   8
#     4  10  21  38  58  82 114 154 197 245 301 360
#     4  11  22  39  62  89 122 158 199 249 305 361
#     4  10  23  43  64  92 126 163 205 252 307 363
#     4  10  22  41  62  86 121 161 199 249 307 362
#     4  11  24  39  59  89 121 156 203 252 303 362
#     4  11  22  40  64  91 123 160 206 252 305 367
#     4  11  22  37  58  87 119 156 200 247 302 364
#
# _framework density 19.465982
#
# number of rings (size 3 to 8) (size 9 to 14) (size 15 to 20)
#    0.000    1.429    1.429    4.714    0.000    9.714 
#    0.000    4.286    0.000    0.000    0.000    0.000 
#    0.000    0.000    0.000    0.000    0.000    0.000 
#
# Total GULP energy -312965.210784 kJ/mol
# GULP energy per Si atom -5588.664478 kJ/mol
# Density = 1.942168 g / cm^3
# Si number density = 19.465982 Si / 1000 Ang^3
#
#
#
# Elastic Constant Matrix: (Units=GPa)
#
#
# Indices 1 2 3 4 5 6 
#
# 1 105.0855 29.1672 45.6918 0.0000 0.0000 0.0000
# 2 29.1672 67.2658 38.8435 0.0000 0.0000 0.0000
# 3 45.6918 38.8435 90.7790 0.0000 0.0000 0.0000
# 4 0.0000 0.0000 0.0000 35.0157 0.0000 0.0000
# 5 0.0000 0.0000 0.0000 0.0000 30.6139 0.0000
# 6 0.0000 0.0000 0.0000 0.0000 0.0000 30.3998
#
#
#
# Elastic Compliance Matrix: (Units=1/GPa)
#
#
# Indices 1 2 3 4 5 6 
#
# 1 0.012459 -0.002366 -0.005259 0.000000 0.000000 0.000000
# 2 -0.002366 0.020194 -0.007450 0.000000 0.000000 0.000000
# 3 -0.005259 -0.007450 0.016851 0.000000 0.000000 0.000000
# 4 0.000000 0.000000 0.000000 0.028559 0.000000 0.000000
# 5 0.000000 0.000000 0.000000 0.000000 0.032665 0.000000
# 6 0.000000 0.000000 0.000000 0.000000 0.000000 0.032895
#
#
# Mechanical properties :
#
#
# Convention : Reuss Voigt Hill
#
# Bulk Modulus (GPa) = 51.66720 54.50392 53.08556
# Shear Modulus (GPa) = 27.74323 29.16772 28.45548
#
# Velocity S-wave (km/s) = 3.77930 3.87511 3.82750
# Velocity P-wave (km/s) = 6.75604 6.93414 6.84567
#
# Compressibility (1/GPa) = 0.01935464
#
# Stress axis : x y z
#
# Youngs Moduli (GPa) = 80.26161 49.51852 59.34492
#
# Poissons Ratio (x) = 0.11714 0.31209
# Poissons Ratio (y) = 0.18987 0.44214
# Poissons Ratio (z) = 0.42209 0.36893
#
# Static dielectric constant tensor:
#      x y z
#    x 1.674010 0.000000 0.000000 
#    y 0.000000 1.705050 0.000000 
#    z 0.000000 0.000000 1.652590 
# 
# From -- ./inp_files/5236.got.cif
#   From: 2010.05.17/outbox.cif.g08.bks.cpg/sg57_3_cif.got.tgz:5236.got - 2010.06.03 13:58:18.
