data_PCOD9438034
_publ_section_title
;
Structure prediction by ZEFSAII (Michael W. Deem and Ramdas Pophale) SiO2 
 PCOD9438034
Probable space group: P B C M
;
_chemical_formula_sum "Si O2"
_cell_formula_units_Z 64
_cell_length_a 15.713815
_cell_length_b 24.952165
_cell_length_c 8.620064
_cell_angle_alpha 90.000000
_cell_angle_beta 90.000000
_cell_angle_gamma 90.000000
_cell_volume 3379.872828
_symmetry_space_group_name_H-M "P B C M"
_symmetry_group_IT_number 57
_symmetry_cell_setting 'orthorhombic'
loop_
_space_group_symop_operation_xyz
x,y,z
-x,-y,1/2+z
x,1/2-y,-z
-x,1/2+y,1/2-z
-x,-y,-z
x,y,1/2-z
-x,1/2+y,z
x,1/2-y,1/2+z
loop_
_atom_site_type_symbol
_atom_site_label
_atom_site_fract_x
_atom_site_fract_y
_atom_site_fract_z
Si Si1 0.226234 0.615398 0.937405
Si Si2 0.071362 0.466737 0.075970
Si Si3 0.382250 0.809478 0.435955
Si Si4 0.277725 0.116135 0.065212
Si Si5 0.095295 0.155095 0.927587
Si Si6 0.427185 0.189544 0.937090
Si Si7 0.079090 0.807993 0.935104
Si Si8 0.747038 0.503751 0.562118
O O1 0.219812 0.612100 0.750000
O O2 0.303666 0.654256 0.984848
O O3 0.139259 0.643784 0.999282
O O4 0.254650 0.557145 0.002402
O O5 0.080704 0.486489 0.250000
O O6 0.055323 0.404323 0.078283
O O7 0.160489 0.478117 0.999204
O O8 0.000000 0.500000 0.000000
O O9 0.372375 0.750000 0.500000
O O10 0.380454 0.806936 0.250000
O O11 0.476943 0.829461 0.478875
O O12 0.268722 0.113209 0.250000
O O13 0.189564 0.142958 0.997197
O O14 0.354334 0.154363 0.013987
O O15 0.301732 0.056602 0.999206
O O16 0.104655 0.175047 0.750000
O O17 0.021030 0.186510 0.017059
O O18 0.418387 0.188982 0.750000
O O19 0.420112 0.250000 0.000000
O O20 0.085437 0.808635 0.750000
O O21 0.108891 0.750000 0.000000
O O22 0.739795 0.504051 0.750000
#
# Coordination Sequence:
#
# PCOD9438034 Si02
#       8
#     8   8   8   8   8   8   8   8
#     4  11  22  38  59  86 117 153 194 240 291 347
#     4   9  18  30  48  72 100 133 175 221 267 315
#     4   9  20  37  60  87 116 148 189 238 290 344
#     4  11  22  38  60  88 119 154 192 237 289 345
#     4  10  21  38  56  78 109 147 186 229 278 333
#     4  10  20  38  62  89 117 148 187 235 286 344
#     4  12  25  40  57  82 115 154 196 242 292 346
#     4  10  21  37  55  80 113 153 195 238 285 340
#
# _framework density 18.935624000000001
#
# number of rings (size 3 to 8) (size 9 to 14) (size 15 to 20)
#    0.000    1.750    0.000    5.625    0.000    8.000 
#    0.000    3.125    0.000    0.000    0.000    0.000 
#    0.000    0.000    0.000    0.000    0.000    0.000 
#
# Total GULP energy -356479.963676 kJ/mol
# GULP energy per Si atom -5569.999432 kJ/mol
# Density = 1.889253 g / cm^3
# Si number density = 18.935624 Si / 1000 Ang^3
#
#
#
# Elastic Constant Matrix: (Units=GPa)
#
#
# Indices 1 2 3 4 5 6 
#
# 1 93.9571 55.6170 37.2025 0.0000 0.0000 0.0000
# 2 55.6170 84.1710 37.1473 0.0000 0.0000 0.0000
# 3 37.2025 37.1473 99.1477 0.0000 0.0000 0.0000
# 4 0.0000 0.0000 0.0000 32.9774 0.0000 0.0000
# 5 0.0000 0.0000 0.0000 0.0000 19.1117 0.0000
# 6 0.0000 0.0000 0.0000 0.0000 0.0000 24.3965
#
#
#
# Elastic Compliance Matrix: (Units=1/GPa)
#
#
# Indices 1 2 3 4 5 6 
#
# 1 0.018092 -0.010734 -0.002767 0.000000 0.000000 0.000000
# 2 -0.010734 0.020602 -0.003691 0.000000 0.000000 0.000000
# 3 -0.002767 -0.003691 0.012507 0.000000 0.000000 0.000000
# 4 0.000000 0.000000 0.000000 0.030324 0.000000 0.000000
# 5 0.000000 0.000000 0.000000 0.000000 0.052324 0.000000
# 6 0.000000 0.000000 0.000000 0.000000 0.000000 0.040989
#
#
# Mechanical properties :
#
#
# Convention : Reuss Voigt Hill
#
# Bulk Modulus (GPa) = 59.46195 59.68995 59.57595
# Shear Modulus (GPa) = 23.27429 25.11772 24.19601
#
# Velocity S-wave (km/s) = 3.50969 3.64604 3.57852
# Velocity P-wave (km/s) = 6.92057 7.02252 6.97173
#
# Compressibility (1/GPa) = 0.01681748
#
# Stress axis : x y z
#
# Youngs Moduli (GPa) = 55.27156 48.53883 79.95306
#
# Poissons Ratio (x) = 0.52100 0.22125
# Poissons Ratio (y) = 0.59326 0.29514
# Poissons Ratio (z) = 0.15295 0.17918
#
# Static dielectric constant tensor:
#      x y z
#    x 1.617590 0.000000 0.000000 
#    y 0.000000 1.435110 0.000000 
#    z 0.000000 0.000000 1.659350 
# 
# From -- ./inp_files/5667.got.cif
#   From: 2010.05.17/outbox.cif.g08.bks.cpg/sg57_3_cif.got.tgz:5667.got - 2010.06.03 13:58:18.
