data_PCOD9438359
_publ_section_title
;
Structure prediction by ZEFSAII (Michael W. Deem and Ramdas Pophale) SiO2 
 PCOD9438359
Probable space group: P B C M
;
_chemical_formula_sum "Si O2"
_cell_formula_units_Z 56
_cell_length_a 8.445524
_cell_length_b 19.715444
_cell_length_c 15.892632
_cell_angle_alpha 90.000000
_cell_angle_beta 90.000000
_cell_angle_gamma 90.000000
_cell_volume 2646.238537
_symmetry_space_group_name_H-M "P B C M"
_symmetry_group_IT_number 57
_symmetry_cell_setting 'orthorhombic'
loop_
_space_group_symop_operation_xyz
x,y,z
-x,-y,1/2+z
x,1/2-y,-z
-x,1/2+y,1/2-z
-x,-y,-z
x,y,1/2-z
-x,1/2+y,z
x,1/2-y,1/2+z
loop_
_atom_site_type_symbol
_atom_site_label
_atom_site_fract_x
_atom_site_fract_y
_atom_site_fract_z
Si Si1 0.980066 0.144885 0.156216
Si Si2 0.427622 0.097572 0.475553
Si Si3 0.778240 0.973307 0.652900
Si Si4 0.749763 0.770177 0.592018
Si Si5 0.203972 0.631360 0.659546
Si Si6 0.257850 0.674538 0.489460
Si Si7 0.412818 0.365140 0.343692
O O1 0.917982 0.136330 0.250000
O O2 0.846388 0.166388 0.092253
O O3 0.075530 0.076276 0.131626
O O4 0.113539 0.202466 0.151190
O O5 0.361894 0.039704 0.414196
O O6 0.360640 0.165913 0.431419
O O7 0.612371 0.114933 0.483445
O O8 0.369472 0.091801 0.572603
O O9 0.729141 0.956922 0.750000
O O10 0.827422 0.051392 0.652985
O O11 0.815212 0.750000 0.500000
O O12 0.656583 0.708745 0.634523
O O13 0.143937 0.656869 0.750000
O O14 0.151922 0.665421 0.573353
O O15 0.395794 0.639606 0.659749
O O16 0.330750 0.750000 0.500000
O O17 0.361262 0.387951 0.250000
#
# Coordination Sequence:
#
# PCOD9438359 Si02
#       7
#     8   8   8   8   8   8   8
#     4  10  21  35  52  75 107 145 182 223 269 323
#     4   9  18  32  53  78 104 134 173 224 272 318
#     4   9  19  37  59  81 104 139 186 228 275 331
#     4   9  16  31  52  74 102 137 177 217 264 319
#     4   9  19  36  58  82 109 141 180 229 279 326
#     4  11  22  35  52  81 115 145 182 224 271 326
#     4   9  16  27  48  77 105 134 170 214 266 322
#
# _framework density 21.162113000000002
#
# number of rings (size 3 to 8) (size 9 to 14) (size 15 to 20)
#    0.000    2.571    0.000    3.000    0.000    4.571 
#    0.000    1.429    0.000    6.000    0.000    8.000 
#    0.000    0.000    0.000    0.000    0.000    0.000 
#
# Total GULP energy -312252.273031 kJ/mol
# GULP energy per Si atom -5575.933447 kJ/mol
# Density = 2.111395 g / cm^3
# Si number density = 21.162113 Si / 1000 Ang^3
#
#
#
# Elastic Constant Matrix: (Units=GPa)
#
#
# Indices 1 2 3 4 5 6 
#
# 1 23.6773 -1.6274 20.8374 0.0000 0.0000 0.0000
# 2 -1.6274 35.7636 -0.0331 0.0000 0.0000 0.0000
# 3 20.8374 -0.0331 102.8529 0.0000 0.0000 0.0000
# 4 0.0000 0.0000 0.0000 15.8054 0.0000 0.0000
# 5 0.0000 0.0000 0.0000 0.0000-3081.2447 0.0000
# 6 0.0000 0.0000 0.0000 0.0000 0.0000 7.8226
#
#
#
# Elastic Compliance Matrix: (Units=1/GPa)
#
#
# Indices 1 2 3 4 5 6 
#
# 1 0.051593 0.002338 -0.010452 0.000000 0.000000 0.000000
# 2 0.002338 0.028067 -0.000465 0.000000 0.000000 0.000000
# 3 -0.010452 -0.000465 0.011840 0.000000 0.000000 0.000000
# 4 0.000000 0.000000 0.000000 0.063269 0.000000 0.000000
# 5 0.000000 0.000000 0.000000 0.000000 -0.000325 0.000000
# 6 0.000000 0.000000 0.000000 0.000000 0.000000 0.127834
#
#
# Mechanical properties :
#
#
# Convention : Reuss Voigt Hill
#
# Bulk Modulus (GPa) = 13.45099 22.29420 17.87259
# Shear Modulus (GPa) = 15.42171 -601.98221 -293.28025
#
# Velocity S-wave (km/s) = 2.70245 -16.88431 -11.78509
# Velocity P-wave (km/s) = 4.01343 19.22365 13.29363
#
# Compressibility (1/GPa) = 0.07434399
#
# Stress axis : x y z
#
# Youngs Moduli (GPa) = 19.38229 35.62854 84.45986
#
# Poissons Ratio (x) = -0.08330 0.88276
# Poissons Ratio (y) = -0.04532 0.03924
# Poissons Ratio (z) = 0.20258 0.01655
#
# Static dielectric constant tensor:
#      x y z
#    x 1.754950 0.000000 0.000000 
#    y 0.000000 1.767970 0.000000 
#    z 0.000000 0.000000 1.835190 
# 
# From -- ./inp_files/16729.got.cif
#   From: 2010.05.17/outbox.cif.g08.bks.cpg/sg57_9_cif.got.tgz:16729.got - 2010.06.03 13:58:18.
