data_PCOD9438129
_publ_section_title
;
Structure prediction by ZEFSAII (Michael W. Deem and Ramdas Pophale) SiO2 
 PCOD9438129
Probable space group: P B C M
;
_chemical_formula_sum "Si O2"
_cell_formula_units_Z 56
_cell_length_a 10.273057
_cell_length_b 15.025568
_cell_length_c 14.667160
_cell_angle_alpha 90.000000
_cell_angle_beta 90.000000
_cell_angle_gamma 90.000000
_cell_volume 2264.001059
_symmetry_space_group_name_H-M "P B C M"
_symmetry_group_IT_number 57
_symmetry_cell_setting 'orthorhombic'
loop_
_space_group_symop_operation_xyz
x,y,z
-x,-y,1/2+z
x,1/2-y,-z
-x,1/2+y,1/2-z
-x,-y,-z
x,y,1/2-z
-x,1/2+y,z
x,1/2-y,1/2+z
loop_
_atom_site_type_symbol
_atom_site_label
_atom_site_fract_x
_atom_site_fract_y
_atom_site_fract_z
Si Si1 0.418038 0.841537 0.890345
Si Si2 0.335788 0.452415 0.888328
Si Si3 0.867531 0.383428 0.859037
Si Si4 0.991066 0.199822 0.860085
Si Si5 0.275958 0.160213 0.560028
Si Si6 0.451028 0.853344 0.108909
Si Si7 0.932379 0.015910 0.853683
O O1 0.551330 0.885926 0.855466
O O2 0.285503 0.892619 0.871309
O O3 0.395452 0.740514 0.856717
O O4 0.436064 0.845651 0.999356
O O5 0.389527 0.551634 0.869367
O O6 0.191453 0.452202 0.848893
O O7 0.301669 0.423146 0.992329
O O8 0.889041 0.382315 0.750000
O O9 0.928907 0.291335 0.895433
O O10 0.949544 0.464564 0.899941
O O11 0.996664 0.209853 0.750000
O O12 0.134592 0.174700 0.896728
O O13 0.903582 0.114693 0.888966
O O14 0.297978 0.250000 0.500000
O O15 0.395136 0.151244 0.630040
O O16 0.973772 0.033959 0.750000
#
# Coordination Sequence:
#
# PCOD9438129 Si02
#       7
#     8   8   8   8   8   8   8
#     4  10  20  39  60  85 120 156 198 246 311 363
#     4  11  22  38  63  91 120 161 203 256 308 360
#     4  10  22  40  61  86 120 160 203 250 301 366
#     4  10  23  42  62  87 130 169 201 253 312 366
#     4  11  20  39  63  92 125 158 206 256 305 365
#     4  10  21  38  60  85 124 157 190 256 316 354
#     4  10  23  42  60  87 127 163 203 255 308 364
#
# _framework density 24.734971999999999
#
# number of rings (size 3 to 8) (size 9 to 14) (size 15 to 20)
#    0.000    1.714    2.857    3.429    4.000    1.143 
#   10.286    1.429    0.000    0.000    0.000    0.000 
#    0.000    0.000    0.000    0.000    0.000    0.000 
#
# Total GULP energy -312729.803050 kJ/mol
# GULP energy per Si atom -5584.460769 kJ/mol
# Density = 2.467867 g / cm^3
# Si number density = 24.734972 Si / 1000 Ang^3
#
#
#
# Elastic Constant Matrix: (Units=GPa)
#
#
# Indices 1 2 3 4 5 6 
#
# 1 101.0855 22.2387 -5.2155 0.0000 0.0000 0.0000
# 2 22.2387 121.2551 9.1268 0.0000 0.0000 0.0000
# 3 -5.2155 9.1268 52.5767 0.0000 0.0000 0.0000
# 4 0.0000 0.0000 0.0000 2.3159 0.0000 0.0000
# 5 0.0000 0.0000 0.0000 0.0000 55.6073 0.0000
# 6 0.0000 0.0000 0.0000 0.0000 0.0000 39.7391
#
#
#
# Elastic Compliance Matrix: (Units=1/GPa)
#
#
# Indices 1 2 3 4 5 6 
#
# 1 0.010407 -0.002013 0.001382 0.000000 0.000000 0.000000
# 2 -0.002013 0.008745 -0.001718 0.000000 0.000000 0.000000
# 3 0.001382 -0.001718 0.019455 0.000000 0.000000 0.000000
# 4 0.000000 0.000000 0.000000 0.431795 0.000000 0.000000
# 5 0.000000 0.000000 0.000000 0.000000 0.017983 0.000000
# 6 0.000000 0.000000 0.000000 0.000000 0.000000 0.025164
#
#
# Mechanical properties :
#
#
# Convention : Reuss Voigt Hill
#
# Bulk Modulus (GPa) = 29.48998 36.35748 32.92373
# Shear Modulus (GPa) = 9.44197 36.11698 22.77947
#
# Velocity S-wave (km/s) = 1.95590 3.82535 3.03799
# Velocity P-wave (km/s) = 4.12904 5.85165 5.06413
#
# Compressibility (1/GPa) = 0.03390982
#
# Stress axis : x y z
#
# Youngs Moduli (GPa) = 96.09214 114.34461 51.40049
#
# Poissons Ratio (x) = 0.23013 -0.07102
# Poissons Ratio (y) = 0.19340 0.08829
# Poissons Ratio (z) = -0.13277 0.19642
#
# Static dielectric constant tensor:
#      x y z
#    x 1.955910 0.000000 0.000000 
#    y 0.000000 2.020520 0.000000 
#    z 0.000000 0.000000 1.895590 
# 
# From -- ./inp_files/24431.got.cif
#   From: 2010.05.17/outbox.cif.g08.bks.cpg/sg57_13_cif.got.tgz:24431.got - 2010.06.03 13:58:18.
