data_PCOD9438241
_publ_section_title
;
Structure prediction by ZEFSAII (Michael W. Deem and Ramdas Pophale) SiO2 
 PCOD9438241
Probable space group: P B C M
;
_chemical_formula_sum "Si O2"
_cell_formula_units_Z 36
_cell_length_a 17.911531
_cell_length_b 11.111560
_cell_length_c 8.734392
_cell_angle_alpha 90.000000
_cell_angle_beta 90.000000
_cell_angle_gamma 90.000000
_cell_volume 1738.362817
_symmetry_space_group_name_H-M "P B C M"
_symmetry_group_IT_number 57
_symmetry_cell_setting 'orthorhombic'
loop_
_space_group_symop_operation_xyz
x,y,z
-x,-y,1/2+z
x,1/2-y,-z
-x,1/2+y,1/2-z
-x,-y,-z
x,y,1/2-z
-x,1/2+y,z
x,1/2-y,1/2+z
loop_
_atom_site_type_symbol
_atom_site_label
_atom_site_fract_x
_atom_site_fract_y
_atom_site_fract_z
Si Si1 0.298044 0.929494 0.916127
Si Si2 0.081396 0.972390 0.564928
Si Si3 0.469936 0.876035 0.570821
Si Si4 0.208970 0.125545 0.071173
Si Si5 0.825563 0.250000 0.500000
O O1 0.299519 0.992296 0.750000
O O2 0.380028 0.880799 0.947081
O O3 0.235827 0.825184 0.904666
O O4 0.269991 0.021799 0.043206
O O5 0.080906 0.949317 0.750000
O O6 0.117009 0.859549 0.471087
O O7 0.136765 0.081873 0.524843
O O8 0.000000 0.000000 0.500000
O O9 0.497420 0.750000 0.500000
O O10 0.487432 0.875482 0.750000
O O11 0.500000 0.000000 0.500000
O O12 0.191288 0.136195 0.250000
O O13 0.235736 0.250000 0.000000
#
# Coordination Sequence:
#
# PCOD9438241 Si02
#       5
#     8   8   8   8   4
#     4  10  22  41  67  96 128 167 218 268 320 391
#     4  11  25  42  62  90 125 166 213 264 324 385
#     4  11  24  44  69 102 140 182 227 282 341 409
#     4  11  23  40  63  90 125 165 211 264 324 386
#     4  10  20  40  66  94 124 160 214 266 324 374
#
# _framework density 20.709140000000001
#
# number of rings (size 3 to 8) (size 9 to 14) (size 15 to 20)
#    0.000    1.333    1.111    5.333    1.556   11.556 
#    0.000    0.000    0.000    0.000    0.000    0.000 
#    0.000    0.000    0.000    0.000    0.000    0.000 
#
# Total GULP energy -200573.532931 kJ/mol
# GULP energy per Si atom -5571.487026 kJ/mol
# Density = 2.066201 g / cm^3
# Si number density = 20.709140 Si / 1000 Ang^3
#
#
#
# Elastic Constant Matrix: (Units=GPa)
#
#
# Indices 1 2 3 4 5 6 
#
# 1 62.9326 32.5556 38.3542 0.0000 0.0000 0.0000
# 2 32.5556 136.5707 74.2059 0.0000 0.0000 0.0000
# 3 38.3542 74.2059 97.6123 0.0000 0.0000 0.0000
# 4 0.0000 0.0000 0.0000 24.3225 0.0000 0.0000
# 5 0.0000 0.0000 0.0000 0.0000 18.5951 0.0000
# 6 0.0000 0.0000 0.0000 0.0000 0.0000 16.9561
#
#
#
# Elastic Compliance Matrix: (Units=1/GPa)
#
#
# Indices 1 2 3 4 5 6 
#
# 1 0.020956 -0.000888 -0.007559 0.000000 0.000000 0.000000
# 2 -0.000888 0.012513 -0.009163 0.000000 0.000000 0.000000
# 3 -0.007559 -0.009163 0.020181 0.000000 0.000000 0.000000
# 4 0.000000 0.000000 0.000000 0.041114 0.000000 0.000000
# 5 0.000000 0.000000 0.000000 0.000000 0.053778 0.000000
# 6 0.000000 0.000000 0.000000 0.000000 0.000000 0.058976
#
#
# Mechanical properties :
#
#
# Convention : Reuss Voigt Hill
#
# Bulk Modulus (GPa) = 54.26312 65.26075 59.76194
# Shear Modulus (GPa) = 20.08985 22.10806 21.09896
#
# Velocity S-wave (km/s) = 3.11802 3.27088 3.19536
# Velocity P-wave (km/s) = 6.26275 6.77099 6.52183
#
# Compressibility (1/GPa) = 0.01842872
#
# Stress axis : x y z
#
# Youngs Moduli (GPa) = 47.71824 79.91738 49.55226
#
# Poissons Ratio (x) = 0.07100 0.37456
# Poissons Ratio (y) = 0.04240 0.45406
# Poissons Ratio (z) = 0.36069 0.73231
#
# Static dielectric constant tensor:
#      x y z
#    x 1.727800 0.000000 0.000000 
#    y 0.000000 1.777250 0.000000 
#    z 0.000000 0.000000 1.498250 
# 
# From -- ./inp_files/6253.got.cif
#   From: 2010.05.17/outbox.cif.g08.bks.cpg/sg57_4_cif.got.tgz:6253.got - 2010.06.03 13:58:18.
