data_PCOD9438751
_publ_section_title
;
Structure prediction by ZEFSAII (Michael W. Deem and Ramdas Pophale) SiO2 
 PCOD9438751
Probable space group: P B C M
;
_chemical_formula_sum "Si O2"
_cell_formula_units_Z 40
_cell_length_a 26.307788
_cell_length_b 9.186148
_cell_length_c 8.624310
_cell_angle_alpha 90.000000
_cell_angle_beta 90.000000
_cell_angle_gamma 90.000000
_cell_volume 2084.213144
_symmetry_space_group_name_H-M "P B C M"
_symmetry_group_IT_number 57
_symmetry_cell_setting 'orthorhombic'
loop_
_space_group_symop_operation_xyz
x,y,z
-x,-y,1/2+z
x,1/2-y,-z
-x,1/2+y,1/2-z
-x,-y,-z
x,y,1/2-z
-x,1/2+y,z
x,1/2-y,1/2+z
loop_
_atom_site_type_symbol
_atom_site_label
_atom_site_fract_x
_atom_site_fract_y
_atom_site_fract_z
Si Si1 0.646042 0.086204 0.935666
Si Si2 0.257483 0.413372 0.436214
Si Si3 0.155010 0.913398 0.935580
Si Si4 0.047894 0.913523 0.065012
Si Si5 0.548761 0.585979 0.936009
O O1 0.642799 0.088144 0.750000
O O2 0.644645 0.250000 0.000000
O O3 0.697734 0.008348 0.989356
O O4 0.598992 0.995952 0.004748
O O5 0.259718 0.250000 0.500000
O O6 0.263580 0.412637 0.250000
O O7 0.203332 0.487320 0.473255
O O8 0.149677 0.904640 0.750000
O O9 0.163054 0.750000 0.000000
O O10 0.102375 0.971942 0.006577
O O11 0.047012 0.912156 0.250000
O O12 0.045027 0.750000 0.000000
O O13 0.000000 0.000000 0.000000
O O14 0.547795 0.587900 0.750000
O O15 0.548294 0.750000 0.000000
O O16 0.500000 0.500000 0.000000
#
# Coordination Sequence:
#
# PCOD9438751 Si02
#       5
#     8   8   8   8   8
#     4  12  25  43  66  93 125 163 206 252 303 361
#     4  11  24  41  62  90 123 160 201 249 302 358
#     4  10  21  38  60  86 117 154 199 246 299 358
#     4  11  22  38  60  86 118 155 198 245 298 356
#     4  12  25  44  67  95 129 166 208 254 306 361
#
# _framework density 19.191894999999999
#
# number of rings (size 3 to 8) (size 9 to 14) (size 15 to 20)
#    0.000    0.800    0.000    9.600    0.000    5.600 
#    0.000    2.000    0.000    0.000    0.000    0.000 
#    0.000    0.000    0.000    0.000    0.000    0.000 
#
# Total GULP energy -223909.941930 kJ/mol
# GULP energy per Si atom -5597.748548 kJ/mol
# Density = 1.914821 g / cm^3
# Si number density = 19.191895 Si / 1000 Ang^3
#
#
#
# Elastic Constant Matrix: (Units=GPa)
#
#
# Indices 1 2 3 4 5 6 
#
# 1 204.0715 109.3290 108.8883 0.0000 0.0000 0.0000
# 2 109.3290 159.0209 81.4948 0.0000 0.0000 0.0000
# 3 108.8883 81.4948 187.1571 0.0000 0.0000 0.0000
# 4 0.0000 0.0000 0.0000 38.8405 0.0000 0.0000
# 5 0.0000 0.0000 0.0000 0.0000 38.9807 0.0000
# 6 0.0000 0.0000 0.0000 0.0000 0.0000 42.0381
#
#
#
# Elastic Compliance Matrix: (Units=1/GPa)
#
#
# Indices 1 2 3 4 5 6 
#
# 1 0.009117 -0.004569 -0.003315 0.000000 0.000000 0.000000
# 2 -0.004569 0.010385 -0.001864 0.000000 0.000000 0.000000
# 3 -0.003315 -0.001864 0.008083 0.000000 0.000000 0.000000
# 4 0.000000 0.000000 0.000000 0.025746 0.000000 0.000000
# 5 0.000000 0.000000 0.000000 0.000000 0.025654 0.000000
# 6 0.000000 0.000000 0.000000 0.000000 0.000000 0.023788
#
#
# Mechanical properties :
#
#
# Convention : Reuss Voigt Hill
#
# Bulk Modulus (GPa) = 123.61009 127.74152 125.67580
# Shear Modulus (GPa) = 40.01153 40.67434 40.34294
#
# Velocity S-wave (km/s) = 4.57093 4.60863 4.58982
# Velocity P-wave (km/s) = 9.61276 9.74802 9.68063
#
# Compressibility (1/GPa) = 0.00808995
#
# Stress axis : x y z
#
# Youngs Moduli (GPa) = 109.68861 96.29329 123.71705
#
# Poissons Ratio (x) = 0.43999 0.41006
# Poissons Ratio (y) = 0.50119 0.23056
# Poissons Ratio (z) = 0.36356 0.17945
#
# Static dielectric constant tensor:
#      x y z
#    x 1.655260 0.000000 0.000000 
#    y 0.000000 1.626550 0.000000 
#    z 0.000000 0.000000 1.641210 
# 
# From -- ./inp_files/8903.got.cif
#   From: 2010.05.17/outbox.cif.g08.bks.cpg/sg57_5_cif.got.tgz:8903.got - 2010.06.03 13:58:18.
