data_PCOD9438990
_publ_section_title
;
Structure prediction by ZEFSAII (Michael W. Deem and Ramdas Pophale) SiO2 
 PCOD9438990
Probable space group: P B C M
;
_chemical_formula_sum "Si O2"
_cell_formula_units_Z 48
_cell_length_a 19.362267
_cell_length_b 15.330191
_cell_length_c 8.696343
_cell_angle_alpha 90.000000
_cell_angle_beta 90.000000
_cell_angle_gamma 90.000000
_cell_volume 2581.311589
_symmetry_space_group_name_H-M "P B C M"
_symmetry_group_IT_number 57
_symmetry_cell_setting 'orthorhombic'
loop_
_space_group_symop_operation_xyz
x,y,z
-x,-y,1/2+z
x,1/2-y,-z
-x,1/2+y,1/2-z
-x,-y,-z
x,y,1/2-z
-x,1/2+y,z
x,1/2-y,1/2+z
loop_
_atom_site_type_symbol
_atom_site_label
_atom_site_fract_x
_atom_site_fract_y
_atom_site_fract_z
Si Si1 0.642190 0.660426 0.066572
Si Si2 0.995980 0.150521 0.434789
Si Si3 0.254434 0.496147 0.935483
Si Si4 0.898347 0.989354 0.066136
Si Si5 0.501415 0.402566 0.434797
Si Si6 0.652613 0.341449 0.434897
O O1 0.635358 0.663937 0.250000
O O2 0.694305 0.583056 0.026803
O O3 0.670300 0.750000 0.000000
O O4 0.566652 0.644411 0.996103
O O5 0.992103 0.250000 0.500000
O O6 0.997693 0.157363 0.250000
O O7 0.933808 0.082692 0.478208
O O8 0.061577 0.093237 0.492120
O O9 0.245413 0.497470 0.750000
O O10 0.295807 0.582469 0.983226
O O11 0.180579 0.488943 0.013658
O O12 0.904426 0.981907 0.250000
O O13 0.500000 0.500000 0.500000
O O14 0.500225 0.404369 0.250000
O O15 0.573856 0.360293 0.485596
O O16 0.675950 0.250000 0.500000
O O17 0.651809 0.339937 0.250000
#
# Coordination Sequence:
#
# PCOD9438990 Si02
#       6
#     8   8   8   8   8   8
#     4  11  23  40  59  84 115 152 199 247 299 356
#     4  10  21  39  64  92 122 156 193 236 284 339
#     4  10  22  41  59  80 120 160 193 239 294 349
#     4  10  22  39  61  91 122 154 196 238 286 344
#     4  11  21  37  60  84 113 151 196 248 302 354
#     4  10  22  39  57  82 113 151 195 241 294 349
#
# _framework density 18.595198
#
# number of rings (size 3 to 8) (size 9 to 14) (size 15 to 20)
#    0.000    1.667    1.667    2.500    0.000    8.000 
#    0.000    5.000    0.000    0.000    0.000    0.000 
#    0.000    0.000    0.000    0.000    0.000    0.000 
#
# Total GULP energy -268038.159182 kJ/mol
# GULP energy per Si atom -5584.128316 kJ/mol
# Density = 1.855287 g / cm^3
# Si number density = 18.595198 Si / 1000 Ang^3
#
#
#
# Elastic Constant Matrix: (Units=GPa)
#
#
# Indices 1 2 3 4 5 6 
#
# 1 95.4944 30.9587 30.8048 0.0000 0.0000 0.0000
# 2 30.9587 146.6681 37.8243 0.0000 0.0000 0.0000
# 3 30.8048 37.8243 39.3733 0.0000 0.0000 0.0000
# 4 0.0000 0.0000 0.0000 35.5579 0.0000 0.0000
# 5 0.0000 0.0000 0.0000 0.0000 12.0931 0.0000
# 6 0.0000 0.0000 0.0000 0.0000 0.0000 -20.7548
#
#
#
# Elastic Compliance Matrix: (Units=1/GPa)
#
#
# Indices 1 2 3 4 5 6 
#
# 1 0.014010 -0.000173 -0.010795 0.000000 0.000000 0.000000
# 2 -0.000173 0.009066 -0.008573 0.000000 0.000000 0.000000
# 3 -0.010795 -0.008573 0.042080 0.000000 0.000000 0.000000
# 4 0.000000 0.000000 0.000000 0.028123 0.000000 0.000000
# 5 0.000000 0.000000 0.000000 0.000000 0.082692 0.000000
# 6 0.000000 0.000000 0.000000 0.000000 0.000000 -0.048182
#
#
# Mechanical properties :
#
#
# Convention : Reuss Voigt Hill
#
# Bulk Modulus (GPa) = 38.35457 53.41239 45.88348
# Shear Modulus (GPa) = 28.47985 17.50910 22.99448
#
# Velocity S-wave (km/s) = 3.91777 3.07187 3.52032
# Velocity P-wave (km/s) = 6.41374 6.43179 6.42277
#
# Compressibility (1/GPa) = 0.02607251
#
# Stress axis : x y z
#
# Youngs Moduli (GPa) = 71.37644 110.30568 23.76449
#
# Poissons Ratio (x) = 0.01913 0.25653
# Poissons Ratio (y) = 0.01238 0.20374
# Poissons Ratio (z) = 0.77049 0.94569
#
# Static dielectric constant tensor:
#      x y z
#    x 1.674990 0.000000 0.000000 
#    y 0.000000 1.630520 0.000000 
#    z 0.000000 0.000000 1.629490 
# 
# From -- ./inp_files/6467.got.cif
#   From: 2010.05.17/outbox.cif.g08.bks.cpg/sg57_4_cif.got.tgz:6467.got - 2010.06.03 13:58:18.
