data_PCOD9438123
_publ_section_title
;
Structure prediction by ZEFSAII (Michael W. Deem and Ramdas Pophale) SiO2 
 PCOD9438123
Probable space group: P B C M
;
_chemical_formula_sum "Si O2"
_cell_formula_units_Z 44
_cell_length_a 9.122279
_cell_length_b 16.282739
_cell_length_c 14.663868
_cell_angle_alpha 90.000000
_cell_angle_beta 90.000000
_cell_angle_gamma 90.000000
_cell_volume 2178.107723
_symmetry_space_group_name_H-M "P B C M"
_symmetry_group_IT_number 57
_symmetry_cell_setting 'orthorhombic'
loop_
_space_group_symop_operation_xyz
x,y,z
-x,-y,1/2+z
x,1/2-y,-z
-x,1/2+y,1/2-z
-x,-y,-z
x,y,1/2-z
-x,1/2+y,z
x,1/2-y,1/2+z
loop_
_atom_site_type_symbol
_atom_site_label
_atom_site_fract_x
_atom_site_fract_y
_atom_site_fract_z
Si Si1 0.916628 0.853830 0.250000
Si Si2 0.526923 0.221675 0.898328
Si Si3 0.952309 0.874509 0.750000
Si Si4 0.473090 0.024585 0.604302
Si Si5 0.207314 0.239296 0.391671
Si Si6 0.772951 0.477312 0.750000
Si Si7 0.296016 0.996414 0.250000
Si Si8 0.245344 0.698488 0.750000
O O1 0.836266 0.822395 0.159646
O O2 0.892944 0.950006 0.250000
O O3 0.071061 0.805563 0.250000
O O4 0.483483 0.124616 0.892016
O O5 0.380388 0.271709 0.871054
O O6 0.668402 0.234570 0.836044
O O7 0.561031 0.250000 0.000000
O O8 0.894223 0.826757 0.840397
O O9 0.852487 0.955173 0.750000
O O10 0.125110 0.895962 0.750000
O O11 0.330856 0.991716 0.660668
O O12 0.607465 0.986669 0.661227
O O13 0.500000 0.000000 0.500000
O O14 0.189635 0.250000 0.500000
O O15 0.275552 0.899010 0.250000
#
# Coordination Sequence:
#
# PCOD9438123 Si02
#       8
#     4   8   4   8   8   4   4   4
#     4  11  20  40  65  87 132 171 204 262 332 384
#     4  10  21  40  66  91 121 170 219 256 316 384
#     4  11  23  41  65 101 124 164 224 259 322 397
#     4  10  22  42  65  92 126 165 217 266 318 378
#     4  10  23  42  65  88 126 172 216 253 314 404
#     4  11  22  44  66  93 132 170 208 271 334 369
#     4   9  21  36  62  92 126 157 209 271 307 375
#     4  10  20  39  58  91 128 162 201 273 323 359
#
# _framework density 20.201021000000001
#
# number of rings (size 3 to 8) (size 9 to 14) (size 15 to 20)
#    0.000    1.818    2.727    1.636    5.091    0.727 
#   13.091    1.818    0.000    0.000    0.000    0.000 
#    0.000    0.000    0.000    0.000    0.000    0.000 
#
# Total GULP energy -245210.579503 kJ/mol
# GULP energy per Si atom -5572.967716 kJ/mol
# Density = 2.015504 g / cm^3
# Si number density = 20.201021 Si / 1000 Ang^3
#
#
#
# Elastic Constant Matrix: (Units=GPa)
#
#
# Indices 1 2 3 4 5 6 
#
# 1 138.2655 25.5682 70.5453 0.0000 0.0000 0.0000
# 2 25.5682 45.3301 21.3474 0.0000 0.0000 0.0000
# 3 70.5453 21.3474 150.6846 0.0000 0.0000 0.0000
# 4 0.0000 0.0000 0.0000 19.1584 0.0000 0.0000
# 5 0.0000 0.0000 0.0000 0.0000 17.7828 0.0000
# 6 0.0000 0.0000 0.0000 0.0000 0.0000 34.1336
#
#
#
# Elastic Compliance Matrix: (Units=1/GPa)
#
#
# Indices 1 2 3 4 5 6 
#
# 1 0.010050 -0.003700 -0.004181 0.000000 0.000000 0.000000
# 2 -0.003700 0.024999 -0.001810 0.000000 0.000000 0.000000
# 3 -0.004181 -0.001810 0.008850 0.000000 0.000000 0.000000
# 4 0.000000 0.000000 0.000000 0.052197 0.000000 0.000000
# 5 0.000000 0.000000 0.000000 0.000000 0.056234 0.000000
# 6 0.000000 0.000000 0.000000 0.000000 0.000000 0.029297
#
#
# Mechanical properties :
#
#
# Convention : Reuss Voigt Hill
#
# Bulk Modulus (GPa) = 40.78460 63.24465 52.01463
# Shear Modulus (GPa) = 23.90290 28.66957 26.28623
#
# Velocity S-wave (km/s) = 3.44358 3.77133 3.61117
# Velocity P-wave (km/s) = 6.00368 7.09504 6.57205
#
# Compressibility (1/GPa) = 0.02451906
#
# Stress axis : x y z
#
# Youngs Moduli (GPa) = 99.50534 40.00106 112.99371
#
# Poissons Ratio (x) = 0.14799 0.47240
# Poissons Ratio (y) = 0.36813 0.20447
# Poissons Ratio (z) = 0.41601 0.07239
#
# Static dielectric constant tensor:
#      x y z
#    x 1.745530 0.000000 0.000000 
#    y 0.000000 1.770670 0.000000 
#    z 0.000000 0.000000 1.681490 
# 
# From -- ./inp_files/16273.got.cif
#   From: 2010.05.17/outbox.cif.g08.bks.cpg/sg57_9_cif.got.tgz:16273.got - 2010.06.03 13:58:18.
