data_PCOD9438338
_publ_section_title
;
Structure prediction by ZEFSAII (Michael W. Deem and Ramdas Pophale) SiO2 
 PCOD9438338
Probable space group: P B C M
;
_chemical_formula_sum "Si O2"
_cell_formula_units_Z 56
_cell_length_a 13.171973
_cell_length_b 8.356129
_cell_length_c 22.252746
_cell_angle_alpha 90.000000
_cell_angle_beta 90.000000
_cell_angle_gamma 90.000000
_cell_volume 2449.286442
_symmetry_space_group_name_H-M "P B C M"
_symmetry_group_IT_number 57
_symmetry_cell_setting 'orthorhombic'
loop_
_space_group_symop_operation_xyz
x,y,z
-x,-y,1/2+z
x,1/2-y,-z
-x,1/2+y,1/2-z
-x,-y,-z
x,y,1/2-z
-x,1/2+y,z
x,1/2-y,1/2+z
loop_
_atom_site_type_symbol
_atom_site_label
_atom_site_fract_x
_atom_site_fract_y
_atom_site_fract_z
Si Si1 0.300156 0.629419 0.455041
Si Si2 0.951487 0.485678 0.678642
Si Si3 0.774445 0.651796 0.874724
Si Si4 0.154381 0.638786 0.820826
Si Si5 0.341594 0.289770 0.250000
Si Si6 0.627403 0.635638 0.047217
Si Si7 0.462066 0.950076 0.250000
Si Si8 0.622265 0.372894 0.128268
O O1 0.239076 0.750000 0.500000
O O2 0.253629 0.521743 0.402572
O O3 0.339310 0.504107 0.503008
O O4 0.384055 0.733606 0.420281
O O5 0.940843 0.523272 0.750000
O O6 0.891756 0.620418 0.640759
O O7 0.901349 0.310606 0.670536
O O8 0.070664 0.503763 0.665214
O O9 0.722907 0.695457 0.811015
O O10 0.724081 0.772252 0.923147
O O11 0.181641 0.627427 0.750000
O O12 0.256606 0.616811 0.858584
O O13 0.416831 0.442677 0.250000
O O14 0.403105 0.120207 0.250000
O O15 0.578987 0.538748 0.101867
O O16 0.571871 0.750000 0.000000
O O17 0.430371 0.850697 0.308707
#
# Coordination Sequence:
#
# PCOD9438338 Si02
#       8
#     8   8   8   8   4   8   4   8
#     4   9  20  37  65  94 114 169 222 254 299 361
#     4  10  21  34  55  91 128 166 207 249 308 373
#     4  11  20  40  67  89 131 167 201 259 316 369
#     4  10  21  34  55  91 128 164 206 251 305 377
#     4  12  28  42  65 102 131 160 197 246 326 394
#     4   9  20  37  63  92 116 167 222 254 296 360
#     4  12  28  42  65 102 131 160 195 248 328 390
#     4  11  20  40  67  89 129 165 203 256 318 368
#
# _framework density 22.863803000000001
#
# number of rings (size 3 to 8) (size 9 to 14) (size 15 to 20)
#    0.000    1.714    4.286    0.000    4.000    0.000 
#    0.000    0.000    0.000   34.286    0.000    0.000 
#    0.000    0.000    0.000    0.000    0.000    0.000 
#
# Total GULP energy -312254.894233 kJ/mol
# GULP energy per Si atom -5575.980254 kJ/mol
# Density = 2.281176 g / cm^3
# Si number density = 22.863803 Si / 1000 Ang^3
#
#
#
# Elastic Constant Matrix: (Units=GPa)
#
#
# Indices 1 2 3 4 5 6 
#
# 1 78.6642 22.7933 29.0042 0.0000 0.0000 0.0000
# 2 22.7933 96.1594 45.3821 0.0000 0.0000 0.0000
# 3 29.0042 45.3821 124.7719 0.0000 0.0000 0.0000
# 4 0.0000 0.0000 0.0000 40.4431 0.0000 0.0000
# 5 0.0000 0.0000 0.0000 0.0000 562.3907 0.0000
# 6 0.0000 0.0000 0.0000 0.0000 0.0000 8.8104
#
#
#
# Elastic Compliance Matrix: (Units=1/GPa)
#
#
# Indices 1 2 3 4 5 6 
#
# 1 0.014278 -0.002195 -0.002521 0.000000 0.000000 0.000000
# 2 -0.002195 0.012892 -0.004179 0.000000 0.000000 0.000000
# 3 -0.002521 -0.004179 0.010121 0.000000 0.000000 0.000000
# 4 0.000000 0.000000 0.000000 0.024726 0.000000 0.000000
# 5 0.000000 0.000000 0.000000 0.000000 0.001778 0.000000
# 6 0.000000 0.000000 0.000000 0.000000 0.000000 0.113502
#
#
# Mechanical properties :
#
#
# Convention : Reuss Voigt Hill
#
# Bulk Modulus (GPa) = 51.27816 54.88387 53.08101
# Shear Modulus (GPa) = 24.80344 135.82321 80.31332
#
# Velocity S-wave (km/s) = 3.29726 7.71585 5.93322
# Velocity P-wave (km/s) = 6.08048 10.17034 8.37879
#
# Compressibility (1/GPa) = 0.01950148
#
# Stress axis : x y z
#
# Youngs Moduli (GPa) = 70.03981 77.56856 98.80918
#
# Poissons Ratio (x) = 0.17024 0.24907
# Poissons Ratio (y) = 0.15372 0.41291
# Poissons Ratio (z) = 0.17655 0.32415
#
# Static dielectric constant tensor:
#      x y z
#    x 1.847190 0.000000 0.000000 
#    y 0.000000 1.942880 0.000000 
#    z 0.000000 0.000000 1.885350 
# 
# From -- ./inp_files/25448.got.cif
#   From: 2010.05.17/outbox.cif.g08.bks.cpg/sg57_13_cif.got.tgz:25448.got - 2010.06.03 13:58:18.
