data_PCOD9438927
_publ_section_title
;
Structure prediction by ZEFSAII (Michael W. Deem and Ramdas Pophale) SiO2 
 PCOD9438927
Probable space group: P B C M
;
_chemical_formula_sum "Si O2"
_cell_formula_units_Z 48
_cell_length_a 30.126355
_cell_length_b 8.925144
_cell_length_c 9.114195
_cell_angle_alpha 90.000000
_cell_angle_beta 90.000000
_cell_angle_gamma 90.000000
_cell_volume 2450.643496
_symmetry_space_group_name_H-M "P B C M"
_symmetry_group_IT_number 57
_symmetry_cell_setting 'orthorhombic'
loop_
_space_group_symop_operation_xyz
x,y,z
-x,-y,1/2+z
x,1/2-y,-z
-x,1/2+y,1/2-z
-x,-y,-z
x,y,1/2-z
-x,1/2+y,z
x,1/2-y,1/2+z
loop_
_atom_site_type_symbol
_atom_site_label
_atom_site_fract_x
_atom_site_fract_y
_atom_site_fract_z
Si Si1 0.126265 0.082766 0.429795
Si Si2 0.957834 0.085040 0.430355
Si Si3 0.697895 0.404149 0.584114
Si Si4 0.561245 0.916087 0.750000
Si Si5 0.401616 0.569201 0.478181
Si Si6 0.784004 0.913169 0.071414
Si Si7 0.532721 0.932176 0.250000
O O1 0.123497 0.250000 0.500000
O O2 0.125075 0.086013 0.250000
O O3 0.172725 0.016985 0.492621
O O4 0.085804 0.993520 0.502480
O O5 0.959106 0.250000 0.500000
O O6 0.958331 0.084489 0.250000
O O7 0.000000 0.000000 0.500000
O O8 0.697033 0.250000 0.500000
O O9 0.709059 0.368155 0.750000
O O10 0.647599 0.464719 0.580430
O O11 0.737714 0.508067 0.532037
O O12 0.543798 0.745198 0.750000
O O13 0.591771 0.964220 0.616638
O O14 0.518861 0.027980 0.750000
O O15 0.404595 0.750000 0.500000
O O16 0.442896 0.515301 0.382460
O O17 0.789352 0.907181 0.250000
O O18 0.781327 0.750000 0.000000
#
# Coordination Sequence:
#
# PCOD9438927 Si02
#       7
#     8   8   8   4   8   8   4
#     4  11  22  40  64  93 128 172 217 266 323 381
#     4  12  25  43  65  94 129 170 217 270 325 387
#     4  10  23  41  64  90 122 160 203 252 307 371
#     4  12  26  40  66  94 120 170 196 262 305 372
#     4  11  23  43  64  91 124 164 206 255 310 374
#     4  10  21  39  61  92 126 164 209 260 313 372
#     4  12  24  44  64  92 130 154 214 246 313 370
#
# _framework density 19.586694000000001
#
# number of rings (size 3 to 8) (size 9 to 14) (size 15 to 20)
#    0.000    1.000    0.833    7.500    3.500    3.333 
#    0.000    1.667    0.000    0.000    0.000    0.000 
#    0.000    0.000    0.000    0.000    0.000    0.000 
#
# Total GULP energy -267679.276422 kJ/mol
# GULP energy per Si atom -5576.651592 kJ/mol
# Density = 1.954211 g / cm^3
# Si number density = 19.586694 Si / 1000 Ang^3
#
#
#
# Elastic Constant Matrix: (Units=GPa)
#
#
# Indices 1 2 3 4 5 6 
#
# 1 116.0464 43.0229 29.8127 0.0000 0.0000 0.0000
# 2 43.0229 96.0886 24.6268 0.0000 0.0000 0.0000
# 3 29.8127 24.6268 127.9894 0.0000 0.0000 0.0000
# 4 0.0000 0.0000 0.0000 29.8257 0.0000 0.0000
# 5 0.0000 0.0000 0.0000 0.0000 39.8549 0.0000
# 6 0.0000 0.0000 0.0000 0.0000 0.0000 37.6964
#
#
#
# Elastic Compliance Matrix: (Units=1/GPa)
#
#
# Indices 1 2 3 4 5 6 
#
# 1 0.010652 -0.004348 -0.001645 0.000000 0.000000 0.000000
# 2 -0.004348 0.012721 -0.001435 0.000000 0.000000 0.000000
# 3 -0.001645 -0.001435 0.008472 0.000000 0.000000 0.000000
# 4 0.000000 0.000000 0.000000 0.033528 0.000000 0.000000
# 5 0.000000 0.000000 0.000000 0.000000 0.025091 0.000000
# 6 0.000000 0.000000 0.000000 0.000000 0.000000 0.026528
#
#
# Mechanical properties :
#
#
# Convention : Reuss Voigt Hill
#
# Bulk Modulus (GPa) = 58.85519 59.44989 59.15254
# Shear Modulus (GPa) = 36.36086 37.65286 37.00686
#
# Velocity S-wave (km/s) = 4.31328 4.38924 4.35142
# Velocity P-wave (km/s) = 7.41078 7.49035 7.45067
#
# Compressibility (1/GPa) = 0.01699086
#
# Stress axis : x y z
#
# Youngs Moduli (GPa) = 93.88274 78.60712 118.03119
#
# Poissons Ratio (x) = 0.34176 0.19411
# Poissons Ratio (y) = 0.40817 0.16938
# Poissons Ratio (z) = 0.15439 0.11281
#
# Static dielectric constant tensor:
#      x y z
#    x 1.702960 0.000000 0.000000 
#    y 0.000000 2.034970 0.000000 
#    z 0.000000 0.000000 1.498680 
# 
# From -- ./inp_files/10118.got.cif
#   From: 2010.05.17/outbox.cif.g08.bks.cpg/sg57_6_cif.got.tgz:10118.got - 2010.06.03 13:58:18.
