data_PCOD9438130
_publ_section_title
;
Structure prediction by ZEFSAII (Michael W. Deem and Ramdas Pophale) SiO2 
 PCOD9438130
Probable space group: P B C M
;
_chemical_formula_sum "Si O2"
_cell_formula_units_Z 40
_cell_length_a 8.857016
_cell_length_b 12.847580
_cell_length_c 18.951117
_cell_angle_alpha 90.000000
_cell_angle_beta 90.000000
_cell_angle_gamma 90.000000
_cell_volume 2156.470755
_symmetry_space_group_name_H-M "P B C M"
_symmetry_group_IT_number 57
_symmetry_cell_setting 'orthorhombic'
loop_
_space_group_symop_operation_xyz
x,y,z
-x,-y,1/2+z
x,1/2-y,-z
-x,1/2+y,1/2-z
-x,-y,-z
x,y,1/2-z
-x,1/2+y,z
x,1/2-y,1/2+z
loop_
_atom_site_type_symbol
_atom_site_label
_atom_site_fract_x
_atom_site_fract_y
_atom_site_fract_z
Si Si1 0.561616 0.952171 0.427338
Si Si2 0.851792 0.866079 0.489003
Si Si3 0.243869 0.610228 0.332780
Si Si4 0.055925 0.497979 0.885530
Si Si5 0.304183 0.647678 0.831036
O O1 0.691920 0.871596 0.450044
O O2 0.431959 0.895840 0.382986
O O3 0.500000 0.000000 0.500000
O O4 0.643730 0.041894 0.381051
O O5 0.904955 0.750000 0.500000
O O6 0.845115 0.923290 0.564405
O O7 0.968475 0.926655 0.439639
O O8 0.278772 0.595025 0.250000
O O9 0.259089 0.733215 0.348746
O O10 0.074122 0.568692 0.347376
O O11 0.161702 0.570211 0.838327
O O12 0.357835 0.646748 0.750000
#
# Coordination Sequence:
#
# PCOD9438130 Si02
#       5
#     8   8   8   8   8
#     4  11  23  39  58  87 122 158 198 250 294 353
#     4  10  21  36  57  88 118 152 198 246 302 352
#     4  10  23  41  61  89 124 160 201 250 301 357
#     4  10  20  39  60  87 122 156 198 250 298 356
#     4  11  23  39  63  90 120 163 203 244 304 359
#
# _framework density 18.548826999999999
#
# number of rings (size 3 to 8) (size 9 to 14) (size 15 to 20)
#    0.000    1.600    2.000    2.400    2.800    0.000 
#    0.000    0.000    0.000    9.600    0.000    0.000 
#    0.000    0.000    0.000    0.000    0.000    0.000 
#
# Total GULP energy -223312.314108 kJ/mol
# GULP energy per Si atom -5582.807853 kJ/mol
# Density = 1.850661 g / cm^3
# Si number density = 18.548827 Si / 1000 Ang^3
#
#
#
# Elastic Constant Matrix: (Units=GPa)
#
#
# Indices 1 2 3 4 5 6 
#
# 1 96.1587 43.7884 43.8858 0.0000 0.0000 0.0000
# 2 43.7884 112.6421 51.5463 0.0000 0.0000 0.0000
# 3 43.8858 51.5463 106.8813 0.0000 0.0000 0.0000
# 4 0.0000 0.0000 0.0000 27.2544 0.0000 0.0000
# 5 0.0000 0.0000 0.0000 0.0000 27.1745 0.0000
# 6 0.0000 0.0000 0.0000 0.0000 0.0000 10.5381
#
#
#
# Elastic Compliance Matrix: (Units=1/GPa)
#
#
# Indices 1 2 3 4 5 6 
#
# 1 0.013830 -0.003564 -0.003960 0.000000 0.000000 0.000000
# 2 -0.003564 0.012310 -0.004474 0.000000 0.000000 0.000000
# 3 -0.003960 -0.004474 0.013139 0.000000 0.000000 0.000000
# 4 0.000000 0.000000 0.000000 0.036691 0.000000 0.000000
# 5 0.000000 0.000000 0.000000 0.000000 0.036799 0.000000
# 6 0.000000 0.000000 0.000000 0.000000 0.000000 0.094894
#
#
# Mechanical properties :
#
#
# Convention : Reuss Voigt Hill
#
# Bulk Modulus (GPa) = 65.42408 66.01367 65.71887
# Shear Modulus (GPa) = 21.11901 24.75750 22.93826
#
# Velocity S-wave (km/s) = 3.37792 3.65735 3.52041
# Velocity P-wave (km/s) = 7.11067 7.31446 7.21328
#
# Compressibility (1/GPa) = 0.01528489
#
# Stress axis : x y z
#
# Youngs Moduli (GPa) = 72.30851 81.23246 76.10663
#
# Poissons Ratio (x) = 0.28953 0.30135
# Poissons Ratio (y) = 0.25772 0.34046
# Poissons Ratio (z) = 0.28631 0.36340
#
# Static dielectric constant tensor:
#      x y z
#    x 1.639440 0.000000 0.000000 
#    y 0.000000 1.623300 0.000000 
#    z 0.000000 0.000000 1.635110 
# 
# From -- ./inp_files/20518.got.cif
#   From: 2010.05.17/outbox.cif.g08.bks.cpg/sg57_11_cif.got.tgz:20518.got - 2010.06.03 13:58:18.
