data_PCOD9438152
_publ_section_title
;
Structure prediction by ZEFSAII (Michael W. Deem and Ramdas Pophale) SiO2 
 PCOD9438152
Probable space group: P B C M
;
_chemical_formula_sum "Si O2"
_cell_formula_units_Z 44
_cell_length_a 14.802840
_cell_length_b 16.728419
_cell_length_c 9.467612
_cell_angle_alpha 90.000000
_cell_angle_beta 90.000000
_cell_angle_gamma 90.000000
_cell_volume 2344.446865
_symmetry_space_group_name_H-M "P B C M"
_symmetry_group_IT_number 57
_symmetry_cell_setting 'orthorhombic'
loop_
_space_group_symop_operation_xyz
x,y,z
-x,-y,1/2+z
x,1/2-y,-z
-x,1/2+y,1/2-z
-x,-y,-z
x,y,1/2-z
-x,1/2+y,z
x,1/2-y,1/2+z
loop_
_atom_site_type_symbol
_atom_site_label
_atom_site_fract_x
_atom_site_fract_y
_atom_site_fract_z
Si Si1 0.823810 0.445125 0.921275
Si Si2 0.624931 0.051700 0.082157
Si Si3 0.957480 0.329708 0.421828
Si Si4 0.158069 0.372369 0.085592
Si Si5 0.568971 0.896018 0.588181
Si Si6 0.688300 0.750000 0.500000
O O1 0.839868 0.438263 0.750000
O O2 0.722924 0.413471 0.953383
O O3 0.821761 0.538465 0.965968
O O4 0.898821 0.401072 0.012914
O O5 0.627093 0.036689 0.250000
O O6 0.537714 0.106347 0.050801
O O7 0.609629 0.966308 0.007762
O O8 0.924300 0.250000 0.500000
O O9 0.951459 0.324937 0.250000
O O10 0.062022 0.341522 0.469833
O O11 0.141805 0.382826 0.250000
O O12 0.240714 0.311054 0.071843
O O13 0.575465 0.923225 0.750000
O O14 0.621560 0.812468 0.576417
#
# Coordination Sequence:
#
# PCOD9438152 Si02
#       6
#     8   8   8   8   8   4
#     4  10  20  39  63  85 118 162 200 240 299 357
#     4   9  19  38  60  82 118 157 192 237 293 351
#     4  11  23  40  60  87 120 153 199 249 296 355
#     4  10  21  37  58  86 118 157 196 241 301 355
#     4  10  21  35  58  90 117 149 195 241 290 348
#     4  12  20  36  58  88 124 154 194 248 298 348
#
# _framework density 18.767752000000002
#
# number of rings (size 3 to 8) (size 9 to 14) (size 15 to 20)
#    0.000    1.818    2.727    1.636    0.000    1.455 
#    1.636    0.909    0.000    0.000    0.000    0.000 
#    0.000    0.000    0.000    0.000    0.000    0.000 
#
# Total GULP energy -244968.402112 kJ/mol
# GULP energy per Si atom -5567.463684 kJ/mol
# Density = 1.872504 g / cm^3
# Si number density = 18.767752 Si / 1000 Ang^3
#
#
#
# Elastic Constant Matrix: (Units=GPa)
#
#
# Indices 1 2 3 4 5 6 
#
# 1 126.9074 51.6017 34.8462 0.0000 0.0000 0.0000
# 2 51.6017 83.4990 14.6488 0.0000 0.0000 0.0000
# 3 34.8462 14.6488 33.8928 0.0000 0.0000 0.0000
# 4 0.0000 0.0000 0.0000 21.7676 0.0000 0.0000
# 5 0.0000 0.0000 0.0000 0.0000 16.9750 0.0000
# 6 0.0000 0.0000 0.0000 0.0000 0.0000 33.5457
#
#
#
# Elastic Compliance Matrix: (Units=1/GPa)
#
#
# Indices 1 2 3 4 5 6 
#
# 1 0.013554 -0.006418 -0.011161 0.000000 0.000000 0.000000
# 2 -0.006418 0.015998 -0.000316 0.000000 0.000000 0.000000
# 3 -0.011161 -0.000316 0.041117 0.000000 0.000000 0.000000
# 4 0.000000 0.000000 0.000000 0.045940 0.000000 0.000000
# 5 0.000000 0.000000 0.000000 0.000000 0.058910 0.000000
# 6 0.000000 0.000000 0.000000 0.000000 0.000000 0.029810
#
#
# Mechanical properties :
#
#
# Convention : Reuss Voigt Hill
#
# Bulk Modulus (GPa) = 28.67136 49.61028 39.14082
# Shear Modulus (GPa) = 19.78274 24.00450 21.89362
#
# Velocity S-wave (km/s) = 3.25018 3.58023 3.41919
# Velocity P-wave (km/s) = 5.42172 6.60166 6.04057
#
# Compressibility (1/GPa) = 0.03487801
#
# Stress axis : x y z
#
# Youngs Moduli (GPa) = 73.77807 62.50783 24.32112
#
# Poissons Ratio (x) = 0.40119 0.27146
# Poissons Ratio (y) = 0.47353 0.00768
# Poissons Ratio (z) = 0.82347 0.01973
#
# Static dielectric constant tensor:
#      x y z
#    x 1.707340 0.000000 0.000000 
#    y 0.000000 1.662170 0.000000 
#    z 0.000000 0.000000 1.638950 
# 
# From -- ./inp_files/13669.got.cif
#   From: 2010.05.17/outbox.cif.g08.bks.cpg/sg57_7_cif.got.tgz:13669.got - 2010.06.03 13:58:18.
