data_PCOD9438666
_publ_section_title
;
Structure prediction by ZEFSAII (Michael W. Deem and Ramdas Pophale) SiO2 
 PCOD9438666
Probable space group: P B C M
;
_chemical_formula_sum "Si O2"
_cell_formula_units_Z 40
_cell_length_a 5.624967
_cell_length_b 18.996659
_cell_length_c 16.351022
_cell_angle_alpha 90.000000
_cell_angle_beta 90.000000
_cell_angle_gamma 90.000000
_cell_volume 1747.197939
_symmetry_space_group_name_H-M "P B C M"
_symmetry_group_IT_number 57
_symmetry_cell_setting 'orthorhombic'
loop_
_space_group_symop_operation_xyz
x,y,z
-x,-y,1/2+z
x,1/2-y,-z
-x,1/2+y,1/2-z
-x,-y,-z
x,y,1/2-z
-x,1/2+y,z
x,1/2-y,1/2+z
loop_
_atom_site_type_symbol
_atom_site_label
_atom_site_fract_x
_atom_site_fract_y
_atom_site_fract_z
Si Si1 0.350745 0.888282 0.345945
Si Si2 0.301301 0.037378 0.555357
Si Si3 0.316074 0.176313 0.343753
Si Si4 0.096846 0.035055 0.110608
Si Si5 0.181332 0.765731 0.849543
O O1 0.400864 0.887036 0.250000
O O2 0.592059 0.897909 0.396339
O O3 0.220811 0.816343 0.367036
O O4 0.205720 0.959066 0.366951
O O5 0.119781 0.058917 0.484398
O O6 0.500000 0.000000 0.500000
O O7 0.183456 0.981149 0.617379
O O8 0.331246 0.202497 0.250000
O O9 0.241504 0.094383 0.342862
O O10 0.578381 0.193438 0.378904
O O11 0.076711 0.210443 0.381525
O O12 0.170921 0.775918 0.750000
#
# Coordination Sequence:
#
# PCOD9438666 Si02
#       5
#     8   8   8   8   8
#     4  10  21  37  63  92 119 161 209 253 309 377
#     4   9  21  39  60  84 122 157 199 256 316 356
#     4  10  21  38  61  91 125 163 206 260 313 367
#     4  10  21  38  63  87 121 163 209 257 307 369
#     4   9  21  38  58  88 129 162 198 259 321 362
#
# _framework density 22.893801
#
# number of rings (size 3 to 8) (size 9 to 14) (size 15 to 20)
#    0.000    2.400    0.000    0.600    8.400    1.600 
#    0.000    1.000    0.000    0.000    0.000    0.000 
#    0.000    0.000    0.000    0.000    0.000    0.000 
#
# Total GULP energy -222790.144907 kJ/mol
# GULP energy per Si atom -5569.753623 kJ/mol
# Density = 2.284169 g / cm^3
# Si number density = 22.893801 Si / 1000 Ang^3
#
#
#
# Elastic Constant Matrix: (Units=GPa)
#
#
# Indices 1 2 3 4 5 6 
#
# 1 74.2140 18.4824 -4.6540 0.0000 0.0000 0.0000
# 2 18.4824 90.5333 -4.8020 0.0000 0.0000 0.0000
# 3 -4.6540 -4.8020 26.9084 0.0000 0.0000 0.0000
# 4 0.0000 0.0000 0.0000 1.5651 0.0000 0.0000
# 5 0.0000 0.0000 0.0000 0.0000 11.9886 0.0000
# 6 0.0000 0.0000 0.0000 0.0000 0.0000 41.7929
#
#
#
# Elastic Compliance Matrix: (Units=1/GPa)
#
#
# Indices 1 2 3 4 5 6 
#
# 1 0.014299 -0.002815 0.001971 0.000000 0.000000 0.000000
# 2 -0.002815 0.011705 0.001602 0.000000 0.000000 0.000000
# 3 0.001971 0.001602 0.037790 0.000000 0.000000 0.000000
# 4 0.000000 0.000000 0.000000 0.638923 0.000000 0.000000
# 5 0.000000 0.000000 0.000000 0.000000 0.083413 0.000000
# 6 0.000000 0.000000 0.000000 0.000000 0.000000 0.023927
#
#
# Mechanical properties :
#
#
# Convention : Reuss Voigt Hill
#
# Bulk Modulus (GPa) = 15.31140 23.30094 19.30617
# Shear Modulus (GPa) = 6.02184 23.24462 14.63323
#
# Velocity S-wave (km/s) = 1.62359 3.18987 2.53094
# Velocity P-wave (km/s) = 3.19644 4.87514 4.12215
#
# Compressibility (1/GPa) = 0.06531083
#
# Stress axis : x y z
#
# Youngs Moduli (GPa) = 69.93448 85.43174 26.46212
#
# Poissons Ratio (x) = 0.24046 -0.05215
# Poissons Ratio (y) = 0.19684 -0.04239
# Poissons Ratio (z) = -0.13783 -0.13687
#
# Static dielectric constant tensor:
#      x y z
#    x 2.100270 0.000000 0.000000 
#    y 0.000000 1.868890 0.000000 
#    z 0.000000 0.000000 1.912100 
# 
# From -- ./inp_files/19968.got.cif
#   From: 2010.05.17/outbox.cif.g08.bks.cpg/sg57_10_cif.got.tgz:19968.got - 2010.06.03 13:58:18.
