data_PCOD9438150
_publ_section_title
;
Structure prediction by ZEFSAII (Michael W. Deem and Ramdas Pophale) SiO2 
 PCOD9438150
Probable space group: P B C M
;
_chemical_formula_sum "Si O2"
_cell_formula_units_Z 48
_cell_length_a 11.444766
_cell_length_b 11.539847
_cell_length_c 18.729090
_cell_angle_alpha 90.000000
_cell_angle_beta 90.000000
_cell_angle_gamma 90.000000
_cell_volume 2473.566810
_symmetry_space_group_name_H-M "P B C M"
_symmetry_group_IT_number 57
_symmetry_cell_setting 'orthorhombic'
loop_
_space_group_symop_operation_xyz
x,y,z
-x,-y,1/2+z
x,1/2-y,-z
-x,1/2+y,1/2-z
-x,-y,-z
x,y,1/2-z
-x,1/2+y,z
x,1/2-y,1/2+z
loop_
_atom_site_type_symbol
_atom_site_label
_atom_site_fract_x
_atom_site_fract_y
_atom_site_fract_z
Si Si1 0.436278 0.227270 0.076302
Si Si2 0.907770 0.803691 0.393644
Si Si3 0.696226 0.910622 0.329955
Si Si4 0.343924 0.824830 0.834583
Si Si5 0.802602 0.594487 0.458502
Si Si6 0.170917 0.826075 0.427902
O O1 0.383540 0.342033 0.113479
O O2 0.527068 0.174748 0.131621
O O3 0.326202 0.146290 0.055916
O O4 0.496900 0.250000 0.000000
O O5 0.823892 0.852995 0.333262
O O6 0.884084 0.666921 0.404126
O O7 0.854664 0.867368 0.464743
O O8 0.044215 0.825507 0.390414
O O9 0.646670 0.898662 0.250000
O O10 0.705984 0.046196 0.346418
O O11 0.346449 0.801765 0.750000
O O12 0.266892 0.731219 0.876688
O O13 0.801946 0.458186 0.448428
O O14 0.161541 0.750000 0.500000
#
# Coordination Sequence:
#
# PCOD9438150 Si02
#       6
#     8   8   8   8   8   8
#     4  11  22  42  68  92 124 164 216 272 313 373
#     4  10  20  39  65  93 131 162 208 263 316 377
#     4  10  22  42  65  88 126 174 210 257 326 387
#     4  11  27  44  61  93 133 170 214 261 319 387
#     4  10  20  39  62  98 124 157 211 267 310 371
#     4  12  24  37  68  97 128 167 210 265 316 368
#
# _framework density 19.405176000000001
#
# number of rings (size 3 to 8) (size 9 to 14) (size 15 to 20)
#    0.000    1.333    5.000    2.500    4.667    1.333 
#    0.000    3.333    0.000    0.000    0.000    0.000 
#    0.000    0.000    0.000    0.000    0.000    0.000 
#
# Total GULP energy -267994.329502 kJ/mol
# GULP energy per Si atom -5583.215198 kJ/mol
# Density = 1.936101 g / cm^3
# Si number density = 19.405176 Si / 1000 Ang^3
#
#
#
# Elastic Constant Matrix: (Units=GPa)
#
#
# Indices 1 2 3 4 5 6 
#
# 1 61.6568 6.1479 10.5687 0.0000 0.0000 0.0000
# 2 6.1479 136.7567 35.6150 0.0000 0.0000 0.0000
# 3 10.5687 35.6150 67.8283 0.0000 0.0000 0.0000
# 4 0.0000 0.0000 0.0000 23.7579 0.0000 0.0000
# 5 0.0000 0.0000 0.0000 0.0000 22.0537 0.0000
# 6 0.0000 0.0000 0.0000 0.0000 0.0000 10.0586
#
#
#
# Elastic Compliance Matrix: (Units=1/GPa)
#
#
# Indices 1 2 3 4 5 6 
#
# 1 0.016665 -0.000084 -0.002552 0.000000 0.000000 0.000000
# 2 -0.000084 0.008471 -0.004435 0.000000 0.000000 0.000000
# 3 -0.002552 -0.004435 0.017469 0.000000 0.000000 0.000000
# 4 0.000000 0.000000 0.000000 0.042091 0.000000 0.000000
# 5 0.000000 0.000000 0.000000 0.000000 0.045344 0.000000
# 6 0.000000 0.000000 0.000000 0.000000 0.000000 0.099417
#
#
# Mechanical properties :
#
#
# Convention : Reuss Voigt Hill
#
# Bulk Modulus (GPa) = 35.13443 41.21166 38.17305
# Shear Modulus (GPa) = 19.75599 25.43472 22.59536
#
# Velocity S-wave (km/s) = 3.19420 3.62431 3.41603
# Velocity P-wave (km/s) = 5.63461 6.22878 5.93913
#
# Compressibility (1/GPa) = 0.02846211
#
# Stress axis : x y z
#
# Youngs Moduli (GPa) = 60.00700 118.05017 57.24305
#
# Poissons Ratio (x) = 0.00997 0.14610
# Poissons Ratio (y) = 0.00507 0.25386
# Poissons Ratio (z) = 0.15315 0.52352
#
# Static dielectric constant tensor:
#      x y z
#    x 1.681300 0.000000 0.000000 
#    y 0.000000 1.662540 0.000000 
#    z 0.000000 0.000000 1.694660 
# 
# From -- ./inp_files/21807.got.cif
#   From: 2010.05.17/outbox.cif.g08.bks.cpg/sg57_11_cif.got.tgz:21807.got - 2010.06.03 13:58:18.
