data_PCOD9438171
_publ_section_title
;
Structure prediction by ZEFSAII (Michael W. Deem and Ramdas Pophale) SiO2 
 PCOD9438171
Probable space group: P B C M
;
_chemical_formula_sum "Si O2"
_cell_formula_units_Z 64
_cell_length_a 19.700690
_cell_length_b 10.407933
_cell_length_c 16.391455
_cell_angle_alpha 90.000000
_cell_angle_beta 90.000000
_cell_angle_gamma 90.000000
_cell_volume 3360.960673
_symmetry_space_group_name_H-M "P B C M"
_symmetry_group_IT_number 57
_symmetry_cell_setting 'orthorhombic'
loop_
_space_group_symop_operation_xyz
x,y,z
-x,-y,1/2+z
x,1/2-y,-z
-x,1/2+y,1/2-z
-x,-y,-z
x,y,1/2-z
-x,1/2+y,z
x,1/2-y,1/2+z
loop_
_atom_site_type_symbol
_atom_site_label
_atom_site_fract_x
_atom_site_fract_y
_atom_site_fract_z
Si Si1 0.787059 0.596853 0.650723
Si Si2 0.229450 0.877467 0.348220
Si Si3 0.489058 0.124990 0.943439
Si Si4 0.848470 0.869479 0.651106
Si Si5 0.363179 0.020963 0.846359
Si Si6 0.628096 0.228407 0.903281
Si Si7 0.126331 0.848322 0.848798
Si Si8 0.987057 0.874582 0.944679
O O1 0.785022 0.597396 0.750000
O O2 0.817529 0.732863 0.624901
O O3 0.710696 0.566705 0.622828
O O4 0.836127 0.480208 0.627530
O O5 0.230496 0.873070 0.250000
O O6 0.304943 0.846979 0.377126
O O7 0.175649 0.768276 0.374484
O O8 0.201598 0.015638 0.373602
O O9 0.423621 0.095984 0.889681
O O10 0.557139 0.153892 0.891180
O O11 0.478805 0.250000 0.000000
O O12 0.500000 0.000000 0.000000
O O13 0.854194 0.869544 0.750000
O O14 0.921655 0.893445 0.612219
O O15 0.365815 0.043350 0.750000
O O16 0.371258 0.868621 0.862324
O O17 0.632099 0.250000 0.000000
O O18 0.119526 0.844274 0.750000
O O19 0.053506 0.845654 0.890600
O O20 0.974573 0.750000 0.000000
O O21 0.000000 0.000000 0.000000
#
# Coordination Sequence:
#
# PCOD9438171 Si02
#       8
#     8   8   8   8   8   8   8   8
#     4   9  19  38  63  89 118 154 204 256 305 363
#     4  10  21  38  64  93 118 153 212 261 295 362
#     4  11  23  44  63  91 133 172 209 254 320 386
#     4  10  22  42  61  85 123 163 201 252 312 371
#     4  11  22  42  69  98 127 167 219 268 310 374
#     4  11  22  40  66  91 132 168 204 255 319 372
#     4  10  20  39  65  85 112 164 207 241 302 376
#     4  12  25  40  57  89 126 155 198 259 306 361
#
# _framework density 19.042173999999999
#
# number of rings (size 3 to 8) (size 9 to 14) (size 15 to 20)
#    0.000    1.500    3.750    2.250    0.000    3.500 
#    2.250    5.000    0.000    0.000    0.000    0.000 
#    0.000    0.000    0.000    0.000    0.000    0.000 
#
# Total GULP energy -357632.596501 kJ/mol
# GULP energy per Si atom -5588.009320 kJ/mol
# Density = 1.899883 g / cm^3
# Si number density = 19.042174 Si / 1000 Ang^3
#
#
#
# Elastic Constant Matrix: (Units=GPa)
#
#
# Indices 1 2 3 4 5 6 
#
# 1 149.1293 33.6549 23.9725 0.0000 0.0000 0.0000
# 2 33.6549 115.7134 14.4258 0.0000 0.0000 0.0000
# 3 23.9725 14.4258 27.4707 0.0000 0.0000 0.0000
# 4 0.0000 0.0000 0.0000 17.2689 0.0000 0.0000
# 5 0.0000 0.0000 0.0000 0.0000 38.3081 0.0000
# 6 0.0000 0.0000 0.0000 0.0000 0.0000 37.5971
#
#
#
# Elastic Compliance Matrix: (Units=1/GPa)
#
#
# Indices 1 2 3 4 5 6 
#
# 1 0.008058 -0.001570 -0.006207 0.000000 0.000000 0.000000
# 2 -0.001570 0.009553 -0.003647 0.000000 0.000000 0.000000
# 3 -0.006207 -0.003647 0.043734 0.000000 0.000000 0.000000
# 4 0.000000 0.000000 0.000000 0.057908 0.000000 0.000000
# 5 0.000000 0.000000 0.000000 0.000000 0.026104 0.000000
# 6 0.000000 0.000000 0.000000 0.000000 0.000000 0.026598
#
#
# Mechanical properties :
#
#
# Convention : Reuss Voigt Hill
#
# Bulk Modulus (GPa) = 25.97575 48.49108 37.23341
# Shear Modulus (GPa) = 24.08072 33.31884 28.69978
#
# Velocity S-wave (km/s) = 3.55998 4.18753 3.88644
# Velocity P-wave (km/s) = 5.52890 6.99292 6.30355
#
# Compressibility (1/GPa) = 0.03849744
#
# Stress axis : x y z
#
# Youngs Moduli (GPa) = 124.10577 104.67656 22.86535
#
# Poissons Ratio (x) = 0.16431 0.14193
# Poissons Ratio (y) = 0.19481 0.08339
# Poissons Ratio (z) = 0.77035 0.38175
#
# Static dielectric constant tensor:
#      x y z
#    x 1.645620 0.000000 0.000000 
#    y 0.000000 1.617290 0.000000 
#    z 0.000000 0.000000 1.654800 
# 
# From -- ./inp_files/23061.got.cif
#   From: 2010.05.17/outbox.cif.g08.bks.cpg/sg57_12_cif.got.tgz:23061.got - 2010.06.03 13:58:18.
