data_PCOD9438173
_publ_section_title
;
Structure prediction by ZEFSAII (Michael W. Deem and Ramdas Pophale) SiO2 
 PCOD9438173
Probable space group: P B C M
;
_chemical_formula_sum "Si O2"
_cell_formula_units_Z 56
_cell_length_a 15.101884
_cell_length_b 10.974175
_cell_length_c 14.861412
_cell_angle_alpha 90.000000
_cell_angle_beta 90.000000
_cell_angle_gamma 90.000000
_cell_volume 2462.992479
_symmetry_space_group_name_H-M "P B C M"
_symmetry_group_IT_number 57
_symmetry_cell_setting 'orthorhombic'
loop_
_space_group_symop_operation_xyz
x,y,z
-x,-y,1/2+z
x,1/2-y,-z
-x,1/2+y,1/2-z
-x,-y,-z
x,y,1/2-z
-x,1/2+y,z
x,1/2-y,1/2+z
loop_
_atom_site_type_symbol
_atom_site_label
_atom_site_fract_x
_atom_site_fract_y
_atom_site_fract_z
Si Si1 0.389369 0.796434 0.647283
Si Si2 0.651911 0.977810 0.479881
Si Si3 0.070525 0.206051 0.360232
Si Si4 0.046982 0.931264 0.354777
Si Si5 0.772235 0.353039 0.427821
Si Si6 0.430399 0.389509 0.848395
Si Si7 0.269385 0.220604 0.850934
O O1 0.366302 0.821382 0.750000
O O2 0.320202 0.695735 0.614324
O O3 0.495817 0.782266 0.642956
O O4 0.376120 0.915114 0.587039
O O5 0.579439 0.961050 0.558466
O O6 0.678314 0.862126 0.421418
O O7 0.743678 0.025354 0.521905
O O8 0.064524 0.201431 0.250000
O O9 0.172291 0.238542 0.380366
O O10 0.012374 0.320877 0.392906
O O11 0.042548 0.069986 0.391934
O O12 0.021937 0.941157 0.250000
O O13 0.147898 0.884090 0.362743
O O14 0.799538 0.250000 0.500000
O O15 0.450027 0.450604 0.750000
O O16 0.332505 0.336264 0.841579
O O17 0.262678 0.163607 0.750000
#
# Coordination Sequence:
#
# PCOD9438173 Si02
#       7
#     8   8   8   8   8   8   8
#     4  10  22  40  60  87 122 163 209 260 316 375
#     4  11  22  37  60  89 123 163 207 259 313 373
#     4   9  20  38  64  94 122 157 207 261 319 383
#     4  10  20  39  65  91 120 161 210 262 319 383
#     4  10  23  39  56  85 122 161 207 258 316 382
#     4  10  22  38  59  88 123 162 207 256 313 378
#     4  10  21  39  61  88 122 161 205 256 311 372
#
# _framework density 22.736568999999999
#
# number of rings (size 3 to 8) (size 9 to 14) (size 15 to 20)
#    0.000    2.000    0.000    2.571    0.000    9.143 
#    0.000   11.429    0.000    0.000    0.000    0.000 
#    0.000    0.000    0.000    0.000    0.000    0.000 
#
# Total GULP energy -312376.060733 kJ/mol
# GULP energy per Si atom -5578.143942 kJ/mol
# Density = 2.268482 g / cm^3
# Si number density = 22.736569 Si / 1000 Ang^3
#
#
#
# Elastic Constant Matrix: (Units=GPa)
#
#
# Indices 1 2 3 4 5 6 
#
# 1 82.9320 39.4036 8.9588 0.0000 0.0000 0.0000
# 2 39.4036 88.6342 51.8122 0.0000 0.0000 0.0000
# 3 8.9588 51.8122 97.0759 0.0000 0.0000 0.0000
# 4 0.0000 0.0000 0.0000 17.2233 0.0000 0.0000
# 5 0.0000 0.0000 0.0000 0.0000 95.9660 0.0000
# 6 0.0000 0.0000 0.0000 0.0000 0.0000 -34.9038
#
#
#
# Elastic Compliance Matrix: (Units=1/GPa)
#
#
# Indices 1 2 3 4 5 6 
#
# 1 0.016013 -0.009092 0.003375 0.000000 0.000000 0.000000
# 2 -0.009092 0.021560 -0.010668 0.000000 0.000000 0.000000
# 3 0.003375 -0.010668 0.015684 0.000000 0.000000 0.000000
# 4 0.000000 0.000000 0.000000 0.058061 0.000000 0.000000
# 5 0.000000 0.000000 0.000000 0.000000 0.010420 0.000000
# 6 0.000000 0.000000 0.000000 0.000000 0.000000 -0.028650
#
#
# Mechanical properties :
#
#
# Convention : Reuss Voigt Hill
#
# Bulk Modulus (GPa) = 48.81192 52.11012 50.46102
# Shear Modulus (GPa) = 37.68235 26.88828 32.28531
#
# Velocity S-wave (km/s) = 4.07547 3.44263 3.77234
# Velocity P-wave (km/s) = 6.60765 6.22664 6.41997
#
# Compressibility (1/GPa) = 0.02048680
#
# Stress axis : x y z
#
# Youngs Moduli (GPa) = 62.44840 46.38125 63.76004
#
# Poissons Ratio (x) = 0.42168 -0.21517
# Poissons Ratio (y) = 0.56775 0.68022
# Poissons Ratio (z) = -0.21074 0.49481
#
# Static dielectric constant tensor:
#      x y z
#    x 1.823120 0.000000 0.000000 
#    y 0.000000 1.579600 0.000000 
#    z 0.000000 0.000000 2.000050 
# 
# From -- ./inp_files/18540.got.cif
#   From: 2010.05.17/outbox.cif.g08.bks.cpg/sg57_10_cif.got.tgz:18540.got - 2010.06.03 13:58:18.
