data_PCOD9438267
_publ_section_title
;
Structure prediction by ZEFSAII (Michael W. Deem and Ramdas Pophale) SiO2 
 PCOD9438267
Probable space group: P B C M
;
_chemical_formula_sum "Si O2"
_cell_formula_units_Z 40
_cell_length_a 9.298540
_cell_length_b 13.648229
_cell_length_c 14.497117
_cell_angle_alpha 90.000000
_cell_angle_beta 90.000000
_cell_angle_gamma 90.000000
_cell_volume 1839.808870
_symmetry_space_group_name_H-M "P B C M"
_symmetry_group_IT_number 57
_symmetry_cell_setting 'orthorhombic'
loop_
_space_group_symop_operation_xyz
x,y,z
-x,-y,1/2+z
x,1/2-y,-z
-x,1/2+y,1/2-z
-x,-y,-z
x,y,1/2-z
-x,1/2+y,z
x,1/2-y,1/2+z
loop_
_atom_site_type_symbol
_atom_site_label
_atom_site_fract_x
_atom_site_fract_y
_atom_site_fract_z
Si Si1 0.161146 0.457196 0.414243
Si Si2 0.483801 0.486504 0.109103
Si Si3 0.943421 0.071567 0.750000
Si Si4 0.008111 0.843007 0.942039
Si Si5 0.867373 0.655787 0.250000
Si Si6 0.536596 0.842441 0.750000
Si Si7 0.644959 0.351914 0.250000
O O1 0.321142 0.449013 0.376917
O O2 0.126587 0.393408 0.504405
O O3 0.044619 0.425452 0.338723
O O4 0.126164 0.571142 0.435643
O O5 0.507973 0.588642 0.161731
O O6 0.590890 0.411547 0.159773
O O7 0.500000 0.500000 0.000000
O O8 0.816291 0.148891 0.750000
O O9 0.868919 0.963602 0.750000
O O10 0.952165 0.814327 0.841485
O O11 0.057481 0.750000 0.000000
O O12 0.703076 0.689931 0.250000
O O13 0.428939 0.752567 0.750000
#
# Coordination Sequence:
#
# PCOD9438267 Si02
#       7
#     8   8   4   8   4   4   4
#     4  10  23  41  68  95 131 179 218 274 336 413
#     4  11  24  45  71  96 139 179 224 281 348 411
#     4  10  20  43  69  91 136 175 218 273 339 398
#     4  10  23  39  65  98 130 167 231 267 335 397
#     4  10  20  41  63  90 134 174 209 283 327 406
#     4  11  24  43  65  99 140 169 229 274 349 401
#     4  11  26  41  67 104 132 180 228 284 339 403
#
# _framework density 21.741388000000001
#
# number of rings (size 3 to 8) (size 9 to 14) (size 15 to 20)
#    0.000    1.600    2.000    2.400    8.400    3.200 
#    0.000    1.000    0.000    0.000    0.000    0.000 
#    0.000    0.000    0.000    0.000    0.000    0.000 
#
# Total GULP energy -223951.863774 kJ/mol
# GULP energy per Si atom -5598.796594 kJ/mol
# Density = 2.169190 g / cm^3
# Si number density = 21.741388 Si / 1000 Ang^3
#
#
#
# Elastic Constant Matrix: (Units=GPa)
#
#
# Indices 1 2 3 4 5 6 
#
# 1 106.7468 16.1723 31.8231 0.0000 0.0000 0.0000
# 2 16.1723 104.8946 53.9724 0.0000 0.0000 0.0000
# 3 31.8231 53.9724 177.5332 0.0000 0.0000 0.0000
# 4 0.0000 0.0000 0.0000 1.0997 0.0000 0.0000
# 5 0.0000 0.0000 0.0000 0.0000 15.8744 0.0000
# 6 0.0000 0.0000 0.0000 0.0000 0.0000 19.4385
#
#
#
# Elastic Compliance Matrix: (Units=1/GPa)
#
#
# Indices 1 2 3 4 5 6 
#
# 1 0.009944 -0.000730 -0.001560 0.000000 0.000000 0.000000
# 2 -0.000730 0.011355 -0.003321 0.000000 0.000000 0.000000
# 3 -0.001560 -0.003321 0.006922 0.000000 0.000000 0.000000
# 4 0.000000 0.000000 0.000000 0.909354 0.000000 0.000000
# 5 0.000000 0.000000 0.000000 0.000000 0.062995 0.000000
# 6 0.000000 0.000000 0.000000 0.000000 0.000000 0.051444
#
#
# Mechanical properties :
#
#
# Convention : Reuss Voigt Hill
#
# Bulk Modulus (GPa) = 58.83324 65.90116 62.36720
# Shear Modulus (GPa) = 4.67769 26.42962 15.55366
#
# Velocity S-wave (km/s) = 1.46840 3.49038 2.67759
# Velocity P-wave (km/s) = 5.47669 6.82795 6.18931
#
# Compressibility (1/GPa) = 0.01699719
#
# Stress axis : x y z
#
# Youngs Moduli (GPa) = 100.56527 88.06847 144.46424
#
# Poissons Ratio (x) = 0.06431 0.22543
# Poissons Ratio (y) = 0.07343 0.47978
# Poissons Ratio (z) = 0.15693 0.29249
#
# Static dielectric constant tensor:
#      x y z
#    x 1.760930 0.000000 0.000000 
#    y 0.000000 1.814620 0.000000 
#    z 0.000000 0.000000 1.845910 
# 
# From -- ./inp_files/16008.got.cif
#   From: 2010.05.17/outbox.cif.g08.bks.cpg/sg57_9_cif.got.tgz:16008.got - 2010.06.03 13:58:18.
