data_PCOD9438619
_publ_section_title
;
Structure prediction by ZEFSAII (Michael W. Deem and Ramdas Pophale) SiO2 
 PCOD9438619
Probable space group: P B C M
;
_chemical_formula_sum "Si O2"
_cell_formula_units_Z 64
_cell_length_a 12.203307
_cell_length_b 31.691889
_cell_length_c 8.682024
_cell_angle_alpha 90.000000
_cell_angle_beta 90.000000
_cell_angle_gamma 90.000000
_cell_volume 3357.736759
_symmetry_space_group_name_H-M "P B C M"
_symmetry_group_IT_number 57
_symmetry_cell_setting 'orthorhombic'
loop_
_space_group_symop_operation_xyz
x,y,z
-x,-y,1/2+z
x,1/2-y,-z
-x,1/2+y,1/2-z
-x,-y,-z
x,y,1/2-z
-x,1/2+y,z
x,1/2-y,1/2+z
loop_
_atom_site_type_symbol
_atom_site_label
_atom_site_fract_x
_atom_site_fract_y
_atom_site_fract_z
Si Si1 0.231638 0.456389 0.934872
Si Si2 0.001923 0.074083 0.934240
Si Si3 0.005679 0.174136 0.934658
Si Si4 0.373304 0.375677 0.562394
Si Si5 0.230662 0.954096 0.565411
Si Si6 0.766798 0.705090 0.434036
Si Si7 0.625841 0.126999 0.063708
Si Si8 0.235739 0.795524 0.434696
O O1 0.230039 0.457486 0.750000
O O2 0.308652 0.417657 0.986283
O O3 0.109478 0.447183 0.995557
O O4 0.269402 0.501309 0.999014
O O5 0.001697 0.068821 0.750000
O O6 0.005243 0.124161 0.969402
O O7 0.890972 0.055125 0.002886
O O8 0.016361 0.178953 0.750000
O O9 0.889360 0.193626 0.982748
O O10 0.109110 0.195657 0.013983
O O11 0.372067 0.375596 0.750000
O O12 0.308227 0.333919 0.511498
O O13 0.499488 0.375252 0.513765
O O14 0.227759 0.956139 0.750000
O O15 0.308175 0.915155 0.518791
O O16 0.730910 0.750000 0.500000
O O17 0.762622 0.706574 0.250000
O O18 0.628475 0.129711 0.250000
O O19 0.686517 0.167593 0.996114
O O20 0.266842 0.750000 0.500000
O O21 0.238926 0.795010 0.250000
#
# Coordination Sequence:
#
# PCOD9438619 Si02
#       8
#     8   8   8   8   8   8   8   8
#     4  11  22  39  62  88 120 157 196 240 294 353
#     4  11  21  37  61  89 122 154 192 242 293 352
#     4  10  21  37  60  89 121 153 190 238 293 351
#     4   9  21  41  62  85 115 155 199 246 294 344
#     4  11  23  38  60  90 121 156 196 241 295 353
#     4  11  22  38  61  88 120 154 195 238 291 350
#     4  10  22  42  64  85 116 156 201 247 293 346
#     4  11  23  40  61  90 122 155 195 240 295 350
#
# _framework density 19.060457
#
# number of rings (size 3 to 8) (size 9 to 14) (size 15 to 20)
#    0.000    1.500    2.500    2.625    0.000    4.000 
#    0.000    3.750    0.000    0.000    0.000    0.000 
#    0.000    0.000    0.000    0.000    0.000    0.000 
#
# Total GULP energy -357818.670128 kJ/mol
# GULP energy per Si atom -5590.916721 kJ/mol
# Density = 1.901707 g / cm^3
# Si number density = 19.060457 Si / 1000 Ang^3
#
#
#
# Elastic Constant Matrix: (Units=GPa)
#
#
# Indices 1 2 3 4 5 6 
#
# 1 154.0466 92.0835 29.6607 0.0000 0.0000 0.0000
# 2 92.0835 200.5185 49.2236 0.0000 0.0000 0.0000
# 3 29.6607 49.2236 35.8290 0.0000 0.0000 0.0000
# 4 0.0000 0.0000 0.0000 32.9315 0.0000 0.0000
# 5 0.0000 0.0000 0.0000 0.0000 -1.0580 0.0000
# 6 0.0000 0.0000 0.0000 0.0000 0.0000 -4.1881
#
#
#
# Elastic Compliance Matrix: (Units=1/GPa)
#
#
# Indices 1 2 3 4 5 6 
#
# 1 0.009119 -0.003522 -0.002710 0.000000 0.000000 0.000000
# 2 -0.003522 0.008886 -0.009291 0.000000 0.000000 0.000000
# 3 -0.002710 -0.009291 0.042918 0.000000 0.000000 0.000000
# 4 0.000000 0.000000 0.000000 0.030366 0.000000 0.000000
# 5 0.000000 0.000000 0.000000 0.000000 -0.945215 0.000000
# 6 0.000000 0.000000 0.000000 0.000000 0.000000 -0.238774
#
#
# Mechanical properties :
#
#
# Convention : Reuss Voigt Hill
#
# Bulk Modulus (GPa) = 33.47177 81.36998 57.42087
# Shear Modulus (GPa) = -4.75423 20.16551 7.70564
#
# Velocity S-wave (km/s) = -1.58105 3.25618 2.01284
# Velocity P-wave (km/s) = 3.77704 7.54454 5.96599
#
# Compressibility (1/GPa) = 0.02987592
#
# Stress axis : x y z
#
# Youngs Moduli (GPa) = 109.66268 112.54243 23.30001
#
# Poissons Ratio (x) = 0.39643 0.06313
# Poissons Ratio (y) = 0.38628 0.21649
# Poissons Ratio (z) = 0.29715 1.04567
#
# Static dielectric constant tensor:
#      x y z
#    x 1.631210 0.000000 0.000000 
#    y 0.000000 1.656280 0.000000 
#    z 0.000000 0.000000 1.639960 
# 
# From -- ./inp_files/3844.got.cif
#   From: 2010.05.17/outbox.cif.g08.bks.cpg/sg57_2_cif.got.tgz:3844.got - 2010.06.03 13:58:18.
