data_PCOD9438192
_publ_section_title
;
Structure prediction by ZEFSAII (Michael W. Deem and Ramdas Pophale) SiO2 
 PCOD9438192
Probable space group: P B C M
;
_chemical_formula_sum "Si O2"
_cell_formula_units_Z 64
_cell_length_a 9.376582
_cell_length_b 24.028804
_cell_length_c 14.152593
_cell_angle_alpha 90.000000
_cell_angle_beta 90.000000
_cell_angle_gamma 90.000000
_cell_volume 3188.693146
_symmetry_space_group_name_H-M "P B C M"
_symmetry_group_IT_number 57
_symmetry_cell_setting 'orthorhombic'
loop_
_space_group_symop_operation_xyz
x,y,z
-x,-y,1/2+z
x,1/2-y,-z
-x,1/2+y,1/2-z
-x,-y,-z
x,y,1/2-z
-x,1/2+y,z
x,1/2-y,1/2+z
loop_
_atom_site_type_symbol
_atom_site_label
_atom_site_fract_x
_atom_site_fract_y
_atom_site_fract_z
Si Si1 0.088192 0.556204 0.997798
Si Si2 0.419307 0.942225 0.012267
Si Si3 0.976768 0.143933 0.139346
Si Si4 0.347709 0.852240 0.854437
Si Si5 0.081401 0.664675 0.860645
Si Si6 0.594951 0.865710 0.357857
Si Si7 0.622026 0.232285 0.608521
Si Si8 0.825472 0.809016 0.479360
O O1 0.068880 0.607213 0.921925
O O2 0.253418 0.543082 0.983023
O O3 0.000000 0.500000 0.000000
O O4 0.048837 0.582214 0.099698
O O5 0.417286 0.894298 0.929603
O O6 0.490889 0.913332 0.102723
O O7 0.500000 0.000000 0.000000
O O8 0.005443 0.148620 0.250000
O O9 0.099607 0.169709 0.074863
O O10 0.815752 0.165859 0.119444
O O11 0.342136 0.878616 0.750000
O O12 0.415773 0.791864 0.847209
O O13 0.060043 0.653565 0.750000
O O14 0.230013 0.698756 0.870529
O O15 0.954604 0.701257 0.905291
O O16 0.641786 0.875677 0.250000
O O17 0.499993 0.810447 0.363474
O O18 0.723860 0.854287 0.430491
O O19 0.626860 0.250000 0.500000
O O20 0.751813 0.750000 0.500000
#
# Coordination Sequence:
#
# PCOD9438192 Si02
#       8
#     8   8   8   8   8   8   8   8
#     4  10  22  41  65  95 128 168 223 280 332 393
#     4  11  25  43  66  92 131 178 224 278 336 400
#     4   9  20  40  65  93 126 166 218 277 334 390
#     4  10  20  39  68 101 127 166 225 281 343 409
#     4  11  22  39  66 100 133 173 227 282 342 407
#     4  12  26  44  64  94 138 183 224 273 338 409
#     4  12  20  39  68  97 130 171 219 285 344 407
#     4  11  24  40  61  95 136 177 213 272 334 401
#
# _framework density 20.070919
#
# number of rings (size 3 to 8) (size 9 to 14) (size 15 to 20)
#    0.000    1.250    2.500    4.500    3.500    3.000 
#    0.000    0.625    0.000    0.000    0.000    0.000 
#    0.000    0.000    0.000    0.000    0.000    0.000 
#
# Total GULP energy -356679.738042 kJ/mol
# GULP energy per Si atom -5573.120907 kJ/mol
# Density = 2.002524 g / cm^3
# Si number density = 20.070919 Si / 1000 Ang^3
#
#
#
# Elastic Constant Matrix: (Units=GPa)
#
#
# Indices 1 2 3 4 5 6 
#
# 1 69.5061 42.7883 29.2805 0.0000 0.0000 0.0000
# 2 42.7883 115.0022 40.3505 0.0000 0.0000 0.0000
# 3 29.2805 40.3505 147.8854 0.0000 0.0000 0.0000
# 4 0.0000 0.0000 0.0000 7.3217 0.0000 0.0000
# 5 0.0000 0.0000 0.0000 0.0000 16.0334 0.0000
# 6 0.0000 0.0000 0.0000 0.0000 0.0000 38.3278
#
#
#
# Elastic Compliance Matrix: (Units=1/GPa)
#
#
# Indices 1 2 3 4 5 6 
#
# 1 0.019207 -0.006427 -0.002049 0.000000 0.000000 0.000000
# 2 -0.006427 0.011767 -0.001938 0.000000 0.000000 0.000000
# 3 -0.002049 -0.001938 0.007697 0.000000 0.000000 0.000000
# 4 0.000000 0.000000 0.000000 0.136581 0.000000 0.000000
# 5 0.000000 0.000000 0.000000 0.000000 0.062370 0.000000
# 6 0.000000 0.000000 0.000000 0.000000 0.000000 0.026091
#
#
# Mechanical properties :
#
#
# Convention : Reuss Voigt Hill
#
# Bulk Modulus (GPa) = 56.04927 61.91470 58.98199
# Shear Modulus (GPa) = 17.21239 27.00154 22.10697
#
# Velocity S-wave (km/s) = 2.93162 3.67182 3.32240
# Velocity P-wave (km/s) = 6.28056 6.99223 6.64593
#
# Compressibility (1/GPa) = 0.01784144
#
# Stress axis : x y z
#
# Youngs Moduli (GPa) = 52.06383 84.98452 129.92900
#
# Poissons Ratio (x) = 0.54622 0.26625
# Poissons Ratio (y) = 0.33463 0.25180
# Poissons Ratio (z) = 0.10669 0.16470
#
# Static dielectric constant tensor:
#      x y z
#    x 1.828280 0.000000 0.000000 
#    y 0.000000 1.786490 0.000000 
#    z 0.000000 0.000000 1.729310 
# 
# From -- ./inp_files/16918.got.cif
#   From: 2010.05.17/outbox.cif.g08.bks.cpg/sg57_9_cif.got.tgz:16918.got - 2010.06.03 13:58:18.
