data_PCOD9438038
_publ_section_title
;
Structure prediction by ZEFSAII (Michael W. Deem and Ramdas Pophale) SiO2 
 PCOD9438038
Probable space group: P B C M
;
_chemical_formula_sum "Si O2"
_cell_formula_units_Z 64
_cell_length_a 11.725077
_cell_length_b 20.648681
_cell_length_c 13.281380
_cell_angle_alpha 90.000000
_cell_angle_beta 90.000000
_cell_angle_gamma 90.000000
_cell_volume 3215.520044
_symmetry_space_group_name_H-M "P B C M"
_symmetry_group_IT_number 57
_symmetry_cell_setting 'orthorhombic'
loop_
_space_group_symop_operation_xyz
x,y,z
-x,-y,1/2+z
x,1/2-y,-z
-x,1/2+y,1/2-z
-x,-y,-z
x,y,1/2-z
-x,1/2+y,z
x,1/2-y,1/2+z
loop_
_atom_site_type_symbol
_atom_site_label
_atom_site_fract_x
_atom_site_fract_y
_atom_site_fract_z
Si Si1 0.751385 0.207378 0.633332
Si Si2 0.141932 0.658698 0.437651
Si Si3 0.499868 0.584087 0.369295
Si Si4 0.269160 0.085153 0.015087
Si Si5 0.721172 0.791996 0.131822
Si Si6 0.524272 0.230536 0.130406
Si Si7 0.108139 0.326524 0.632102
Si Si8 0.251694 0.973504 0.865932
O O1 0.759286 0.187240 0.750000
O O2 0.804951 0.279083 0.619432
O O3 0.814127 0.162674 0.552536
O O4 0.620411 0.218404 0.599783
O O5 0.185208 0.593187 0.386578
O O6 0.006696 0.667507 0.431380
O O7 0.531376 0.586332 0.250000
O O8 0.609497 0.566685 0.435560
O O9 0.464486 0.656644 0.402952
O O10 0.387380 0.540563 0.377355
O O11 0.189545 0.113855 0.102603
O O12 0.277607 0.145458 0.937816
O O13 0.220640 0.026263 0.949614
O O14 0.723379 0.810017 0.250000
O O15 0.602761 0.754774 0.112221
O O16 0.822267 0.740210 0.114908
O O17 0.540969 0.227166 0.250000
O O18 0.078444 0.328651 0.750000
O O19 0.231849 0.994075 0.750000
#
# Coordination Sequence:
#
# PCOD9438038 Si02
#       8
#     8   8   8   8   8   8   8   8
#     4  10  21  38  64  97 128 158 212 270 315 369
#     4  11  24  40  67  89 125 173 216 251 321 376
#     4  10  20  38  62  89 123 164 210 257 316 384
#     4  12  24  37  63  91 126 165 215 259 318 376
#     4  10  22  38  60  94 132 161 200 261 323 378
#     4   9  17  34  61  92 124 159 197 255 319 371
#     4  11  24  43  64  91 124 164 215 268 321 382
#     4  11  24  44  63  88 126 170 215 257 312 391
#
# _framework density 19.903468
#
# number of rings (size 3 to 8) (size 9 to 14) (size 15 to 20)
#    0.000    1.500    2.500    2.625    5.250    0.500 
#    0.000    1.875    0.000    0.000    0.000    0.000 
#    0.000    0.000    0.000    0.000    0.000    0.000 
#
# Total GULP energy -357570.389851 kJ/mol
# GULP energy per Si atom -5587.037341 kJ/mol
# Density = 1.985817 g / cm^3
# Si number density = 19.903468 Si / 1000 Ang^3
#
#
#
# Elastic Constant Matrix: (Units=GPa)
#
#
# Indices 1 2 3 4 5 6 
#
# 1 74.5942 -10.9505 4.5925 0.0000 0.0000 0.0000
# 2 -10.9505 38.2982 2.7272 0.0000 0.0000 0.0000
# 3 4.5925 2.7272 108.0132 0.0000 0.0000 0.0000
# 4 0.0000 0.0000 0.0000 29.7281 0.0000 0.0000
# 5 0.0000 0.0000 0.0000 0.0000 24.1104 0.0000
# 6 0.0000 0.0000 0.0000 0.0000 0.0000 3.1154
#
#
#
# Elastic Compliance Matrix: (Units=1/GPa)
#
#
# Indices 1 2 3 4 5 6 
#
# 1 0.014046 0.004066 -0.000700 0.000000 0.000000 0.000000
# 2 0.004066 0.027335 -0.000863 0.000000 0.000000 0.000000
# 3 -0.000700 -0.000863 0.009310 0.000000 0.000000 0.000000
# 4 0.000000 0.000000 0.000000 0.033638 0.000000 0.000000
# 5 0.000000 0.000000 0.000000 0.000000 0.041476 0.000000
# 6 0.000000 0.000000 0.000000 0.000000 0.000000 0.320990
#
#
# Mechanical properties :
#
#
# Convention : Reuss Voigt Hill
#
# Bulk Modulus (GPa) = 17.95445 23.73823 20.84634
# Shear Modulus (GPa) = 10.86121 26.35988 18.61055
#
# Velocity S-wave (km/s) = 2.33854 3.64316 3.06116
# Velocity P-wave (km/s) = 4.04130 5.44513 4.79486
#
# Compressibility (1/GPa) = 0.05569650
#
# Stress axis : x y z
#
# Youngs Moduli (GPa) = 71.19547 36.58323 107.41514
#
# Poissons Ratio (x) = -0.14875 0.07518
# Poissons Ratio (y) = -0.28948 0.09271
# Poissons Ratio (z) = 0.04983 0.03157
#
# Static dielectric constant tensor:
#      x y z
#    x 1.712920 0.000000 0.000000 
#    y 0.000000 1.674740 0.000000 
#    z 0.000000 0.000000 1.745500 
# 
# From -- ./inp_files/17974.got.cif
#   From: 2010.05.17/outbox.cif.g08.bks.cpg/sg57_9_cif.got.tgz:17974.got - 2010.06.03 13:58:18.
