data_PCOD9438943
_publ_section_title
;
Structure prediction by ZEFSAII (Michael W. Deem and Ramdas Pophale) SiO2 
 PCOD9438943
Probable space group: P B C M
;
_chemical_formula_sum "Si O2"
_cell_formula_units_Z 40
_cell_length_a 12.267969
_cell_length_b 13.872798
_cell_length_c 11.164612
_cell_angle_alpha 90.000000
_cell_angle_beta 90.000000
_cell_angle_gamma 90.000000
_cell_volume 1900.117104
_symmetry_space_group_name_H-M "P B C M"
_symmetry_group_IT_number 57
_symmetry_cell_setting 'orthorhombic'
loop_
_space_group_symop_operation_xyz
x,y,z
-x,-y,1/2+z
x,1/2-y,-z
-x,1/2+y,1/2-z
-x,-y,-z
x,y,1/2-z
-x,1/2+y,z
x,1/2-y,1/2+z
loop_
_atom_site_type_symbol
_atom_site_label
_atom_site_fract_x
_atom_site_fract_y
_atom_site_fract_z
Si Si1 0.844553 0.484767 0.883700
Si Si2 0.673879 0.310024 0.618326
Si Si3 0.996557 0.683762 0.384463
Si Si4 0.756888 0.649682 0.445168
Si Si5 0.530164 0.938004 0.617924
O O1 0.860727 0.522058 0.750000
O O2 0.747913 0.405703 0.884976
O O3 0.950449 0.420334 0.912221
O O4 0.807299 0.573608 0.961747
O O5 0.699759 0.250000 0.500000
O O6 0.691470 0.263220 0.750000
O O7 0.549777 0.346216 0.612823
O O8 0.022981 0.750000 0.500000
O O9 0.038149 0.712187 0.250000
O O10 0.866238 0.678641 0.375400
O O11 0.714820 0.750000 0.500000
O O12 0.654985 0.595973 0.386708
O O13 0.509762 0.984739 0.750000
O O14 0.500000 0.000000 0.500000
#
# Coordination Sequence:
#
# PCOD9438943 Si02
#       5
#     8   8   8   8   8
#     4  10  21  40  65  92 130 169 208 257 318 375
#     4  10  21  39  62  91 121 160 207 256 313 374
#     4  10  22  41  65  97 131 168 211 259 312 378
#     4  11  23  40  64  93 127 165 213 263 316 371
#     4  11  23  41  62  89 124 163 210 260 316 379
#
# _framework density 21.051335000000002
#
# number of rings (size 3 to 8) (size 9 to 14) (size 15 to 20)
#    0.000    1.600    2.000    2.400    0.000    4.800 
#    0.000    2.000    0.000    0.000    0.000    0.000 
#    0.000    0.000    0.000    0.000    0.000    0.000 
#
# Total GULP energy -222991.052183 kJ/mol
# GULP energy per Si atom -5574.776305 kJ/mol
# Density = 2.100342 g / cm^3
# Si number density = 21.051335 Si / 1000 Ang^3
#
#
#
# Elastic Constant Matrix: (Units=GPa)
#
#
# Indices 1 2 3 4 5 6 
#
# 1 88.2364 0.2085 11.7595 0.0000 0.0000 0.0000
# 2 0.2085 58.8228 80.1754 0.0000 0.0000 0.0000
# 3 11.7595 80.1754 199.9913 0.0000 0.0000 0.0000
# 4 0.0000 0.0000 0.0000 3.0259 0.0000 0.0000
# 5 0.0000 0.0000 0.0000 0.0000 16.5081 0.0000
# 6 0.0000 0.0000 0.0000 0.0000 0.0000 30.4687
#
#
#
# Elastic Compliance Matrix: (Units=1/GPa)
#
#
# Indices 1 2 3 4 5 6 
#
# 1 0.011523 0.001946 -0.001458 0.000000 0.000000 0.000000
# 2 0.001946 0.037809 -0.015272 0.000000 0.000000 0.000000
# 3 -0.001458 -0.015272 0.011208 0.000000 0.000000 0.000000
# 4 0.000000 0.000000 0.000000 0.330483 0.000000 0.000000
# 5 0.000000 0.000000 0.000000 0.000000 0.060576 0.000000
# 6 0.000000 0.000000 0.000000 0.000000 0.000000 0.032821
#
#
# Mechanical properties :
#
#
# Convention : Reuss Voigt Hill
#
# Bulk Modulus (GPa) = 32.28625 59.03748 45.66187
# Shear Modulus (GPa) = 9.53633 26.99434 18.26533
#
# Velocity S-wave (km/s) = 2.13070 3.58482 2.94880
# Velocity P-wave (km/s) = 4.62854 6.72607 5.77336
#
# Compressibility (1/GPa) = 0.03097293
#
# Stress axis : x y z
#
# Youngs Moduli (GPa) = 86.78397 26.44904 89.21996
#
# Poissons Ratio (x) = -0.05147 0.13005
# Poissons Ratio (y) = -0.16888 1.36254
# Poissons Ratio (z) = 0.12650 0.40392
#
# Static dielectric constant tensor:
#      x y z
#    x 1.791690 0.000000 0.000000 
#    y 0.000000 1.718990 0.000000 
#    z 0.000000 0.000000 1.767620 
# 
# From -- ./inp_files/13578.got.cif
#   From: 2010.05.17/outbox.cif.g08.bks.cpg/sg57_7_cif.got.tgz:13578.got - 2010.06.03 13:58:18.
