data_PCOD9438051
_publ_section_title
;
Structure prediction by ZEFSAII (Michael W. Deem and Ramdas Pophale) SiO2 
 PCOD9438051
Probable space group: P B C M
;
_chemical_formula_sum "Si O2"
_cell_formula_units_Z 48
_cell_length_a 9.621946
_cell_length_b 14.441002
_cell_length_c 14.996532
_cell_angle_alpha 90.000000
_cell_angle_beta 90.000000
_cell_angle_gamma 90.000000
_cell_volume 2083.776241
_symmetry_space_group_name_H-M "P B C M"
_symmetry_group_IT_number 57
_symmetry_cell_setting 'orthorhombic'
loop_
_space_group_symop_operation_xyz
x,y,z
-x,-y,1/2+z
x,1/2-y,-z
-x,1/2+y,1/2-z
-x,-y,-z
x,y,1/2-z
-x,1/2+y,z
x,1/2-y,1/2+z
loop_
_atom_site_type_symbol
_atom_site_label
_atom_site_fract_x
_atom_site_fract_y
_atom_site_fract_z
Si Si1 0.901445 0.854043 0.890810
Si Si2 0.701031 0.006965 0.915058
Si Si3 0.814577 0.845668 0.098757
Si Si4 0.498394 0.667457 0.644288
Si Si5 0.820031 0.454903 0.889822
Si Si6 0.525409 0.119970 0.350698
O O1 0.856823 0.752307 0.858055
O O2 0.060036 0.880679 0.875133
O O3 0.809702 0.942382 0.861315
O O4 0.871126 0.847451 0.997433
O O5 0.627234 0.098519 0.877791
O O6 0.570216 0.936290 0.918825
O O7 0.779985 0.035174 0.005347
O O8 0.647093 0.852361 0.099508
O O9 0.865160 0.942290 0.140196
O O10 0.523358 0.660207 0.750000
O O11 0.462703 0.773448 0.622446
O O12 0.676129 0.424769 0.847463
O O13 0.465784 0.114719 0.250000
#
# Coordination Sequence:
#
# PCOD9438051 Si02
#       6
#     8   8   8   8   8   8
#     4  10  23  39  64  96 128 163 211 266 321 380
#     4  11  21  40  66  95 123 165 218 266 314 376
#     4  10  20  38  63  87 131 165 206 263 322 383
#     4  11  24  39  63  95 127 170 219 265 321 380
#     4  11  24  40  65 100 130 167 213 266 325 380
#     4  11  24  41  62  94 131 169 214 264 318 380
#
# _framework density 23.035102999999999
#
# number of rings (size 3 to 8) (size 9 to 14) (size 15 to 20)
#    0.000    1.333    3.333    3.000    2.333    4.667 
#    0.000    2.500    0.000    6.000    0.000    0.000 
#    0.000    0.000    0.000    0.000    0.000    0.000 
#
# Total GULP energy -268171.081803 kJ/mol
# GULP energy per Si atom -5586.897538 kJ/mol
# Density = 2.298267 g / cm^3
# Si number density = 23.035103 Si / 1000 Ang^3
#
#
#
# Elastic Constant Matrix: (Units=GPa)
#
#
# Indices 1 2 3 4 5 6 
#
# 1 105.6791 28.6679 7.1896 0.0000 0.0000 0.0000
# 2 28.6679 130.5522 13.4182 0.0000 0.0000 0.0000
# 3 7.1896 13.4182 56.1012 0.0000 0.0000 0.0000
# 4 0.0000 0.0000 0.0000 27.7638 0.0000 0.0000
# 5 0.0000 0.0000 0.0000 0.0000 49.4591 0.0000
# 6 0.0000 0.0000 0.0000 0.0000 0.0000 43.7009
#
#
#
# Elastic Compliance Matrix: (Units=1/GPa)
#
#
# Indices 1 2 3 4 5 6 
#
# 1 0.010095 -0.002136 -0.000783 0.000000 0.000000 0.000000
# 2 -0.002136 0.008305 -0.001713 0.000000 0.000000 0.000000
# 3 -0.000783 -0.001713 0.018335 0.000000 0.000000 0.000000
# 4 0.000000 0.000000 0.000000 0.036018 0.000000 0.000000
# 5 0.000000 0.000000 0.000000 0.000000 0.020219 0.000000
# 6 0.000000 0.000000 0.000000 0.000000 0.000000 0.022883
#
#
# Mechanical properties :
#
#
# Convention : Reuss Voigt Hill
#
# Bulk Modulus (GPa) = 36.40111 43.43154 39.91632
# Shear Modulus (GPa) = 37.23685 40.38855 38.81270
#
# Velocity S-wave (km/s) = 4.02497 4.19184 4.10925
# Velocity P-wave (km/s) = 6.11860 6.50570 6.31512
#
# Compressibility (1/GPa) = 0.02747169
#
# Stress axis : x y z
#
# Youngs Moduli (GPa) = 99.05495 120.41052 54.54089
#
# Poissons Ratio (x) = 0.25724 0.04269
# Poissons Ratio (y) = 0.21162 0.09341
# Poissons Ratio (z) = 0.07754 0.20621
#
# Static dielectric constant tensor:
#      x y z
#    x 1.820210 0.000000 0.000000 
#    y 0.000000 1.896650 0.000000 
#    z 0.000000 0.000000 1.913620 
# 
# From -- ./inp_files/20924.got.cif
#   From: 2010.05.17/outbox.cif.g08.bks.cpg/sg57_11_cif.got.tgz:20924.got - 2010.06.03 13:58:18.
