data_PCOD9438879
_publ_section_title
;
Structure prediction by ZEFSAII (Michael W. Deem and Ramdas Pophale) SiO2 
 PCOD9438879
Probable space group: P B C M
;
_chemical_formula_sum "Si O2"
_cell_formula_units_Z 64
_cell_length_a 19.361759
_cell_length_b 8.262287
_cell_length_c 17.235645
_cell_angle_alpha 90.000000
_cell_angle_beta 90.000000
_cell_angle_gamma 90.000000
_cell_volume 2757.227663
_symmetry_space_group_name_H-M "P B C M"
_symmetry_group_IT_number 57
_symmetry_cell_setting 'orthorhombic'
loop_
_space_group_symop_operation_xyz
x,y,z
-x,-y,1/2+z
x,1/2-y,-z
-x,1/2+y,1/2-z
-x,-y,-z
x,y,1/2-z
-x,1/2+y,z
x,1/2-y,1/2+z
loop_
_atom_site_type_symbol
_atom_site_label
_atom_site_fract_x
_atom_site_fract_y
_atom_site_fract_z
Si Si1 0.845407 0.314405 0.657615
Si Si2 0.227869 0.154476 0.842570
Si Si3 0.270420 0.659619 0.919794
Si Si4 0.590836 0.204730 0.091460
Si Si5 0.646773 0.677693 0.082943
Si Si6 0.516893 0.508184 0.159076
Si Si7 0.094680 0.291255 0.590522
Si Si8 0.017865 0.983068 0.657505
O O1 0.848363 0.302608 0.750000
O O2 0.801123 0.476309 0.637239
O O3 0.801017 0.166608 0.625619
O O4 0.923371 0.352465 0.632123
O O5 0.225817 0.170778 0.750000
O O6 0.303236 0.196930 0.873702
O O7 0.172941 0.277196 0.880903
O O8 0.330921 0.769561 0.881238
O O9 0.306713 0.485734 0.929251
O O10 0.255815 0.750000 0.000000
O O11 0.545685 0.331961 0.139480
O O12 0.552078 0.039502 0.109248
O O13 0.588990 0.250000 0.000000
O O14 0.579619 0.623267 0.130440
O O15 0.627234 0.750000 0.000000
O O16 0.503624 0.526835 0.250000
O O17 0.091638 0.250000 0.500000
O O18 0.052467 0.451536 0.611772
O O19 0.053600 0.152907 0.638425
O O20 0.006238 0.971277 0.750000
#
# Coordination Sequence:
#
# PCOD9438879 Si02
#       8
#     8   8   8   8   8   8   8   8
#     4   9  20  37  58  82 115 153 191 235 289 349
#     4  10  21  39  60  85 117 156 197 242 298 362
#     4  10  22  38  59  85 114 150 193 239 291 350
#     4  10  22  40  60  85 118 159 200 243 298 360
#     4  11  23  39  60  86 120 156 197 248 296 354
#     4  11  23  39  60  89 120 154 199 252 301 355
#     4  11  22  37  59  88 118 153 199 250 298 353
#     4  10  21  39  59  84 119 159 198 243 298 359
#
# _framework density 23.211718999999999
#
# number of rings (size 3 to 8) (size 9 to 14) (size 15 to 20)
#    0.000    1.750    0.000    4.875    0.000    8.500 
#    0.000    2.500    0.000    0.000    0.000    0.000 
#    0.000    0.000    0.000    0.000    0.000    0.000 
#
# Total GULP energy -358071.239578 kJ/mol
# GULP energy per Si atom -5594.863118 kJ/mol
# Density = 2.315889 g / cm^3
# Si number density = 23.211719 Si / 1000 Ang^3
#
#
#
# Elastic Constant Matrix: (Units=GPa)
#
#
# Indices 1 2 3 4 5 6 
#
# 1 95.3963 17.6610 18.1073 0.0000 0.0000 0.0000
# 2 17.6610 42.1411 3.1843 0.0000 0.0000 0.0000
# 3 18.1073 3.1843 75.9688 0.0000 0.0000 0.0000
# 4 0.0000 0.0000 0.0000 28.7031 0.0000 0.0000
# 5 0.0000 0.0000 0.0000 0.0000 36.8599 0.0000
# 6 0.0000 0.0000 0.0000 0.0000 0.0000 78.1282
#
#
#
# Elastic Compliance Matrix: (Units=1/GPa)
#
#
# Indices 1 2 3 4 5 6 
#
# 1 0.011865 -0.004774 -0.002628 0.000000 0.000000 0.000000
# 2 -0.004774 0.025726 0.000060 0.000000 0.000000 0.000000
# 3 -0.002628 0.000060 0.013787 0.000000 0.000000 0.000000
# 4 0.000000 0.000000 0.000000 0.034839 0.000000 0.000000
# 5 0.000000 0.000000 0.000000 0.000000 0.027130 0.000000
# 6 0.000000 0.000000 0.000000 0.000000 0.000000 0.012799
#
#
# Mechanical properties :
#
#
# Convention : Reuss Voigt Hill
#
# Bulk Modulus (GPa) = 27.25274 32.37905 29.81589
# Shear Modulus (GPa) = 32.66620 40.37513 36.52066
#
# Velocity S-wave (km/s) = 3.75549 4.17517 3.97088
# Velocity P-wave (km/s) = 5.52914 6.10102 5.82211
#
# Compressibility (1/GPa) = 0.03669356
#
# Stress axis : x y z
#
# Youngs Moduli (GPa) = 84.27967 38.87102 72.53103
#
# Poissons Ratio (x) = 0.18557 0.19061
# Poissons Ratio (y) = 0.40236 -0.00432
# Poissons Ratio (z) = 0.22149 -0.00232
#
# Static dielectric constant tensor:
#      x y z
#    x 1.841820 0.000000 0.000000 
#    y 0.000000 1.979890 0.000000 
#    z 0.000000 0.000000 1.802770 
# 
# From -- ./inp_files/23005.got.cif
#   From: 2010.05.17/outbox.cif.g08.bks.cpg/sg57_12_cif.got.tgz:23005.got - 2010.06.03 13:58:18.
