data_PCOD9438924
_publ_section_title
;
Structure prediction by ZEFSAII (Michael W. Deem and Ramdas Pophale) SiO2 
 PCOD9438924
Probable space group: P B C M
;
_chemical_formula_sum "Si O2"
_cell_formula_units_Z 56
_cell_length_a 13.241411
_cell_length_b 13.447718
_cell_length_c 15.804570
_cell_angle_alpha 90.000000
_cell_angle_beta 90.000000
_cell_angle_gamma 90.000000
_cell_volume 2814.268590
_symmetry_space_group_name_H-M "P B C M"
_symmetry_group_IT_number 57
_symmetry_cell_setting 'orthorhombic'
loop_
_space_group_symop_operation_xyz
x,y,z
-x,-y,1/2+z
x,1/2-y,-z
-x,1/2+y,1/2-z
-x,-y,-z
x,y,1/2-z
-x,1/2+y,z
x,1/2-y,1/2+z
loop_
_atom_site_type_symbol
_atom_site_label
_atom_site_fract_x
_atom_site_fract_y
_atom_site_fract_z
Si Si1 0.570101 0.456275 0.648541
Si Si2 0.886888 0.845412 0.049765
Si Si3 0.910286 0.308822 0.348378
Si Si4 0.741767 0.169813 0.434191
Si Si5 0.314169 0.148645 0.851715
Si Si6 0.648232 0.878487 0.852802
Si Si7 0.825466 0.007102 0.936160
O O1 0.565435 0.460311 0.750000
O O2 0.654971 0.376617 0.623009
O O3 0.607430 0.564591 0.618029
O O4 0.459436 0.423231 0.619901
O O5 0.796340 0.875868 0.111824
O O6 0.986419 0.811085 0.098713
O O7 0.848060 0.750000 0.000000
O O8 0.903306 0.932047 0.981152
O O9 0.928479 0.290233 0.250000
O O10 0.830598 0.228341 0.384658
O O11 0.866459 0.419495 0.364202
O O12 0.697684 0.250000 0.500000
O O13 0.787700 0.081670 0.490770
O O14 0.309424 0.143577 0.750000
O O15 0.344703 0.261342 0.873420
O O16 0.658206 0.887688 0.750000
O O17 0.736419 0.939575 0.898474
#
# Coordination Sequence:
#
# PCOD9438924 Si02
#       7
#     8   8   8   8   8   8   8
#     4  10  21  40  65  91 125 172 215 261 315 375
#     4  12  22  41  64  93 123 165 206 265 318 371
#     4  11  25  43  64  91 127 170 212 260 318 380
#     4  10  22  41  61  93 127 162 210 262 313 377
#     4  10  21  39  61  90 126 163 211 260 312 378
#     4  10  22  40  63  94 128 168 215 259 315 379
#     4  11  22  41  63  92 126 164 207 263 319 376
#
# _framework density 19.898598
#
# number of rings (size 3 to 8) (size 9 to 14) (size 15 to 20)
#    0.000    1.429    2.857    3.000    0.000    2.857 
#    2.571    5.714    0.000    0.000    0.000    0.000 
#    0.000    0.000    0.000    0.000    0.000    0.000 
#
# Total GULP energy -312761.234065 kJ/mol
# GULP energy per Si atom -5585.022037 kJ/mol
# Density = 1.985331 g / cm^3
# Si number density = 19.898598 Si / 1000 Ang^3
#
#
#
# Elastic Constant Matrix: (Units=GPa)
#
#
# Indices 1 2 3 4 5 6 
#
# 1 103.9171 38.3426 40.7366 0.0000 0.0000 0.0000
# 2 38.3426 122.0305 36.4391 0.0000 0.0000 0.0000
# 3 40.7366 36.4391 58.1929 0.0000 0.0000 0.0000
# 4 0.0000 0.0000 0.0000 25.0855 0.0000 0.0000
# 5 0.0000 0.0000 0.0000 0.0000 11.5461 0.0000
# 6 0.0000 0.0000 0.0000 0.0000 0.0000 26.1225
#
#
#
# Elastic Compliance Matrix: (Units=1/GPa)
#
#
# Indices 1 2 3 4 5 6 
#
# 1 0.013561 -0.001754 -0.008395 0.000000 0.000000 0.000000
# 2 -0.001754 0.010306 -0.005226 0.000000 0.000000 0.000000
# 3 -0.008395 -0.005226 0.026333 0.000000 0.000000 0.000000
# 4 0.000000 0.000000 0.000000 0.039864 0.000000 0.000000
# 5 0.000000 0.000000 0.000000 0.000000 0.086610 0.000000
# 6 0.000000 0.000000 0.000000 0.000000 0.000000 0.038281
#
#
# Mechanical properties :
#
#
# Convention : Reuss Voigt Hill
#
# Bulk Modulus (GPa) = 51.41045 57.24190 54.32617
# Shear Modulus (GPa) = 19.82653 23.79230 21.80941
#
# Velocity S-wave (km/s) = 3.15997 3.46161 3.31422
# Velocity P-wave (km/s) = 6.26148 6.69374 6.48122
#
# Compressibility (1/GPa) = 0.01945130
#
# Stress axis : x y z
#
# Youngs Moduli (GPa) = 73.74017 97.02851 37.97539
#
# Poissons Ratio (x) = 0.17021 0.31879
# Poissons Ratio (y) = 0.12936 0.19844
# Poissons Ratio (z) = 0.61902 0.50702
#
# Static dielectric constant tensor:
#      x y z
#    x 1.681920 0.000000 0.000000 
#    y 0.000000 1.705770 0.000000 
#    z 0.000000 0.000000 1.697830 
# 
# From -- ./inp_files/18513.got.cif
#   From: 2010.05.17/outbox.cif.g08.bks.cpg/sg57_10_cif.got.tgz:18513.got - 2010.06.03 13:58:18.
