data_PCOD9438213
_publ_section_title
;
Structure prediction by ZEFSAII (Michael W. Deem and Ramdas Pophale) SiO2 
 PCOD9438213
Probable space group: P B C M
;
_chemical_formula_sum "Si O2"
_cell_formula_units_Z 60
_cell_length_a 11.805384
_cell_length_b 8.128385
_cell_length_c 28.047086
_cell_angle_alpha 90.000000
_cell_angle_beta 90.000000
_cell_angle_gamma 90.000000
_cell_volume 2691.362086
_symmetry_space_group_name_H-M "P B C M"
_symmetry_group_IT_number 57
_symmetry_cell_setting 'orthorhombic'
loop_
_space_group_symop_operation_xyz
x,y,z
-x,-y,1/2+z
x,1/2-y,-z
-x,1/2+y,1/2-z
-x,-y,-z
x,y,1/2-z
-x,1/2+y,z
x,1/2-y,1/2+z
loop_
_atom_site_type_symbol
_atom_site_label
_atom_site_fract_x
_atom_site_fract_y
_atom_site_fract_z
Si Si1 0.264345 0.461253 0.085738
Si Si2 0.163946 0.197428 0.831194
Si Si3 0.740023 0.240343 0.335298
Si Si4 0.941609 0.454210 0.304815
Si Si5 0.675624 0.462642 0.084971
Si Si6 0.292719 0.987768 0.750000
Si Si7 0.533272 0.726192 0.555572
Si Si8 0.868994 0.445247 0.007236
O O1 0.220301 0.309046 0.117441
O O2 0.244237 0.615824 0.120530
O O3 0.394531 0.429419 0.073985
O O4 0.199037 0.474292 0.036428
O O5 0.119863 0.376133 0.816620
O O6 0.052941 0.081797 0.834684
O O7 0.245608 0.116326 0.791859
O O8 0.857295 0.301432 0.312096
O O9 0.690789 0.403031 0.360575
O O10 0.675994 0.147123 0.292847
O O11 0.979699 0.459486 0.250000
O O12 0.598081 0.316118 0.062435
O O13 0.595690 0.620735 0.080036
O O14 0.794160 0.478076 0.055448
O O15 0.553622 0.750000 0.500000
O O16 0.867330 0.250000 0.000000
O O17 0.000000 0.500000 0.000000
#
# Coordination Sequence:
#
# PCOD9438213 Si02
#       8
#     8   8   8   8   8   4   8   8
#     4  11  25  44  67 104 141 190 242 300 370 428
#     4  11  23  37  64  97 139 182 246 294 365 434
#     4  11  24  42  67  99 143 179 240 299 372 430
#     4  12  22  39  63  97 138 192 246 306 360 437
#     4  12  26  47  76 108 143 192 244 315 367 437
#     4  10  20  40  62  98 132 182 222 300 350 442
#     4  12  25  46  80 106 142 185 261 311 359 426
#     4  12  28  46  66 101 153 194 237 290 378 454
#
# _framework density 22.293545999999999
#
# number of rings (size 3 to 8) (size 9 to 14) (size 15 to 20)
#    0.000    0.533    4.667    4.000    3.733    1.067 
#    0.000    0.000    0.000    7.200    0.000    0.000 
#    0.000    0.000    0.000    0.000    0.000    0.000 
#
# Total GULP energy -334215.542556 kJ/mol
# GULP energy per Si atom -5570.259043 kJ/mol
# Density = 2.224280 g / cm^3
# Si number density = 22.293546 Si / 1000 Ang^3
#
#
#
# Elastic Constant Matrix: (Units=GPa)
#
#
# Indices 1 2 3 4 5 6 
#
# 1 101.0352 28.4839 26.9118 0.0000 0.0000 0.0000
# 2 28.4839 73.8592 24.6034 0.0000 0.0000 0.0000
# 3 26.9118 24.6034 91.7617 0.0000 0.0000 0.0000
# 4 0.0000 0.0000 0.0000 35.7064 0.0000 0.0000
# 5 0.0000 0.0000 0.0000 0.0000 35.9574 0.0000
# 6 0.0000 0.0000 0.0000 0.0000 0.0000 20.7238
#
#
#
# Elastic Compliance Matrix: (Units=1/GPa)
#
#
# Indices 1 2 3 4 5 6 
#
# 1 0.011572 -0.003659 -0.002413 0.000000 0.000000 0.000000
# 2 -0.003659 0.016024 -0.003223 0.000000 0.000000 0.000000
# 3 -0.002413 -0.003223 0.012470 0.000000 0.000000 0.000000
# 4 0.000000 0.000000 0.000000 0.028006 0.000000 0.000000
# 5 0.000000 0.000000 0.000000 0.000000 0.027811 0.000000
# 6 0.000000 0.000000 0.000000 0.000000 0.000000 0.048254
#
#
# Mechanical properties :
#
#
# Convention : Reuss Voigt Hill
#
# Bulk Modulus (GPa) = 46.56471 47.40603 46.98537
# Shear Modulus (GPa) = 29.43176 30.92132 30.17654
#
# Velocity S-wave (km/s) = 3.63739 3.72830 3.68312
# Velocity P-wave (km/s) = 6.21073 6.31223 6.26169
#
# Compressibility (1/GPa) = 0.02147549
#
# Stress axis : x y z
#
# Youngs Moduli (GPa) = 86.41753 62.40606 80.19487
#
# Poissons Ratio (x) = 0.22834 0.19349
# Poissons Ratio (y) = 0.31620 0.25849
# Poissons Ratio (z) = 0.20850 0.20115
#
# Static dielectric constant tensor:
#      x y z
#    x 1.832130 0.000000 0.000000 
#    y 0.000000 1.925650 0.000000 
#    z 0.000000 0.000000 1.785830 
# 
# From -- ./inp_files/28626.got.cif
#   From: 2010.05.17/outbox.cif.g08.bks.cpg/sg57_15_cif.got.tgz:28626.got - 2010.06.03 13:58:18.
