data_PCOD9438295
_publ_section_title
;
Structure prediction by ZEFSAII (Michael W. Deem and Ramdas Pophale) SiO2 
 PCOD9438295
Probable space group: P B C M
;
_chemical_formula_sum "Si O2"
_cell_formula_units_Z 64
_cell_length_a 11.623827
_cell_length_b 14.493480
_cell_length_c 17.264490
_cell_angle_alpha 90.000000
_cell_angle_beta 90.000000
_cell_angle_gamma 90.000000
_cell_volume 2908.543523
_symmetry_space_group_name_H-M "P B C M"
_symmetry_group_IT_number 57
_symmetry_cell_setting 'orthorhombic'
loop_
_space_group_symop_operation_xyz
x,y,z
-x,-y,1/2+z
x,1/2-y,-z
-x,1/2+y,1/2-z
-x,-y,-z
x,y,1/2-z
-x,1/2+y,z
x,1/2-y,1/2+z
loop_
_atom_site_type_symbol
_atom_site_label
_atom_site_fract_x
_atom_site_fract_y
_atom_site_fract_z
Si Si1 0.821582 0.398230 0.400526
Si Si2 0.068522 0.325343 0.843446
Si Si3 0.135503 0.936118 0.924030
Si Si4 0.440061 0.976636 0.081345
Si Si5 0.680762 0.638030 0.340629
Si Si6 0.940997 0.607932 0.838802
Si Si7 0.297978 0.718737 0.090658
Si Si8 0.458041 0.282745 0.409016
O O1 0.876464 0.417420 0.484704
O O2 0.692473 0.438957 0.410931
O O3 0.793546 0.292057 0.377909
O O4 0.924750 0.424634 0.343497
O O5 0.061486 0.331801 0.750000
O O6 0.188750 0.371902 0.870254
O O7 0.066333 0.215721 0.861957
O O8 0.964480 0.379352 0.881826
O O9 0.254308 0.884634 0.902513
O O10 0.128412 0.040651 0.895907
O O11 0.417374 0.072610 0.124155
O O12 0.518907 0.890363 0.105622
O O13 0.500000 0.000000 0.000000
O O14 0.683445 0.621390 0.250000
O O15 0.646500 0.741868 0.361702
O O16 0.901644 0.598355 0.750000
O O17 0.424254 0.735939 0.121090
O O18 0.303104 0.750000 0.000000
O O19 0.444705 0.250000 0.500000
#
# Coordination Sequence:
#
# PCOD9438295 Si02
#       8
#     8   8   8   8   8   8   8   8
#     4  10  21  39  62  93 124 160 212 269 310 383
#     4  10  23  43  62  89 134 176 214 267 329 392
#     4  11  20  37  64  91 123 160 210 264 320 379
#     4  11  23  41  71  99 129 175 222 269 335 399
#     4  11  25  45  65  93 134 177 219 272 333 399
#     4  11  23  39  59  91 129 173 216 258 325 395
#     4   8  17  34  61  86 119 152 195 263 316 361
#     4  10  20  42  67  95 128 167 215 275 328 389
#
# _framework density 22.004141000000001
#
# number of rings (size 3 to 8) (size 9 to 14) (size 15 to 20)
#    0.000    1.750    2.500    2.250    0.000    3.000 
#    2.250    3.125    0.000    0.000    0.000    0.000 
#    0.000    0.000    0.000    0.000    0.000    0.000 
#
# Total GULP energy -356837.300623 kJ/mol
# GULP energy per Si atom -5575.582822 kJ/mol
# Density = 2.195406 g / cm^3
# Si number density = 22.004141 Si / 1000 Ang^3
#
#
#
# Elastic Constant Matrix: (Units=GPa)
#
#
# Indices 1 2 3 4 5 6 
#
# 1 28.5332 -6.5964 -3.2291 0.0000 0.0000 0.0000
# 2 -6.5964 90.9127 11.5519 0.0000 0.0000 0.0000
# 3 -3.2291 11.5519 24.5438 0.0000 0.0000 0.0000
# 4 0.0000 0.0000 0.0000 16.0642 0.0000 0.0000
# 5 0.0000 0.0000 0.0000 0.0000 17.5809 0.0000
# 6 0.0000 0.0000 0.0000 0.0000 0.0000 34.6396
#
#
#
# Elastic Compliance Matrix: (Units=1/GPa)
#
#
# Indices 1 2 3 4 5 6 
#
# 1 0.035962 0.002136 0.003726 0.000000 0.000000 0.000000
# 2 0.002136 0.011826 -0.005285 0.000000 0.000000 0.000000
# 3 0.003726 -0.005285 0.043721 0.000000 0.000000 0.000000
# 4 0.000000 0.000000 0.000000 0.062250 0.000000 0.000000
# 5 0.000000 0.000000 0.000000 0.000000 0.056880 0.000000
# 6 0.000000 0.000000 0.000000 0.000000 0.000000 0.028869
#
#
# Mechanical properties :
#
#
# Convention : Reuss Voigt Hill
#
# Bulk Modulus (GPa) = 10.79175 16.38250 13.58713
# Shear Modulus (GPa) = 18.57062 23.14116 20.85589
#
# Velocity S-wave (km/s) = 2.90825 3.24647 3.08200
# Velocity P-wave (km/s) = 4.02397 4.63833 4.34203
#
# Compressibility (1/GPa) = 0.09266336
#
# Stress axis : x y z
#
# Youngs Moduli (GPa) = 27.80690 84.55880 22.87218
#
# Poissons Ratio (x) = -0.18061 -0.08522
# Poissons Ratio (y) = -0.05939 0.12088
# Poissons Ratio (z) = -0.10361 0.44690
#
# Static dielectric constant tensor:
#      x y z
#    x 1.829210 0.000000 0.000000 
#    y 0.000000 1.897650 0.000000 
#    z 0.000000 0.000000 1.787920 
# 
# From -- ./inp_files/22046.got.cif
#   From: 2010.05.17/outbox.cif.g08.bks.cpg/sg57_12_cif.got.tgz:22046.got - 2010.06.03 13:58:18.
