data_PCOD9438337
_publ_section_title
;
Structure prediction by ZEFSAII (Michael W. Deem and Ramdas Pophale) SiO2 
 PCOD9438337
Probable space group: P B C M
;
_chemical_formula_sum "Si O2"
_cell_formula_units_Z 64
_cell_length_a 15.078115
_cell_length_b 12.841890
_cell_length_c 14.840762
_cell_angle_alpha 90.000000
_cell_angle_beta 90.000000
_cell_angle_gamma 90.000000
_cell_volume 2873.638922
_symmetry_space_group_name_H-M "P B C M"
_symmetry_group_IT_number 57
_symmetry_cell_setting 'orthorhombic'
loop_
_space_group_symop_operation_xyz
x,y,z
-x,-y,1/2+z
x,1/2-y,-z
-x,1/2+y,1/2-z
-x,-y,-z
x,y,1/2-z
-x,1/2+y,z
x,1/2-y,1/2+z
loop_
_atom_site_type_symbol
_atom_site_label
_atom_site_fract_x
_atom_site_fract_y
_atom_site_fract_z
Si Si1 0.636112 0.723642 0.360804
Si Si2 0.654261 0.956390 0.359498
Si Si3 0.834748 0.670437 0.360255
Si Si4 0.860314 0.435833 0.358358
Si Si5 0.552007 0.350936 0.645553
Si Si6 0.160662 0.938652 0.643132
Si Si7 0.047886 0.371125 0.139289
Si Si8 0.272842 0.762019 0.101915
O O1 0.636470 0.722244 0.250000
O O2 0.635163 0.842502 0.391494
O O3 0.731554 0.678903 0.387546
O O4 0.543168 0.677594 0.393150
O O5 0.647013 0.955962 0.250000
O O6 0.591519 0.045243 0.397659
O O7 0.754115 0.990227 0.376888
O O8 0.837749 0.672281 0.250000
O O9 0.865644 0.555532 0.389898
O O10 0.893094 0.771152 0.389238
O O11 0.864679 0.439504 0.250000
O O12 0.770229 0.374074 0.380498
O O13 0.945407 0.369217 0.389428
O O14 0.533366 0.374364 0.750000
O O15 0.634631 0.269573 0.648919
O O16 0.146527 0.929243 0.750000
O O17 0.194582 0.823814 0.617001
O O18 0.082552 0.013980 0.609877
O O19 0.051843 0.369840 0.250000
O O20 0.298969 0.750000 0.000000
#
# Coordination Sequence:
#
# PCOD9438337 Si02
#       8
#     8   8   8   8   8   8   8   8
#     4   9  15  26  48  79 112 136 167 222 279 324
#     4   8  13  24  43  73 103 130 169 214 260 313
#     4   9  17  30  50  84 119 139 168 222 281 323
#     4  10  21  34  55  85 116 144 173 223 279 322
#     4   9  18  31  52  79 102 135 182 225 271 327
#     4   9  16  31  57  80 102 137 183 225 259 318
#     4   9  17  30  54  87 113 137 174 221 270 324
#     4  11  23  38  53  73 108 149 189 227 271 315
#
# _framework density 22.271414
#
# number of rings (size 3 to 8) (size 9 to 14) (size 15 to 20)
#    0.000    2.750    1.250    1.875    1.750    1.000 
#    0.000    4.375    0.000    6.750    0.000    0.000 
#    0.000    0.000    0.000    0.000    0.000    0.000 
#
# Total GULP energy -356602.531638 kJ/mol
# GULP energy per Si atom -5571.914557 kJ/mol
# Density = 2.222072 g / cm^3
# Si number density = 22.271414 Si / 1000 Ang^3
#
#
#
# Elastic Constant Matrix: (Units=GPa)
#
#
# Indices 1 2 3 4 5 6 
#
# 1 205.1572 64.7586 -31.7349 0.0000 0.0000 0.0000
# 2 64.7586 81.1053 -6.0286 0.0000 0.0000 0.0000
# 3 -31.7349 -6.0286 43.0805 0.0000 0.0000 0.0000
# 4 0.0000 0.0000 0.0000 -36.7883 0.0000 0.0000
# 5 0.0000 0.0000 0.0000 0.0000 -5.3243 0.0000
# 6 0.0000 0.0000 0.0000 0.0000 0.0000 21.9416
#
#
#
# Elastic Compliance Matrix: (Units=1/GPa)
#
#
# Indices 1 2 3 4 5 6 
#
# 1 0.007329 -0.005508 0.004628 0.000000 0.000000 0.000000
# 2 -0.005508 0.016598 -0.001734 0.000000 0.000000 0.000000
# 3 0.004628 -0.001734 0.026379 0.000000 0.000000 0.000000
# 4 0.000000 0.000000 0.000000 -0.027183 0.000000 0.000000
# 5 0.000000 0.000000 0.000000 0.000000 -0.187818 0.000000
# 6 0.000000 0.000000 0.000000 0.000000 0.000000 0.045575
#
#
# Mechanical properties :
#
#
# Convention : Reuss Voigt Hill
#
# Bulk Modulus (GPa) = 22.18403 42.59258 32.38830
# Shear Modulus (GPa) = -50.57405 16.12232 -17.22586
#
# Velocity S-wave (km/s) = -4.77047 2.69346 -2.78412
# Velocity P-wave (km/s) = 4.51229 5.37018 2.05889
#
# Compressibility (1/GPa) = 0.04507748
#
# Stress axis : x y z
#
# Youngs Moduli (GPa) = 136.45044 60.24720 37.90933
#
# Poissons Ratio (x) = 0.33182 -0.17544
# Poissons Ratio (y) = 0.75151 0.06575
# Poissons Ratio (z) = -0.63148 0.10449
#
# Static dielectric constant tensor:
#      x y z
#    x 1.856220 0.000000 0.000000 
#    y 0.000000 1.807380 0.000000 
#    z 0.000000 0.000000 1.746450 
# 
# From -- ./inp_files/22628.got.cif
#   From: 2010.05.17/outbox.cif.g08.bks.cpg/sg57_12_cif.got.tgz:22628.got - 2010.06.03 13:58:18.
