data_PCOD9438727
_publ_section_title
;
Structure prediction by ZEFSAII (Michael W. Deem and Ramdas Pophale) SiO2 
 PCOD9438727
Probable space group: P B C M
;
_chemical_formula_sum "Si O2"
_cell_formula_units_Z 48
_cell_length_a 14.807638
_cell_length_b 20.921092
_cell_length_c 8.730662
_cell_angle_alpha 90.000000
_cell_angle_beta 90.000000
_cell_angle_gamma 90.000000
_cell_volume 2704.688866
_symmetry_space_group_name_H-M "P B C M"
_symmetry_group_IT_number 57
_symmetry_cell_setting 'orthorhombic'
loop_
_space_group_symop_operation_xyz
x,y,z
-x,-y,1/2+z
x,1/2-y,-z
-x,1/2+y,1/2-z
-x,-y,-z
x,y,1/2-z
-x,1/2+y,z
x,1/2-y,1/2+z
loop_
_atom_site_type_symbol
_atom_site_label
_atom_site_fract_x
_atom_site_fract_y
_atom_site_fract_z
Si Si1 0.941454 0.680443 0.565526
Si Si2 0.443262 0.940640 0.933607
Si Si3 0.743472 0.018359 0.934013
Si Si4 0.943186 0.059147 0.565249
Si Si5 0.745791 0.625115 0.934205
Si Si6 0.563224 0.818006 0.933472
O O1 0.961100 0.750000 0.500000
O O2 0.943961 0.683464 0.750000
O O3 0.840542 0.657770 0.521286
O O4 0.011237 0.625473 0.514956
O O5 0.440603 0.946193 0.750000
O O6 0.494698 0.875205 0.973762
O O7 0.342960 0.945134 0.000344
O O8 0.500000 0.000000 0.000000
O O9 0.737314 0.015273 0.750000
O O10 0.838596 0.050618 0.977468
O O11 0.742600 0.946468 0.999637
O O12 0.948831 0.056510 0.750000
O O13 0.000000 0.000000 0.500000
O O14 0.741062 0.622423 0.750000
O O15 0.660804 0.663711 0.998595
O O16 0.569829 0.814648 0.750000
O O17 0.534255 0.750000 0.000000
#
# Coordination Sequence:
#
# PCOD9438727 Si02
#       6
#     8   8   8   8   8   8
#     4  10  22  38  56  84 118 154 194 237 291 348
#     4  11  23  39  61  87 118 154 196 240 289 349
#     4  11  22  36  59  89 119 152 195 244 293 345
#     4  10  21  38  59  85 116 152 195 241 288 344
#     4  11  21  35  59  87 120 155 191 240 294 351
#     4  11  24  40  59  86 119 155 196 240 294 352
#
# _framework density 17.746959
#
# number of rings (size 3 to 8) (size 9 to 14) (size 15 to 20)
#    0.000    1.333    3.333    2.500    0.000    6.000 
#    0.000    0.833    0.000    4.000    0.000    0.000 
#    0.000    0.000    0.000    0.000    0.000    0.000 
#
# Total GULP energy -268284.622136 kJ/mol
# GULP energy per Si atom -5589.262961 kJ/mol
# Density = 1.770657 g / cm^3
# Si number density = 17.746959 Si / 1000 Ang^3
#
#
#
# Elastic Constant Matrix: (Units=GPa)
#
#
# Indices 1 2 3 4 5 6 
#
# 1 156.8854 90.4437 45.9885 0.0000 0.0000 0.0000
# 2 90.4437 172.1671 48.2533 0.0000 0.0000 0.0000
# 3 45.9885 48.2533 39.6425 0.0000 0.0000 0.0000
# 4 0.0000 0.0000 0.0000 32.2832 0.0000 0.0000
# 5 0.0000 0.0000 0.0000 0.0000 22.5209 0.0000
# 6 0.0000 0.0000 0.0000 0.0000 0.0000 21.4946
#
#
#
# Elastic Compliance Matrix: (Units=1/GPa)
#
#
# Indices 1 2 3 4 5 6 
#
# 1 0.010745 -0.003265 -0.008491 0.000000 0.000000 0.000000
# 2 -0.003265 0.009808 -0.008151 0.000000 0.000000 0.000000
# 3 -0.008491 -0.008151 0.044997 0.000000 0.000000 0.000000
# 4 0.000000 0.000000 0.000000 0.030976 0.000000 0.000000
# 5 0.000000 0.000000 0.000000 0.000000 0.044403 0.000000
# 6 0.000000 0.000000 0.000000 0.000000 0.000000 0.046523
#
#
# Mechanical properties :
#
#
# Convention : Reuss Voigt Hill
#
# Bulk Modulus (GPa) = 38.85533 82.00733 60.43133
# Shear Modulus (GPa) = 21.20030 27.52704 24.36367
#
# Velocity S-wave (km/s) = 3.46003 3.94265 3.70920
# Velocity P-wave (km/s) = 6.15662 8.18753 7.24360
#
# Compressibility (1/GPa) = 0.02573650
#
# Stress axis : x y z
#
# Youngs Moduli (GPa) = 93.06267 101.95925 22.22361
#
# Poissons Ratio (x) = 0.33289 0.18871
# Poissons Ratio (y) = 0.30385 0.18114
# Poissons Ratio (z) = 0.79024 0.83103
#
# Static dielectric constant tensor:
#      x y z
#    x 1.594720 0.000000 0.000000 
#    y 0.000000 1.584420 0.000000 
#    z 0.000000 0.000000 1.598820 
# 
# From -- ./inp_files/4554.got.cif
#   From: 2010.05.17/outbox.cif.g08.bks.cpg/sg57_3_cif.got.tgz:4554.got - 2010.06.03 13:58:18.
