data_PCOD9438714
_publ_section_title
;
Structure prediction by ZEFSAII (Michael W. Deem and Ramdas Pophale) SiO2 
 PCOD9438714
Probable space group: P B C M
;
_chemical_formula_sum "Si O2"
_cell_formula_units_Z 64
_cell_length_a 26.332183
_cell_length_b 14.954826
_cell_length_c 8.750820
_cell_angle_alpha 90.000000
_cell_angle_beta 90.000000
_cell_angle_gamma 90.000000
_cell_volume 3446.013541
_symmetry_space_group_name_H-M "P B C M"
_symmetry_group_IT_number 57
_symmetry_cell_setting 'orthorhombic'
loop_
_space_group_symop_operation_xyz
x,y,z
-x,-y,1/2+z
x,1/2-y,-z
-x,1/2+y,1/2-z
-x,-y,-z
x,y,1/2-z
-x,1/2+y,z
x,1/2-y,1/2+z
loop_
_atom_site_type_symbol
_atom_site_label
_atom_site_fract_x
_atom_site_fract_y
_atom_site_fract_z
Si Si1 0.866579 0.148985 0.934024
Si Si2 0.787914 0.492287 0.565743
Si Si3 0.499204 0.400673 0.568047
Si Si4 0.864486 0.649810 0.566789
Si Si5 0.606772 0.840719 0.430983
Si Si6 0.056425 0.995817 0.565459
Si Si7 0.323722 0.492604 0.929175
Si Si8 0.396289 0.662794 0.572764
O O1 0.867102 0.152077 0.750000
O O2 0.866902 0.250000 0.000000
O O3 0.913657 0.089176 0.995839
O O4 0.818393 0.091075 0.993219
O O5 0.789482 0.484209 0.750000
O O6 0.817009 0.585197 0.524618
O O7 0.731019 0.495147 0.503955
O O8 0.500000 0.500000 0.500000
O O9 0.495859 0.403483 0.750000
O O10 0.449035 0.355011 0.501777
O O11 0.551504 0.355955 0.516060
O O12 0.864118 0.750000 0.500000
O O13 0.864330 0.658622 0.750000
O O14 0.912796 0.587065 0.524941
O O15 0.628189 0.750000 0.500000
O O16 0.602321 0.836547 0.250000
O O17 0.643547 0.919312 0.482638
O O18 0.056662 0.988450 0.750000
O O19 0.000000 0.000000 0.500000
O O20 0.318736 0.468912 0.750000
O O21 0.357563 0.581574 0.938930
O O22 0.371916 0.750000 0.500000
O O23 0.409002 0.676491 0.750000
#
# Coordination Sequence:
#
# PCOD9438714 Si02
#       8
#     8   8   8   8   8   8   8   8
#     4  11  22  39  63  90 120 160 207 255 308 364
#     4  10  22  41  62  87 120 156 199 251 305 359
#     4  12  23  39  63  89 119 155 195 237 293 357
#     4   9  20  37  59  86 117 155 199 246 293 350
#     4  12  25  42  64  89 120 157 197 244 298 357
#     4  10  21  38  58  88 127 165 206 252 303 357
#     4  11  24  42  63  89 121 156 199 247 300 360
#     4  11  24  41  62  88 120 154 195 241 292 354
#
# _framework density 18.572185000000001
#
# number of rings (size 3 to 8) (size 9 to 14) (size 15 to 20)
#    0.000    1.250    1.250    6.000    0.000    6.000 
#    0.000    3.750    0.000    0.000    0.000    0.000 
#    0.000    0.000    0.000    0.000    0.000    0.000 
#
# Total GULP energy -357676.242185 kJ/mol
# GULP energy per Si atom -5588.691284 kJ/mol
# Density = 1.852991 g / cm^3
# Si number density = 18.572185 Si / 1000 Ang^3
#
#
#
# Elastic Constant Matrix: (Units=GPa)
#
#
# Indices 1 2 3 4 5 6 
#
# 1 130.3717 44.2021 65.8422 0.0000 0.0000 0.0000
# 2 44.2021 142.7923 76.3787 0.0000 0.0000 0.0000
# 3 65.8422 76.3787 166.6430 0.0000 0.0000 0.0000
# 4 0.0000 0.0000 0.0000 35.3054 0.0000 0.0000
# 5 0.0000 0.0000 0.0000 0.0000 36.6946 0.0000
# 6 0.0000 0.0000 0.0000 0.0000 0.0000 26.1001
#
#
#
# Elastic Compliance Matrix: (Units=1/GPa)
#
#
# Indices 1 2 3 4 5 6 
#
# 1 0.009753 -0.001269 -0.003272 0.000000 0.000000 0.000000
# 2 -0.001269 0.009443 -0.003827 0.000000 0.000000 0.000000
# 3 -0.003272 -0.003827 0.009047 0.000000 0.000000 0.000000
# 4 0.000000 0.000000 0.000000 0.028324 0.000000 0.000000
# 5 0.000000 0.000000 0.000000 0.000000 0.027252 0.000000
# 6 0.000000 0.000000 0.000000 0.000000 0.000000 0.038314
#
#
# Mechanical properties :
#
#
# Convention : Reuss Voigt Hill
#
# Bulk Modulus (GPa) = 86.89326 90.29477 88.59401
# Shear Modulus (GPa) = 35.03736 36.51228 35.77482
#
# Velocity S-wave (km/s) = 4.34816 4.43873 4.39368
# Velocity P-wave (km/s) = 8.49099 8.65988 8.57585
#
# Compressibility (1/GPa) = 0.01150837
#
# Stress axis : x y z
#
# Youngs Moduli (GPa) = 102.53215 105.90043 110.52798
#
# Poissons Ratio (x) = 0.13439 0.36164
# Poissons Ratio (y) = 0.13011 0.42295
# Poissons Ratio (z) = 0.33547 0.40524
#
# Static dielectric constant tensor:
#      x y z
#    x 1.625850 0.000000 0.000000 
#    y 0.000000 1.643990 0.000000 
#    z 0.000000 0.000000 1.624440 
# 
# From -- ./inp_files/9444.got.cif
#   From: 2010.05.17/outbox.cif.g08.bks.cpg/sg57_5_cif.got.tgz:9444.got - 2010.06.03 13:58:18.
