data_PCOD9438675
_publ_section_title
;
Structure prediction by ZEFSAII (Michael W. Deem and Ramdas Pophale) SiO2 
 PCOD9438675
Probable space group: P B C M
;
_chemical_formula_sum "Si O2"
_cell_formula_units_Z 64
_cell_length_a 14.752392
_cell_length_b 12.633457
_cell_length_c 16.576201
_cell_angle_alpha 90.000000
_cell_angle_beta 90.000000
_cell_angle_gamma 90.000000
_cell_volume 3089.368078
_symmetry_space_group_name_H-M "P B C M"
_symmetry_group_IT_number 57
_symmetry_cell_setting 'orthorhombic'
loop_
_space_group_symop_operation_xyz
x,y,z
-x,-y,1/2+z
x,1/2-y,-z
-x,1/2+y,1/2-z
-x,-y,-z
x,y,1/2-z
-x,1/2+y,z
x,1/2-y,1/2+z
loop_
_atom_site_type_symbol
_atom_site_label
_atom_site_fract_x
_atom_site_fract_y
_atom_site_fract_z
Si Si1 0.854806 0.361852 0.404932
Si Si2 0.825991 0.379740 0.905075
Si Si3 0.369067 0.540677 0.347868
Si Si4 0.250720 0.452785 0.656086
Si Si5 0.560527 0.876539 0.658047
Si Si6 0.955313 0.567936 0.656771
Si Si7 0.635956 0.812950 0.081109
Si Si8 0.843585 0.747369 0.089208
O O1 0.827019 0.376085 0.497927
O O2 0.856271 0.238713 0.380548
O O3 0.782786 0.428897 0.354233
O O4 0.952225 0.414865 0.391320
O O5 0.725862 0.406023 0.872299
O O6 0.893902 0.471815 0.875762
O O7 0.366025 0.521516 0.250000
O O8 0.458491 0.607667 0.370488
O O9 0.381738 0.433938 0.399824
O O10 0.253126 0.422489 0.750000
O O11 0.351729 0.435453 0.619932
O O12 0.179800 0.371807 0.615162
O O13 0.558022 0.914164 0.750000
O O14 0.590046 0.755291 0.651386
O O15 0.976748 0.548066 0.750000
O O16 0.901074 0.678611 0.647331
O O17 0.744430 0.800591 0.083141
O O18 0.605619 0.750000 0.000000
O O19 0.886246 0.750000 0.000000
#
# Coordination Sequence:
#
# PCOD9438675 Si02
#       8
#     8   8   8   8   8   8   8   8
#     4  11  27  45  65  94 136 175 215 268 336 393
#     4  11  26  47  67  94 132 175 219 269 332 393
#     4  11  23  42  69  97 131 175 224 279 328 392
#     4  10  21  40  64  93 132 173 215 269 331 393
#     4   9  21  39  63  95 131 173 219 269 333 394
#     4  12  25  41  69 100 128 170 224 274 321 391
#     4  10  21  38  61  98 131 173 216 275 329 387
#     4  10  21  37  65  93 130 167 216 272 327 381
#
# _framework density 20.716211000000001
#
# number of rings (size 3 to 8) (size 9 to 14) (size 15 to 20)
#    0.000    1.500    1.250    2.625    7.000    4.500 
#    2.250    2.500    0.000    0.000    0.000    0.000 
#    0.000    0.000    0.000    0.000    0.000    0.000 
#
# Total GULP energy -357183.533737 kJ/mol
# GULP energy per Si atom -5580.992715 kJ/mol
# Density = 2.066906 g / cm^3
# Si number density = 20.716211 Si / 1000 Ang^3
#
#
#
# Elastic Constant Matrix: (Units=GPa)
#
#
# Indices 1 2 3 4 5 6 
#
# 1 111.4698 48.7865 18.2204 0.0000 0.0000 0.0000
# 2 48.7865 88.9018 17.9761 0.0000 0.0000 0.0000
# 3 18.2204 17.9761 71.8009 0.0000 0.0000 0.0000
# 4 0.0000 0.0000 0.0000 23.9923 0.0000 0.0000
# 5 0.0000 0.0000 0.0000 0.0000 18.8595 0.0000
# 6 0.0000 0.0000 0.0000 0.0000 0.0000 14.0025
#
#
#
# Elastic Compliance Matrix: (Units=1/GPa)
#
#
# Indices 1 2 3 4 5 6 
#
# 1 0.011951 -0.006262 -0.001465 0.000000 0.000000 0.000000
# 2 -0.006262 0.015129 -0.002199 0.000000 0.000000 0.000000
# 3 -0.001465 -0.002199 0.014850 0.000000 0.000000 0.000000
# 4 0.000000 0.000000 0.000000 0.041680 0.000000 0.000000
# 5 0.000000 0.000000 0.000000 0.000000 0.053024 0.000000
# 6 0.000000 0.000000 0.000000 0.000000 0.000000 0.071416
#
#
# Mechanical properties :
#
#
# Convention : Reuss Voigt Hill
#
# Bulk Modulus (GPa) = 45.29286 49.12649 47.20967
# Shear Modulus (GPa) = 21.25297 23.85017 22.55157
#
# Velocity S-wave (km/s) = 3.20646 3.39673 3.30297
# Velocity P-wave (km/s) = 5.96820 6.25694 6.11427
#
# Compressibility (1/GPa) = 0.02207854
#
# Stress axis : x y z
#
# Youngs Moduli (GPa) = 83.67314 66.09620 67.34175
#
# Poissons Ratio (x) = 0.41391 0.09865
# Poissons Ratio (y) = 0.52398 0.14806
# Poissons Ratio (z) = 0.12258 0.14533
#
# Static dielectric constant tensor:
#      x y z
#    x 1.735320 0.000000 0.000000 
#    y 0.000000 1.727440 0.000000 
#    z 0.000000 0.000000 1.791190 
# 
# From -- ./inp_files/22692.got.cif
#   From: 2010.05.17/outbox.cif.g08.bks.cpg/sg57_12_cif.got.tgz:22692.got - 2010.06.03 13:58:18.
