data_PCOD9438278
_publ_section_title
;
Structure prediction by ZEFSAII (Michael W. Deem and Ramdas Pophale) SiO2 
 PCOD9438278
Probable space group: P B C M
;
_chemical_formula_sum "Si O2"
_cell_formula_units_Z 32
_cell_length_a 7.323895
_cell_length_b 8.900211
_cell_length_c 24.972238
_cell_angle_alpha 90.000000
_cell_angle_beta 90.000000
_cell_angle_gamma 90.000000
_cell_volume 1627.795627
_symmetry_space_group_name_H-M "P B C M"
_symmetry_group_IT_number 57
_symmetry_cell_setting 'orthorhombic'
loop_
_space_group_symop_operation_xyz
x,y,z
-x,-y,1/2+z
x,1/2-y,-z
-x,1/2+y,1/2-z
-x,-y,-z
x,y,1/2-z
-x,1/2+y,z
x,1/2-y,1/2+z
loop_
_atom_site_type_symbol
_atom_site_label
_atom_site_fract_x
_atom_site_fract_y
_atom_site_fract_z
Si Si1 0.913776 0.779198 0.188009
Si Si2 0.378788 0.033325 0.874951
Si Si3 0.641339 0.225040 0.937314
Si Si4 0.782404 0.030029 0.853113
O O1 0.870680 0.752454 0.250000
O O2 0.778973 0.901286 0.161701
O O3 0.882219 0.626154 0.155768
O O4 0.116161 0.845722 0.182165
O O5 0.445068 0.156980 0.918882
O O6 0.332285 0.879968 0.905319
O O7 0.567019 0.009814 0.841596
O O8 0.778778 0.099723 0.913105
O O9 0.653850 0.250000 0.000000
#
# Coordination Sequence:
#
# PCOD9438278 Si02
#       4
#     8   8   8   8
#     4  12  24  41  64  90 126 170 205 257 313 358
#     4  10  21  42  64  92 127 153 213 253 303 380
#     4  10  20  41  69  93 123 164 201 258 321 362
#     4  10  23  41  60  93 128 154 215 254 297 384
#
# _framework density 19.658486
#
# number of rings (size 3 to 8) (size 9 to 14) (size 15 to 20)
#    1.500    0.000    2.500    3.000    0.000    2.000 
#    0.000    7.500    0.000    0.000    0.000    0.000 
#    0.000    0.000    0.000    0.000    0.000    0.000 
#
# Total GULP energy -178281.900114 kJ/mol
# GULP energy per Si atom -5571.309379 kJ/mol
# Density = 1.961374 g / cm^3
# Si number density = 19.658486 Si / 1000 Ang^3
#
#
#
# Elastic Constant Matrix: (Units=GPa)
#
#
# Indices 1 2 3 4 5 6 
#
# 1 54.5081 37.4072 53.9031 0.0000 0.0000 0.0000
# 2 37.4072 93.4542 43.8457 0.0000 0.0000 0.0000
# 3 53.9031 43.8457 76.6896 0.0000 0.0000 0.0000
# 4 0.0000 0.0000 0.0000 -22.8580 0.0000 0.0000
# 5 0.0000 0.0000 0.0000 0.0000 25.4577 0.0000
# 6 0.0000 0.0000 0.0000 0.0000 0.0000 27.3256
#
#
#
# Elastic Compliance Matrix: (Units=1/GPa)
#
#
# Indices 1 2 3 4 5 6 
#
# 1 0.062554 -0.006027 -0.040522 0.000000 0.000000 0.000000
# 2 -0.006027 0.015204 -0.004456 0.000000 0.000000 0.000000
# 3 -0.040522 -0.004456 0.044069 0.000000 0.000000 0.000000
# 4 0.000000 0.000000 0.000000 -0.043748 0.000000 0.000000
# 5 0.000000 0.000000 0.000000 0.000000 0.039281 0.000000
# 6 0.000000 0.000000 0.000000 0.000000 0.000000 0.036596
#
#
# Mechanical properties :
#
#
# Convention : Reuss Voigt Hill
#
# Bulk Modulus (GPa) = 50.46237 54.99600 52.72918
# Shear Modulus (GPa) = 19.04247 11.95144 15.49696
#
# Velocity S-wave (km/s) = 3.11571 2.46835 2.81073
# Velocity P-wave (km/s) = 6.21842 6.01333 6.11673
#
# Compressibility (1/GPa) = 0.01981675
#
# Stress axis : x y z
#
# Youngs Moduli (GPa) = 15.98607 65.77402 22.69172
#
# Poissons Ratio (x) = 0.39644 0.91951
# Poissons Ratio (y) = 0.09635 0.10111
# Poissons Ratio (z) = 0.64779 0.29308
#
# Static dielectric constant tensor:
#      x y z
#    x 1.719840 0.000000 0.000000 
#    y 0.000000 1.712630 0.000000 
#    z 0.000000 0.000000 1.646760 
# 
# From -- ./inp_files/26471.got.cif
#   From: 2010.05.17/outbox.cif.g08.bks.cpg/sg57_14_cif.got.tgz:26471.got - 2010.06.03 13:58:18.
