data_PCOD9438377
_publ_section_title
;
Structure prediction by ZEFSAII (Michael W. Deem and Ramdas Pophale) SiO2 
 PCOD9438377
Probable space group: P B C M
;
_chemical_formula_sum "Si O2"
_cell_formula_units_Z 36
_cell_length_a 19.956559
_cell_length_b 5.049993
_cell_length_c 13.990667
_cell_angle_alpha 90.000000
_cell_angle_beta 90.000000
_cell_angle_gamma 90.000000
_cell_volume 1409.986181
_symmetry_space_group_name_H-M "P B C M"
_symmetry_group_IT_number 57
_symmetry_cell_setting 'orthorhombic'
loop_
_space_group_symop_operation_xyz
x,y,z
-x,-y,1/2+z
x,1/2-y,-z
-x,1/2+y,1/2-z
-x,-y,-z
x,y,1/2-z
-x,1/2+y,z
x,1/2-y,1/2+z
loop_
_atom_site_type_symbol
_atom_site_label
_atom_site_fract_x
_atom_site_fract_y
_atom_site_fract_z
Si Si1 0.955322 0.046752 0.360194
Si Si2 0.245526 0.550148 0.865379
Si Si3 0.672197 0.552019 0.864362
Si Si4 0.142878 0.250000 0.000000
Si Si5 0.528011 0.326372 0.605286
O O1 0.931647 0.017449 0.250000
O O2 0.901297 0.945410 0.434661
O O3 0.018111 0.844599 0.372201
O O4 0.232741 0.537079 0.750000
O O5 0.268578 0.846602 0.890427
O O6 0.185688 0.429209 0.926633
O O7 0.307201 0.350117 0.888385
O O8 0.666920 0.537968 0.750000
O O9 0.601768 0.444634 0.900287
O O10 0.503242 0.250000 0.500000
O O11 0.478347 0.538314 0.651060
#
# Coordination Sequence:
#
# PCOD9438377 Si02
#       5
#     8   8   8   4   8
#     4  10  23  43  66  95 131 163 199 251 300 349
#     4  10  24  40  58  89 122 160 203 253 300 355
#     4  10  22  41  59  82 121 157 199 251 309 363
#     4  12  24  40  68  94 122 168 208 248 290 370
#     4  10  21  35  56  85 114 147 196 252 305 365
#
# _framework density 25.532167000000001
#
# number of rings (size 3 to 8) (size 9 to 14) (size 15 to 20)
#    0.000    1.778    0.000    2.667    3.111    4.444 
#    0.000    6.667    0.000    0.000    0.000    0.000 
#    0.000    0.000    0.000    0.000    0.000    0.000 
#
# Total GULP energy -201713.345471 kJ/mol
# GULP energy per Si atom -5603.148485 kJ/mol
# Density = 2.547405 g / cm^3
# Si number density = 25.532167 Si / 1000 Ang^3
#
#
#
# Elastic Constant Matrix: (Units=GPa)
#
#
# Indices 1 2 3 4 5 6 
#
# 1 85.2304 4.8959 37.5681 0.0000 0.0000 0.0000
# 2 4.8959 118.8047 7.2143 0.0000 0.0000 0.0000
# 3 37.5681 7.2143 104.7678 0.0000 0.0000 0.0000
# 4 0.0000 0.0000 0.0000 5.0554 0.0000 0.0000
# 5 0.0000 0.0000 0.0000 0.0000 61.2866 0.0000
# 6 0.0000 0.0000 0.0000 0.0000 0.0000 24.7406
#
#
#
# Elastic Compliance Matrix: (Units=1/GPa)
#
#
# Indices 1 2 3 4 5 6 
#
# 1 0.013944 -0.000272 -0.004981 0.000000 0.000000 0.000000
# 2 -0.000272 0.008458 -0.000485 0.000000 0.000000 0.000000
# 3 -0.004981 -0.000485 0.011365 0.000000 0.000000 0.000000
# 4 0.000000 0.000000 0.000000 0.197809 0.000000 0.000000
# 5 0.000000 0.000000 0.000000 0.000000 0.016317 0.000000
# 6 0.000000 0.000000 0.000000 0.000000 0.000000 0.040419
#
#
# Mechanical properties :
#
#
# Convention : Reuss Voigt Hill
#
# Bulk Modulus (GPa) = 44.86350 45.35106 45.10728
# Shear Modulus (GPa) = 16.27508 35.49151 25.88329
#
# Velocity S-wave (km/s) = 2.52749 3.73241 3.18740
# Velocity P-wave (km/s) = 5.11147 6.03120 5.59028
#
# Compressibility (1/GPa) = 0.02228984
#
# Stress axis : x y z
#
# Youngs Moduli (GPa) = 71.71402 118.23366 87.99270
#
# Poissons Ratio (x) = 0.03218 0.43833
# Poissons Ratio (y) = 0.01952 0.04266
# Poissons Ratio (z) = 0.35724 0.05732
#
# Static dielectric constant tensor:
#      x y z
#    x 1.978170 0.000000 0.000000 
#    y 0.000000 2.078580 0.000000 
#    z 0.000000 0.000000 2.044360 
# 
# From -- ./inp_files/19214.got.cif
#   From: 2010.05.17/outbox.cif.g08.bks.cpg/sg57_10_cif.got.tgz:19214.got - 2010.06.03 13:58:18.
