data_PCOD9438333
_publ_section_title
;
Structure prediction by ZEFSAII (Michael W. Deem and Ramdas Pophale) SiO2 
 PCOD9438333
Probable space group: P B C M
;
_chemical_formula_sum "Si O2"
_cell_formula_units_Z 64
_cell_length_a 29.617246
_cell_length_b 5.491503
_cell_length_c 18.814041
_cell_angle_alpha 90.000000
_cell_angle_beta 90.000000
_cell_angle_gamma 90.000000
_cell_volume 3059.975744
_symmetry_space_group_name_H-M "P B C M"
_symmetry_group_IT_number 57
_symmetry_cell_setting 'orthorhombic'
loop_
_space_group_symop_operation_xyz
x,y,z
-x,-y,1/2+z
x,1/2-y,-z
-x,1/2+y,1/2-z
-x,-y,-z
x,y,1/2-z
-x,1/2+y,z
x,1/2-y,1/2+z
loop_
_atom_site_type_symbol
_atom_site_label
_atom_site_fract_x
_atom_site_fract_y
_atom_site_fract_z
Si Si1 0.179464 0.263749 0.914169
Si Si2 0.024604 0.744203 0.413263
Si Si3 0.317815 0.658079 0.427329
Si Si4 0.471754 0.639053 0.168734
Si Si5 0.128791 0.760615 0.586100
Si Si6 0.265109 0.155262 0.830000
Si Si7 0.407970 0.384896 0.069687
Si Si8 0.640238 0.945004 0.829429
O O1 0.150628 0.501838 0.893562
O O2 0.227225 0.289252 0.874960
O O3 0.155903 0.006074 0.893245
O O4 0.185004 0.250000 0.000000
O O5 0.023989 0.750000 0.500000
O O6 0.076725 0.726209 0.390621
O O7 0.997897 0.500226 0.390875
O O8 0.297185 0.750000 0.500000
O O9 0.278235 0.579188 0.375388
O O10 0.356649 0.465375 0.448953
O O11 0.347148 0.847060 0.383538
O O12 0.452737 0.626175 0.250000
O O13 0.496077 0.900249 0.162813
O O14 0.437382 0.600709 0.103171
O O15 0.128533 0.750000 0.500000
O O16 0.250001 0.105750 0.750000
O O17 0.313499 0.289066 0.826104
O O18 0.400211 0.207713 0.136984
O O19 0.426819 0.250000 0.000000
O O20 0.630204 0.029425 0.750000
#
# Coordination Sequence:
#
# PCOD9438333 Si02
#       8
#     8   8   8   8   8   8   8   8
#     4  10  21  34  55  78 112 157 195 243 299 358
#     4   9  15  24  43  69 104 146 184 233 296 359
#     4  11  23  38  65  91 122 157 200 254 305 368
#     4  10  24  44  66  94 128 169 211 251 303 368
#     4   9  18  32  47  76 112 149 196 240 297 366
#     4  10  24  40  57  85 117 155 205 254 302 361
#     4  11  23  40  62  94 126 158 202 252 309 364
#     4  10  22  40  61  87 119 157 198 252 305 357
#
# _framework density 20.915199000000001
#
# number of rings (size 3 to 8) (size 9 to 14) (size 15 to 20)
#    0.000    2.000    1.250    1.500    5.250    5.500 
#    0.000    0.000    0.000    0.000    0.000    0.000 
#    0.000   10.000    0.000    0.000    0.000    0.000 
#
# Total GULP energy -357116.585576 kJ/mol
# GULP energy per Si atom -5579.946650 kJ/mol
# Density = 2.086759 g / cm^3
# Si number density = 20.915199 Si / 1000 Ang^3
#
#
#
# Elastic Constant Matrix: (Units=GPa)
#
#
# Indices 1 2 3 4 5 6 
#
# 1 79.9549 30.8013 22.8299 0.0000 0.0000 0.0000
# 2 30.8013 105.5366 24.9357 0.0000 0.0000 0.0000
# 3 22.8299 24.9357 79.3973 0.0000 0.0000 0.0000
# 4 0.0000 0.0000 0.0000 15.8504 0.0000 0.0000
# 5 0.0000 0.0000 0.0000 0.0000 -3.6231 0.0000
# 6 0.0000 0.0000 0.0000 0.0000 0.0000 48.4376
#
#
#
# Elastic Compliance Matrix: (Units=1/GPa)
#
#
# Indices 1 2 3 4 5 6 
#
# 1 0.014777 -0.003574 -0.003126 0.000000 0.000000 0.000000
# 2 -0.003574 0.011099 -0.002458 0.000000 0.000000 0.000000
# 3 -0.003126 -0.002458 0.014266 0.000000 0.000000 0.000000
# 4 0.000000 0.000000 0.000000 0.063090 0.000000 0.000000
# 5 0.000000 0.000000 0.000000 0.000000 -0.276008 0.000000
# 6 0.000000 0.000000 0.000000 0.000000 0.000000 0.020645
#
#
# Mechanical properties :
#
#
# Convention : Reuss Voigt Hill
#
# Bulk Modulus (GPa) = 45.81983 46.89141 46.35562
# Shear Modulus (GPa) = -39.51346 24.55445 -7.47950
#
# Velocity S-wave (km/s) = -4.35123 3.43009 -1.89311
# Velocity P-wave (km/s) = 1.81365 6.17704 4.17531
#
# Compressibility (1/GPa) = 0.02182461
#
# Stress axis : x y z
#
# Youngs Moduli (GPa) = 67.67488 90.09614 70.09731
#
# Poissons Ratio (x) = 0.32199 0.21915
# Poissons Ratio (y) = 0.24186 0.17231
# Poissons Ratio (z) = 0.21158 0.22148
#
# Static dielectric constant tensor:
#      x y z
#    x 1.768710 0.000000 0.000000 
#    y 0.000000 1.825870 0.000000 
#    z 0.000000 0.000000 1.729650 
# 
# From -- ./inp_files/23183.got.cif
#   From: 2010.05.17/outbox.cif.g08.bks.cpg/sg57_12_cif.got.tgz:23183.got - 2010.06.03 13:58:18.
