data_PCOD9438613
_publ_section_title
;
Structure prediction by ZEFSAII (Michael W. Deem and Ramdas Pophale) SiO2 
 PCOD9438613
Probable space group: P B C M
;
_chemical_formula_sum "Si O2"
_cell_formula_units_Z 48
_cell_length_a 20.101952
_cell_length_b 5.452251
_cell_length_c 18.918883
_cell_angle_alpha 90.000000
_cell_angle_beta 90.000000
_cell_angle_gamma 90.000000
_cell_volume 2073.526375
_symmetry_space_group_name_H-M "P B C M"
_symmetry_group_IT_number 57
_symmetry_cell_setting 'orthorhombic'
loop_
_space_group_symop_operation_xyz
x,y,z
-x,-y,1/2+z
x,1/2-y,-z
-x,1/2+y,1/2-z
-x,-y,-z
x,y,1/2-z
-x,1/2+y,z
x,1/2-y,1/2+z
loop_
_atom_site_type_symbol
_atom_site_label
_atom_site_fract_x
_atom_site_fract_y
_atom_site_fract_z
Si Si1 0.140142 0.848430 0.571259
Si Si2 0.533321 0.962541 0.664900
Si Si3 0.958438 0.601911 0.667799
Si Si4 0.656972 0.282001 0.671520
Si Si5 0.207820 0.496641 0.671267
Si Si6 0.722735 0.610252 0.570261
O O1 0.106662 0.750000 0.500000
O O2 0.100565 0.058723 0.612284
O O3 0.150901 0.628221 0.626690
O O4 0.213586 0.943609 0.549796
O O5 0.525491 0.947811 0.750000
O O6 0.488932 0.194691 0.638891
O O7 0.608568 0.056299 0.653938
O O8 0.936368 0.588740 0.750000
O O9 0.994839 0.861485 0.657553
O O10 0.636751 0.378909 0.750000
O O11 0.732746 0.194322 0.677725
O O12 0.662178 0.471326 0.607833
O O13 0.186853 0.425800 0.750000
O O14 0.243964 0.283419 0.628939
O O15 0.701707 0.750000 0.500000
#
# Coordination Sequence:
#
# PCOD9438613 Si02
#       6
#     8   8   8   8   8   8
#     4  11  23  40  61  90 127 160 205 254 313 377
#     4   9  18  32  54  84 119 157 201 259 316 366
#     4  10  24  44  66  94 127 167 213 259 309 366
#     4   9  20  35  55  87 120 156 205 256 313 377
#     4  10  21  37  60  88 118 157 202 256 311 371
#     4  11  22  37  60  87 121 162 202 257 313 374
#
# _framework density 23.148969000000001
#
# number of rings (size 3 to 8) (size 9 to 14) (size 15 to 20)
#    0.000    2.000    1.667    1.000    4.667    2.667 
#    0.000    0.000    0.000    1.000    0.000    0.000 
#    0.000    0.000    0.000    0.000    0.000    0.000 
#
# Total GULP energy -268218.791203 kJ/mol
# GULP energy per Si atom -5587.891483 kJ/mol
# Density = 2.309628 g / cm^3
# Si number density = 23.148969 Si / 1000 Ang^3
#
#
#
# Elastic Constant Matrix: (Units=GPa)
#
#
# Indices 1 2 3 4 5 6 
#
# 1 76.9656 14.3751 16.0161 0.0000 0.0000 0.0000
# 2 14.3751 80.5459 21.0702 0.0000 0.0000 0.0000
# 3 16.0161 21.0702 93.9721 0.0000 0.0000 0.0000
# 4 0.0000 0.0000 0.0000 17.6111 0.0000 0.0000
# 5 0.0000 0.0000 0.0000 0.0000 -7.0749 0.0000
# 6 0.0000 0.0000 0.0000 0.0000 0.0000 46.3082
#
#
#
# Elastic Compliance Matrix: (Units=1/GPa)
#
#
# Indices 1 2 3 4 5 6 
#
# 1 0.013755 -0.001956 -0.001906 0.000000 0.000000 0.000000
# 2 -0.001956 0.013467 -0.002686 0.000000 0.000000 0.000000
# 3 -0.001906 -0.002686 0.011569 0.000000 0.000000 0.000000
# 4 0.000000 0.000000 0.000000 0.056782 0.000000 0.000000
# 5 0.000000 0.000000 0.000000 0.000000 -0.141345 0.000000
# 6 0.000000 0.000000 0.000000 0.000000 0.000000 0.021594
#
#
# Mechanical properties :
#
#
# Convention : Reuss Voigt Hill
#
# Bulk Modulus (GPa) = 38.91931 39.37848 39.14889
# Shear Modulus (GPa) = -1986.30337 24.70370 -980.79984
#
# Velocity S-wave (km/s) = -29.32431 3.27029 -20.60607
# Velocity P-wave (km/s) = 33.61108 5.59531 23.43499
#
# Compressibility (1/GPa) = 0.02569419
#
# Stress axis : x y z
#
# Youngs Moduli (GPa) = 72.70212 74.25501 86.44150
#
# Poissons Ratio (x) = 0.14527 0.16473
# Poissons Ratio (y) = 0.14223 0.23219
# Poissons Ratio (z) = 0.13854 0.19946
#
# Static dielectric constant tensor:
#      x y z
#    x 1.888180 0.000000 0.000000 
#    y 0.000000 1.916750 0.000000 
#    z 0.000000 0.000000 1.861410 
# 
# From -- ./inp_files/25689.got.cif
#   From: 2010.05.17/outbox.cif.g08.bks.cpg/sg57_13_cif.got.tgz:25689.got - 2010.06.03 13:58:18.
