data_PCOD9438365
_publ_section_title
;
Structure prediction by ZEFSAII (Michael W. Deem and Ramdas Pophale) SiO2 
 PCOD9438365
Probable space group: P B C M
;
_chemical_formula_sum "Si O2"
_cell_formula_units_Z 60
_cell_length_a 6.795025
_cell_length_b 14.007005
_cell_length_c 25.361322
_cell_angle_alpha 90.000000
_cell_angle_beta 90.000000
_cell_angle_gamma 90.000000
_cell_volume 2413.838616
_symmetry_space_group_name_H-M "P B C M"
_symmetry_group_IT_number 57
_symmetry_cell_setting 'orthorhombic'
loop_
_space_group_symop_operation_xyz
x,y,z
-x,-y,1/2+z
x,1/2-y,-z
-x,1/2+y,1/2-z
-x,-y,-z
x,y,1/2-z
-x,1/2+y,z
x,1/2-y,1/2+z
loop_
_atom_site_type_symbol
_atom_site_label
_atom_site_fract_x
_atom_site_fract_y
_atom_site_fract_z
Si Si1 0.661069 0.910169 0.089614
Si Si2 0.890423 0.119979 0.910481
Si Si3 0.776034 0.528507 0.017918
Si Si4 0.357940 0.157505 0.806961
Si Si5 0.226865 0.750000 0.500000
Si Si6 0.441309 0.183638 0.424752
Si Si7 0.920235 0.268986 0.309892
Si Si8 0.412784 0.851756 0.809645
O O1 0.589755 0.921282 0.149568
O O2 0.608601 0.797003 0.080750
O O3 0.896476 0.922435 0.098681
O O4 0.647675 0.967222 0.035170
O O5 0.830559 0.169247 0.856947
O O6 0.736999 0.046341 0.934973
O O7 0.903153 0.196437 0.957351
O O8 0.737043 0.629372 0.046390
O O9 0.000000 0.500000 0.000000
O O10 0.333998 0.111847 0.750000
O O11 0.513517 0.241948 0.803866
O O12 0.154433 0.216689 0.818060
O O13 0.371301 0.815551 0.535563
O O14 0.497651 0.132505 0.368919
O O15 0.886337 0.301815 0.250000
O O16 0.824170 0.163609 0.314637
O O17 0.457834 0.893003 0.750000
#
# Coordination Sequence:
#
# PCOD9438365 Si02
#       8
#     8   8   8   8   4   8   8   8
#     4   9  18  34  56  73 105 146 185 224 277 336
#     4  10  22  34  51  81 106 140 184 229 279 336
#     4  10  21  35  53  77 110 145 184 227 278 339
#     4   8  15  27  48  77 102 132 182 230 268 324
#     4  12  22  32  54  78 112 138 182 230 280 338
#     4  11  20  36  54  78 107 145 185 227 279 338
#     4   9  16  31  52  76 103 136 181 230 275 331
#     4   9  17  31  53  78 104 137 181 230 279 328
#
# _framework density 24.856674999999999
#
# number of rings (size 3 to 8) (size 9 to 14) (size 15 to 20)
#    0.000    2.400    2.667    0.000    3.733    0.533 
#    0.000    0.667    0.000    0.800    0.000    1.867 
#    0.000    0.800    0.000    0.000    0.000    0.000 
#
# Total GULP energy -334049.502096 kJ/mol
# GULP energy per Si atom -5567.491702 kJ/mol
# Density = 2.480010 g / cm^3
# Si number density = 24.856675 Si / 1000 Ang^3
#
#
#
# Elastic Constant Matrix: (Units=GPa)
#
#
# Indices 1 2 3 4 5 6 
#
# 1 51.3934 -16.8723 0.5526 0.0000 0.0000 0.0000
# 2 -16.8723 39.9792 0.6029 0.0000 0.0000 0.0000
# 3 0.5526 0.6029 170.3958 0.0000 0.0000 0.0000
# 4 0.0000 0.0000 0.0000 22.0123 0.0000 0.0000
# 5 0.0000 0.0000 0.0000 0.0000 40.2781 0.0000
# 6 0.0000 0.0000 0.0000 0.0000 0.0000 19.7784
#
#
#
# Elastic Compliance Matrix: (Units=1/GPa)
#
#
# Indices 1 2 3 4 5 6 
#
# 1 0.022589 0.009535 -0.000107 0.000000 0.000000 0.000000
# 2 0.009535 0.029039 -0.000134 0.000000 0.000000 0.000000
# 3 -0.000107 -0.000134 0.005870 0.000000 0.000000 0.000000
# 4 0.000000 0.000000 0.000000 0.045429 0.000000 0.000000
# 5 0.000000 0.000000 0.000000 0.000000 0.024827 0.000000
# 6 0.000000 0.000000 0.000000 0.000000 0.000000 0.050560
#
#
# Mechanical properties :
#
#
# Convention : Reuss Voigt Hill
#
# Bulk Modulus (GPa) = 13.14298 25.59274 19.36786
# Shear Modulus (GPa) = 27.01416 34.91278 30.96347
#
# Velocity S-wave (km/s) = 3.30024 3.75182 3.53325
# Velocity P-wave (km/s) = 4.45209 5.39320 4.94508
#
# Compressibility (1/GPa) = 0.07608622
#
# Stress axis : x y z
#
# Youngs Moduli (GPa) = 44.26897 34.43639 170.37204
#
# Poissons Ratio (x) = -0.32835 0.01823
# Poissons Ratio (y) = -0.42210 0.02277
# Poissons Ratio (z) = 0.00474 0.00460
#
# Static dielectric constant tensor:
#      x y z
#    x 2.074560 0.000000 0.000000 
#    y 0.000000 2.025420 0.000000 
#    z 0.000000 0.000000 1.193610 
# 
# From -- ./inp_files/28426.got.cif
#   From: 2010.05.17/outbox.cif.g08.bks.cpg/sg57_15_cif.got.tgz:28426.got - 2010.06.03 13:58:18.
