data_PCOD9438098
_publ_section_title
;
Structure prediction by ZEFSAII (Michael W. Deem and Ramdas Pophale) SiO2 
 PCOD9438098
Probable space group: P B C M
;
_chemical_formula_sum "Si O2"
_cell_formula_units_Z 40
_cell_length_a 5.766300
_cell_length_b 23.303399
_cell_length_c 11.905387
_cell_angle_alpha 90.000000
_cell_angle_beta 90.000000
_cell_angle_gamma 90.000000
_cell_volume 1599.779112
_symmetry_space_group_name_H-M "P B C M"
_symmetry_group_IT_number 57
_symmetry_cell_setting 'orthorhombic'
loop_
_space_group_symop_operation_xyz
x,y,z
-x,-y,1/2+z
x,1/2-y,-z
-x,1/2+y,1/2-z
-x,-y,-z
x,y,1/2-z
-x,1/2+y,z
x,1/2-y,1/2+z
loop_
_atom_site_type_symbol
_atom_site_label
_atom_site_fract_x
_atom_site_fract_y
_atom_site_fract_z
Si Si1 0.519850 0.103289 0.629715
Si Si2 0.196718 0.453605 0.983223
Si Si3 0.104201 0.655256 0.010635
Si Si4 0.310265 0.075713 0.250000
Si Si5 0.231061 0.220874 0.877820
Si Si6 0.194751 0.855501 0.750000
O O1 0.632935 0.093666 0.750000
O O2 0.699273 0.112758 0.531158
O O3 0.351687 0.052416 0.593320
O O4 0.387470 0.164332 0.634780
O O5 0.109354 0.387722 0.973310
O O6 0.315430 0.461114 0.863422
O O7 0.000000 0.500000 0.000000
O O8 0.173769 0.678423 0.132513
O O9 0.025939 0.698328 0.913201
O O10 0.548323 0.114441 0.250000
O O11 0.043704 0.104661 0.250000
O O12 0.235350 0.248214 0.750000
O O13 0.301975 0.250000 0.000000
#
# Coordination Sequence:
#
# PCOD9438098 Si02
#       6
#     8   8   8   4   8   4
#     4  10  21  40  61  87 124 166 213 263 335 391
#     4  10  22  38  58  88 127 168 219 270 327 387
#     4  10  21  40  62  89 124 170 208 274 324 400
#     4  10  20  40  58  92 129 162 224 279 318 388
#     4  10  23  42  65  94 127 162 212 273 332 404
#     4  10  20  38  66  92 127 170 218 271 332 384
#
# _framework density 25.003450000000001
#
# number of rings (size 3 to 8) (size 9 to 14) (size 15 to 20)
#    0.000    2.000    2.000    0.600    2.800    2.400 
#    3.600    0.000    0.000    0.000    0.000    0.000 
#    0.000    0.000    0.000    0.000    0.000    0.000 
#
# Total GULP energy -222711.268113 kJ/mol
# GULP energy per Si atom -5567.781703 kJ/mol
# Density = 2.494654 g / cm^3
# Si number density = 25.003450 Si / 1000 Ang^3
#
#
#
# Elastic Constant Matrix: (Units=GPa)
#
#
# Indices 1 2 3 4 5 6 
#
# 1 60.7569 6.6676 13.5083 0.0000 0.0000 0.0000
# 2 6.6676 55.1761 31.9326 0.0000 0.0000 0.0000
# 3 13.5083 31.9326 198.2863 0.0000 0.0000 0.0000
# 4 0.0000 0.0000 0.0000 10.0437 0.0000 0.0000
# 5 0.0000 0.0000 0.0000 0.0000 -8.0405 0.0000
# 6 0.0000 0.0000 0.0000 0.0000 0.0000 21.6149
#
#
#
# Elastic Compliance Matrix: (Units=1/GPa)
#
#
# Indices 1 2 3 4 5 6 
#
# 1 0.016826 -0.001511 -0.000903 0.000000 0.000000 0.000000
# 2 -0.001511 0.020122 -0.003138 0.000000 0.000000 0.000000
# 3 -0.000903 -0.003138 0.005610 0.000000 0.000000 0.000000
# 4 0.000000 0.000000 0.000000 0.099565 0.000000 0.000000
# 5 0.000000 0.000000 0.000000 0.000000 -0.124371 0.000000
# 6 0.000000 0.000000 0.000000 0.000000 0.000000 0.046264
#
#
# Mechanical properties :
#
#
# Convention : Reuss Voigt Hill
#
# Bulk Modulus (GPa) = 31.79112 46.49291 39.14202
# Shear Modulus (GPa) = 58.40888 22.19769 40.30329
#
# Velocity S-wave (km/s) = 4.83850 2.98280 4.01921
# Velocity P-wave (km/s) = 6.63001 5.52248 6.10143
#
# Compressibility (1/GPa) = 0.03145533
#
# Stress axis : x y z
#
# Youngs Moduli (GPa) = 59.43336 49.69632 178.25253
#
# Poissons Ratio (x) = 0.07507 0.16096
# Poissons Ratio (y) = 0.08978 0.55929
# Poissons Ratio (z) = 0.05367 0.15593
#
# Static dielectric constant tensor:
#      x y z
#    x 2.272880 0.000000 0.000000 
#    y 0.000000 2.165730 0.000000 
#    z 0.000000 0.000000 1.963050 
# 
# From -- ./inp_files/10965.got.cif
#   From: 2010.05.17/outbox.cif.g08.bks.cpg/sg57_6_cif.got.tgz:10965.got - 2010.06.03 13:58:18.
