data_PCOD9438957
_publ_section_title
;
Structure prediction by ZEFSAII (Michael W. Deem and Ramdas Pophale) SiO2 
 PCOD9438957
Probable space group: P B C M
;
_chemical_formula_sum "Si O2"
_cell_formula_units_Z 64
_cell_length_a 15.122614
_cell_length_b 26.178305
_cell_length_c 8.488810
_cell_angle_alpha 90.000000
_cell_angle_beta 90.000000
_cell_angle_gamma 90.000000
_cell_volume 3360.587468
_symmetry_space_group_name_H-M "P B C M"
_symmetry_group_IT_number 57
_symmetry_cell_setting 'orthorhombic'
loop_
_space_group_symop_operation_xyz
x,y,z
-x,-y,1/2+z
x,1/2-y,-z
-x,1/2+y,1/2-z
-x,-y,-z
x,y,1/2-z
-x,1/2+y,z
x,1/2-y,1/2+z
loop_
_atom_site_type_symbol
_atom_site_label
_atom_site_fract_x
_atom_site_fract_y
_atom_site_fract_z
Si Si1 0.363823 0.115927 0.064705
Si Si2 0.400230 0.002157 0.561763
Si Si3 0.015776 0.196611 0.562762
Si Si4 0.668502 0.107492 0.558821
Si Si5 0.175049 0.119963 0.938829
Si Si6 0.975756 0.945681 0.439149
Si Si7 0.481959 0.690507 0.939365
Si Si8 0.866802 0.369492 0.058131
O O1 0.381865 0.112947 0.250000
O O2 0.367807 0.058108 0.995249
O O3 0.263758 0.132674 0.028715
O O4 0.432427 0.156952 0.991832
O O5 0.396608 0.001641 0.750000
O O6 0.500000 0.000000 0.500000
O O7 0.355828 0.949552 0.500246
O O8 0.043657 0.250000 0.500000
O O9 0.010071 0.196948 0.750000
O O10 0.917918 0.181432 0.504583
O O11 0.094400 0.157954 0.525609
O O12 0.666123 0.105679 0.750000
O O13 0.600246 0.153017 0.511599
O O14 0.767788 0.120986 0.503367
O O15 0.192881 0.120009 0.750000
O O16 0.124755 0.068016 0.987785
O O17 0.974459 0.941805 0.250000
O O18 0.058551 0.910537 0.489661
O O19 0.000000 0.000000 0.500000
O O20 0.481340 0.693514 0.750000
O O21 0.479877 0.750000 0.000000
O O22 0.861911 0.370084 0.250000
#
# Coordination Sequence:
#
# PCOD9438957 Si02
#       8
#     8   8   8   8   8   8   8   8
#     4  12  25  41  63  90 121 159 205 253 306 365
#     4  12  24  40  63  90 123 160 201 249 303 361
#     4   9  18  35  59  83 114 154 195 244 295 346
#     4  10  21  39  63  90 121 160 204 248 300 358
#     4   9  20  38  56  80 117 155 193 241 298 352
#     4   9  18  33  53  78 112 151 188 233 285 340
#     4  11  24  42  64  88 121 159 199 250 303 361
#     4   8  17  35  56  81 114 152 191 232 288 348
#
# _framework density 19.044288999999999
#
# number of rings (size 3 to 8) (size 9 to 14) (size 15 to 20)
#    0.000    2.000    1.250    4.125    1.750    2.500 
#    0.000    3.750    0.000    0.000    0.000    0.000 
#    0.000    0.000    0.000    0.000    0.000    0.000 
#
# Total GULP energy -356371.390205 kJ/mol
# GULP energy per Si atom -5568.302972 kJ/mol
# Density = 1.900094 g / cm^3
# Si number density = 19.044289 Si / 1000 Ang^3
#
#
#
# Elastic Constant Matrix: (Units=GPa)
#
#
# Indices 1 2 3 4 5 6 
#
# 1 116.5149 27.5453 32.4153 0.0000 0.0000 0.0000
# 2 27.5453 99.1305 35.4559 0.0000 0.0000 0.0000
# 3 32.4153 35.4559 41.3984 0.0000 0.0000 0.0000
# 4 0.0000 0.0000 0.0000 30.8476 0.0000 0.0000
# 5 0.0000 0.0000 0.0000 0.0000 18.6031 0.0000
# 6 0.0000 0.0000 0.0000 0.0000 0.0000 16.5966
#
#
#
# Elastic Compliance Matrix: (Units=1/GPa)
#
#
# Indices 1 2 3 4 5 6 
#
# 1 0.010973 0.000035 -0.008622 0.000000 0.000000 0.000000
# 2 0.000035 0.014543 -0.012482 0.000000 0.000000 0.000000
# 3 -0.008622 -0.012482 0.041597 0.000000 0.000000 0.000000
# 4 0.000000 0.000000 0.000000 0.032417 0.000000 0.000000
# 5 0.000000 0.000000 0.000000 0.000000 0.053755 0.000000
# 6 0.000000 0.000000 0.000000 0.000000 0.000000 0.060253
#
#
# Mechanical properties :
#
#
# Convention : Reuss Voigt Hill
#
# Bulk Modulus (GPa) = 40.04167 49.76409 44.90288
# Shear Modulus (GPa) = 18.93933 23.98460 21.46197
#
# Velocity S-wave (km/s) = 3.15697 3.55267 3.36065
# Velocity P-wave (km/s) = 5.86173 6.55866 6.21996
#
# Compressibility (1/GPa) = 0.02497399
#
# Stress axis : x y z
#
# Youngs Moduli (GPa) = 91.13284 68.76347 24.04033
#
# Poissons Ratio (x) = -0.00238 0.20727
# Poissons Ratio (y) = -0.00316 0.30008
# Poissons Ratio (z) = 0.78571 0.85832
#
# Static dielectric constant tensor:
#      x y z
#    x 1.762420 0.000000 0.000000 
#    y 0.000000 1.740230 0.000000 
#    z 0.000000 0.000000 1.656330 
# 
# From -- ./inp_files/5544.got.cif
#   From: 2010.05.17/outbox.cif.g08.bks.cpg/sg57_3_cif.got.tgz:5544.got - 2010.06.03 13:58:18.
