data_PCOD9438723
_publ_section_title
;
Structure prediction by ZEFSAII (Michael W. Deem and Ramdas Pophale) SiO2 
 PCOD9438723
Probable space group: P B C M
;
_chemical_formula_sum "Si O2"
_cell_formula_units_Z 60
_cell_length_a 25.586912
_cell_length_b 11.948427
_cell_length_c 9.433858
_cell_angle_alpha 90.000000
_cell_angle_beta 90.000000
_cell_angle_gamma 90.000000
_cell_volume 2884.150673
_symmetry_space_group_name_H-M "P B C M"
_symmetry_group_IT_number 57
_symmetry_cell_setting 'orthorhombic'
loop_
_space_group_symop_operation_xyz
x,y,z
-x,-y,1/2+z
x,1/2-y,-z
-x,1/2+y,1/2-z
-x,-y,-z
x,y,1/2-z
-x,1/2+y,z
x,1/2-y,1/2+z
loop_
_atom_site_type_symbol
_atom_site_label
_atom_site_fract_x
_atom_site_fract_y
_atom_site_fract_z
Si Si1 0.316753 0.032784 0.416061
Si Si2 0.508415 0.156066 0.907650
Si Si3 0.583239 0.476300 0.589521
Si Si4 0.832906 0.914330 0.405488
Si Si5 0.236382 0.869608 0.579086
Si Si6 0.069516 0.404369 0.588244
Si Si7 0.966401 0.154595 0.588351
Si Si8 0.254294 0.250000 0.500000
O O1 0.323597 0.004590 0.250000
O O2 0.289320 0.154989 0.425141
O O3 0.370599 0.034615 0.503050
O O4 0.282167 0.938153 0.496869
O O5 0.520967 0.195020 0.750000
O O6 0.467109 0.056345 0.897670
O O7 0.480989 0.250000 0.000000
O O8 0.560278 0.122272 0.992738
O O9 0.599420 0.445835 0.750000
O O10 0.858039 0.912201 0.250000
O O11 0.874807 0.878643 0.521583
O O12 0.784503 0.828316 0.408563
O O13 0.811113 0.040016 0.431303
O O14 0.228402 0.750000 0.500000
O O15 0.246279 0.855127 0.750000
O O16 0.064938 0.365038 0.750000
O O17 0.021480 0.365311 0.491134
O O18 0.063900 0.538548 0.587779
O O19 0.937740 0.250000 0.500000
O O20 0.974331 0.188849 0.750000
#
# Coordination Sequence:
#
# PCOD9438723 Si02
#       8
#     8   8   8   8   8   8   8   4
#     4  11  23  40  64  91 122 161 206 256 309 367
#     4  10  21  38  60  87 120 158 199 248 298 357
#     4  10  22  39  59  87 121 157 199 246 300 362
#     4  10  22  40  62  88 121 160 201 251 306 363
#     4  10  22  41  63  88 120 156 201 253 308 366
#     4  10  22  38  58  86 118 155 199 244 297 359
#     4  10  21  38  59  84 117 155 197 246 297 356
#     4  10  24  42  62  92 126 164 208 258 306 370
#
# _framework density 20.803352
#
# number of rings (size 3 to 8) (size 9 to 14) (size 15 to 20)
#    0.000    1.867    0.000    2.800    1.867    9.067 
#    0.000    5.333    0.000    0.000    0.000    0.000 
#    0.000    0.000    0.000    0.000    0.000    0.000 
#
# Total GULP energy -334722.757164 kJ/mol
# GULP energy per Si atom -5578.712619 kJ/mol
# Density = 2.075600 g / cm^3
# Si number density = 20.803352 Si / 1000 Ang^3
#
#
#
# Elastic Constant Matrix: (Units=GPa)
#
#
# Indices 1 2 3 4 5 6 
#
# 1 69.1229 9.9651 39.6847 0.0000 0.0000 0.0000
# 2 9.9651 116.9442 42.9004 0.0000 0.0000 0.0000
# 3 39.6847 42.9004 187.0375 0.0000 0.0000 0.0000
# 4 0.0000 0.0000 0.0000 23.0689 0.0000 0.0000
# 5 0.0000 0.0000 0.0000 0.0000 15.3483 0.0000
# 6 0.0000 0.0000 0.0000 0.0000 0.0000 89.0455
#
#
#
# Elastic Compliance Matrix: (Units=1/GPa)
#
#
# Indices 1 2 3 4 5 6 
#
# 1 0.016476 -0.000133 -0.003465 0.000000 0.000000 0.000000
# 2 -0.000133 0.009338 -0.002114 0.000000 0.000000 0.000000
# 3 -0.003465 -0.002114 0.006567 0.000000 0.000000 0.000000
# 4 0.000000 0.000000 0.000000 0.043348 0.000000 0.000000
# 5 0.000000 0.000000 0.000000 0.000000 0.065154 0.000000
# 6 0.000000 0.000000 0.000000 0.000000 0.000000 0.011230
#
#
# Mechanical properties :
#
#
# Convention : Reuss Voigt Hill
#
# Bulk Modulus (GPa) = 47.71741 62.02276 54.87009
# Shear Modulus (GPa) = 29.32186 44.19617 36.75901
#
# Velocity S-wave (km/s) = 3.75837 4.61420 4.20810
# Velocity P-wave (km/s) = 6.46692 7.63324 7.07416
#
# Compressibility (1/GPa) = 0.02095671
#
# Stress axis : x y z
#
# Youngs Moduli (GPa) = 60.69589 107.09193 152.28668
#
# Poissons Ratio (x) = 0.01421 0.52771
# Poissons Ratio (y) = 0.00805 0.32188
# Poissons Ratio (z) = 0.21033 0.22635
#
# Static dielectric constant tensor:
#      x y z
#    x 1.727260 0.000000 0.000000 
#    y 0.000000 1.808980 0.000000 
#    z 0.000000 0.000000 1.769290 
# 
# From -- ./inp_files/9758.got.cif
#   From: 2010.05.17/outbox.cif.g08.bks.cpg/sg57_5_cif.got.tgz:9758.got - 2010.06.03 13:58:18.
