data_PCOD9438777
_publ_section_title
;
Structure prediction by ZEFSAII (Michael W. Deem and Ramdas Pophale) SiO2 
 PCOD9438777
Probable space group: P B C M
;
_chemical_formula_sum "Si O2"
_cell_formula_units_Z 64
_cell_length_a 11.771739
_cell_length_b 15.569594
_cell_length_c 15.560202
_cell_angle_alpha 90.000000
_cell_angle_beta 90.000000
_cell_angle_gamma 90.000000
_cell_volume 2851.892447
_symmetry_space_group_name_H-M "P B C M"
_symmetry_group_IT_number 57
_symmetry_cell_setting 'orthorhombic'
loop_
_space_group_symop_operation_xyz
x,y,z
-x,-y,1/2+z
x,1/2-y,-z
-x,1/2+y,1/2-z
-x,-y,-z
x,y,1/2-z
-x,1/2+y,z
x,1/2-y,1/2+z
loop_
_atom_site_type_symbol
_atom_site_label
_atom_site_fract_x
_atom_site_fract_y
_atom_site_fract_z
Si Si1 0.313135 0.629164 0.353587
Si Si2 0.039548 0.237982 0.401105
Si Si3 0.712138 0.483816 0.344735
Si Si4 0.827954 0.972445 0.424191
Si Si5 0.947733 0.958735 0.889019
Si Si6 0.727601 0.804869 0.347615
Si Si7 0.421171 0.354465 0.854628
Si Si8 0.803889 0.308940 0.353544
O O1 0.300633 0.614375 0.250000
O O2 0.249988 0.553949 0.404191
O O3 0.446379 0.637427 0.372786
O O4 0.257016 0.720307 0.374792
O O5 0.073810 0.250000 0.500000
O O6 0.009297 0.139004 0.384106
O O7 0.149759 0.259023 0.346141
O O8 0.932251 0.299295 0.386014
O O9 0.659945 0.468022 0.250000
O O10 0.838151 0.521522 0.333902
O O11 0.640910 0.559561 0.388227
O O12 0.734209 0.391181 0.386729
O O13 0.943861 0.982461 0.368315
O O14 0.887619 0.970730 0.517314
O O15 0.753715 0.889057 0.403309
O O16 0.694660 0.829735 0.250000
O O17 0.638798 0.734259 0.382497
O O18 0.406007 0.354071 0.750000
O O19 0.808774 0.317174 0.250000
#
# Coordination Sequence:
#
# PCOD9438777 Si02
#       8
#     8   8   8   8   8   8   8   8
#     4  10  21  39  61  87 121 159 204 250 297 358
#     4  12  22  38  60  86 121 159 190 245 303 364
#     4  10  21  38  61  86 118 156 201 254 303 359
#     4  11  23  39  58  91 123 160 196 250 306 365
#     4  11  23  38  60  88 124 159 198 243 309 372
#     4  11  22  38  62  91 120 157 204 249 301 361
#     4   9  20  38  61  87 116 156 202 251 304 351
#     4  10  22  37  58  88 118 153 200 248 297 358
#
# _framework density 22.441237999999998
#
# number of rings (size 3 to 8) (size 9 to 14) (size 15 to 20)
#    0.000    1.500    3.750    1.500    1.750    3.500 
#    0.000    4.375    0.000    3.750    0.000    0.000 
#    0.000    0.000    0.000    0.000    0.000    0.000 
#
# Total GULP energy -357435.094067 kJ/mol
# GULP energy per Si atom -5584.923345 kJ/mol
# Density = 2.239016 g / cm^3
# Si number density = 22.441238 Si / 1000 Ang^3
#
#
#
# Elastic Constant Matrix: (Units=GPa)
#
#
# Indices 1 2 3 4 5 6 
#
# 1 104.4048 59.6443 12.7155 0.0000 0.0000 0.0000
# 2 59.6443 176.0194 27.6463 0.0000 0.0000 0.0000
# 3 12.7155 27.6463 41.9779 0.0000 0.0000 0.0000
# 4 0.0000 0.0000 0.0000 19.6142 0.0000 0.0000
# 5 0.0000 0.0000 0.0000 0.0000 9.9633 0.0000
# 6 0.0000 0.0000 0.0000 0.0000 0.0000 3.7388
#
#
#
# Elastic Compliance Matrix: (Units=1/GPa)
#
#
# Indices 1 2 3 4 5 6 
#
# 1 0.011919 -0.003872 -0.001060 0.000000 0.000000 0.000000
# 2 -0.003872 0.007595 -0.003829 0.000000 0.000000 0.000000
# 3 -0.001060 -0.003829 0.026665 0.000000 0.000000 0.000000
# 4 0.000000 0.000000 0.000000 0.050984 0.000000 0.000000
# 5 0.000000 0.000000 0.000000 0.000000 0.100368 0.000000
# 6 0.000000 0.000000 0.000000 0.000000 0.000000 0.267462
#
#
# Mechanical properties :
#
#
# Convention : Reuss Voigt Hill
#
# Bulk Modulus (GPa) = 34.89648 58.04602 46.47125
# Shear Modulus (GPa) = 10.16120 21.48966 15.82543
#
# Velocity S-wave (km/s) = 2.13020 3.09786 2.65843
# Velocity P-wave (km/s) = 4.65126 6.22235 5.49326
#
# Compressibility (1/GPa) = 0.02865619
#
# Stress axis : x y z
#
# Youngs Moduli (GPa) = 83.89648 131.67024 37.50254
#
# Poissons Ratio (x) = 0.50988 0.03976
# Poissons Ratio (y) = 0.32488 0.14359
# Poissons Ratio (z) = 0.08895 0.50414
#
# Static dielectric constant tensor:
#      x y z
#    x 1.770860 0.000000 0.000000 
#    y 0.000000 1.856810 0.000000 
#    z 0.000000 0.000000 1.965920 
# 
# From -- ./inp_files/21997.got.cif
#   From: 2010.05.17/outbox.cif.g08.bks.cpg/sg57_11_cif.got.tgz:21997.got - 2010.06.03 13:58:18.
