data_PCOD9438177
_publ_section_title
;
Structure prediction by ZEFSAII (Michael W. Deem and Ramdas Pophale) SiO2 
 PCOD9438177
Probable space group: P B C M
;
_chemical_formula_sum "Si O2"
_cell_formula_units_Z 64
_cell_length_a 14.647401
_cell_length_b 13.241272
_cell_length_c 17.365920
_cell_angle_alpha 90.000000
_cell_angle_beta 90.000000
_cell_angle_gamma 90.000000
_cell_volume 3368.124017
_symmetry_space_group_name_H-M "P B C M"
_symmetry_group_IT_number 57
_symmetry_cell_setting 'orthorhombic'
loop_
_space_group_symop_operation_xyz
x,y,z
-x,-y,1/2+z
x,1/2-y,-z
-x,1/2+y,1/2-z
-x,-y,-z
x,y,1/2-z
-x,1/2+y,z
x,1/2-y,1/2+z
loop_
_atom_site_type_symbol
_atom_site_label
_atom_site_fract_x
_atom_site_fract_y
_atom_site_fract_z
Si Si1 0.579060 0.106074 0.588506
Si Si2 0.755011 0.631413 0.494621
Si Si3 0.064320 0.619488 0.838765
Si Si4 0.348175 0.797091 0.661067
Si Si5 0.841937 0.208626 0.082843
Si Si6 0.394090 0.992630 0.576667
Si Si7 0.078066 0.014102 0.936388
Si Si8 0.750217 0.510679 0.340227
O O1 0.588346 0.223402 0.609880
O O2 0.483045 0.052332 0.605413
O O3 0.590597 0.079074 0.498412
O O4 0.662061 0.055600 0.636355
O O5 0.743161 0.750000 0.500000
O O6 0.678539 0.572634 0.544200
O O7 0.849785 0.593491 0.530739
O O8 0.751312 0.596977 0.405296
O O9 0.060670 0.648337 0.750000
O O10 0.076155 0.719176 0.890267
O O11 0.156191 0.553020 0.851047
O O12 0.975880 0.556440 0.863036
O O13 0.365613 0.775587 0.750000
O O14 0.242603 0.776931 0.640038
O O15 0.362656 0.914286 0.641081
O O16 0.872205 0.092771 0.077111
O O17 0.810577 0.250000 0.000000
O O18 0.000000 0.000000 0.000000
O O19 0.745379 0.540193 0.250000
#
# Coordination Sequence:
#
# PCOD9438177 Si02
#       8
#     8   8   8   8   8   8   8   8
#     4  10  21  39  69  93 122 164 217 268 321 388
#     4  11  24  43  65  89 128 174 217 257 316 396
#     4  11  24  40  63  97 129 165 214 269 330 383
#     4  12  24  39  64  97 133 171 211 268 335 387
#     4  12  22  40  69  93 127 168 222 269 319 385
#     4  10  23  43  63  93 127 167 215 267 323 390
#     4  12  24  41  65  95 127 171 216 270 319 385
#     4  10  20  39  65  95 124 157 211 273 322 377
#
# _framework density 19.001674999999999
#
# number of rings (size 3 to 8) (size 9 to 14) (size 15 to 20)
#    0.000    1.000    5.000    1.875    1.750    5.000 
#    0.000    2.500    0.000    0.000    0.000    0.000 
#    0.000    0.000    0.000    0.000    0.000    0.000 
#
# Total GULP energy -357464.379342 kJ/mol
# GULP energy per Si atom -5585.380927 kJ/mol
# Density = 1.895843 g / cm^3
# Si number density = 19.001675 Si / 1000 Ang^3
#
#
#
# Elastic Constant Matrix: (Units=GPa)
#
#
# Indices 1 2 3 4 5 6 
#
# 1 87.6789 38.0381 28.0960 0.0000 0.0000 0.0000
# 2 38.0381 130.6121 39.3203 0.0000 0.0000 0.0000
# 3 28.0960 39.3203 68.9860 0.0000 0.0000 0.0000
# 4 0.0000 0.0000 0.0000 9.1520 0.0000 0.0000
# 5 0.0000 0.0000 0.0000 0.0000 19.1744 0.0000
# 6 0.0000 0.0000 0.0000 0.0000 0.0000 24.7186
#
#
#
# Elastic Compliance Matrix: (Units=1/GPa)
#
#
# Indices 1 2 3 4 5 6 
#
# 1 0.013937 -0.002837 -0.004059 0.000000 0.000000 0.000000
# 2 -0.002837 0.009820 -0.004442 0.000000 0.000000 0.000000
# 3 -0.004059 -0.004442 0.018680 0.000000 0.000000 0.000000
# 4 0.000000 0.000000 0.000000 0.109266 0.000000 0.000000
# 5 0.000000 0.000000 0.000000 0.000000 0.052153 0.000000
# 6 0.000000 0.000000 0.000000 0.000000 0.000000 0.040455
#
#
# Mechanical properties :
#
#
# Convention : Reuss Voigt Hill
#
# Bulk Modulus (GPa) = 50.60284 55.35397 52.97840
# Shear Modulus (GPa) = 18.27668 22.73051 20.50359
#
# Velocity S-wave (km/s) = 3.10473 3.46242 3.28844
# Velocity P-wave (km/s) = 6.28816 6.72152 6.50845
#
# Compressibility (1/GPa) = 0.01976174
#
# Stress axis : x y z
#
# Youngs Moduli (GPa) = 71.75321 101.83799 53.53201
#
# Poissons Ratio (x) = 0.28889 0.21729
# Poissons Ratio (y) = 0.20355 0.23776
# Poissons Ratio (z) = 0.29125 0.45232
#
# Static dielectric constant tensor:
#      x y z
#    x 1.662500 0.000000 0.000000 
#    y 0.000000 1.671750 0.000000 
#    z 0.000000 0.000000 1.657750 
# 
# From -- ./inp_files/22666.got.cif
#   From: 2010.05.17/outbox.cif.g08.bks.cpg/sg57_12_cif.got.tgz:22666.got - 2010.06.03 13:58:18.
