data_PCOD9438127
_publ_section_title
;
Structure prediction by ZEFSAII (Michael W. Deem and Ramdas Pophale) SiO2 
 PCOD9438127
Probable space group: P B C M
;
_chemical_formula_sum "Si O2"
_cell_formula_units_Z 40
_cell_length_a 7.977118
_cell_length_b 8.934230
_cell_length_c 26.114605
_cell_angle_alpha 90.000000
_cell_angle_beta 90.000000
_cell_angle_gamma 90.000000
_cell_volume 1861.172411
_symmetry_space_group_name_H-M "P B C M"
_symmetry_group_IT_number 57
_symmetry_cell_setting 'orthorhombic'
loop_
_space_group_symop_operation_xyz
x,y,z
-x,-y,1/2+z
x,1/2-y,-z
-x,1/2+y,1/2-z
-x,-y,-z
x,y,1/2-z
-x,1/2+y,z
x,1/2-y,1/2+z
loop_
_atom_site_type_symbol
_atom_site_label
_atom_site_fract_x
_atom_site_fract_y
_atom_site_fract_z
Si Si1 0.885641 0.687255 0.840140
Si Si2 0.625406 0.357183 0.094444
Si Si3 0.317512 0.522787 0.095867
Si Si4 0.215703 0.508390 0.693569
Si Si5 0.055449 0.728174 0.445313
O O1 0.745970 0.565100 0.854240
O O2 0.826129 0.832439 0.810030
O O3 0.044422 0.603482 0.815486
O O4 0.942014 0.749862 0.895922
O O5 0.459917 0.424270 0.069540
O O6 0.602762 0.183475 0.108794
O O7 0.667874 0.446128 0.146085
O O8 0.791616 0.349212 0.059519
O O9 0.154603 0.571301 0.063024
O O10 0.282873 0.543755 0.750000
O O11 0.973833 0.750000 0.500000
#
# Coordination Sequence:
#
# PCOD9438127 Si02
#       5
#     8   8   8   8   8
#     4  11  20  39  60  88 124 154 195 257 290 353
#     4   9  21  39  57  84 120 156 195 250 291 350
#     4  10  20  39  60  83 123 157 194 244 300 343
#     4  11  21  38  61  87 116 157 201 242 305 360
#     4   9  21  37  59  91 118 160 204 239 304 356
#
# _framework density 21.491828999999999
#
# number of rings (size 3 to 8) (size 9 to 14) (size 15 to 20)
#    1.200    0.800    2.000    1.800    0.000    1.600 
#    0.000    7.000    0.000    0.000    0.000    0.000 
#    0.000    0.000    0.000    0.000    0.000    0.000 
#
# Total GULP energy -223015.660360 kJ/mol
# GULP energy per Si atom -5575.391509 kJ/mol
# Density = 2.144291 g / cm^3
# Si number density = 21.491829 Si / 1000 Ang^3
#
#
#
# Elastic Constant Matrix: (Units=GPa)
#
#
# Indices 1 2 3 4 5 6 
#
# 1 35.7317 16.8896 -12.9747 0.0000 0.0000 0.0000
# 2 16.8896 100.3713 10.9189 0.0000 0.0000 0.0000
# 3 -12.9747 10.9189 76.6105 0.0000 0.0000 0.0000
# 4 0.0000 0.0000 0.0000 14.9323 0.0000 0.0000
# 5 0.0000 0.0000 0.0000 0.0000 -2.3088 0.0000
# 6 0.0000 0.0000 0.0000 0.0000 0.0000 34.6079
#
#
#
# Elastic Compliance Matrix: (Units=1/GPa)
#
#
# Indices 1 2 3 4 5 6 
#
# 1 0.033355 -0.006325 0.006550 0.000000 0.000000 0.000000
# 2 -0.006325 0.011319 -0.002685 0.000000 0.000000 0.000000
# 3 0.006550 -0.002685 0.014545 0.000000 0.000000 0.000000
# 4 0.000000 0.000000 0.000000 0.066969 0.000000 0.000000
# 5 0.000000 0.000000 0.000000 0.000000 -0.433120 0.000000
# 6 0.000000 0.000000 0.000000 0.000000 0.000000 0.028895
#
#
# Mechanical properties :
#
#
# Convention : Reuss Voigt Hill
#
# Bulk Modulus (GPa) = 18.41605 26.93124 22.67364
# Shear Modulus (GPa) = -19.60647 22.63824 1.51589
#
# Velocity S-wave (km/s) = -3.02367 3.24904 0.84075
# Velocity P-wave (km/s) = 1.89806 5.16073 3.39342
#
# Compressibility (1/GPa) = 0.05430046
#
# Stress axis : x y z
#
# Youngs Moduli (GPa) = 29.98080 88.34398 68.75201
#
# Poissons Ratio (x) = 0.55879 -0.45035
# Poissons Ratio (y) = 0.18963 0.18457
# Poissons Ratio (z) = -0.19639 0.23716
#
# Static dielectric constant tensor:
#      x y z
#    x 1.828280 0.000000 0.000000 
#    y 0.000000 1.815940 0.000000 
#    z 0.000000 0.000000 1.744880 
# 
# From -- ./inp_files/26520.got.cif
#   From: 2010.05.17/outbox.cif.g08.bks.cpg/sg57_14_cif.got.tgz:26520.got - 2010.06.03 13:58:18.
