data_PCOD9438804
_publ_section_title
;
Structure prediction by ZEFSAII (Michael W. Deem and Ramdas Pophale) SiO2 
 PCOD9438804
Probable space group: P B C M
;
_chemical_formula_sum "Si O2"
_cell_formula_units_Z 56
_cell_length_a 11.518741
_cell_length_b 14.791355
_cell_length_c 15.203479
_cell_angle_alpha 90.000000
_cell_angle_beta 90.000000
_cell_angle_gamma 90.000000
_cell_volume 2590.335111
_symmetry_space_group_name_H-M "P B C M"
_symmetry_group_IT_number 57
_symmetry_cell_setting 'orthorhombic'
loop_
_space_group_symop_operation_xyz
x,y,z
-x,-y,1/2+z
x,1/2-y,-z
-x,1/2+y,1/2-z
-x,-y,-z
x,y,1/2-z
-x,1/2+y,z
x,1/2-y,1/2+z
loop_
_atom_site_type_symbol
_atom_site_label
_atom_site_fract_x
_atom_site_fract_y
_atom_site_fract_z
Si Si1 0.571697 0.018198 0.087389
Si Si2 0.946954 0.826718 0.352838
Si Si3 0.820852 0.342865 0.451427
Si Si4 0.174215 0.473471 0.474860
Si Si5 0.591433 0.377151 0.151160
Si Si6 0.792960 0.646323 0.355292
Si Si7 0.472564 0.302490 0.644398
O O1 0.699267 0.981538 0.070694
O O2 0.491929 0.963364 0.155017
O O3 0.562287 0.123190 0.109836
O O4 0.500000 0.000000 0.000000
O O5 0.935527 0.848104 0.250000
O O6 0.896315 0.906794 0.412361
O O7 0.875703 0.733627 0.368487
O O8 0.080611 0.818416 0.380971
O O9 0.791759 0.250000 0.500000
O O10 0.867415 0.422949 0.514600
O O11 0.705166 0.384067 0.407853
O O12 0.176291 0.429911 0.573021
O O13 0.630258 0.355156 0.250000
O O14 0.511894 0.296152 0.114508
O O15 0.798272 0.621250 0.250000
O O16 0.660040 0.673786 0.377768
O O17 0.476538 0.302777 0.750000
#
# Coordination Sequence:
#
# PCOD9438804 Si02
#       7
#     8   8   8   8   8   8   8
#     4  12  22  38  61  98 131 166 210 264 325 394
#     4  11  26  46  68  95 129 169 221 275 331 390
#     4  12  25  44  66  93 131 171 225 276 328 391
#     4  12  24  42  69  98 130 172 219 269 331 393
#     4  11  24  40  63  91 130 176 215 264 329 392
#     4  10  21  41  68  98 129 166 213 274 332 393
#     4  10  21  38  61  92 128 167 211 261 323 391
#
# _framework density 21.618824
#
# number of rings (size 3 to 8) (size 9 to 14) (size 15 to 20)
#    0.000    0.857    2.857    4.286    0.000    4.571 
#    0.000    2.857    0.000    0.000    0.000    0.000 
#    0.000    0.000    0.000    0.000    0.000    0.000 
#
# Total GULP energy -313106.969010 kJ/mol
# GULP energy per Si atom -5591.195875 kJ/mol
# Density = 2.156962 g / cm^3
# Si number density = 21.618824 Si / 1000 Ang^3
#
#
#
# Elastic Constant Matrix: (Units=GPa)
#
#
# Indices 1 2 3 4 5 6 
#
# 1 88.1821 9.8104 32.0977 0.0000 0.0000 0.0000
# 2 9.8104 100.8482 42.7685 0.0000 0.0000 0.0000
# 3 32.0977 42.7685 73.6778 0.0000 0.0000 0.0000
# 4 0.0000 0.0000 0.0000 23.9573 0.0000 0.0000
# 5 0.0000 0.0000 0.0000 0.0000 24.6586 0.0000
# 6 0.0000 0.0000 0.0000 0.0000 0.0000 20.8379
#
#
#
# Elastic Compliance Matrix: (Units=1/GPa)
#
#
# Indices 1 2 3 4 5 6 
#
# 1 0.013666 0.001586 -0.006874 0.000000 0.000000 0.000000
# 2 0.001586 0.013338 -0.008433 0.000000 0.000000 0.000000
# 3 -0.006874 -0.008433 0.021463 0.000000 0.000000 0.000000
# 4 0.000000 0.000000 0.000000 0.041741 0.000000 0.000000
# 5 0.000000 0.000000 0.000000 0.000000 0.040554 0.000000
# 6 0.000000 0.000000 0.000000 0.000000 0.000000 0.047989
#
#
# Mechanical properties :
#
#
# Convention : Reuss Voigt Hill
#
# Bulk Modulus (GPa) = 47.56598 48.00681 47.78640
# Shear Modulus (GPa) = 23.45194 25.75952 24.60573
#
# Velocity S-wave (km/s) = 3.29719 3.45560 3.37733
# Velocity P-wave (km/s) = 6.04526 6.17866 6.11232
#
# Compressibility (1/GPa) = 0.02102343
#
# Stress axis : x y z
#
# Youngs Moduli (GPa) = 73.17515 74.97314 46.59252
#
# Poissons Ratio (x) = -0.11889 0.32028
# Poissons Ratio (y) = -0.11604 0.39293
# Poissons Ratio (z) = 0.50301 0.63228
#
# Static dielectric constant tensor:
#      x y z
#    x 1.827330 0.000000 0.000000 
#    y 0.000000 1.924460 0.000000 
#    z 0.000000 0.000000 1.909020 
# 
# From -- ./inp_files/17719.got.cif
#   From: 2010.05.17/outbox.cif.g08.bks.cpg/sg57_9_cif.got.tgz:17719.got - 2010.06.03 13:58:18.
