data_PCOD9438531
_publ_section_title
;
Structure prediction by ZEFSAII (Michael W. Deem and Ramdas Pophale) SiO2 
 PCOD9438531
Probable space group: P B C M
;
_chemical_formula_sum "Si O2"
_cell_formula_units_Z 64
_cell_length_a 14.917600
_cell_length_b 25.356177
_cell_length_c 7.701338
_cell_angle_alpha 90.000000
_cell_angle_beta 90.000000
_cell_angle_gamma 90.000000
_cell_volume 2913.056559
_symmetry_space_group_name_H-M "P B C M"
_symmetry_group_IT_number 57
_symmetry_cell_setting 'orthorhombic'
loop_
_space_group_symop_operation_xyz
x,y,z
-x,-y,1/2+z
x,1/2-y,-z
-x,1/2+y,1/2-z
-x,-y,-z
x,y,1/2-z
-x,1/2+y,z
x,1/2-y,1/2+z
loop_
_atom_site_type_symbol
_atom_site_label
_atom_site_fract_x
_atom_site_fract_y
_atom_site_fract_z
Si Si1 0.370169 0.588356 0.545838
Si Si2 0.722240 0.982840 0.449953
Si Si3 0.692145 0.688477 0.042768
Si Si4 0.890950 0.811893 0.958558
Si Si5 0.740323 0.309313 0.543429
Si Si6 0.922697 0.140952 0.462461
Si Si7 0.572414 0.593901 0.546305
Si Si8 0.902741 0.021725 0.458699
O O1 0.370426 0.575008 0.750000
O O2 0.314062 0.542606 0.453713
O O3 0.324156 0.645165 0.526730
O O4 0.471969 0.589569 0.476018
O O5 0.732019 0.965016 0.250000
O O6 0.821462 0.986136 0.529112
O O7 0.646416 0.945749 0.531647
O O8 0.691049 0.682715 0.250000
O O9 0.791810 0.671936 0.977380
O O10 0.680655 0.750000 0.000000
O O11 0.614612 0.651747 0.969445
O O12 0.889262 0.817501 0.750000
O O13 0.978586 0.842274 0.024048
O O14 0.901439 0.750000 0.000000
O O15 0.712944 0.250000 0.500000
O O16 0.740257 0.315293 0.750000
O O17 0.842282 0.320652 0.481859
O O18 0.925392 0.141400 0.250000
O O19 0.897873 0.082058 0.520056
O O20 0.563725 0.580705 0.750000
O O21 0.892555 0.023213 0.250000
O O22 0.000000 0.000000 0.500000
#
# Coordination Sequence:
#
# PCOD9438531 Si02
#       8
#     8   8   8   8   8   8   8   8
#     4  11  23  40  61  88 117 150 195 247 297 349
#     4  10  21  41  64  86 118 157 193 239 296 349
#     4  10  21  37  59  85 116 153 191 237 290 343
#     4   9  18  33  53  79 109 143 183 227 274 329
#     4  11  22  39  62  88 120 159 199 245 299 357
#     4   9  18  35  57  80 115 153 188 232 284 342
#     4  10  23  40  61  87 116 150 194 244 294 352
#     4  10  21  37  57  85 119 156 190 230 287 343
#
# _framework density 21.970051000000002
#
# number of rings (size 3 to 8) (size 9 to 14) (size 15 to 20)
#    0.000    2.000    1.250    1.875    1.750    3.000 
#    0.000    1.250    0.000    0.000    0.000    0.000 
#    0.000    0.000    0.000    0.000    0.000    0.000 
#
# Total GULP energy -357566.359244 kJ/mol
# GULP energy per Si atom -5586.974363 kJ/mol
# Density = 2.192005 g / cm^3
# Si number density = 21.970051 Si / 1000 Ang^3
#
#
#
# Elastic Constant Matrix: (Units=GPa)
#
#
# Indices 1 2 3 4 5 6 
#
# 1 139.6326 18.6107 -5.1215 0.0000 0.0000 0.0000
# 2 18.6107 54.3921 -15.9779 0.0000 0.0000 0.0000
# 3 -5.1215 -15.9779 44.2713 0.0000 0.0000 0.0000
# 4 0.0000 0.0000 0.0000 19.1677 0.0000 0.0000
# 5 0.0000 0.0000 0.0000 0.0000 -14.2089 0.0000
# 6 0.0000 0.0000 0.0000 0.0000 0.0000 14.0600
#
#
#
# Elastic Compliance Matrix: (Units=1/GPa)
#
#
# Indices 1 2 3 4 5 6 
#
# 1 0.007504 -0.002587 -0.000065 0.000000 0.000000 0.000000
# 2 -0.002587 0.021457 0.007445 0.000000 0.000000 0.000000
# 3 -0.000065 0.007445 0.025267 0.000000 0.000000 0.000000
# 4 0.000000 0.000000 0.000000 0.052171 0.000000 0.000000
# 5 0.000000 0.000000 0.000000 0.000000 -0.070378 0.000000
# 6 0.000000 0.000000 0.000000 0.000000 0.000000 0.071124
#
#
# Mechanical properties :
#
#
# Convention : Reuss Voigt Hill
#
# Bulk Modulus (GPa) = 15.67069 25.92427 20.79748
# Shear Modulus (GPa) = 42.07659 19.85608 30.96634
#
# Velocity S-wave (km/s) = 4.38102 3.00955 3.75838
# Velocity P-wave (km/s) = 5.72184 4.88897 5.32172
#
# Compressibility (1/GPa) = 0.06381341
#
# Stress axis : x y z
#
# Youngs Moduli (GPa) = 133.26179 46.60471 39.57682
#
# Poissons Ratio (x) = 0.12056 0.00259
# Poissons Ratio (y) = 0.34472 -0.29464
# Poissons Ratio (z) = 0.00873 -0.34696
#
# Static dielectric constant tensor:
#      x y z
#    x 1.828530 0.000000 0.000000 
#    y 0.000000 1.795050 0.000000 
#    z 0.000000 0.000000 1.818030 
# 
# From -- ./inp_files/5647.got.cif
#   From: 2010.05.17/outbox.cif.g08.bks.cpg/sg57_3_cif.got.tgz:5647.got - 2010.06.03 13:58:18.
