data_PCOD9438698
_publ_section_title
;
Structure prediction by ZEFSAII (Michael W. Deem and Ramdas Pophale) SiO2 
 PCOD9438698
Probable space group: P B C M
;
_chemical_formula_sum "Si O2"
_cell_formula_units_Z 48
_cell_length_a 10.228638
_cell_length_b 29.815347
_cell_length_c 8.349686
_cell_angle_alpha 90.000000
_cell_angle_beta 90.000000
_cell_angle_gamma 90.000000
_cell_volume 2546.407007
_symmetry_space_group_name_H-M "P B C M"
_symmetry_group_IT_number 57
_symmetry_cell_setting 'orthorhombic'
loop_
_space_group_symop_operation_xyz
x,y,z
-x,-y,1/2+z
x,1/2-y,-z
-x,1/2+y,1/2-z
-x,-y,-z
x,y,1/2-z
-x,1/2+y,z
x,1/2-y,1/2+z
loop_
_atom_site_type_symbol
_atom_site_label
_atom_site_fract_x
_atom_site_fract_y
_atom_site_fract_z
Si Si1 0.212966 0.699477 0.558159
Si Si2 0.365464 0.478646 0.056377
Si Si3 0.709562 0.878112 0.443334
Si Si4 0.489794 0.300864 0.443566
Si Si5 0.006553 0.627697 0.058545
Si Si6 0.113538 0.532667 0.443324
O O1 0.192075 0.750000 0.500000
O O2 0.209212 0.697763 0.750000
O O3 0.361428 0.686958 0.506240
O O4 0.100005 0.668175 0.490618
O O5 0.364169 0.477641 0.250000
O O6 0.338077 0.427506 0.001304
O O7 0.249048 0.511283 0.000535
O O8 0.500000 0.500000 0.000000
O O9 0.704231 0.878394 0.250000
O O10 0.614223 0.838030 0.499718
O O11 0.859463 0.870248 0.492527
O O12 0.462081 0.250000 0.500000
O O13 0.487487 0.300420 0.250000
O O14 0.997206 0.625886 0.250000
O O15 0.077458 0.582259 0.999630
O O16 0.116541 0.533465 0.250000
O O17 0.000000 0.500000 0.500000
#
# Coordination Sequence:
#
# PCOD9438698 Si02
#       6
#     8   8   8   8   8   8
#     4  10  21  39  62  86 114 148 187 233 284 340
#     4  10  22  38  57  83 115 150 190 237 285 340
#     4  10  21  39  59  82 115 152 192 235 284 341
#     4   9  20  38  60  85 111 145 186 230 282 337
#     4  11  23  37  57  87 117 150 192 236 284 339
#     4  10  21  38  58  82 114 152 193 235 281 335
#
# _framework density 18.850090000000002
#
# number of rings (size 3 to 8) (size 9 to 14) (size 15 to 20)
#    0.000    2.000    1.667    1.000    2.333    4.000 
#    0.000    1.667    0.000    0.000    0.000    0.000 
#    0.000    0.000    0.000    0.000    0.000    0.000 
#
# Total GULP energy -267963.961224 kJ/mol
# GULP energy per Si atom -5582.582526 kJ/mol
# Density = 1.880719 g / cm^3
# Si number density = 18.850090 Si / 1000 Ang^3
#
#
#
# Elastic Constant Matrix: (Units=GPa)
#
#
# Indices 1 2 3 4 5 6 
#
# 1 202.9764 125.3345 14.1873 0.0000 0.0000 0.0000
# 2 125.3345 148.1186 13.4704 0.0000 0.0000 0.0000
# 3 14.1873 13.4704 4.3670 0.0000 0.0000 0.0000
# 4 0.0000 0.0000 0.0000 24.5381 0.0000 0.0000
# 5 0.0000 0.0000 0.0000 0.0000 29.5648 0.0000
# 6 0.0000 0.0000 0.0000 0.0000 0.0000 44.4204
#
#
#
# Elastic Compliance Matrix: (Units=1/GPa)
#
#
# Indices 1 2 3 4 5 6 
#
# 1 0.010588 -0.008105 -0.009398 0.000000 0.000000 0.000000
# 2 -0.008105 0.015587 -0.021751 0.000000 0.000000 0.000000
# 3 -0.009398 -0.021751 0.326614 0.000000 0.000000 0.000000
# 4 0.000000 0.000000 0.000000 0.040753 0.000000 0.000000
# 5 0.000000 0.000000 0.000000 0.000000 0.033824 0.000000
# 6 0.000000 0.000000 0.000000 0.000000 0.000000 0.022512
#
#
# Mechanical properties :
#
#
# Convention : Reuss Voigt Hill
#
# Bulk Modulus (GPa) = 3.64589 73.49405 38.56997
# Shear Modulus (GPa) = 8.06695 33.20266 20.63481
#
# Velocity S-wave (km/s) = 2.07095 4.20146 3.31218
# Velocity P-wave (km/s) = 2.76709 7.91263 5.92733
#
# Compressibility (1/GPa) = 0.27428173
#
# Stress axis : x y z
#
# Youngs Moduli (GPa) = 94.44566 64.15438 3.06172
#
# Poissons Ratio (x) = 0.51995 0.02878
# Poissons Ratio (y) = 0.76545 0.06659
# Poissons Ratio (z) = 0.88764 1.39539
#
# Static dielectric constant tensor:
#      x y z
#    x 1.634390 0.000000 0.000000 
#    y 0.000000 1.619570 0.000000 
#    z 0.000000 0.000000 1.658460 
# 
# From -- ./inp_files/1968.got.cif
#   From: 2010.05.17/outbox.cif.g08.bks.cpg/sg57_1_cif.got.tgz:1968.got - 2010.06.03 13:58:18.
