data_PCOD9438850
_publ_section_title
;
Structure prediction by ZEFSAII (Michael W. Deem and Ramdas Pophale) SiO2 
 PCOD9438850
Probable space group: P B C M
;
_chemical_formula_sum "Si O2"
_cell_formula_units_Z 44
_cell_length_a 7.858928
_cell_length_b 28.154209
_cell_length_c 8.685051
_cell_angle_alpha 90.000000
_cell_angle_beta 90.000000
_cell_angle_gamma 90.000000
_cell_volume 1921.670898
_symmetry_space_group_name_H-M "P B C M"
_symmetry_group_IT_number 57
_symmetry_cell_setting 'orthorhombic'
loop_
_space_group_symop_operation_xyz
x,y,z
-x,-y,1/2+z
x,1/2-y,-z
-x,1/2+y,1/2-z
-x,-y,-z
x,y,1/2-z
-x,1/2+y,z
x,1/2-y,1/2+z
loop_
_atom_site_type_symbol
_atom_site_label
_atom_site_fract_x
_atom_site_fract_y
_atom_site_fract_z
Si Si1 0.661762 0.961376 0.250000
Si Si2 0.313946 0.199610 0.067658
Si Si3 0.719545 0.050167 0.750000
Si Si4 0.276067 0.799081 0.571457
Si Si5 0.438157 0.049285 0.250000
Si Si6 0.157669 0.901660 0.930328
Si Si7 0.772291 0.902268 0.514958
O O1 0.480030 0.934269 0.250000
O O2 0.769259 0.943385 0.390295
O O3 0.601142 0.015354 0.250000
O O4 0.269801 0.194532 0.250000
O O5 0.519151 0.199232 0.055767
O O6 0.248321 0.153274 0.977272
O O7 0.254501 0.250000 0.000000
O O8 0.789805 0.066536 0.581382
O O9 0.706657 0.992504 0.750000
O O10 0.214159 0.750000 0.500000
O O11 0.232856 0.796987 0.750000
O O12 0.201415 0.848401 0.512925
O O13 0.397119 0.083442 0.109522
O O14 0.226344 0.905220 0.750000
O O15 0.956001 0.906403 0.911323
#
# Coordination Sequence:
#
# PCOD9438850 Si02
#       7
#     4   8   4   8   4   8   8
#     4  10  25  43  67  99 126 180 234 278 337 397
#     4  10  21  38  64  94 130 174 219 270 326 402
#     4  10  25  45  66  97 130 176 239 278 332 410
#     4   9  20  37  60  94 129 178 224 267 330 406
#     4  10  24  46  67  96 132 182 223 286 337 405
#     4  11  23  43  67  99 136 182 223 280 349 402
#     4  12  22  45  67  97 142 169 227 286 341 401
#
# _framework density 22.896739
#
# number of rings (size 3 to 8) (size 9 to 14) (size 15 to 20)
#    0.545    1.091    1.818    2.182    2.545    1.455 
#    3.273    0.000    0.000    0.000    0.000    0.000 
#    0.000    0.000    0.000    0.000    0.000    0.000 
#
# Total GULP energy -245092.680765 kJ/mol
# GULP energy per Si atom -5570.288199 kJ/mol
# Density = 2.284462 g / cm^3
# Si number density = 22.896739 Si / 1000 Ang^3
#
#
#
# Elastic Constant Matrix: (Units=GPa)
#
#
# Indices 1 2 3 4 5 6 
#
# 1 33.5684 31.2844 17.0427 0.0000 0.0000 0.0000
# 2 31.2844 168.9900 31.9131 0.0000 0.0000 0.0000
# 3 17.0427 31.9131 55.6132 0.0000 0.0000 0.0000
# 4 0.0000 0.0000 0.0000 18.1053 0.0000 0.0000
# 5 0.0000 0.0000 0.0000 0.0000 26.2316 0.0000
# 6 0.0000 0.0000 0.0000 0.0000 0.0000 -10.7715
#
#
#
# Elastic Compliance Matrix: (Units=1/GPa)
#
#
# Indices 1 2 3 4 5 6 
#
# 1 0.039562 -0.005646 -0.008884 0.000000 0.000000 0.000000
# 2 -0.005646 0.007443 -0.002541 0.000000 0.000000 0.000000
# 3 -0.008884 -0.002541 0.022162 0.000000 0.000000 0.000000
# 4 0.000000 0.000000 0.000000 0.055233 0.000000 0.000000
# 5 0.000000 0.000000 0.000000 0.000000 0.038122 0.000000
# 6 0.000000 0.000000 0.000000 0.000000 0.000000 -0.092838
#
#
# Mechanical properties :
#
#
# Convention : Reuss Voigt Hill
#
# Bulk Modulus (GPa) = 28.55082 46.51688 37.53385
# Shear Modulus (GPa) = 43.29008 18.57518 30.93263
#
# Velocity S-wave (km/s) = 4.35290 2.85135 3.67953
# Velocity P-wave (km/s) = 6.14492 5.58572 5.87198
#
# Compressibility (1/GPa) = 0.03502527
#
# Stress axis : x y z
#
# Youngs Moduli (GPa) = 25.27648 134.36240 45.12301
#
# Poissons Ratio (x) = 0.75866 0.40087
# Poissons Ratio (y) = 0.14272 0.11464
# Poissons Ratio (z) = 0.22455 0.34135
#
# Static dielectric constant tensor:
#      x y z
#    x 1.824560 0.000000 0.000000 
#    y 0.000000 1.830180 0.000000 
#    z 0.000000 0.000000 1.868770 
# 
# From -- ./inp_files/1941.got.cif
#   From: 2010.05.17/outbox.cif.g08.bks.cpg/sg57_1_cif.got.tgz:1941.got - 2010.06.03 13:58:18.
