data_PCOD9438270
_publ_section_title
;
Structure prediction by ZEFSAII (Michael W. Deem and Ramdas Pophale) SiO2 
 PCOD9438270
Probable space group: P B C M
;
_chemical_formula_sum "Si O2"
_cell_formula_units_Z 48
_cell_length_a 12.313782
_cell_length_b 11.898142
_cell_length_c 17.046468
_cell_angle_alpha 90.000000
_cell_angle_beta 90.000000
_cell_angle_gamma 90.000000
_cell_volume 2497.497235
_symmetry_space_group_name_H-M "P B C M"
_symmetry_group_IT_number 57
_symmetry_cell_setting 'orthorhombic'
loop_
_space_group_symop_operation_xyz
x,y,z
-x,-y,1/2+z
x,1/2-y,-z
-x,1/2+y,1/2-z
-x,-y,-z
x,y,1/2-z
-x,1/2+y,z
x,1/2-y,1/2+z
loop_
_atom_site_type_symbol
_atom_site_label
_atom_site_fract_x
_atom_site_fract_y
_atom_site_fract_z
Si Si1 0.325431 0.293391 0.090367
Si Si2 0.430739 0.749445 0.595171
Si Si3 0.272883 0.555938 0.403489
Si Si4 0.151227 0.126517 0.342773
Si Si5 0.911759 0.303204 0.658407
Si Si6 0.227314 0.893052 0.415285
O O1 0.446907 0.269957 0.121865
O O2 0.300900 0.425539 0.094836
O O3 0.235814 0.224107 0.137154
O O4 0.320556 0.250000 0.000000
O O5 0.436142 0.750000 0.500000
O O6 0.376136 0.867090 0.619650
O O7 0.343554 0.652848 0.616121
O O8 0.171354 0.592785 0.350759
O O9 0.240154 0.594449 0.491454
O O10 0.144780 0.108369 0.250000
O O11 0.030839 0.161813 0.370090
O O12 0.192555 0.012420 0.382010
O O13 0.918151 0.270398 0.750000
O O14 0.859736 0.200868 0.609794
#
# Coordination Sequence:
#
# PCOD9438270 Si02
#       6
#     8   8   8   8   8   8
#     4  11  22  37  62  92 121 153 195 244 295 349
#     4   8  19  35  63  90 117 152 189 239 297 353
#     4  10  21  39  63  94 117 151 201 247 292 349
#     4  11  25  40  58  85 120 161 200 242 296 354
#     4  10  23  41  61  84 119 164 198 240 302 353
#     4  10  20  41  64  88 118 152 201 246 292 353
#
# _framework density 19.219239999999999
#
# number of rings (size 3 to 8) (size 9 to 14) (size 15 to 20)
#    0.000    2.000    1.667    2.000    4.667    4.667 
#    0.000    4.167    0.000    0.000    0.000    0.000 
#    0.000    0.000    0.000    0.000    0.000    0.000 
#
# Total GULP energy -267994.403238 kJ/mol
# GULP energy per Si atom -5583.216734 kJ/mol
# Density = 1.917550 g / cm^3
# Si number density = 19.219240 Si / 1000 Ang^3
#
#
#
# Elastic Constant Matrix: (Units=GPa)
#
#
# Indices 1 2 3 4 5 6 
#
# 1 158.6651 81.7923 13.8634 0.0000 0.0000 0.0000
# 2 81.7923 153.1892 15.2324 0.0000 0.0000 0.0000
# 3 13.8634 15.2324 22.4772 0.0000 0.0000 0.0000
# 4 0.0000 0.0000 0.0000 8.6527 0.0000 0.0000
# 5 0.0000 0.0000 0.0000 0.0000 32.9568 0.0000
# 6 0.0000 0.0000 0.0000 0.0000 0.0000 16.8315
#
#
#
# Elastic Compliance Matrix: (Units=1/GPa)
#
#
# Indices 1 2 3 4 5 6 
#
# 1 0.008816 -0.004468 -0.002410 0.000000 0.000000 0.000000
# 2 -0.004468 0.009263 -0.003522 0.000000 0.000000 0.000000
# 3 -0.002410 -0.003522 0.048363 0.000000 0.000000 0.000000
# 4 0.000000 0.000000 0.000000 0.115571 0.000000 0.000000
# 5 0.000000 0.000000 0.000000 0.000000 0.030343 0.000000
# 6 0.000000 0.000000 0.000000 0.000000 0.000000 0.059412
#
#
# Mechanical properties :
#
#
# Convention : Reuss Voigt Hill
#
# Bulk Modulus (GPa) = 21.90918 61.78974 41.84946
# Shear Modulus (GPa) = 16.24523 26.58442 21.41482
#
# Velocity S-wave (km/s) = 2.91049 3.72320 3.34164
# Velocity P-wave (km/s) = 4.76644 7.12058 6.05895
#
# Compressibility (1/GPa) = 0.04564296
#
# Stress axis : x y z
#
# Youngs Moduli (GPa) = 113.42727 107.95076 20.67702
#
# Poissons Ratio (x) = 0.48228 0.04983
# Poissons Ratio (y) = 0.50675 0.07283
# Poissons Ratio (z) = 0.27336 0.38022
#
# Static dielectric constant tensor:
#      x y z
#    x 1.671480 0.000000 0.000000 
#    y 0.000000 1.645530 0.000000 
#    z 0.000000 0.000000 1.663280 
# 
# From -- ./inp_files/21832.got.cif
#   From: 2010.05.17/outbox.cif.g08.bks.cpg/sg57_11_cif.got.tgz:21832.got - 2010.06.03 13:58:18.
