data_PCOD9438646
_publ_section_title
;
Structure prediction by ZEFSAII (Michael W. Deem and Ramdas Pophale) SiO2 
 PCOD9438646
Probable space group: P B C M
;
_chemical_formula_sum "Si O2"
_cell_formula_units_Z 40
_cell_length_a 8.255561
_cell_length_b 9.734038
_cell_length_c 25.115842
_cell_angle_alpha 90.000000
_cell_angle_beta 90.000000
_cell_angle_gamma 90.000000
_cell_volume 2018.307669
_symmetry_space_group_name_H-M "P B C M"
_symmetry_group_IT_number 57
_symmetry_cell_setting 'orthorhombic'
loop_
_space_group_symop_operation_xyz
x,y,z
-x,-y,1/2+z
x,1/2-y,-z
-x,1/2+y,1/2-z
-x,-y,-z
x,y,1/2-z
-x,1/2+y,z
x,1/2-y,1/2+z
loop_
_atom_site_type_symbol
_atom_site_label
_atom_site_fract_x
_atom_site_fract_y
_atom_site_fract_z
Si Si1 0.650443 0.766735 0.869804
Si Si2 0.565159 0.120923 0.462962
Si Si3 0.805694 0.019361 0.124640
Si Si4 0.338942 0.744174 0.810946
Si Si5 0.130070 0.479432 0.812515
O O1 0.580370 0.839374 0.922356
O O2 0.774499 0.642942 0.878012
O O3 0.490760 0.696593 0.845295
O O4 0.726391 0.876503 0.829283
O O5 0.602098 0.250000 0.500000
O O6 0.724549 0.079593 0.429041
O O7 0.500000 0.000000 0.500000
O O8 0.707341 0.104152 0.169586
O O9 0.988598 0.042817 0.144299
O O10 0.386159 0.745788 0.750000
O O11 0.193976 0.635598 0.817252
O O12 0.082801 0.456980 0.750000
#
# Coordination Sequence:
#
# PCOD9438646 Si02
#       5
#     8   8   8   8   8
#     4  11  23  40  66  93 126 170 223 268 323 395
#     4  11  23  45  71  95 125 170 223 280 328 382
#     4  11  23  39  62  93 128 169 211 266 334 390
#     4  10  21  37  61  91 126 172 218 263 319 391
#     4  11  24  41  63  97 138 173 213 270 332 395
#
# _framework density 19.818584999999999
#
# number of rings (size 3 to 8) (size 9 to 14) (size 15 to 20)
#    0.000    1.200    2.000    4.800    2.800    6.400 
#    0.000    2.000    0.000    0.000    0.000    0.000 
#    0.000    0.000    0.000    0.000    0.000    0.000 
#
# Total GULP energy -223193.761790 kJ/mol
# GULP energy per Si atom -5579.844045 kJ/mol
# Density = 1.977348 g / cm^3
# Si number density = 19.818585 Si / 1000 Ang^3
#
#
#
# Elastic Constant Matrix: (Units=GPa)
#
#
# Indices 1 2 3 4 5 6 
#
# 1 67.6318 8.8907 30.1456 0.0000 0.0000 0.0000
# 2 8.8907 100.1611 46.5842 0.0000 0.0000 0.0000
# 3 30.1456 46.5842 107.7111 0.0000 0.0000 0.0000
# 4 0.0000 0.0000 0.0000 26.9524 0.0000 0.0000
# 5 0.0000 0.0000 0.0000 0.0000 33.3883 0.0000
# 6 0.0000 0.0000 0.0000 0.0000 0.0000 22.9342
#
#
#
# Elastic Compliance Matrix: (Units=1/GPa)
#
#
# Indices 1 2 3 4 5 6 
#
# 1 0.016955 0.000879 -0.005125 0.000000 0.000000 0.000000
# 2 0.000879 0.012543 -0.005671 0.000000 0.000000 0.000000
# 3 -0.005125 -0.005671 0.013171 0.000000 0.000000 0.000000
# 4 0.000000 0.000000 0.000000 0.037102 0.000000 0.000000
# 5 0.000000 0.000000 0.000000 0.000000 0.029951 0.000000
# 6 0.000000 0.000000 0.000000 0.000000 0.000000 0.043603
#
#
# Mechanical properties :
#
#
# Convention : Reuss Voigt Hill
#
# Bulk Modulus (GPa) = 43.79310 49.63832 46.71571
# Shear Modulus (GPa) = 27.65919 29.31390 28.48654
#
# Velocity S-wave (km/s) = 3.73985 3.85009 3.79537
# Velocity P-wave (km/s) = 6.38699 6.69814 6.54441
#
# Compressibility (1/GPa) = 0.02283465
#
# Stress axis : x y z
#
# Youngs Moduli (GPa) = 58.97987 79.72329 75.92353
#
# Poissons Ratio (x) = -0.07006 0.38913
# Poissons Ratio (y) = -0.05183 0.43055
# Poissons Ratio (z) = 0.30229 0.45210
#
# Static dielectric constant tensor:
#      x y z
#    x 1.713180 0.000000 0.000000 
#    y 0.000000 1.675320 0.000000 
#    z 0.000000 0.000000 1.677410 
# 
# From -- ./inp_files/26495.got.cif
#   From: 2010.05.17/outbox.cif.g08.bks.cpg/sg57_14_cif.got.tgz:26495.got - 2010.06.03 13:58:18.
