data_PCOD9438540
_publ_section_title
;
Structure prediction by ZEFSAII (Michael W. Deem and Ramdas Pophale) SiO2 
 PCOD9438540
Probable space group: P B C M
;
_chemical_formula_sum "Si O2"
_cell_formula_units_Z 40
_cell_length_a 26.156069
_cell_length_b 9.607270
_cell_length_c 8.599003
_cell_angle_alpha 90.000000
_cell_angle_beta 90.000000
_cell_angle_gamma 90.000000
_cell_volume 2160.829852
_symmetry_space_group_name_H-M "P B C M"
_symmetry_group_IT_number 57
_symmetry_cell_setting 'orthorhombic'
loop_
_space_group_symop_operation_xyz
x,y,z
-x,-y,1/2+z
x,1/2-y,-z
-x,1/2+y,1/2-z
-x,-y,-z
x,y,1/2-z
-x,1/2+y,z
x,1/2-y,1/2+z
loop_
_atom_site_type_symbol
_atom_site_label
_atom_site_fract_x
_atom_site_fract_y
_atom_site_fract_z
Si Si1 0.045182 0.094125 0.564270
Si Si2 0.159999 0.406727 0.063038
Si Si3 0.361711 0.906725 0.936347
Si Si4 0.453204 0.092507 0.063569
Si Si5 0.749875 0.403937 0.435663
O O1 0.040041 0.250000 0.500000
O O2 0.042347 0.098310 0.750000
O O3 0.102478 0.043049 0.522189
O O4 0.000000 0.000000 0.500000
O O5 0.164995 0.407840 0.250000
O O6 0.164005 0.250000 0.000000
O O7 0.204332 0.497265 0.987415
O O8 0.364857 0.904273 0.750000
O O9 0.371707 0.750000 0.000000
O O10 0.304526 0.945851 0.990260
O O11 0.402175 0.014788 0.005402
O O12 0.454720 0.095493 0.250000
O O13 0.456031 0.250000 0.000000
O O14 0.500000 0.000000 0.000000
O O15 0.760739 0.250000 0.500000
O O16 0.744742 0.400252 0.250000
#
# Coordination Sequence:
#
# PCOD9438540 Si02
#       5
#     8   8   8   8   8
#     4  10  21  37  58  82 112 147 188 234 286 341
#     4  10  21  38  58  83 113 149 189 235 286 342
#     4  11  22  40  63  89 120 156 194 239 289 342
#     4  12  25  43  64  91 122 157 198 242 290 343
#     4  11  22  38  60  87 117 153 193 238 286 340
#
# _framework density 18.511406999999998
#
# number of rings (size 3 to 8) (size 9 to 14) (size 15 to 20)
#    0.000    1.200    0.000    8.400    0.000    4.000 
#    0.000    4.000    0.000    0.000    0.000    0.000 
#    0.000    0.000    0.000    0.000    0.000    0.000 
#
# Total GULP energy -223663.499949 kJ/mol
# GULP energy per Si atom -5591.587499 kJ/mol
# Density = 1.846927 g / cm^3
# Si number density = 18.511407 Si / 1000 Ang^3
#
#
#
# Elastic Constant Matrix: (Units=GPa)
#
#
# Indices 1 2 3 4 5 6 
#
# 1 172.2239 118.1319 78.7095 0.0000 0.0000 0.0000
# 2 118.1319 113.8659 65.2417 0.0000 0.0000 0.0000
# 3 78.7095 65.2417 174.1620 0.0000 0.0000 0.0000
# 4 0.0000 0.0000 0.0000 37.7840 0.0000 0.0000
# 5 0.0000 0.0000 0.0000 0.0000 35.3934 0.0000
# 6 0.0000 0.0000 0.0000 0.0000 0.0000 135.7777
#
#
#
# Elastic Compliance Matrix: (Units=1/GPa)
#
#
# Indices 1 2 3 4 5 6 
#
# 1 0.020501 -0.020323 -0.001652 0.000000 0.000000 0.000000
# 2 -0.020323 0.031328 -0.002551 0.000000 0.000000 0.000000
# 3 -0.001652 -0.002551 0.007444 0.000000 0.000000 0.000000
# 4 0.000000 0.000000 0.000000 0.026466 0.000000 0.000000
# 5 0.000000 0.000000 0.000000 0.000000 0.028254 0.000000
# 6 0.000000 0.000000 0.000000 0.000000 0.000000 0.007365
#
#
# Mechanical properties :
#
#
# Convention : Reuss Voigt Hill
#
# Bulk Modulus (GPa) = 97.83413 109.37977 103.60695
# Shear Modulus (GPa) = 28.76584 55.00226 41.88405
#
# Velocity S-wave (km/s) = 3.94630 5.45684 4.76185
# Velocity P-wave (km/s) = 8.58661 9.94580 9.29109
#
# Compressibility (1/GPa) = 0.01022138
#
# Stress axis : x y z
#
# Youngs Moduli (GPa) = 48.77772 31.92041 134.33385
#
# Poissons Ratio (x) = 0.64870 0.22195
# Poissons Ratio (y) = 0.99129 0.34270
# Poissons Ratio (z) = 0.08059 0.08143
#
# Static dielectric constant tensor:
#      x y z
#    x 1.637630 0.000000 0.000000 
#    y 0.000000 1.667250 0.000000 
#    z 0.000000 0.000000 1.617050 
# 
# From -- ./inp_files/8916.got.cif
#   From: 2010.05.17/outbox.cif.g08.bks.cpg/sg57_5_cif.got.tgz:8916.got - 2010.06.03 13:58:18.
