data_PCOD9438588
_publ_section_title
;
Structure prediction by ZEFSAII (Michael W. Deem and Ramdas Pophale) SiO2 
 PCOD9438588
Probable space group: P B C M
;
_chemical_formula_sum "Si O2"
_cell_formula_units_Z 64
_cell_length_a 11.898648
_cell_length_b 15.405881
_cell_length_c 16.799896
_cell_angle_alpha 90.000000
_cell_angle_beta 90.000000
_cell_angle_gamma 90.000000
_cell_volume 3079.574742
_symmetry_space_group_name_H-M "P B C M"
_symmetry_group_IT_number 57
_symmetry_cell_setting 'orthorhombic'
loop_
_space_group_symop_operation_xyz
x,y,z
-x,-y,1/2+z
x,1/2-y,-z
-x,1/2+y,1/2-z
-x,-y,-z
x,y,1/2-z
-x,1/2+y,z
x,1/2-y,1/2+z
loop_
_atom_site_type_symbol
_atom_site_label
_atom_site_fract_x
_atom_site_fract_y
_atom_site_fract_z
Si Si1 0.314285 0.622829 0.345922
Si Si2 0.024922 0.233331 0.405699
Si Si3 0.718214 0.486183 0.339086
Si Si4 0.826648 0.973447 0.429882
Si Si5 0.944947 0.966168 0.895895
Si Si6 0.734332 0.785332 0.410408
Si Si7 0.425264 0.354207 0.845451
Si Si8 0.797870 0.307340 0.344924
O O1 0.302535 0.604569 0.250000
O O2 0.245999 0.553672 0.398108
O O3 0.445874 0.628268 0.366280
O O4 0.265459 0.718196 0.361457
O O5 0.030144 0.250000 0.500000
O O6 0.924114 0.291950 0.374352
O O7 0.006702 0.131113 0.393229
O O8 0.148466 0.253036 0.371590
O O9 0.670631 0.473474 0.250000
O O10 0.846161 0.518900 0.334468
O O11 0.648063 0.564371 0.377632
O O12 0.732349 0.391369 0.378198
O O13 0.876325 0.978354 0.520231
O O14 0.751487 0.888352 0.415676
O O15 0.947296 0.972771 0.384931
O O16 0.732905 0.750000 0.500000
O O17 0.628476 0.737481 0.371413
O O18 0.417227 0.354904 0.750000
O O19 0.802406 0.319381 0.250000
#
# Coordination Sequence:
#
# PCOD9438588 Si02
#       8
#     8   8   8   8   8   8   8   8
#     4  10  23  42  61  86 119 156 205 254 296 353
#     4  11  20  37  62  87 122 158 189 240 302 364
#     4  10  21  37  59  85 117 157 201 247 300 363
#     4  11  22  37  61  90 121 159 197 247 307 364
#     4  11  21  37  61  89 125 156 193 247 306 365
#     4  11  21  39  59  87 124 157 196 251 298 355
#     4  10  22  41  63  85 116 162 208 251 303 355
#     4  10  22  38  57  85 119 152 194 247 299 357
#
# _framework density 20.782091000000001
#
# number of rings (size 3 to 8) (size 9 to 14) (size 15 to 20)
#    0.000    1.500    5.000    0.750    1.750    3.000 
#    0.000    6.875    0.000    0.000    0.000    0.000 
#    0.000    0.000    0.000    0.000    0.000    0.000 
#
# Total GULP energy -356911.166073 kJ/mol
# GULP energy per Si atom -5576.736970 kJ/mol
# Density = 2.073479 g / cm^3
# Si number density = 20.782091 Si / 1000 Ang^3
#
#
#
# Elastic Constant Matrix: (Units=GPa)
#
#
# Indices 1 2 3 4 5 6 
#
# 1 127.5719 53.8205 25.0912 0.0000 0.0000 0.0000
# 2 53.8205 147.4759 29.0936 0.0000 0.0000 0.0000
# 3 25.0912 29.0936 15.8317 0.0000 0.0000 0.0000
# 4 0.0000 0.0000 0.0000 23.0465 0.0000 0.0000
# 5 0.0000 0.0000 0.0000 0.0000 26.8720 0.0000
# 6 0.0000 0.0000 0.0000 0.0000 0.0000 159.3282
#
#
#
# Elastic Compliance Matrix: (Units=1/GPa)
#
#
# Indices 1 2 3 4 5 6 
#
# 1 0.011471 -0.000941 -0.016452 0.000000 0.000000 0.000000
# 2 -0.000941 0.010714 -0.018198 0.000000 0.000000 0.000000
# 3 -0.016452 -0.018198 0.122681 0.000000 0.000000 0.000000
# 4 0.000000 0.000000 0.000000 0.043391 0.000000 0.000000
# 5 0.000000 0.000000 0.000000 0.000000 0.037213 0.000000
# 6 0.000000 0.000000 0.000000 0.000000 0.000000 0.006276
#
#
# Mechanical properties :
#
#
# Convention : Reuss Voigt Hill
#
# Bulk Modulus (GPa) = 13.57127 56.32113 34.94620
# Shear Modulus (GPa) = 15.26761 54.04094 34.65428
#
# Velocity S-wave (km/s) = 2.71339 5.10491 4.08794
# Velocity P-wave (km/s) = 4.04488 7.86806 6.25570
#
# Compressibility (1/GPa) = 0.07368507
#
# Stress axis : x y z
#
# Youngs Moduli (GPa) = 87.17307 93.33384 8.15122
#
# Poissons Ratio (x) = 0.08782 0.13410
# Poissons Ratio (y) = 0.08202 0.14834
# Poissons Ratio (z) = 1.43415 1.69851
#
# Static dielectric constant tensor:
#      x y z
#    x 1.743080 0.000000 0.000000 
#    y 0.000000 1.797840 0.000000 
#    z 0.000000 0.000000 1.797190 
# 
# From -- ./inp_files/21999.got.cif
#   From: 2010.05.17/outbox.cif.g08.bks.cpg/sg57_11_cif.got.tgz:21999.got - 2010.06.03 13:58:18.
