data_PCOD9438332
_publ_section_title
;
Structure prediction by ZEFSAII (Michael W. Deem and Ramdas Pophale) SiO2 
 PCOD9438332
Probable space group: P B C M
;
_chemical_formula_sum "Si O2"
_cell_formula_units_Z 40
_cell_length_a 13.324120
_cell_length_b 11.597340
_cell_length_c 14.088500
_cell_angle_alpha 90.000000
_cell_angle_beta 90.000000
_cell_angle_gamma 90.000000
_cell_volume 2177.016303
_symmetry_space_group_name_H-M "P B C M"
_symmetry_group_IT_number 57
_symmetry_cell_setting 'orthorhombic'
loop_
_space_group_symop_operation_xyz
x,y,z
-x,-y,1/2+z
x,1/2-y,-z
-x,1/2+y,1/2-z
-x,-y,-z
x,y,1/2-z
-x,1/2+y,z
x,1/2-y,1/2+z
loop_
_atom_site_type_symbol
_atom_site_label
_atom_site_fract_x
_atom_site_fract_y
_atom_site_fract_z
Si Si1 0.387370 0.793141 0.138718
Si Si2 0.615628 0.655164 0.861326
Si Si3 0.312375 0.567873 0.033129
Si Si4 0.828393 0.763594 0.861091
Si Si5 0.892023 0.555173 0.514548
O O1 0.367865 0.810761 0.250000
O O2 0.507617 0.788090 0.124157
O O3 0.338746 0.675597 0.100367
O O4 0.346332 0.895072 0.071996
O O5 0.621493 0.619097 0.750000
O O6 0.630804 0.544550 0.927686
O O7 0.710038 0.738814 0.877975
O O8 0.194751 0.537782 0.034220
O O9 0.845610 0.776866 0.750000
O O10 0.861520 0.873295 0.920966
O O11 0.885261 0.651095 0.902276
O O12 0.000000 0.500000 0.500000
#
# Coordination Sequence:
#
# PCOD9438332 Si02
#       5
#     8   8   8   8   8
#     4  10  21  34  53  84 115 141 175 220 269 323
#     4   9  18  35  57  80 109 145 179 212 259 323
#     4  10  21  36  54  76 109 147 180 219 270 320
#     4   9  20  38  59  81 105 140 185 222 259 320
#     4  10  22  39  57  79 108 141 181 229 273 312
#
# _framework density 18.373771000000001
#
# number of rings (size 3 to 8) (size 9 to 14) (size 15 to 20)
#    0.000    2.400    0.000    1.200    0.000   13.600 
#    0.000    6.000    0.000    0.000    0.000    0.000 
#    0.000    0.000    0.000    0.000    0.000    0.000 
#
# Total GULP energy -223351.825821 kJ/mol
# GULP energy per Si atom -5583.795646 kJ/mol
# Density = 1.833195 g / cm^3
# Si number density = 18.373771 Si / 1000 Ang^3
#
#
#
# Elastic Constant Matrix: (Units=GPa)
#
#
# Indices 1 2 3 4 5 6 
#
# 1 133.5040 81.5448 50.2505 0.0000 0.0000 0.0000
# 2 81.5448 100.2106 65.6174 0.0000 0.0000 0.0000
# 3 50.2505 65.6174 140.4520 0.0000 0.0000 0.0000
# 4 0.0000 0.0000 0.0000 17.0348 0.0000 0.0000
# 5 0.0000 0.0000 0.0000 0.0000 19.8727 0.0000
# 6 0.0000 0.0000 0.0000 0.0000 0.0000 14.7112
#
#
#
# Elastic Compliance Matrix: (Units=1/GPa)
#
#
# Indices 1 2 3 4 5 6 
#
# 1 0.014915 -0.012452 0.000481 0.000000 0.000000 0.000000
# 2 -0.012452 0.024773 -0.007118 0.000000 0.000000 0.000000
# 3 0.000481 -0.007118 0.010273 0.000000 0.000000 0.000000
# 4 0.000000 0.000000 0.000000 0.058703 0.000000 0.000000
# 5 0.000000 0.000000 0.000000 0.000000 0.050320 0.000000
# 6 0.000000 0.000000 0.000000 0.000000 0.000000 0.067976
#
#
# Mechanical properties :
#
#
# Convention : Reuss Voigt Hill
#
# Bulk Modulus (GPa) = 84.87111 85.44356 85.15734
# Shear Modulus (GPa) = 18.58280 22.10733 20.34506
#
# Velocity S-wave (km/s) = 3.18366 3.47248 3.33120
# Velocity P-wave (km/s) = 7.73344 7.91716 7.82584
#
# Compressibility (1/GPa) = 0.01178257
#
# Stress axis : x y z
#
# Youngs Moduli (GPa) = 67.04684 40.36716 97.33869
#
# Poissons Ratio (x) = 0.50265 -0.04683
# Poissons Ratio (y) = 0.83486 0.69290
# Poissons Ratio (z) = -0.03226 0.28735
#
# Static dielectric constant tensor:
#      x y z
#    x 1.612360 0.000000 0.000000 
#    y 0.000000 1.614900 0.000000 
#    z 0.000000 0.000000 1.643220 
# 
# From -- ./inp_files/17379.got.cif
#   From: 2010.05.17/outbox.cif.g08.bks.cpg/sg57_9_cif.got.tgz:17379.got - 2010.06.03 13:58:18.
