data_PCOD9438060
_publ_section_title
;
Structure prediction by ZEFSAII (Michael W. Deem and Ramdas Pophale) SiO2 
 PCOD9438060
Probable space group: P B C M
;
_chemical_formula_sum "Si O2"
_cell_formula_units_Z 56
_cell_length_a 15.063041
_cell_length_b 22.638050
_cell_length_c 8.788130
_cell_angle_alpha 90.000000
_cell_angle_beta 90.000000
_cell_angle_gamma 90.000000
_cell_volume 2996.733658
_symmetry_space_group_name_H-M "P B C M"
_symmetry_group_IT_number 57
_symmetry_cell_setting 'orthorhombic'
loop_
_space_group_symop_operation_xyz
x,y,z
-x,-y,1/2+z
x,1/2-y,-z
-x,1/2+y,1/2-z
-x,-y,-z
x,y,1/2-z
-x,1/2+y,z
x,1/2-y,1/2+z
loop_
_atom_site_type_symbol
_atom_site_label
_atom_site_fract_x
_atom_site_fract_y
_atom_site_fract_z
Si Si1 0.887580 0.950728 0.567830
Si Si2 0.572988 0.688254 0.930938
Si Si3 0.196054 0.687862 0.931307
Si Si4 0.300078 0.089903 0.069330
Si Si5 0.383597 0.845722 0.571290
Si Si6 0.088222 0.578343 0.431697
Si Si7 0.595898 0.013938 0.071124
O O1 0.886291 0.961491 0.750000
O O2 0.804118 0.909326 0.531476
O O3 0.983028 0.922764 0.530329
O O4 0.878744 0.013968 0.486142
O O5 0.567927 0.691017 0.750000
O O6 0.604906 0.750000 0.000000
O O7 0.639200 0.636780 0.983192
O O8 0.475211 0.676069 0.998405
O O9 0.193959 0.690185 0.750000
O O10 0.163150 0.750000 0.000000
O O11 0.296938 0.678850 0.988898
O O12 0.139526 0.632074 0.990451
O O13 0.312082 0.097873 0.250000
O O14 0.334717 0.025590 0.020045
O O15 0.381362 0.829829 0.750000
O O16 0.383764 0.916858 0.559055
O O17 0.099115 0.583079 0.250000
O O18 0.596239 0.997990 0.250000
O O19 0.500000 0.000000 0.000000
#
# Coordination Sequence:
#
# PCOD9438060 Si02
#       7
#     8   8   8   8   8   8   8
#     4   9  20  38  63  92 122 156 193 240 297 353
#     4  12  25  41  60  81 112 153 198 242 289 343
#     4  12  25  41  61  87 120 159 202 248 299 357
#     4  11  22  38  59  86 120 154 195 241 289 345
#     4  11  23  40  61  87 119 156 198 242 292 350
#     4  10  20  38  63  92 123 154 194 242 295 356
#     4  11  22  35  56  85 119 155 194 240 293 345
#
# _framework density 18.687013
#
# number of rings (size 3 to 8) (size 9 to 14) (size 15 to 20)
#    0.000    1.143    1.429    5.571    0.000    5.714 
#    0.000    0.714    0.000    0.000    0.000    0.000 
#    0.000    0.000    0.000    0.000    0.000    0.000 
#
# Total GULP energy -313191.286406 kJ/mol
# GULP energy per Si atom -5592.701543 kJ/mol
# Density = 1.864448 g / cm^3
# Si number density = 18.687013 Si / 1000 Ang^3
#
#
#
# Elastic Constant Matrix: (Units=GPa)
#
#
# Indices 1 2 3 4 5 6 
#
# 1 107.6674 45.8442 51.0186 0.0000 0.0000 0.0000
# 2 45.8442 83.1916 56.5743 0.0000 0.0000 0.0000
# 3 51.0186 56.5743 121.4000 0.0000 0.0000 0.0000
# 4 0.0000 0.0000 0.0000 36.4963 0.0000 0.0000
# 5 0.0000 0.0000 0.0000 0.0000 20.5602 0.0000
# 6 0.0000 0.0000 0.0000 0.0000 0.0000 10.8243
#
#
#
# Elastic Compliance Matrix: (Units=1/GPa)
#
#
# Indices 1 2 3 4 5 6 
#
# 1 0.012877 -0.005001 -0.003081 0.000000 0.000000 0.000000
# 2 -0.005001 0.019539 -0.007004 0.000000 0.000000 0.000000
# 3 -0.003081 -0.007004 0.012796 0.000000 0.000000 0.000000
# 4 0.000000 0.000000 0.000000 0.027400 0.000000 0.000000
# 5 0.000000 0.000000 0.000000 0.000000 0.048638 0.000000
# 6 0.000000 0.000000 0.000000 0.000000 0.000000 0.092385
#
#
# Mechanical properties :
#
#
# Convention : Reuss Voigt Hill
#
# Bulk Modulus (GPa) = 66.48712 68.79256 67.63984
# Shear Modulus (GPa) = 20.09478 24.16429 22.12953
#
# Velocity S-wave (km/s) = 3.28279 3.59988 3.44498
# Velocity P-wave (km/s) = 7.07287 7.36015 7.21794
#
# Compressibility (1/GPa) = 0.01504051
#
# Stress axis : x y z
#
# Youngs Moduli (GPa) = 77.65635 51.17884 78.14887
#
# Poissons Ratio (x) = 0.25594 0.24079
# Poissons Ratio (y) = 0.38835 0.54736
# Poissons Ratio (z) = 0.23928 0.35846
#
# Static dielectric constant tensor:
#      x y z
#    x 1.649990 0.000000 0.000000 
#    y 0.000000 1.625360 0.000000 
#    z 0.000000 0.000000 1.626330 
# 
# From -- ./inp_files/5253.got.cif
#   From: 2010.05.17/outbox.cif.g08.bks.cpg/sg57_3_cif.got.tgz:5253.got - 2010.06.03 13:58:18.
