data_PCOD9438214
_publ_section_title
;
Structure prediction by ZEFSAII (Michael W. Deem and Ramdas Pophale) SiO2 
 PCOD9438214
Probable space group: P B C M
;
_chemical_formula_sum "Si O2"
_cell_formula_units_Z 40
_cell_length_a 7.678623
_cell_length_b 11.699099
_cell_length_c 17.955775
_cell_angle_alpha 90.000000
_cell_angle_beta 90.000000
_cell_angle_gamma 90.000000
_cell_volume 1613.020609
_symmetry_space_group_name_H-M "P B C M"
_symmetry_group_IT_number 57
_symmetry_cell_setting 'orthorhombic'
loop_
_space_group_symop_operation_xyz
x,y,z
-x,-y,1/2+z
x,1/2-y,-z
-x,1/2+y,1/2-z
-x,-y,-z
x,y,1/2-z
-x,1/2+y,z
x,1/2-y,1/2+z
loop_
_atom_site_type_symbol
_atom_site_label
_atom_site_fract_x
_atom_site_fract_y
_atom_site_fract_z
Si Si1 0.257156 0.115052 0.485067
Si Si2 0.050839 0.624406 0.383075
Si Si3 0.902638 0.537313 0.750000
Si Si4 0.678376 0.025555 0.750000
Si Si5 0.510912 0.447131 0.094422
Si Si6 0.173098 0.280554 0.750000
Si Si7 0.295124 0.750000 0.500000
O O1 0.239035 0.250000 0.500000
O O2 0.088517 0.071683 0.440918
O O3 0.314260 0.061548 0.563742
O O4 0.409454 0.069293 0.430493
O O5 0.128388 0.538713 0.322504
O O6 0.937701 0.703472 0.326230
O O7 0.179615 0.692679 0.435593
O O8 0.115012 0.561499 0.750000
O O9 0.783932 0.648328 0.750000
O O10 0.575523 0.066972 0.822225
O O11 0.692450 0.885993 0.750000
O O12 0.599289 0.346034 0.045509
#
# Coordination Sequence:
#
# PCOD9438214 Si02
#       7
#     8   8   4   4   8   4   4
#     4  11  22  44  68  99 135 183 234 295 338 421
#     4  10  22  38  68 102 137 176 229 283 354 407
#     4  10  20  40  63 104 142 180 220 284 355 422
#     4  10  20  44  66  99 130 195 222 291 348 418
#     4  11  24  43  71  97 140 181 241 287 359 405
#     4  10  20  40  63  97 136 177 220 277 351 422
#     4  12  24  40  68 106 138 182 228 302 336 426
#
# _framework density 24.798196000000001
#
# number of rings (size 3 to 8) (size 9 to 14) (size 15 to 20)
#    0.000    1.600    6.000    1.200    0.000    3.200 
#    0.000    3.000    0.000    2.400    0.000    0.000 
#    0.000    0.000    0.000    0.000    0.000    0.000 
#
# Total GULP energy -223496.029733 kJ/mol
# GULP energy per Si atom -5587.400743 kJ/mol
# Density = 2.474175 g / cm^3
# Si number density = 24.798196 Si / 1000 Ang^3
#
#
#
# Elastic Constant Matrix: (Units=GPa)
#
#
# Indices 1 2 3 4 5 6 
#
# 1 55.5675 22.9646 80.9424 0.0000 0.0000 0.0000
# 2 22.9646 100.6303 62.9052 0.0000 0.0000 0.0000
# 3 80.9424 62.9052 259.8056 0.0000 0.0000 0.0000
# 4 0.0000 0.0000 0.0000 33.7772 0.0000 0.0000
# 5 0.0000 0.0000 0.0000 0.0000 2.2623 0.0000
# 6 0.0000 0.0000 0.0000 0.0000 0.0000 11.6900
#
#
#
# Elastic Compliance Matrix: (Units=1/GPa)
#
#
# Indices 1 2 3 4 5 6 
#
# 1 0.033094 -0.001305 -0.009994 0.000000 0.000000 0.000000
# 2 -0.001305 0.011761 -0.002441 0.000000 0.000000 0.000000
# 3 -0.009994 -0.002441 0.007554 0.000000 0.000000 0.000000
# 4 0.000000 0.000000 0.000000 0.029606 0.000000 0.000000
# 5 0.000000 0.000000 0.000000 0.000000 0.442023 0.000000
# 6 0.000000 0.000000 0.000000 0.000000 0.000000 0.085543
#
#
# Mechanical properties :
#
#
# Convention : Reuss Voigt Hill
#
# Bulk Modulus (GPa) = 40.11518 83.29195 61.70357
# Shear Modulus (GPa) = 7.74748 26.15864 16.95306
#
# Velocity S-wave (km/s) = 1.76946 3.25139 2.61749
# Velocity P-wave (km/s) = 4.51513 6.91058 5.83706
#
# Compressibility (1/GPa) = 0.02492822
#
# Stress axis : x y z
#
# Youngs Moduli (GPa) = 30.21718 85.02599 132.38219
#
# Poissons Ratio (x) = 0.11092 1.32309
# Poissons Ratio (y) = 0.03942 0.32317
# Poissons Ratio (z) = 0.30201 0.20757
#
# Static dielectric constant tensor:
#      x y z
#    x 2.048360 0.000000 0.000000 
#    y 0.000000 2.039530 0.000000 
#    z 0.000000 0.000000 1.935650 
# 
# From -- ./inp_files/20597.got.cif
#   From: 2010.05.17/outbox.cif.g08.bks.cpg/sg57_11_cif.got.tgz:20597.got - 2010.06.03 13:58:18.
