data_PCOD9438766
_publ_section_title
;
Structure prediction by ZEFSAII (Michael W. Deem and Ramdas Pophale) SiO2 
 PCOD9438766
Probable space group: P B C M
;
_chemical_formula_sum "Si O2"
_cell_formula_units_Z 32
_cell_length_a 16.806043
_cell_length_b 5.208637
_cell_length_c 17.181447
_cell_angle_alpha 90.000000
_cell_angle_beta 90.000000
_cell_angle_gamma 90.000000
_cell_volume 1504.005065
_symmetry_space_group_name_H-M "P B C M"
_symmetry_group_IT_number 57
_symmetry_cell_setting 'orthorhombic'
loop_
_space_group_symop_operation_xyz
x,y,z
-x,-y,1/2+z
x,1/2-y,-z
-x,1/2+y,1/2-z
-x,-y,-z
x,y,1/2-z
-x,1/2+y,z
x,1/2-y,1/2+z
loop_
_atom_site_type_symbol
_atom_site_label
_atom_site_fract_x
_atom_site_fract_y
_atom_site_fract_z
Si Si1 0.548709 0.029654 0.343766
Si Si2 0.088986 0.004845 0.463910
Si Si3 0.280220 0.683284 0.091584
Si Si4 0.806811 0.821793 0.842089
O O1 0.558913 0.036718 0.250000
O O2 0.485009 0.250279 0.364722
O O3 0.632302 0.097338 0.381899
O O4 0.130495 0.250000 0.500000
O O5 0.107697 0.064767 0.374717
O O6 0.124123 0.750000 0.500000
O O7 0.000000 0.000000 0.500000
O O8 0.223364 0.448282 0.121313
O O9 0.252226 0.947090 0.133436
O O10 0.283752 0.750000 0.000000
O O11 0.809969 0.790758 0.750000
#
# Coordination Sequence:
#
# PCOD9438766 Si02
#       4
#     8   8   8   8
#     4  10  21  38  60  88 126 169 214 270 334 394
#     4  10  21  40  64  90 125 165 203 254 321 384
#     4  12  25  41  65  95 130 173 221 275 333 393
#     4  12  24  41  65  95 130 170 222 274 326 392
#
# _framework density 21.276523000000001
#
# number of rings (size 3 to 8) (size 9 to 14) (size 15 to 20)
#    0.000    1.000    0.000    8.250    0.000    3.000 
#    0.000    5.000    0.000    0.000    0.000    0.000 
#    0.000    0.000    0.000    0.000    0.000    0.000 
#
# Total GULP energy -178322.357909 kJ/mol
# GULP energy per Si atom -5572.573685 kJ/mol
# Density = 2.122810 g / cm^3
# Si number density = 21.276523 Si / 1000 Ang^3
#
#
#
# Elastic Constant Matrix: (Units=GPa)
#
#
# Indices 1 2 3 4 5 6 
#
# 1 74.4747 -6.7688 36.2199 0.0000 0.0000 0.0000
# 2 -6.7688 160.3867 50.1340 0.0000 0.0000 0.0000
# 3 36.2199 50.1340 141.5197 0.0000 0.0000 0.0000
# 4 0.0000 0.0000 0.0000 25.2613 0.0000 0.0000
# 5 0.0000 0.0000 0.0000 0.0000 39.5026 0.0000
# 6 0.0000 0.0000 0.0000 0.0000 0.0000 16.1554
#
#
#
# Elastic Compliance Matrix: (Units=1/GPa)
#
#
# Indices 1 2 3 4 5 6 
#
# 1 0.015997 0.002198 -0.004873 0.000000 0.000000 0.000000
# 2 0.002198 0.007313 -0.003153 0.000000 0.000000 0.000000
# 3 -0.004873 -0.003153 0.009430 0.000000 0.000000 0.000000
# 4 0.000000 0.000000 0.000000 0.039586 0.000000 0.000000
# 5 0.000000 0.000000 0.000000 0.000000 0.025315 0.000000
# 6 0.000000 0.000000 0.000000 0.000000 0.000000 0.061899
#
#
# Mechanical properties :
#
#
# Convention : Reuss Voigt Hill
#
# Bulk Modulus (GPa) = 47.42763 59.50571 53.46667
# Shear Modulus (GPa) = 28.05439 35.97026 32.01232
#
# Velocity S-wave (km/s) = 3.63514 4.11616 3.88311
# Velocity P-wave (km/s) = 6.32127 7.11469 6.72968
#
# Compressibility (1/GPa) = 0.02108476
#
# Stress axis : x y z
#
# Youngs Moduli (GPa) = 62.51137 136.73495 106.03958
#
# Poissons Ratio (x) = -0.30059 0.51673
# Poissons Ratio (y) = -0.13742 0.33439
# Poissons Ratio (z) = 0.30462 0.43119
#
# Static dielectric constant tensor:
#      x y z
#    x 1.720720 0.000000 0.000000 
#    y 0.000000 1.828130 0.000000 
#    z 0.000000 0.000000 1.822100 
# 
# From -- ./inp_files/18765.got.cif
#   From: 2010.05.17/outbox.cif.g08.bks.cpg/sg57_10_cif.got.tgz:18765.got - 2010.06.03 13:58:18.
