data_PCOD9438166
_publ_section_title
;
Structure prediction by ZEFSAII (Michael W. Deem and Ramdas Pophale) SiO2 
 PCOD9438166
Probable space group: P B C M
;
_chemical_formula_sum "Si O2"
_cell_formula_units_Z 56
_cell_length_a 12.864389
_cell_length_b 13.863508
_cell_length_c 15.696526
_cell_angle_alpha 90.000000
_cell_angle_beta 90.000000
_cell_angle_gamma 90.000000
_cell_volume 2799.405717
_symmetry_space_group_name_H-M "P B C M"
_symmetry_group_IT_number 57
_symmetry_cell_setting 'orthorhombic'
loop_
_space_group_symop_operation_xyz
x,y,z
-x,-y,1/2+z
x,1/2-y,-z
-x,1/2+y,1/2-z
-x,-y,-z
x,y,1/2-z
-x,1/2+y,z
x,1/2-y,1/2+z
loop_
_atom_site_type_symbol
_atom_site_label
_atom_site_fract_x
_atom_site_fract_y
_atom_site_fract_z
Si Si1 0.339391 0.284795 0.146883
Si Si2 0.147598 0.344762 0.649169
Si Si3 0.597203 0.987199 0.436180
Si Si4 0.539070 0.323005 0.850353
Si Si5 0.924307 0.330609 0.927044
Si Si6 0.195589 0.966732 0.461125
Si Si7 0.259642 0.783332 0.351078
O O1 0.340633 0.297204 0.250000
O O2 0.225097 0.243507 0.124777
O O3 0.379781 0.382715 0.103779
O O4 0.423802 0.203792 0.119574
O O5 0.164051 0.362705 0.750000
O O6 0.173720 0.438012 0.592824
O O7 0.026730 0.327152 0.629925
O O8 0.572309 0.068108 0.366259
O O9 0.701763 0.016151 0.484232
O O10 0.500000 0.000000 0.500000
O O11 0.537703 0.306000 0.750000
O O12 0.628172 0.251636 0.885156
O O13 0.823372 0.299510 0.873338
O O14 0.937983 0.250000 0.000000
O O15 0.895702 0.429701 0.975823
O O16 0.220865 0.878870 0.397557
O O17 0.264546 0.798361 0.250000
#
# Coordination Sequence:
#
# PCOD9438166 Si02
#       7
#     8   8   8   8   8   8   8
#     4  10  24  43  63  92 130 171 214 263 321 387
#     4  11  24  43  63  88 128 174 214 258 324 389
#     4  12  24  38  64  97 128 167 213 263 324 392
#     4  10  21  40  64  88 124 164 205 259 317 376
#     4  10  22  40  65  90 125 162 211 271 319 366
#     4  11  23  38  62  95 128 160 211 269 317 375
#     4  10  20  39  64  91 122 162 208 255 311 381
#
# _framework density 20.004245000000001
#
# number of rings (size 3 to 8) (size 9 to 14) (size 15 to 20)
#    0.000    1.429    1.429    3.429    2.000    2.857 
#    0.000    5.714    0.000    0.000    0.000    0.000 
#    0.000    0.000    0.000    0.000    0.000    0.000 
#
# Total GULP energy -312704.237292 kJ/mol
# GULP energy per Si atom -5584.004237 kJ/mol
# Density = 1.995871 g / cm^3
# Si number density = 20.004245 Si / 1000 Ang^3
#
#
#
# Elastic Constant Matrix: (Units=GPa)
#
#
# Indices 1 2 3 4 5 6 
#
# 1 116.3610 22.7459 27.5206 0.0000 0.0000 0.0000
# 2 22.7459 84.6774 26.0216 0.0000 0.0000 0.0000
# 3 27.5206 26.0216 48.0081 0.0000 0.0000 0.0000
# 4 0.0000 0.0000 0.0000 64.7787 0.0000 0.0000
# 5 0.0000 0.0000 0.0000 0.0000 18.9803 0.0000
# 6 0.0000 0.0000 0.0000 0.0000 0.0000 22.6561
#
#
#
# Elastic Compliance Matrix: (Units=1/GPa)
#
#
# Indices 1 2 3 4 5 6 
#
# 1 0.010028 -0.001113 -0.005146 0.000000 0.000000 0.000000
# 2 -0.001113 0.014293 -0.007109 0.000000 0.000000 0.000000
# 3 -0.005146 -0.007109 0.027633 0.000000 0.000000 0.000000
# 4 0.000000 0.000000 0.000000 0.015437 0.000000 0.000000
# 5 0.000000 0.000000 0.000000 0.000000 0.052686 0.000000
# 6 0.000000 0.000000 0.000000 0.000000 0.000000 0.044138
#
#
# Mechanical properties :
#
#
# Convention : Reuss Voigt Hill
#
# Bulk Modulus (GPa) = 39.65238 44.62473 42.13855
# Shear Modulus (GPa) = 25.08046 32.80024 28.94035
#
# Velocity S-wave (km/s) = 3.54468 4.05367 3.80769
# Velocity P-wave (km/s) = 6.05129 6.65325 6.35939
#
# Compressibility (1/GPa) = 0.02521917
#
# Stress axis : x y z
#
# Youngs Moduli (GPa) = 99.71635 69.96373 36.18843
#
# Poissons Ratio (x) = 0.07784 0.18622
# Poissons Ratio (y) = 0.11094 0.25728
# Poissons Ratio (z) = 0.51312 0.49741
#
# Static dielectric constant tensor:
#      x y z
#    x 1.718600 0.000000 0.000000 
#    y 0.000000 1.720240 0.000000 
#    z 0.000000 0.000000 1.709820 
# 
# From -- ./inp_files/17731.got.cif
#   From: 2010.05.17/outbox.cif.g08.bks.cpg/sg57_9_cif.got.tgz:17731.got - 2010.06.03 13:58:18.
