data_PCOD9438764
_publ_section_title
;
Structure prediction by ZEFSAII (Michael W. Deem and Ramdas Pophale) SiO2 
 PCOD9438764
Probable space group: P B C M
;
_chemical_formula_sum "Si O2"
_cell_formula_units_Z 32
_cell_length_a 6.804117
_cell_length_b 14.652987
_cell_length_c 15.394793
_cell_angle_alpha 90.000000
_cell_angle_beta 90.000000
_cell_angle_gamma 90.000000
_cell_volume 1534.870683
_symmetry_space_group_name_H-M "P B C M"
_symmetry_group_IT_number 57
_symmetry_cell_setting 'orthorhombic'
loop_
_space_group_symop_operation_xyz
x,y,z
-x,-y,1/2+z
x,1/2-y,-z
-x,1/2+y,1/2-z
-x,-y,-z
x,y,1/2-z
-x,1/2+y,z
x,1/2-y,1/2+z
loop_
_atom_site_type_symbol
_atom_site_label
_atom_site_fract_x
_atom_site_fract_y
_atom_site_fract_z
Si Si1 0.283433 0.285244 0.144337
Si Si2 0.986914 0.959977 0.153168
Si Si3 0.041536 0.656990 0.078852
Si Si4 0.730756 0.319571 0.104574
O O1 0.284901 0.269001 0.250000
O O2 0.161194 0.378398 0.128311
O O3 0.501201 0.302618 0.109217
O O4 0.171750 0.204245 0.092517
O O5 0.934659 0.988940 0.250000
O O6 0.197933 0.909931 0.153490
O O7 0.976192 0.051101 0.098357
O O8 0.168931 0.726077 0.139165
O O9 0.164892 0.663063 0.989045
#
# Coordination Sequence:
#
# PCOD9438764 Si02
#       4
#     8   8   8   8
#     4  10  22  40  62  90 124 161 205 255 305 362
#     4  10  21  38  60  88 123 161 202 250 305 363
#     4  10  22  39  62  89 122 161 202 251 308 365
#     4  10  22  38  60  89 123 159 202 253 305 362
#
# _framework density 20.848662999999998
#
# number of rings (size 3 to 8) (size 9 to 14) (size 15 to 20)
#    0.000    2.000    0.000    2.250    0.000   14.000 
#    0.000    2.500    0.000    4.500    0.000    0.000 
#    0.000    0.000    0.000    0.000    0.000    0.000 
#
# Total GULP energy -178194.373048 kJ/mol
# GULP energy per Si atom -5568.574158 kJ/mol
# Density = 2.080121 g / cm^3
# Si number density = 20.848663 Si / 1000 Ang^3
#
#
#
# Elastic Constant Matrix: (Units=GPa)
#
#
# Indices 1 2 3 4 5 6 
#
# 1 166.5747 37.8907 46.6364 0.0000 0.0000 0.0000
# 2 37.8907 130.5134 60.2067 0.0000 0.0000 0.0000
# 3 46.6364 60.2067 97.0012 0.0000 0.0000 0.0000
# 4 0.0000 0.0000 0.0000 -0.8670 0.0000 0.0000
# 5 0.0000 0.0000 0.0000 0.0000 14.4743 0.0000
# 6 0.0000 0.0000 0.0000 0.0000 0.0000 10.4828
#
#
#
# Elastic Compliance Matrix: (Units=1/GPa)
#
#
# Indices 1 2 3 4 5 6 
#
# 1 0.006979 -0.000670 -0.002939 0.000000 0.000000 0.000000
# 2 -0.000670 0.010800 -0.006381 0.000000 0.000000 0.000000
# 3 -0.002939 -0.006381 0.015683 0.000000 0.000000 0.000000
# 4 0.000000 0.000000 0.000000 -1.153369 0.000000 0.000000
# 5 0.000000 0.000000 0.000000 0.000000 0.069088 0.000000
# 6 0.000000 0.000000 0.000000 0.000000 0.000000 0.095395
#
#
# Mechanical properties :
#
#
# Convention : Reuss Voigt Hill
#
# Bulk Modulus (GPa) = 74.18097 75.95075 75.06586
# Shear Modulus (GPa) = -5.37086 21.44170 8.03542
#
# Velocity S-wave (km/s) = -1.60677 3.21042 1.96533
# Velocity P-wave (km/s) = 5.67588 7.08879 6.42132
#
# Compressibility (1/GPa) = 0.01348055
#
# Stress axis : x y z
#
# Youngs Moduli (GPa) = 143.29386 92.58936 63.76293
#
# Poissons Ratio (x) = 0.06205 0.18742
# Poissons Ratio (y) = 0.09603 0.40690
# Poissons Ratio (z) = 0.42118 0.59085
#
# Static dielectric constant tensor:
#      x y z
#    x 1.755430 0.000000 0.000000 
#    y 0.000000 1.772000 0.000000 
#    z 0.000000 0.000000 1.971230 
# 
# From -- ./inp_files/19834.got.cif
#   From: 2010.05.17/outbox.cif.g08.bks.cpg/sg57_10_cif.got.tgz:19834.got - 2010.06.03 13:58:18.
