data_PCOD9438014
_publ_section_title
;
Structure prediction by ZEFSAII (Michael W. Deem and Ramdas Pophale) SiO2 
 PCOD9438014
Probable space group: P B C M
;
_chemical_formula_sum "Si O2"
_cell_formula_units_Z 48
_cell_length_a 7.666819
_cell_length_b 14.283088
_cell_length_c 17.159371
_cell_angle_alpha 90.000000
_cell_angle_beta 90.000000
_cell_angle_gamma 90.000000
_cell_volume 1879.051515
_symmetry_space_group_name_H-M "P B C M"
_symmetry_group_IT_number 57
_symmetry_cell_setting 'orthorhombic'
loop_
_space_group_symop_operation_xyz
x,y,z
-x,-y,1/2+z
x,1/2-y,-z
-x,1/2+y,1/2-z
-x,-y,-z
x,y,1/2-z
-x,1/2+y,z
x,1/2-y,1/2+z
loop_
_atom_site_type_symbol
_atom_site_label
_atom_site_fract_x
_atom_site_fract_y
_atom_site_fract_z
Si Si1 0.471946 0.172820 0.334316
Si Si2 0.869778 0.225940 0.340065
Si Si3 0.570181 0.642845 0.001377
Si Si4 0.635831 0.620470 0.662335
Si Si5 0.963881 0.427268 0.160832
Si Si6 0.929284 0.582036 0.444621
O O1 0.437770 0.128242 0.250000
O O2 0.663857 0.216867 0.331543
O O3 0.481330 0.110568 0.412062
O O4 0.344712 0.264414 0.342255
O O5 0.941098 0.213635 0.250000
O O6 0.913579 0.327612 0.374175
O O7 0.938640 0.151116 0.402072
O O8 0.779320 0.636006 0.010104
O O9 0.508215 0.750000 0.000000
O O10 0.530405 0.599477 0.917218
O O11 0.565825 0.602805 0.750000
O O12 0.823849 0.569234 0.657892
O O13 0.914289 0.419288 0.250000
O O14 0.868232 0.516374 0.126368
O O15 0.000000 0.500000 0.500000
#
# Coordination Sequence:
#
# PCOD9438014 Si02
#       6
#     8   8   8   8   8   8
#     4   9  19  37  63  91 122 165 213 260 319 382
#     4  10  22  42  65  91 125 167 211 262 317 379
#     4  10  20  38  61  91 124 166 212 253 320 379
#     4   9  17  35  58  83 117 160 206 252 304 370
#     4  10  21  40  66  92 120 162 215 262 315 379
#     4  12  24  38  61  95 129 162 207 266 319 378
#
# _framework density 25.544801
#
# number of rings (size 3 to 8) (size 9 to 14) (size 15 to 20)
#    0.000    2.000    1.667    2.500    0.000    2.667 
#    9.000    2.500    0.000    4.000    0.000    0.000 
#    0.000    0.000    0.000    0.000    0.000    0.000 
#
# Total GULP energy -267761.429970 kJ/mol
# GULP energy per Si atom -5578.363124 kJ/mol
# Density = 2.548666 g / cm^3
# Si number density = 25.544801 Si / 1000 Ang^3
#
#
#
# Elastic Constant Matrix: (Units=GPa)
#
#
# Indices 1 2 3 4 5 6 
#
# 1 31.0748 10.0146 -8.1338 0.0000 0.0000 0.0000
# 2 10.0146 77.8515 29.9335 0.0000 0.0000 0.0000
# 3 -8.1338 29.9335 170.4403 0.0000 0.0000 0.0000
# 4 0.0000 0.0000 0.0000 21.2937 0.0000 0.0000
# 5 0.0000 0.0000 0.0000 0.0000 5.4524 0.0000
# 6 0.0000 0.0000 0.0000 0.0000 0.0000 12.1400
#
#
#
# Elastic Compliance Matrix: (Units=1/GPa)
#
#
# Indices 1 2 3 4 5 6 
#
# 1 0.034623 -0.005458 0.002611 0.000000 0.000000 0.000000
# 2 -0.005458 0.014635 -0.002831 0.000000 0.000000 0.000000
# 3 0.002611 -0.002831 0.006489 0.000000 0.000000 0.000000
# 4 0.000000 0.000000 0.000000 0.046962 0.000000 0.000000
# 5 0.000000 0.000000 0.000000 0.000000 0.183405 0.000000
# 6 0.000000 0.000000 0.000000 0.000000 0.000000 0.082372
#
#
# Mechanical properties :
#
#
# Convention : Reuss Voigt Hill
#
# Bulk Modulus (GPa) = 22.52671 38.11057 30.31864
# Shear Modulus (GPa) = 12.66984 24.28072 18.47528
#
# Velocity S-wave (km/s) = 2.22949 3.08639 2.69225
# Velocity P-wave (km/s) = 3.93257 5.25857 4.64315
#
# Compressibility (1/GPa) = 0.04439174
#
# Stress axis : x y z
#
# Youngs Moduli (GPa) = 28.88289 68.32730 154.10916
#
# Poissons Ratio (x) = 0.37290 -0.40234
# Poissons Ratio (y) = 0.15763 0.43625
# Poissons Ratio (z) = -0.07541 0.19342
#
# Static dielectric constant tensor:
#      x y z
#    x 1.970400 0.000000 0.000000 
#    y 0.000000 2.018640 0.000000 
#    z 0.000000 0.000000 2.295810 
# 
# From -- ./inp_files/20958.got.cif
#   From: 2010.05.17/outbox.cif.g08.bks.cpg/sg57_11_cif.got.tgz:20958.got - 2010.06.03 13:58:18.
