data_PCOD9438759
_publ_section_title
;
Structure prediction by ZEFSAII (Michael W. Deem and Ramdas Pophale) SiO2 
 PCOD9438759
Probable space group: P B C M
;
_chemical_formula_sum "Si O2"
_cell_formula_units_Z 64
_cell_length_a 15.588457
_cell_length_b 8.314664
_cell_length_c 24.752728
_cell_angle_alpha 90.000000
_cell_angle_beta 90.000000
_cell_angle_gamma 90.000000
_cell_volume 3208.269944
_symmetry_space_group_name_H-M "P B C M"
_symmetry_group_IT_number 57
_symmetry_cell_setting 'orthorhombic'
loop_
_space_group_symop_operation_xyz
x,y,z
-x,-y,1/2+z
x,1/2-y,-z
-x,1/2+y,1/2-z
-x,-y,-z
x,y,1/2-z
-x,1/2+y,z
x,1/2-y,1/2+z
loop_
_atom_site_type_symbol
_atom_site_label
_atom_site_fract_x
_atom_site_fract_y
_atom_site_fract_z
Si Si1 0.751064 0.565574 0.005720
Si Si2 0.420884 0.554245 0.310766
Si Si3 0.113444 0.570642 0.187058
Si Si4 0.068054 0.553971 0.813009
Si Si5 0.225385 0.065314 0.379054
Si Si6 0.267420 0.056745 0.616390
Si Si7 0.595494 0.410505 0.153376
Si Si8 0.421620 0.916696 0.470752
O O1 0.748541 0.495987 0.945132
O O2 0.779087 0.750000 0.000000
O O3 0.794750 0.498006 0.060163
O O4 0.652959 0.548304 0.024508
O O5 0.399311 0.496069 0.250000
O O6 0.360435 0.476735 0.357161
O O7 0.403821 0.743780 0.315006
O O8 0.521613 0.522427 0.321589
O O9 0.127793 0.529691 0.250000
O O10 0.197143 0.527193 0.153779
O O11 0.028535 0.477429 0.167259
O O12 0.092136 0.759112 0.183313
O O13 0.068613 0.505269 0.750000
O O14 0.140704 0.456369 0.843995
O O15 0.250709 0.252311 0.383644
O O16 0.308124 0.978993 0.352332
O O17 0.564871 0.378972 0.091860
O O18 0.398103 0.750000 0.500000
O O19 0.500000 0.000000 0.500000
#
# Coordination Sequence:
#
# PCOD9438759 Si02
#       8
#     8   8   8   8   8   8   8   8
#     4   9  20  37  55  79 111 145 183 228 277 333
#     4  12  25  40  56  79 113 153 195 237 282 338
#     4  10  21  38  60  88 116 147 187 233 281 333
#     4  10  21  38  61  87 117 148 186 233 281 334
#     4  10  22  38  60  86 115 149 188 231 284 338
#     4  11  21  38  61  85 114 150 188 233 283 336
#     4  11  23  39  56  80 113 150 190 235 284 336
#     4  11  20  32  54  80 105 138 183 234 283 334
#
# _framework density 19.948447000000002
#
# number of rings (size 3 to 8) (size 9 to 14) (size 15 to 20)
#    0.000    1.500    0.000    5.625    0.000    7.000 
#    0.000    0.625    0.000    0.000    0.000    0.000 
#    0.000    0.000    0.000    0.000    0.000    0.000 
#
# Total GULP energy -357195.693244 kJ/mol
# GULP energy per Si atom -5581.182707 kJ/mol
# Density = 1.990304 g / cm^3
# Si number density = 19.948447 Si / 1000 Ang^3
#
#
#
# Elastic Constant Matrix: (Units=GPa)
#
#
# Indices 1 2 3 4 5 6 
#
# 1 62.8937 -5.5840 23.4103 0.0000 0.0000 0.0000
# 2 -5.5840 29.1038 1.9054 0.0000 0.0000 0.0000
# 3 23.4103 1.9054 88.0139 0.0000 0.0000 0.0000
# 4 0.0000 0.0000 0.0000 20.1618 0.0000 0.0000
# 5 0.0000 0.0000 0.0000 0.0000 11.7272 0.0000
# 6 0.0000 0.0000 0.0000 0.0000 0.0000 34.1468
#
#
#
# Elastic Compliance Matrix: (Units=1/GPa)
#
#
# Indices 1 2 3 4 5 6 
#
# 1 0.018054 0.003784 -0.004884 0.000000 0.000000 0.000000
# 2 0.003784 0.035202 -0.001768 0.000000 0.000000 0.000000
# 3 -0.004884 -0.001768 0.012699 0.000000 0.000000 0.000000
# 4 0.000000 0.000000 0.000000 0.049599 0.000000 0.000000
# 5 0.000000 0.000000 0.000000 0.000000 0.085272 0.000000
# 6 0.000000 0.000000 0.000000 0.000000 0.000000 0.029285
#
#
# Mechanical properties :
#
#
# Convention : Reuss Voigt Hill
#
# Bulk Modulus (GPa) = 16.60666 24.38610 20.49638
# Shear Modulus (GPa) = 19.53734 23.89247 21.71490
#
# Velocity S-wave (km/s) = 3.13292 3.46455 3.30290
# Velocity P-wave (km/s) = 4.62923 5.31557 4.98423
#
# Compressibility (1/GPa) = 0.06021681
#
# Stress axis : x y z
#
# Youngs Moduli (GPa) = 55.39047 28.40787 78.74537
#
# Poissons Ratio (x) = -0.10748 0.38458
# Poissons Ratio (y) = -0.20958 0.13926
# Poissons Ratio (z) = 0.27052 0.05024
#
# Static dielectric constant tensor:
#      x y z
#    x 1.422050 0.000000 0.000000 
#    y 0.000000 1.718170 0.000000 
#    z 0.000000 0.000000 1.776130 
# 
# From -- ./inp_files/27450.got.cif
#   From: 2010.05.17/outbox.cif.g08.bks.cpg/sg57_14_cif.got.tgz:27450.got - 2010.06.03 13:58:18.
