data_PCOD9438393
_publ_section_title
;
Structure prediction by ZEFSAII (Michael W. Deem and Ramdas Pophale) SiO2 
 PCOD9438393
Probable space group: P B C M
;
_chemical_formula_sum "Si O2"
_cell_formula_units_Z 64
_cell_length_a 14.750584
_cell_length_b 11.912006
_cell_length_c 18.162483
_cell_angle_alpha 90.000000
_cell_angle_beta 90.000000
_cell_angle_gamma 90.000000
_cell_volume 3191.312545
_symmetry_space_group_name_H-M "P B C M"
_symmetry_group_IT_number 57
_symmetry_cell_setting 'orthorhombic'
loop_
_space_group_symop_operation_xyz
x,y,z
-x,-y,1/2+z
x,1/2-y,-z
-x,1/2+y,1/2-z
-x,-y,-z
x,y,1/2-z
-x,1/2+y,z
x,1/2-y,1/2+z
loop_
_atom_site_type_symbol
_atom_site_label
_atom_site_fract_x
_atom_site_fract_y
_atom_site_fract_z
Si Si1 0.206267 0.529385 0.593821
Si Si2 0.095228 0.197236 0.420619
Si Si3 0.552776 0.869159 0.987052
Si Si4 0.365501 0.111462 0.333503
Si Si5 0.259583 0.905174 0.663613
Si Si6 0.108204 0.742782 0.409535
Si Si7 0.356882 0.582619 0.473192
Si Si8 0.752977 0.672717 0.666638
O O1 0.135778 0.428929 0.575593
O O2 0.279676 0.470597 0.648520
O O3 0.148529 0.637680 0.618005
O O4 0.269570 0.572878 0.525818
O O5 0.085739 0.250000 0.500000
O O6 0.169697 0.274649 0.382734
O O7 0.994855 0.212734 0.387937
O O8 0.565528 0.903397 0.901465
O O9 0.447486 0.866185 0.008512
O O10 0.596086 0.750000 0.000000
O O11 0.607710 0.956069 0.035433
O O12 0.397734 0.091029 0.250000
O O13 0.331143 0.240734 0.338682
O O14 0.271038 0.877623 0.750000
O O15 0.169504 0.852225 0.628536
O O16 0.334640 0.862874 0.605069
O O17 0.260556 0.040381 0.655524
O O18 0.114466 0.750000 0.500000
O O19 0.785832 0.684606 0.750000
#
# Coordination Sequence:
#
# PCOD9438393 Si02
#       8
#     8   8   8   8   8   8   8   8
#     4  10  21  39  61  88 121 165 198 248 302 370
#     4  10  22  35  61  91 116 151 204 253 298 351
#     4  10  21  35  62  90 118 155 202 248 297 363
#     4   9  19  38  63  91 122 158 199 249 302 357
#     4  11  23  38  59  84 116 157 201 244 300 363
#     4  11  24  37  59  86 121 160 196 252 300 356
#     4  10  21  38  59  86 119 155 198 244 304 358
#     4   9  19  37  59  83 116 155 194 245 299 351
#
# _framework density 20.054442999999999
#
# number of rings (size 3 to 8) (size 9 to 14) (size 15 to 20)
#    0.000    2.000    1.250    1.500    3.500    6.000 
#    0.000    0.000    0.000    0.750    0.000    0.000 
#    0.000    0.000    0.000    0.000    0.000    0.000 
#
# Total GULP energy -356410.155604 kJ/mol
# GULP energy per Si atom -5568.908681 kJ/mol
# Density = 2.000880 g / cm^3
# Si number density = 20.054443 Si / 1000 Ang^3
#
#
#
# Elastic Constant Matrix: (Units=GPa)
#
#
# Indices 1 2 3 4 5 6 
#
# 1 73.9147 -8.0601 13.7278 0.0000 0.0000 0.0000
# 2 -8.0601 50.6168 -4.2407 0.0000 0.0000 0.0000
# 3 13.7278 -4.2407 78.9467 0.0000 0.0000 0.0000
# 4 0.0000 0.0000 0.0000 18.7907 0.0000 0.0000
# 5 0.0000 0.0000 0.0000 0.0000 -380.2936 0.0000
# 6 0.0000 0.0000 0.0000 0.0000 0.0000 -19.3851
#
#
#
# Elastic Compliance Matrix: (Units=1/GPa)
#
#
# Indices 1 2 3 4 5 6 
#
# 1 0.014192 0.002062 -0.002357 0.000000 0.000000 0.000000
# 2 0.002062 0.020145 0.000723 0.000000 0.000000 0.000000
# 3 -0.002357 0.000723 0.013115 0.000000 0.000000 0.000000
# 4 0.000000 0.000000 0.000000 0.053218 0.000000 0.000000
# 5 0.000000 0.000000 0.000000 0.000000 -0.002630 0.000000
# 6 0.000000 0.000000 0.000000 0.000000 0.000000 -0.051586
#
#
# Mechanical properties :
#
#
# Convention : Reuss Voigt Hill
#
# Bulk Modulus (GPa) = 20.69948 22.92581 21.81265
# Shear Modulus (GPa) = 81.03674 -62.70752 9.16461
#
# Velocity S-wave (km/s) = 6.36365 -5.59790 2.14004
# Velocity P-wave (km/s) = 8.02115 5.50685 4.12392
#
# Compressibility (1/GPa) = 0.04831038
#
# Stress axis : x y z
#
# Youngs Moduli (GPa) = 70.46343 49.63934 76.24579
#
# Poissons Ratio (x) = -0.10238 0.17971
# Poissons Ratio (y) = -0.14532 -0.05516
# Poissons Ratio (z) = 0.16608 -0.03591
#
# Static dielectric constant tensor:
#      x y z
#    x 1.725360 0.000000 0.000000 
#    y 0.000000 1.758930 0.000000 
#    z 0.000000 0.000000 1.739420 
# 
# From -- ./inp_files/22661.got.cif
#   From: 2010.05.17/outbox.cif.g08.bks.cpg/sg57_12_cif.got.tgz:22661.got - 2010.06.03 13:58:18.
