data_PCOD9438339
_publ_section_title
;
Structure prediction by ZEFSAII (Michael W. Deem and Ramdas Pophale) SiO2 
 PCOD9438339
Probable space group: P B C M
;
_chemical_formula_sum "Si O2"
_cell_formula_units_Z 60
_cell_length_a 11.990979
_cell_length_b 8.368994
_cell_length_c 29.284406
_cell_angle_alpha 90.000000
_cell_angle_beta 90.000000
_cell_angle_gamma 90.000000
_cell_volume 2938.761341
_symmetry_space_group_name_H-M "P B C M"
_symmetry_group_IT_number 57
_symmetry_cell_setting 'orthorhombic'
loop_
_space_group_symop_operation_xyz
x,y,z
-x,-y,1/2+z
x,1/2-y,-z
-x,1/2+y,1/2-z
-x,-y,-z
x,y,1/2-z
-x,1/2+y,z
x,1/2-y,1/2+z
loop_
_atom_site_type_symbol
_atom_site_label
_atom_site_fract_x
_atom_site_fract_y
_atom_site_fract_z
Si Si1 0.580707 0.855026 0.039599
Si Si2 0.562964 0.580158 0.102392
Si Si3 0.847658 0.262412 0.697522
Si Si4 0.034786 0.750000 0.500000
Si Si5 0.339063 0.759776 0.124053
Si Si6 0.057063 0.042548 0.157049
Si Si7 0.087407 0.323533 0.405842
Si Si8 0.227367 0.570521 0.046075
O O1 0.622800 0.726617 0.077097
O O2 0.493540 0.967785 0.064075
O O3 0.679233 0.966076 0.021262
O O4 0.528527 0.750000 0.000000
O O5 0.455925 0.662602 0.126764
O O6 0.636467 0.449433 0.128364
O O7 0.821315 0.296053 0.750000
O O8 0.746111 0.292492 0.663088
O O9 0.953561 0.369741 0.681930
O O10 0.878744 0.074719 0.690999
O O11 0.124093 0.612939 0.486268
O O12 0.959750 0.731008 0.544976
O O13 0.283315 0.715810 0.074520
O O14 0.118453 0.180172 0.128103
O O15 0.011455 0.920140 0.118840
O O16 0.181175 0.453399 0.414944
#
# Coordination Sequence:
#
# PCOD9438339 Si02
#       8
#     8   8   8   4   8   8   8   8
#     4  10  21  34  56  83 110 152 209 257 297 343
#     4   9  21  40  61  82 119 156 201 260 308 366
#     4  11  22  41  67  95 122 154 198 252 310 380
#     4  12  24  36  54  82 130 170 222 254 282 344
#     4  10  21  43  62  88 118 161 199 251 322 364
#     4  10  22  39  62  87 126 161 203 246 303 360
#     4  11  21  39  54  81 122 173 205 247 289 353
#     4  11  23  35  54  84 116 164 209 244 299 350
#
# _framework density 20.416765999999999
#
# number of rings (size 3 to 8) (size 9 to 14) (size 15 to 20)
#    0.000    1.600    2.667    2.000    4.667    0.000 
#    2.400    0.667    0.000    0.000    0.000    0.000 
#    0.000    0.000    0.000    0.000    0.000    0.000 
#
# Total GULP energy -334792.739284 kJ/mol
# GULP energy per Si atom -5579.878988 kJ/mol
# Density = 2.037030 g / cm^3
# Si number density = 20.416766 Si / 1000 Ang^3
#
#
#
# Elastic Constant Matrix: (Units=GPa)
#
#
# Indices 1 2 3 4 5 6 
#
# 1 46.2792 19.8852 19.3047 0.0000 0.0000 0.0000
# 2 19.8852 85.3304 24.5643 0.0000 0.0000 0.0000
# 3 19.3047 24.5643 81.2892 0.0000 0.0000 0.0000
# 4 0.0000 0.0000 0.0000 23.9768 0.0000 0.0000
# 5 0.0000 0.0000 0.0000 0.0000 13.0723 0.0000
# 6 0.0000 0.0000 0.0000 0.0000 0.0000 32.6693
#
#
#
# Elastic Compliance Matrix: (Units=1/GPa)
#
#
# Indices 1 2 3 4 5 6 
#
# 1 0.025536 -0.004606 -0.004673 0.000000 0.000000 0.000000
# 2 -0.004606 0.013666 -0.003036 0.000000 0.000000 0.000000
# 3 -0.004673 -0.003036 0.014329 0.000000 0.000000 0.000000
# 4 0.000000 0.000000 0.000000 0.041707 0.000000 0.000000
# 5 0.000000 0.000000 0.000000 0.000000 0.076498 0.000000
# 6 0.000000 0.000000 0.000000 0.000000 0.000000 0.030610
#
#
# Mechanical properties :
#
#
# Convention : Reuss Voigt Hill
#
# Bulk Modulus (GPa) = 34.59882 37.82302 36.21092
# Shear Modulus (GPa) = 21.13193 23.88666 22.50930
#
# Velocity S-wave (km/s) = 3.22068 3.42417 3.32398
# Velocity P-wave (km/s) = 5.55098 5.84798 5.70142
#
# Compressibility (1/GPa) = 0.02890272
#
# Stress axis : x y z
#
# Youngs Moduli (GPa) = 39.16031 73.17187 69.78934
#
# Poissons Ratio (x) = 0.33701 0.32609
# Poissons Ratio (y) = 0.18036 0.21188
# Poissons Ratio (z) = 0.18298 0.22215
#
# Static dielectric constant tensor:
#      x y z
#    x 1.786810 0.000000 0.000000 
#    y 0.000000 1.792470 0.000000 
#    z 0.000000 0.000000 1.716220 
# 
# From -- ./inp_files/29752.got.cif
#   From: 2010.05.17/outbox.cif.g08.bks.cpg/sg57_15_cif.got.tgz:29752.got - 2010.06.03 13:58:18.
