data_PCOD9438606
_publ_section_title
;
Structure prediction by ZEFSAII (Michael W. Deem and Ramdas Pophale) SiO2 
 PCOD9438606
Probable space group: P B C M
;
_chemical_formula_sum "Si O2"
_cell_formula_units_Z 48
_cell_length_a 9.237353
_cell_length_b 31.477263
_cell_length_c 8.711953
_cell_angle_alpha 90.000000
_cell_angle_beta 90.000000
_cell_angle_gamma 90.000000
_cell_volume 2533.144864
_symmetry_space_group_name_H-M "P B C M"
_symmetry_group_IT_number 57
_symmetry_cell_setting 'orthorhombic'
loop_
_space_group_symop_operation_xyz
x,y,z
-x,-y,1/2+z
x,1/2-y,-z
-x,1/2+y,1/2-z
-x,-y,-z
x,y,1/2-z
-x,1/2+y,z
x,1/2-y,1/2+z
loop_
_atom_site_type_symbol
_atom_site_label
_atom_site_fract_x
_atom_site_fract_y
_atom_site_fract_z
Si Si1 0.918247 0.795630 0.932888
Si Si2 0.421065 0.203870 0.434416
Si Si3 0.915450 0.124278 0.565545
Si Si4 0.578524 0.378227 0.434581
Si Si5 0.910020 0.539476 0.934936
Si Si6 0.586436 0.540239 0.433760
O O1 0.927419 0.793964 0.750000
O O2 0.748963 0.802769 0.974270
O O3 0.961900 0.750000 0.000000
O O4 0.014781 0.833712 0.995175
O O5 0.462965 0.250000 0.500000
O O6 0.434780 0.203629 0.250000
O O7 0.513175 0.166140 0.507392
O O8 0.921499 0.127854 0.750000
O O9 0.747662 0.118970 0.522505
O O10 0.007855 0.082938 0.521145
O O11 0.566328 0.380954 0.250000
O O12 0.491107 0.416892 0.509460
O O13 0.903915 0.537121 0.750000
O O14 0.749416 0.539316 0.002943
O O15 0.000000 0.500000 0.000000
O O16 0.500000 0.500000 0.500000
O O17 0.587579 0.538486 0.250000
#
# Coordination Sequence:
#
# PCOD9438606 Si02
#       6
#     8   8   8   8   8   8
#     4  10  21  37  60  86 115 151 195 243 294 351
#     4  10  21  38  60  88 118 155 200 247 299 357
#     4  10  23  40  59  85 119 156 196 240 292 351
#     4  11  23  40  61  88 121 158 199 246 298 357
#     4  11  23  41  65  92 123 160 200 247 299 356
#     4  12  25  42  64  91 122 158 201 249 301 360
#
# _framework density 18.948778000000001
#
# number of rings (size 3 to 8) (size 9 to 14) (size 15 to 20)
#    0.000    1.333    0.000    5.500    0.000    9.333 
#    0.000    0.000    0.000    0.000    0.000    0.000 
#    0.000    0.000    0.000    0.000    0.000    0.000 
#
# Total GULP energy -268529.925406 kJ/mol
# GULP energy per Si atom -5594.373446 kJ/mol
# Density = 1.890565 g / cm^3
# Si number density = 18.948778 Si / 1000 Ang^3
#
#
#
# Elastic Constant Matrix: (Units=GPa)
#
#
# Indices 1 2 3 4 5 6 
#
# 1 179.2645 130.7307 74.4375 0.0000 0.0000 0.0000
# 2 130.7307 195.3393 72.0883 0.0000 0.0000 0.0000
# 3 74.4375 72.0883 83.6222 0.0000 0.0000 0.0000
# 4 0.0000 0.0000 0.0000 41.6334 0.0000 0.0000
# 5 0.0000 0.0000 0.0000 0.0000 33.2525 0.0000
# 6 0.0000 0.0000 0.0000 0.0000 0.0000 43.3735
#
#
#
# Elastic Compliance Matrix: (Units=1/GPa)
#
#
# Indices 1 2 3 4 5 6 
#
# 1 0.012541 -0.006267 -0.005761 0.000000 0.000000 0.000000
# 2 -0.006267 0.010640 -0.003594 0.000000 0.000000 0.000000
# 3 -0.005761 -0.003594 0.020184 0.000000 0.000000 0.000000
# 4 0.000000 0.000000 0.000000 0.024019 0.000000 0.000000
# 5 0.000000 0.000000 0.000000 0.000000 0.030073 0.000000
# 6 0.000000 0.000000 0.000000 0.000000 0.000000 0.023056
#
#
# Mechanical properties :
#
#
# Convention : Reuss Voigt Hill
#
# Bulk Modulus (GPa) = 82.49215 112.52656 97.50936
# Shear Modulus (GPa) = 32.09343 35.71652 33.90498
#
# Velocity S-wave (km/s) = 4.11992 4.34625 4.23460
# Velocity P-wave (km/s) = 8.14005 9.20326 8.68794
#
# Compressibility (1/GPa) = 0.01212237
#
# Stress axis : x y z
#
# Youngs Moduli (GPa) = 79.74113 93.98920 49.54316
#
# Poissons Ratio (x) = 0.58901 0.28541
# Poissons Ratio (y) = 0.49972 0.17803
# Poissons Ratio (z) = 0.45937 0.33775
#
# Static dielectric constant tensor:
#      x y z
#    x 1.637520 0.000000 0.000000 
#    y 0.000000 1.617070 0.000000 
#    z 0.000000 0.000000 1.636040 
# 
# From -- ./inp_files/1965.got.cif
#   From: 2010.05.17/outbox.cif.g08.bks.cpg/sg57_1_cif.got.tgz:1965.got - 2010.06.03 13:58:18.
