data_PCOD9438409
_publ_section_title
;
Structure prediction by ZEFSAII (Michael W. Deem and Ramdas Pophale) SiO2 
 PCOD9438409
Probable space group: P B C M
;
_chemical_formula_sum "Si O2"
_cell_formula_units_Z 48
_cell_length_a 31.819152
_cell_length_b 9.352858
_cell_length_c 8.387380
_cell_angle_alpha 90.000000
_cell_angle_beta 90.000000
_cell_angle_gamma 90.000000
_cell_volume 2496.084375
_symmetry_space_group_name_H-M "P B C M"
_symmetry_group_IT_number 57
_symmetry_cell_setting 'orthorhombic'
loop_
_space_group_symop_operation_xyz
x,y,z
-x,-y,1/2+z
x,1/2-y,-z
-x,1/2+y,1/2-z
-x,-y,-z
x,y,1/2-z
-x,1/2+y,z
x,1/2-y,1/2+z
loop_
_atom_site_type_symbol
_atom_site_label
_atom_site_fract_x
_atom_site_fract_y
_atom_site_fract_z
Si Si1 0.377116 0.412738 0.942661
Si Si2 0.295177 0.911768 0.057204
Si Si3 0.960021 0.411322 0.441104
Si Si4 0.879735 0.911277 0.557397
Si Si5 0.540456 0.413015 0.058740
Si Si6 0.785177 0.911481 0.942681
O O1 0.377164 0.411585 0.750000
O O2 0.334486 0.491452 0.996190
O O3 0.417533 0.504090 0.996080
O O4 0.379173 0.250000 0.000000
O O5 0.295158 0.911786 0.250000
O O6 0.251510 0.983122 0.001966
O O7 0.299524 0.750000 0.000000
O O8 0.962708 0.250000 0.500000
O O9 0.959904 0.412928 0.250000
O O10 0.916842 0.485596 0.498539
O O11 0.000000 0.500000 0.500000
O O12 0.887784 0.750000 0.500000
O O13 0.879923 0.911318 0.750000
O O14 0.832467 0.951767 0.504543
O O15 0.540324 0.411792 0.250000
O O16 0.539832 0.250000 0.000000
O O17 0.500000 0.500000 0.000000
O O18 0.784834 0.910902 0.750000
O O19 0.776948 0.750000 0.000000
#
# Coordination Sequence:
#
# PCOD9438409 Si02
#       6
#     8   8   8   8   8   8
#     4  10  22  38  57  82 110 142 181 225 271 321
#     4  10  21  36  54  79 110 142 178 220 266 317
#     4  11  23  38  56  79 108 141 179 222 269 320
#     4   9  19  35  55  79 107 139 175 218 265 315
#     4  11  23  39  59  84 114 147 185 227 273 324
#     4   9  18  34  55  79 107 139 177 218 262 315
#
# _framework density 19.230119999999999
#
# number of rings (size 3 to 8) (size 9 to 14) (size 15 to 20)
#    0.000    2.000    0.000    3.000    0.000    7.333 
#    0.000    0.000    0.000    0.000    0.000    0.000 
#    0.000    0.000    0.000    0.000    0.000    0.000 
#
# Total GULP energy -268148.366124 kJ/mol
# GULP energy per Si atom -5586.424294 kJ/mol
# Density = 1.918635 g / cm^3
# Si number density = 19.230120 Si / 1000 Ang^3
#
#
#
# Elastic Constant Matrix: (Units=GPa)
#
#
# Indices 1 2 3 4 5 6 
#
# 1 191.0753 136.8936 30.4527 0.0000 0.0000 0.0000
# 2 136.8936 191.1628 22.2556 0.0000 0.0000 0.0000
# 3 30.4527 22.2556 16.9600 0.0000 0.0000 0.0000
# 4 0.0000 0.0000 0.0000 38.1942 0.0000 0.0000
# 5 0.0000 0.0000 0.0000 0.0000 21.5772 0.0000
# 6 0.0000 0.0000 0.0000 0.0000 0.0000 44.5653
#
#
#
# Elastic Compliance Matrix: (Units=1/GPa)
#
#
# Indices 1 2 3 4 5 6 
#
# 1 0.012758 -0.007636 -0.012888 0.000000 0.000000 0.000000
# 2 -0.007636 0.010744 -0.000389 0.000000 0.000000 0.000000
# 3 -0.012888 -0.000389 0.082614 0.000000 0.000000 0.000000
# 4 0.000000 0.000000 0.000000 0.026182 0.000000 0.000000
# 5 0.000000 0.000000 0.000000 0.000000 0.046345 0.000000
# 6 0.000000 0.000000 0.000000 0.000000 0.000000 0.022439
#
#
# Mechanical properties :
#
#
# Convention : Reuss Voigt Hill
#
# Bulk Modulus (GPa) = 15.55426 86.48911 51.02168
# Shear Modulus (GPa) = 18.91517 34.84043 26.87780
#
# Velocity S-wave (km/s) = 3.13968 4.26110 3.74263
# Velocity P-wave (km/s) = 4.60972 8.32363 6.72801
#
# Compressibility (1/GPa) = 0.06429108
#
# Stress axis : x y z
#
# Youngs Moduli (GPa) = 78.38134 93.07112 12.10453
#
# Poissons Ratio (x) = 0.71067 0.15600
# Poissons Ratio (y) = 0.59850 0.00471
# Poissons Ratio (z) = 1.01018 0.03619
#
# Static dielectric constant tensor:
#      x y z
#    x 1.683790 0.000000 0.000000 
#    y 0.000000 1.610210 0.000000 
#    z 0.000000 0.000000 1.669490 
# 
# From -- ./inp_files/9949.got.cif
#   From: 2010.05.17/outbox.cif.g08.bks.cpg/sg57_5_cif.got.tgz:9949.got - 2010.06.03 13:58:18.
