data_PCOD9438134
_publ_section_title
;
Structure prediction by ZEFSAII (Michael W. Deem and Ramdas Pophale) SiO2 
 PCOD9438134
Probable space group: P B C M
;
_chemical_formula_sum "Si O2"
_cell_formula_units_Z 48
_cell_length_a 14.618070
_cell_length_b 8.235119
_cell_length_c 16.108927
_cell_angle_alpha 90.000000
_cell_angle_beta 90.000000
_cell_angle_gamma 90.000000
_cell_volume 1939.217537
_symmetry_space_group_name_H-M "P B C M"
_symmetry_group_IT_number 57
_symmetry_cell_setting 'orthorhombic'
loop_
_space_group_symop_operation_xyz
x,y,z
-x,-y,1/2+z
x,1/2-y,-z
-x,1/2+y,1/2-z
-x,-y,-z
x,y,1/2-z
-x,1/2+y,z
x,1/2-y,1/2+z
loop_
_atom_site_type_symbol
_atom_site_label
_atom_site_fract_x
_atom_site_fract_y
_atom_site_fract_z
Si Si1 0.532179 0.150238 0.150607
Si Si2 0.706100 0.303218 0.405349
Si Si3 0.859509 0.502015 0.345238
Si Si4 0.636001 0.827204 0.351487
Si Si5 0.815663 0.508602 0.847537
Si Si6 0.026844 0.192628 0.592878
O O1 0.526649 0.136878 0.250000
O O2 0.604053 0.294820 0.131200
O O3 0.430280 0.184712 0.118911
O O4 0.581438 0.988435 0.120389
O O5 0.700860 0.250000 0.500000
O O6 0.767548 0.463371 0.395999
O O7 0.764005 0.161813 0.358519
O O8 0.831394 0.500971 0.250000
O O9 0.914954 0.665906 0.363623
O O10 0.933774 0.360819 0.363544
O O11 0.637482 0.824710 0.250000
O O12 0.740509 0.856350 0.374359
O O13 0.839057 0.527954 0.750000
O O14 0.905366 0.536839 0.901994
O O15 0.010012 0.250000 0.500000
#
# Coordination Sequence:
#
# PCOD9438134 Si02
#       6
#     8   8   8   8   8   8
#     4   9  17  33  54  79 109 148 192 237 284 340
#     4  11  22  38  58  85 118 154 192 242 297 342
#     4  12  24  40  62  88 114 152 198 237 278 342
#     4   8  16  30  53  79 107 144 191 238 281 329
#     4  10  20  39  61  83 114 157 198 236 282 343
#     4  12  25  42  62  90 122 151 184 236 294 342
#
# _framework density 24.75225
#
# number of rings (size 3 to 8) (size 9 to 14) (size 15 to 20)
#    0.000    1.667    0.000    7.000    0.000    1.333 
#    0.000    7.500    0.000    0.000    0.000    0.000 
#    0.000    0.000    0.000    0.000    0.000    0.000 
#
# Total GULP energy -268619.660208 kJ/mol
# GULP energy per Si atom -5596.242921 kJ/mol
# Density = 2.469591 g / cm^3
# Si number density = 24.752250 Si / 1000 Ang^3
#
#
#
# Elastic Constant Matrix: (Units=GPa)
#
#
# Indices 1 2 3 4 5 6 
#
# 1 101.6657 5.1940 -9.2924 0.0000 0.0000 0.0000
# 2 5.1940 63.3196 -5.4460 0.0000 0.0000 0.0000
# 3 -9.2924 -5.4460 43.8237 0.0000 0.0000 0.0000
# 4 0.0000 0.0000 0.0000 27.2730 0.0000 0.0000
# 5 0.0000 0.0000 0.0000 0.0000 61.1460 0.0000
# 6 0.0000 0.0000 0.0000 0.0000 0.0000 34.8508
#
#
#
# Elastic Compliance Matrix: (Units=1/GPa)
#
#
# Indices 1 2 3 4 5 6 
#
# 1 0.010057 -0.000648 0.002052 0.000000 0.000000 0.000000
# 2 -0.000648 0.016005 0.001852 0.000000 0.000000 0.000000
# 3 0.002052 0.001852 0.023484 0.000000 0.000000 0.000000
# 4 0.000000 0.000000 0.000000 0.036666 0.000000 0.000000
# 5 0.000000 0.000000 0.000000 0.000000 0.016354 0.000000
# 6 0.000000 0.000000 0.000000 0.000000 0.000000 0.028694
#
#
# Mechanical properties :
#
#
# Convention : Reuss Voigt Hill
#
# Bulk Modulus (GPa) = 17.83933 21.08000 19.45967
# Shear Modulus (GPa) = 34.85879 39.21086 37.03482
#
# Velocity S-wave (km/s) = 3.75681 3.98443 3.87230
# Velocity P-wave (km/s) = 5.10304 5.45000 5.27937
#
# Compressibility (1/GPa) = 0.05605591
#
# Stress axis : x y z
#
# Youngs Moduli (GPa) = 99.43484 62.47912 42.58238
#
# Poissons Ratio (x) = 0.04052 -0.08737
# Poissons Ratio (y) = 0.06448 -0.07884
# Poissons Ratio (z) = -0.20403 -0.11568
#
# Static dielectric constant tensor:
#      x y z
#    x 1.923500 0.000000 0.000000 
#    y 0.000000 2.079480 0.000000 
#    z 0.000000 0.000000 1.876850 
# 
# From -- ./inp_files/22421.got.cif
#   From: 2010.05.17/outbox.cif.g08.bks.cpg/sg57_12_cif.got.tgz:22421.got - 2010.06.03 13:58:18.
