data_PCOD9438444
_publ_section_title
;
Structure prediction by ZEFSAII (Michael W. Deem and Ramdas Pophale) SiO2 
 PCOD9438444
Probable space group: P B C M
;
_chemical_formula_sum "Si O2"
_cell_formula_units_Z 40
_cell_length_a 24.750384
_cell_length_b 8.426388
_cell_length_c 10.634287
_cell_angle_alpha 90.000000
_cell_angle_beta 90.000000
_cell_angle_gamma 90.000000
_cell_volume 2217.847962
_symmetry_space_group_name_H-M "P B C M"
_symmetry_group_IT_number 57
_symmetry_cell_setting 'orthorhombic'
loop_
_space_group_symop_operation_xyz
x,y,z
-x,-y,1/2+z
x,1/2-y,-z
-x,1/2+y,1/2-z
-x,-y,-z
x,y,1/2-z
-x,1/2+y,z
x,1/2-y,1/2+z
loop_
_atom_site_type_symbol
_atom_site_label
_atom_site_fract_x
_atom_site_fract_y
_atom_site_fract_z
Si Si1 0.939206 0.562065 0.750000
Si Si2 0.208886 0.750000 0.000000
Si Si3 0.439110 0.436346 0.000000
Si Si4 0.612724 0.427920 0.750000
Si Si5 0.387276 0.927921 0.250000
Si Si6 0.719100 0.250000 0.250000
Si Si7 0.060794 0.437935 0.750000
Si Si8 0.129451 0.445379 0.500000
O O1 0.943592 0.750000 0.750000
O O2 0.906016 0.520870 0.624455
O O3 0.000000 0.500000 0.750000
O O4 0.245248 0.750000 0.874624
O O5 0.175365 0.582844 0.000000
O O6 0.407709 0.491157 0.875835
O O7 0.442312 0.250000 0.000000
O O8 0.500000 0.500000 0.000000
O O9 0.407709 0.491157 0.124165
O O10 0.588728 0.250000 0.750000
O O11 0.677146 0.398134 0.750000
O O12 0.322854 0.898134 0.250000
O O13 0.093984 0.479131 0.624455
O O14 0.143114 0.250000 0.500000
#
# Coordination Sequence:
#
# PCOD9438444 Si02
#       8
#     4   4   8   4   4   4   4   8
#     4  10  21  36  57  84 125 162 196 248 309 373
#     4  12  22  42  70  90 114 172 216 258 324 362
#     4  12  23  38  62  96 128 171 206 249 315 379
#     4  10  22  42  63  85 129 160 204 263 312 366
#     4  10  22  42  63  85 129 160 204 263 312 366
#     4  10  24  42  68  88 118 164 208 262 316 354
#     4  10  21  36  57  84 125 162 196 248 309 373
#     4  10  23  39  57  90 123 154 204 262 303 372
#
# _framework density 18.035502999999999
#
# number of rings (size 3 to 8) (size 9 to 14) (size 15 to 20)
#    0.600    0.800    0.000    6.000    2.800    0.000 
#    0.000    6.000    0.000    0.000    0.000    0.000 
#    0.000    0.000    0.000    0.000    0.000    0.000 
#
# Total GULP energy -223015.727886 kJ/mol
# GULP energy per Si atom -5575.393197 kJ/mol
# Density = 1.799445 g / cm^3
# Si number density = 18.035503 Si / 1000 Ang^3
#
#
#
# Elastic Constant Matrix: (Units=GPa)
#
#
# Indices 1 2 3 4 5 6 
#
# 1 167.1589 80.9611 117.5093 0.0000 0.0000 0.0000
# 2 80.9611 128.1661 80.8798 0.0000 0.0000 0.0000
# 3 117.5093 80.8798 227.5847 0.0000 0.0000 0.0000
# 4 0.0000 0.0000 0.0000 29.5131 0.0000 0.0000
# 5 0.0000 0.0000 0.0000 0.0000 38.0567 0.0000
# 6 0.0000 0.0000 0.0000 0.0000 0.0000 45.3761
#
#
#
# Elastic Compliance Matrix: (Units=1/GPa)
#
#
# Indices 1 2 3 4 5 6 
#
# 1 0.010985 -0.004331 -0.004133 0.000000 0.000000 0.000000
# 2 -0.004331 0.011766 -0.001945 0.000000 0.000000 0.000000
# 3 -0.004133 -0.001945 0.007219 0.000000 0.000000 0.000000
# 4 0.000000 0.000000 0.000000 0.033883 0.000000 0.000000
# 5 0.000000 0.000000 0.000000 0.000000 0.026277 0.000000
# 6 0.000000 0.000000 0.000000 0.000000 0.000000 0.022038
#
#
# Mechanical properties :
#
#
# Convention : Reuss Voigt Hill
#
# Bulk Modulus (GPa) = 109.26506 120.17889 114.72197
# Shear Modulus (GPa) = 36.75464 38.82649 37.79056
#
# Velocity S-wave (km/s) = 4.51921 4.64484 4.58246
# Velocity P-wave (km/s) = 9.37795 9.77473 9.57839
#
# Compressibility (1/GPa) = 0.00915206
#
# Stress axis : x y z
#
# Youngs Moduli (GPa) = 91.02920 84.99198 138.52116
#
# Poissons Ratio (x) = 0.36813 0.57249
# Poissons Ratio (y) = 0.39428 0.26942
# Poissons Ratio (z) = 0.37621 0.16531
#
# Static dielectric constant tensor:
#      x y z
#    x 1.653020 0.000000 0.000000 
#    y 0.000000 1.639970 0.000000 
#    z 0.000000 0.000000 1.600930 
# 
# From -- ./inp_files/9063.got.cif
#   From: 2010.05.17/outbox.cif.g08.bks.cpg/sg57_5_cif.got.tgz:9063.got - 2010.06.03 13:58:18.
