data_PCOD9438548
_publ_section_title
;
Structure prediction by ZEFSAII (Michael W. Deem and Ramdas Pophale) SiO2 
 PCOD9438548
Probable space group: P B C M
;
_chemical_formula_sum "Si O2"
_cell_formula_units_Z 56
_cell_length_a 12.823318
_cell_length_b 16.267717
_cell_length_c 13.988739
_cell_angle_alpha 90.000000
_cell_angle_beta 90.000000
_cell_angle_gamma 90.000000
_cell_volume 2918.136402
_symmetry_space_group_name_H-M "P B C M"
_symmetry_group_IT_number 57
_symmetry_cell_setting 'orthorhombic'
loop_
_space_group_symop_operation_xyz
x,y,z
-x,-y,1/2+z
x,1/2-y,-z
-x,1/2+y,1/2-z
-x,-y,-z
x,y,1/2-z
-x,1/2+y,z
x,1/2-y,1/2+z
loop_
_atom_site_type_symbol
_atom_site_label
_atom_site_fract_x
_atom_site_fract_y
_atom_site_fract_z
Si Si1 0.186707 0.031754 0.488978
Si Si2 0.500147 0.689483 0.364700
Si Si3 0.604347 0.453053 0.979216
Si Si4 0.123976 0.873410 0.363182
Si Si5 0.346225 0.832452 0.361752
Si Si6 0.892896 0.658241 0.637085
Si Si7 0.256736 0.313507 0.634677
O O1 0.122960 0.078430 0.571135
O O2 0.212967 0.103474 0.412592
O O3 0.293574 0.005095 0.542814
O O4 0.137096 0.952840 0.433538
O O5 0.502130 0.685276 0.250000
O O6 0.430924 0.614954 0.403920
O O7 0.433504 0.768819 0.393359
O O8 0.621182 0.693562 0.395764
O O9 0.634420 0.413932 0.080313
O O10 0.500000 0.500000 0.000000
O O11 0.128212 0.899756 0.250000
O O12 0.224299 0.814479 0.379230
O O13 0.016111 0.824679 0.375564
O O14 0.359898 0.844825 0.250000
O O15 0.875248 0.641279 0.750000
O O16 0.814485 0.733266 0.610912
O O17 0.254420 0.320571 0.750000
#
# Coordination Sequence:
#
# PCOD9438548 Si02
#       7
#     8   8   8   8   8   8   8
#     4  11  21  36  59  85 115 149 188 232 289 342
#     4  10  21  38  58  83 115 149 190 232 279 340
#     4  11  22  34  53  83 116 147 182 226 283 337
#     4   9  19  39  61  83 111 145 194 239 279 334
#     4   9  20  37  59  80 106 150 191 231 277 330
#     4  10  22  38  57  83 115 150 190 237 285 336
#     4  10  21  37  58  84 111 148 192 233 279 339
#
# _framework density 19.190329999999999
#
# number of rings (size 3 to 8) (size 9 to 14) (size 15 to 20)
#    0.000    2.000    1.429    1.714    2.000    2.857 
#    0.000    7.143    0.000    3.429    0.000    0.000 
#    0.000    0.000    0.000    0.000    0.000    0.000 
#
# Total GULP energy -311938.525820 kJ/mol
# GULP energy per Si atom -5570.330818 kJ/mol
# Density = 1.914665 g / cm^3
# Si number density = 19.190330 Si / 1000 Ang^3
#
#
#
# Elastic Constant Matrix: (Units=GPa)
#
#
# Indices 1 2 3 4 5 6 
#
# 1 122.0222 19.9258 19.5168 0.0000 0.0000 0.0000
# 2 19.9258 29.7842 0.2931 0.0000 0.0000 0.0000
# 3 19.5168 0.2931 48.7218 0.0000 0.0000 0.0000
# 4 0.0000 0.0000 0.0000 46.3862 0.0000 0.0000
# 5 0.0000 0.0000 0.0000 0.0000 12.8219 0.0000
# 6 0.0000 0.0000 0.0000 0.0000 0.0000 32.2110
#
#
#
# Elastic Compliance Matrix: (Units=1/GPa)
#
#
# Indices 1 2 3 4 5 6 
#
# 1 0.009898 -0.006583 -0.003925 0.000000 0.000000 0.000000
# 2 -0.006583 0.037955 0.002409 0.000000 0.000000 0.000000
# 3 -0.003925 0.002409 0.022083 0.000000 0.000000 0.000000
# 4 0.000000 0.000000 0.000000 0.021558 0.000000 0.000000
# 5 0.000000 0.000000 0.000000 0.000000 0.077991 0.000000
# 6 0.000000 0.000000 0.000000 0.000000 0.000000 0.031045
#
#
# Mechanical properties :
#
#
# Convention : Reuss Voigt Hill
#
# Bulk Modulus (GPa) = 18.60934 31.11105 24.86019
# Shear Modulus (GPa) = 21.30899 29.00333 25.15616
#
# Velocity S-wave (km/s) = 3.33589 3.89183 3.62453
# Velocity P-wave (km/s) = 4.95538 6.03673 5.52259
#
# Compressibility (1/GPa) = 0.05373647
#
# Stress axis : x y z
#
# Youngs Moduli (GPa) = 101.02969 26.34673 45.28452
#
# Poissons Ratio (x) = 0.17345 0.17776
# Poissons Ratio (y) = 0.66510 -0.10908
# Poissons Ratio (z) = 0.39658 -0.06346
#
# Static dielectric constant tensor:
#      x y z
#    x 1.796780 0.000000 0.000000 
#    y 0.000000 1.476720 0.000000 
#    z 0.000000 0.000000 1.715350 
# 
# From -- ./inp_files/17685.got.cif
#   From: 2010.05.17/outbox.cif.g08.bks.cpg/sg57_9_cif.got.tgz:17685.got - 2010.06.03 13:58:18.
