data_PCOD9438970
_publ_section_title
;
Structure prediction by ZEFSAII (Michael W. Deem and Ramdas Pophale) SiO2 
 PCOD9438970
Probable space group: P B C M
;
_chemical_formula_sum "Si O2"
_cell_formula_units_Z 32
_cell_length_a 12.655365
_cell_length_b 14.877962
_cell_length_c 8.633982
_cell_angle_alpha 90.000000
_cell_angle_beta 90.000000
_cell_angle_gamma 90.000000
_cell_volume 1625.658276
_symmetry_space_group_name_H-M "P B C M"
_symmetry_group_IT_number 57
_symmetry_cell_setting 'orthorhombic'
loop_
_space_group_symop_operation_xyz
x,y,z
-x,-y,1/2+z
x,1/2-y,-z
-x,1/2+y,1/2-z
-x,-y,-z
x,y,1/2-z
-x,1/2+y,z
x,1/2-y,1/2+z
loop_
_atom_site_type_symbol
_atom_site_label
_atom_site_fract_x
_atom_site_fract_y
_atom_site_fract_z
Si Si1 0.775279 0.148597 0.565270
Si Si2 0.005610 0.648242 0.064450
Si Si3 0.770399 0.851396 0.936216
Si Si4 0.618091 0.002196 0.434752
O O1 0.767048 0.250000 0.500000
O O2 0.772507 0.150929 0.750000
O O3 0.682064 0.087489 0.499981
O O4 0.888852 0.109127 0.511076
O O5 0.017770 0.648949 0.250000
O O6 0.888898 0.612584 0.026025
O O7 0.002801 0.750000 0.000000
O O8 0.761083 0.850073 0.750000
O O9 0.761523 0.750000 0.000000
O O10 0.682732 0.915106 0.008743
O O11 0.615986 0.005489 0.250000
O O12 0.500000 0.000000 0.500000
#
# Coordination Sequence:
#
# PCOD9438970 Si02
#       4
#     8   8   8   8
#     4  11  22  39  63  91 123 158 197 243 297 354
#     4   9  17  32  57  89 123 156 193 238 290 351
#     4  10  21  39  63  92 124 159 198 242 296 353
#     4  12  26  44  63  86 117 155 203 252 298 351
#
# _framework density 19.684335999999998
#
# number of rings (size 3 to 8) (size 9 to 14) (size 15 to 20)
#    0.000    1.500    0.000    7.500    0.000    5.000 
#    0.000    5.000    0.000    0.000    0.000    0.000 
#    0.000    0.000    0.000    0.000    0.000    0.000 
#
# Total GULP energy -178856.836815 kJ/mol
# GULP energy per Si atom -5589.276150 kJ/mol
# Density = 1.963953 g / cm^3
# Si number density = 19.684336 Si / 1000 Ang^3
#
#
#
# Elastic Constant Matrix: (Units=GPa)
#
#
# Indices 1 2 3 4 5 6 
#
# 1 227.3854 88.0616 103.9734 0.0000 0.0000 0.0000
# 2 88.0616 115.3381 56.2003 0.0000 0.0000 0.0000
# 3 103.9734 56.2003 174.8029 0.0000 0.0000 0.0000
# 4 0.0000 0.0000 0.0000 30.7392 0.0000 0.0000
# 5 0.0000 0.0000 0.0000 0.0000 44.6540 0.0000
# 6 0.0000 0.0000 0.0000 0.0000 0.0000 38.3060
#
#
#
# Elastic Compliance Matrix: (Units=1/GPa)
#
#
# Indices 1 2 3 4 5 6 
#
# 1 0.007415 -0.004165 -0.003072 0.000000 0.000000 0.000000
# 2 -0.004165 0.012620 -0.001580 0.000000 0.000000 0.000000
# 3 -0.003072 -0.001580 0.008056 0.000000 0.000000 0.000000
# 4 0.000000 0.000000 0.000000 0.032532 0.000000 0.000000
# 5 0.000000 0.000000 0.000000 0.000000 0.022394 0.000000
# 6 0.000000 0.000000 0.000000 0.000000 0.000000 0.026106
#
#
# Mechanical properties :
#
#
# Convention : Reuss Voigt Hill
#
# Bulk Modulus (GPa) = 95.62232 112.66632 104.14432
# Shear Modulus (GPa) = 38.39003 40.69259 39.54131
#
# Velocity S-wave (km/s) = 4.42099 4.55164 4.48679
# Velocity P-wave (km/s) = 8.64544 9.21868 8.93666
#
# Compressibility (1/GPa) = 0.01045781
#
# Stress axis : x y z
#
# Youngs Moduli (GPa) = 134.85551 79.23871 124.13507
#
# Poissons Ratio (x) = 0.33003 0.38129
# Poissons Ratio (y) = 0.56167 0.19614
# Poissons Ratio (z) = 0.41422 0.12520
#
# Static dielectric constant tensor:
#      x y z
#    x 1.696240 0.000000 0.000000 
#    y 0.000000 1.680350 0.000000 
#    z 0.000000 0.000000 1.650490 
# 
# From -- ./inp_files/2371.got.cif
#   From: 2010.05.17/outbox.cif.g08.bks.cpg/sg57_2_cif.got.tgz:2371.got - 2010.06.03 13:58:18.
