data_PCOD9438505
_publ_section_title
;
Structure prediction by ZEFSAII (Michael W. Deem and Ramdas Pophale) SiO2 
 PCOD9438505
Probable space group: P B C M
;
_chemical_formula_sum "Si O2"
_cell_formula_units_Z 64
_cell_length_a 17.071360
_cell_length_b 21.395995
_cell_length_c 8.989276
_cell_angle_alpha 90.000000
_cell_angle_beta 90.000000
_cell_angle_gamma 90.000000
_cell_volume 3283.411564
_symmetry_space_group_name_H-M "P B C M"
_symmetry_group_IT_number 57
_symmetry_cell_setting 'orthorhombic'
loop_
_space_group_symop_operation_xyz
x,y,z
-x,-y,1/2+z
x,1/2-y,-z
-x,1/2+y,1/2-z
-x,-y,-z
x,y,1/2-z
-x,1/2+y,z
x,1/2-y,1/2+z
loop_
_atom_site_type_symbol
_atom_site_label
_atom_site_fract_x
_atom_site_fract_y
_atom_site_fract_z
Si Si1 0.965337 0.083170 0.081283
Si Si2 0.616810 0.816983 0.572037
Si Si3 0.288690 0.890039 0.569135
Si Si4 0.076027 0.183515 0.926230
Si Si5 0.439451 0.681698 0.429721
Si Si6 0.168908 0.514126 0.923894
Si Si7 0.779789 0.629068 0.075776
Si Si8 0.157694 0.694945 0.087298
O O1 0.991143 0.066490 0.250000
O O2 0.897305 0.135487 0.095131
O O3 0.030103 0.123114 0.993061
O O4 0.915556 0.028735 0.000206
O O5 0.633640 0.750000 0.500000
O O6 0.615232 0.809801 0.750000
O O7 0.528650 0.835682 0.526983
O O8 0.688495 0.862829 0.537157
O O9 0.282432 0.895718 0.750000
O O10 0.377233 0.872236 0.528976
O O11 0.240527 0.946804 0.497185
O O12 0.238582 0.829169 0.521067
O O13 0.064024 0.186611 0.750000
O O14 0.054048 0.250000 0.000000
O O15 0.165965 0.170941 0.971303
O O16 0.422710 0.750000 0.500000
O O17 0.435110 0.688076 0.250000
O O18 0.162809 0.531447 0.750000
O O19 0.191784 0.442006 0.937227
O O20 0.790934 0.647745 0.250000
O O21 0.174219 0.719539 0.250000
O O22 0.118810 0.750000 0.000000
#
# Coordination Sequence:
#
# PCOD9438505 Si02
#       8
#     8   8   8   8   8   8   8   8
#     4  10  21  38  57  79 111 146 181 223 270 323
#     4   9  18  34  56  81 109 141 178 225 280 332
#     4   9  18  32  48  71 106 144 181 222 270 326
#     4  12  25  40  61  88 115 143 178 222 274 329
#     4   9  17  30  51  79 110 143 180 225 277 331
#     4  10  21  37  57  80 108 146 190 232 273 321
#     4  10  22  40  59  80 109 145 187 233 279 328
#     4   9  17  27  43  68  98 134 171 209 256 309
#
# _framework density 19.491921000000001
#
# number of rings (size 3 to 8) (size 9 to 14) (size 15 to 20)
#    0.000    2.250    0.000    3.750    0.000    7.000 
#    0.000    0.625    0.000    0.000    0.000    0.000 
#    0.000    0.000    0.000    0.000    0.000    0.000 
#
# Total GULP energy -356795.663708 kJ/mol
# GULP energy per Si atom -5574.932245 kJ/mol
# Density = 1.944756 g / cm^3
# Si number density = 19.491921 Si / 1000 Ang^3
#
#
#
# Elastic Constant Matrix: (Units=GPa)
#
#
# Indices 1 2 3 4 5 6 
#
# 1 126.7872 35.5548 41.1692 0.0000 0.0000 0.0000
# 2 35.5548 51.8316 32.0299 0.0000 0.0000 0.0000
# 3 41.1692 32.0299 71.7782 0.0000 0.0000 0.0000
# 4 0.0000 0.0000 0.0000 26.2052 0.0000 0.0000
# 5 0.0000 0.0000 0.0000 0.0000 24.4062 0.0000
# 6 0.0000 0.0000 0.0000 0.0000 0.0000 29.5115
#
#
#
# Elastic Compliance Matrix: (Units=1/GPa)
#
#
# Indices 1 2 3 4 5 6 
#
# 1 0.010492 -0.004803 -0.003875 0.000000 0.000000 0.000000
# 2 -0.004803 0.028838 -0.010114 0.000000 0.000000 0.000000
# 3 -0.003875 -0.010114 0.020667 0.000000 0.000000 0.000000
# 4 0.000000 0.000000 0.000000 0.038160 0.000000 0.000000
# 5 0.000000 0.000000 0.000000 0.000000 0.040973 0.000000
# 6 0.000000 0.000000 0.000000 0.000000 0.000000 0.033885
#
#
# Mechanical properties :
#
#
# Convention : Reuss Voigt Hill
#
# Bulk Modulus (GPa) = 44.61360 51.98942 48.30151
# Shear Modulus (GPa) = 22.92842 25.46745 24.19793
#
# Velocity S-wave (km/s) = 3.43345 3.61856 3.52722
# Velocity P-wave (km/s) = 6.21740 6.64747 6.43603
#
# Compressibility (1/GPa) = 0.02241469
#
# Stress axis : x y z
#
# Youngs Moduli (GPa) = 95.30822 34.67684 48.38577
#
# Poissons Ratio (x) = 0.16655 0.18748
# Poissons Ratio (y) = 0.45776 0.48935
# Poissons Ratio (z) = 0.36929 0.35071
#
# Static dielectric constant tensor:
#      x y z
#    x 1.727050 0.000000 0.000000 
#    y 0.000000 1.740060 0.000000 
#    z 0.000000 0.000000 1.681370 
# 
# From -- ./inp_files/7288.got.cif
#   From: 2010.05.17/outbox.cif.g08.bks.cpg/sg57_4_cif.got.tgz:7288.got - 2010.06.03 13:58:18.
