data_PCOD9438778
_publ_section_title
;
Structure prediction by ZEFSAII (Michael W. Deem and Ramdas Pophale) SiO2 
 PCOD9438778
Probable space group: P B C M
;
_chemical_formula_sum "Si O2"
_cell_formula_units_Z 48
_cell_length_a 14.315878
_cell_length_b 8.023526
_cell_length_c 19.286775
_cell_angle_alpha 90.000000
_cell_angle_beta 90.000000
_cell_angle_gamma 90.000000
_cell_volume 2215.352639
_symmetry_space_group_name_H-M "P B C M"
_symmetry_group_IT_number 57
_symmetry_cell_setting 'orthorhombic'
loop_
_space_group_symop_operation_xyz
x,y,z
-x,-y,1/2+z
x,1/2-y,-z
-x,1/2+y,1/2-z
-x,-y,-z
x,y,1/2-z
-x,1/2+y,z
x,1/2-y,1/2+z
loop_
_atom_site_type_symbol
_atom_site_label
_atom_site_fract_x
_atom_site_fract_y
_atom_site_fract_z
Si Si1 0.451308 0.805869 0.330234
Si Si2 0.700149 0.176874 0.424186
Si Si3 0.144002 0.823571 0.329095
Si Si4 0.200207 0.182143 0.576570
Si Si5 0.043365 0.465899 0.329743
Si Si6 0.645192 0.833911 0.830144
O O1 0.438927 0.752281 0.250000
O O2 0.394990 0.686083 0.381108
O O3 0.561504 0.796796 0.344020
O O4 0.405721 0.987960 0.337606
O O5 0.686019 0.250000 0.500000
O O6 0.772774 0.293421 0.381760
O O7 0.744509 0.993905 0.427827
O O8 0.178284 0.850553 0.250000
O O9 0.085400 0.650831 0.330168
O O10 0.066112 0.959349 0.347843
O O11 0.182015 0.250000 0.500000
O O12 0.106234 0.142087 0.618837
O O13 0.268258 0.303544 0.619758
O O14 0.050762 0.404028 0.250000
O O15 0.675292 0.814484 0.750000
#
# Coordination Sequence:
#
# PCOD9438778 Si02
#       6
#     8   8   8   8   8   8
#     4  10  21  38  61  87 113 144 184 229 277 330
#     4  11  23  38  56  81 115 151 188 230 278 331
#     4   9  19  36  58  82 108 142 184 230 278 328
#     4  11  23  38  56  81 115 151 188 230 278 331
#     4   9  19  36  58  82 108 142 184 230 278 328
#     4  10  21  38  61  87 113 144 184 229 277 330
#
# _framework density 21.666978
#
# number of rings (size 3 to 8) (size 9 to 14) (size 15 to 20)
#    0.000    2.000    0.000    3.000    0.000    7.333 
#    0.000   10.000    0.000    0.000    0.000    0.000 
#    0.000    0.000    0.000    0.000    0.000    0.000 
#
# Total GULP energy -268533.523168 kJ/mol
# GULP energy per Si atom -5594.448399 kJ/mol
# Density = 2.161766 g / cm^3
# Si number density = 21.666978 Si / 1000 Ang^3
#
#
#
# Elastic Constant Matrix: (Units=GPa)
#
#
# Indices 1 2 3 4 5 6 
#
# 1 62.4583 6.2879 36.6222 0.0000 0.0000 0.0000
# 2 6.2879 64.4819 20.5438 0.0000 0.0000 0.0000
# 3 36.6222 20.5438 75.2749 0.0000 0.0000 0.0000
# 4 0.0000 0.0000 0.0000 -370.9886 0.0000 0.0000
# 5 0.0000 0.0000 0.0000 0.0000 33.5508 0.0000
# 6 0.0000 0.0000 0.0000 0.0000 0.0000 38.8756
#
#
#
# Elastic Compliance Matrix: (Units=1/GPa)
#
#
# Indices 1 2 3 4 5 6 
#
# 1 0.022519 0.001418 -0.011343 0.000000 0.000000 0.000000
# 2 0.001418 0.017074 -0.005350 0.000000 0.000000 0.000000
# 3 -0.011343 -0.005350 0.020263 0.000000 0.000000 0.000000
# 4 0.000000 0.000000 0.000000 -0.002696 0.000000 0.000000
# 5 0.000000 0.000000 0.000000 0.000000 0.029806 0.000000
# 6 0.000000 0.000000 0.000000 0.000000 0.000000 0.025723
#
#
# Mechanical properties :
#
#
# Convention : Reuss Voigt Hill
#
# Bulk Modulus (GPa) = 34.12138 36.56921 35.34530
# Shear Modulus (GPa) = 32.67831 -50.46168 -8.89168
#
# Velocity S-wave (km/s) = 3.88778 -4.83117 -2.02798
# Velocity P-wave (km/s) = 5.99461 3.76906 3.29618
#
# Compressibility (1/GPa) = 0.02930714
#
# Stress axis : x y z
#
# Youngs Moduli (GPa) = 44.40780 58.56735 49.35125
#
# Poissons Ratio (x) = -0.08304 0.55977
# Poissons Ratio (y) = -0.06296 0.26401
# Poissons Ratio (z) = 0.50370 0.31332
#
# Static dielectric constant tensor:
#      x y z
#    x 1.761870 0.000000 0.000000 
#    y 0.000000 1.841530 0.000000 
#    z 0.000000 0.000000 1.728090 
# 
# From -- ./inp_files/4544.got.cif
#   From: 2010.05.17/outbox.cif.g08.bks.cpg/sg57_3_cif.got.tgz:4544.got - 2010.06.03 13:58:18.
