data_PCOD9438329
_publ_section_title
;
Structure prediction by ZEFSAII (Michael W. Deem and Ramdas Pophale) SiO2 
 PCOD9438329
Probable space group: P B C M
;
_chemical_formula_sum "Si O2"
_cell_formula_units_Z 60
_cell_length_a 14.482197
_cell_length_b 8.136237
_cell_length_c 22.772618
_cell_angle_alpha 90.000000
_cell_angle_beta 90.000000
_cell_angle_gamma 90.000000
_cell_volume 2683.310948
_symmetry_space_group_name_H-M "P B C M"
_symmetry_group_IT_number 57
_symmetry_cell_setting 'orthorhombic'
loop_
_space_group_symop_operation_xyz
x,y,z
-x,-y,1/2+z
x,1/2-y,-z
-x,1/2+y,1/2-z
-x,-y,-z
x,y,1/2-z
-x,1/2+y,z
x,1/2-y,1/2+z
loop_
_atom_site_type_symbol
_atom_site_label
_atom_site_fract_x
_atom_site_fract_y
_atom_site_fract_z
Si Si1 0.641618 0.921374 0.821812
Si Si2 0.473278 0.724690 0.683694
Si Si3 0.969825 0.922032 0.319192
Si Si4 0.682288 0.428159 0.855407
Si Si5 0.396143 0.556320 0.485509
Si Si6 0.799300 0.761019 0.129310
Si Si7 0.854486 0.241298 0.680893
Si Si8 0.269713 0.250000 0.500000
O O1 0.646025 0.924264 0.750000
O O2 0.570389 0.778766 0.842443
O O3 0.742967 0.894816 0.846814
O O4 0.587505 0.081954 0.844287
O O5 0.492762 0.674435 0.750000
O O6 0.402745 0.877551 0.685125
O O7 0.969916 0.880585 0.250000
O O8 0.902944 0.794179 0.351609
O O9 0.076132 0.903067 0.338449
O O10 0.921489 0.098687 0.324666
O O11 0.633169 0.450587 0.917541
O O12 0.740396 0.590037 0.840567
O O13 0.761199 0.286778 0.853060
O O14 0.384305 0.750000 0.500000
O O15 0.500000 0.500000 0.500000
O O16 0.331092 0.413154 0.512514
O O17 0.787983 0.777249 0.059401
O O18 0.828858 0.221555 0.750000
#
# Coordination Sequence:
#
# PCOD9438329 Si02
#       8
#     8   8   8   8   8   8   8   4
#     4  10  21  34  52  79 114 152 192 239 294 365
#     4  10  21  34  51  81 116 151 189 233 296 366
#     4   9  18  34  60  88 118 154 191 240 301 368
#     4  10  22  36  58  82 114 156 195 246 305 355
#     4  11  24  41  63  86 118 160 213 261 309 361
#     4  10  21  38  59  81 115 151 204 245 303 360
#     4   9  18  35  58  88 121 152 192 240 299 373
#     4  10  24  42  60  88 118 162 204 266 312 362
#
# _framework density 22.360434999999999
#
# number of rings (size 3 to 8) (size 9 to 14) (size 15 to 20)
#    0.000    2.133    0.667    1.600    3.733    3.733 
#    0.000    2.667    1.467    2.400    0.000    0.000 
#    0.000    0.000    0.000    0.000    0.000    0.000 
#
# Total GULP energy -334984.769394 kJ/mol
# GULP energy per Si atom -5583.079490 kJ/mol
# Density = 2.230954 g / cm^3
# Si number density = 22.360435 Si / 1000 Ang^3
#
#
#
# Elastic Constant Matrix: (Units=GPa)
#
#
# Indices 1 2 3 4 5 6 
#
# 1 145.7817 20.9592 27.6355 0.0000 0.0000 0.0000
# 2 20.9592 90.1765 5.2870 0.0000 0.0000 0.0000
# 3 27.6355 5.2870 34.4453 0.0000 0.0000 0.0000
# 4 0.0000 0.0000 0.0000 17.8133 0.0000 0.0000
# 5 0.0000 0.0000 0.0000 0.0000 23.9004 0.0000
# 6 0.0000 0.0000 0.0000 0.0000 0.0000 39.8312
#
#
#
# Elastic Compliance Matrix: (Units=1/GPa)
#
#
# Indices 1 2 3 4 5 6 
#
# 1 0.008300 -0.001553 -0.006421 0.000000 0.000000 0.000000
# 2 -0.001553 0.011481 -0.000516 0.000000 0.000000 0.000000
# 3 -0.006421 -0.000516 0.034262 0.000000 0.000000 0.000000
# 4 0.000000 0.000000 0.000000 0.056138 0.000000 0.000000
# 5 0.000000 0.000000 0.000000 0.000000 0.041840 0.000000
# 6 0.000000 0.000000 0.000000 0.000000 0.000000 0.025106
#
#
# Mechanical properties :
#
#
# Convention : Reuss Voigt Hill
#
# Bulk Modulus (GPa) = 26.98109 42.01853 34.49981
# Shear Modulus (GPa) = 24.21769 30.74378 27.48073
#
# Velocity S-wave (km/s) = 3.29456 3.71201 3.50950
# Velocity P-wave (km/s) = 5.15410 6.09953 5.64664
#
# Compressibility (1/GPa) = 0.03706300
#
# Stress axis : x y z
#
# Youngs Moduli (GPa) = 120.48232 87.10405 29.18666
#
# Poissons Ratio (x) = 0.13524 0.18740
# Poissons Ratio (y) = 0.18707 0.01507
# Poissons Ratio (z) = 0.77359 0.04498
#
# Static dielectric constant tensor:
#      x y z
#    x 1.800640 0.000000 0.000000 
#    y 0.000000 2.006170 0.000000 
#    z 0.000000 0.000000 1.796740 
# 
# From -- ./inp_files/27413.got.cif
#   From: 2010.05.17/outbox.cif.g08.bks.cpg/sg57_14_cif.got.tgz:27413.got - 2010.06.03 13:58:18.
