data_PCOD9438158
_publ_section_title
;
Structure prediction by ZEFSAII (Michael W. Deem and Ramdas Pophale) SiO2 
 PCOD9438158
Probable space group: P B C M
;
_chemical_formula_sum "Si O2"
_cell_formula_units_Z 52
_cell_length_a 14.069795
_cell_length_b 8.062311
_cell_length_c 22.416943
_cell_angle_alpha 90.000000
_cell_angle_beta 90.000000
_cell_angle_gamma 90.000000
_cell_volume 2542.867341
_symmetry_space_group_name_H-M "P B C M"
_symmetry_group_IT_number 57
_symmetry_cell_setting 'orthorhombic'
loop_
_space_group_symop_operation_xyz
x,y,z
-x,-y,1/2+z
x,1/2-y,-z
-x,1/2+y,1/2-z
-x,-y,-z
x,y,1/2-z
-x,1/2+y,z
x,1/2-y,1/2+z
loop_
_atom_site_type_symbol
_atom_site_label
_atom_site_fract_x
_atom_site_fract_y
_atom_site_fract_z
Si Si1 0.410318 0.414582 0.923387
Si Si2 0.044270 0.750000 0.500000
Si Si3 0.086204 0.235879 0.618843
Si Si4 0.779012 0.052162 0.876568
Si Si5 0.177207 0.909917 0.577150
Si Si6 0.387693 0.457497 0.434547
Si Si7 0.992915 0.834858 0.750000
Si Si8 0.847217 0.372327 0.250000
O O1 0.329204 0.531793 0.897132
O O2 0.519750 0.451988 0.908331
O O3 0.384109 0.226441 0.907644
O O4 0.403752 0.435072 0.994747
O O5 0.115355 0.902871 0.516271
O O6 0.981779 0.762547 0.439680
O O7 0.161736 0.385165 0.609015
O O8 0.040483 0.266195 0.684289
O O9 0.132399 0.053197 0.617617
O O10 0.825194 0.221166 0.900805
O O11 0.786717 0.079542 0.806506
O O12 0.287515 0.952658 0.570475
O O13 0.106773 0.810514 0.750000
O O14 0.942767 0.014287 0.750000
#
# Coordination Sequence:
#
# PCOD9438158 Si02
#       8
#     8   4   8   8   8   8   4   4
#     4  10  20  39  63  95 133 164 214 267 328 400
#     4  12  28  40  64  96 142 174 224 280 338 392
#     4  11  27  44  63  95 132 180 223 282 330 397
#     4  11  24  42  66  94 131 169 220 277 331 402
#     4  12  25  40  64  95 131 176 218 270 341 394
#     4  10  21  37  64  95 130 171 209 267 330 403
#     4  10  24  44  64  89 127 176 234 273 321 395
#     4  10  24  42  66  93 125 174 228 279 327 385
#
# _framework density 20.449356000000002
#
# number of rings (size 3 to 8) (size 9 to 14) (size 15 to 20)
#    0.000    1.231    1.538    3.231   12.923    2.462 
#    0.000    0.000    0.000    4.615    0.000    0.000 
#    0.000    0.000    0.000    0.000    0.000    0.000 
#
# Total GULP energy -290218.171305 kJ/mol
# GULP energy per Si atom -5581.118679 kJ/mol
# Density = 2.040281 g / cm^3
# Si number density = 20.449356 Si / 1000 Ang^3
#
#
#
# Elastic Constant Matrix: (Units=GPa)
#
#
# Indices 1 2 3 4 5 6 
#
# 1 126.7838 33.9371 43.6440 0.0000 0.0000 0.0000
# 2 33.9371 94.6202 37.6454 0.0000 0.0000 0.0000
# 3 43.6440 37.6454 93.5622 0.0000 0.0000 0.0000
# 4 0.0000 0.0000 0.0000 21.3388 0.0000 0.0000
# 5 0.0000 0.0000 0.0000 0.0000 10.2534 0.0000
# 6 0.0000 0.0000 0.0000 0.0000 0.0000 19.5941
#
#
#
# Elastic Compliance Matrix: (Units=1/GPa)
#
#
# Indices 1 2 3 4 5 6 
#
# 1 0.009704 -0.002000 -0.003722 0.000000 0.000000 0.000000
# 2 -0.002000 0.012995 -0.004296 0.000000 0.000000 0.000000
# 3 -0.003722 -0.004296 0.014153 0.000000 0.000000 0.000000
# 4 0.000000 0.000000 0.000000 0.046863 0.000000 0.000000
# 5 0.000000 0.000000 0.000000 0.000000 0.097529 0.000000
# 6 0.000000 0.000000 0.000000 0.000000 0.000000 0.051036
#
#
# Mechanical properties :
#
#
# Convention : Reuss Voigt Hill
#
# Bulk Modulus (GPa) = 59.46499 60.60213 60.03356
# Shear Modulus (GPa) = 19.38588 23.55324 21.46956
#
# Velocity S-wave (km/s) = 3.08229 3.39748 3.24371
# Velocity P-wave (km/s) = 6.46604 6.71491 6.59165
#
# Compressibility (1/GPa) = 0.01681662
#
# Stress axis : x y z
#
# Youngs Moduli (GPa) = 103.05058 76.95332 70.65760
#
# Poissons Ratio (x) = 0.15388 0.26299
# Poissons Ratio (y) = 0.20606 0.30353
# Poissons Ratio (z) = 0.38356 0.33058
#
# Static dielectric constant tensor:
#      x y z
#    x 1.752580 0.000000 0.000000 
#    y 0.000000 1.800120 0.000000 
#    z 0.000000 0.000000 1.744690 
# 
# From -- ./inp_files/25360.got.cif
#   From: 2010.05.17/outbox.cif.g08.bks.cpg/sg57_13_cif.got.tgz:25360.got - 2010.06.03 13:58:18.
