data_PCOD9438731
_publ_section_title
;
Structure prediction by ZEFSAII (Michael W. Deem and Ramdas Pophale) SiO2 
 PCOD9438731
Probable space group: P B C M
;
_chemical_formula_sum "Si O2"
_cell_formula_units_Z 48
_cell_length_a 31.493789
_cell_length_b 9.421781
_cell_length_c 8.673391
_cell_angle_alpha 90.000000
_cell_angle_beta 90.000000
_cell_angle_gamma 90.000000
_cell_volume 2573.634346
_symmetry_space_group_name_H-M "P B C M"
_symmetry_group_IT_number 57
_symmetry_cell_setting 'orthorhombic'
loop_
_space_group_symop_operation_xyz
x,y,z
-x,-y,1/2+z
x,1/2-y,-z
-x,1/2+y,1/2-z
-x,-y,-z
x,y,1/2-z
-x,1/2+y,z
x,1/2-y,1/2+z
loop_
_atom_site_type_symbol
_atom_site_label
_atom_site_fract_x
_atom_site_fract_y
_atom_site_fract_z
Si Si1 0.960759 0.590418 0.564723
Si Si2 0.371912 0.908620 0.565866
Si Si3 0.801646 0.591411 0.434386
Si Si4 0.877748 0.091841 0.434664
Si Si5 0.461102 0.909879 0.065177
Si Si6 0.704313 0.908050 0.565147
O O1 0.960967 0.750000 0.500000
O O2 0.963373 0.596159 0.750000
O O3 0.917617 0.507528 0.521328
O O4 0.000000 0.500000 0.500000
O O5 0.367867 0.750000 0.500000
O O6 0.375253 0.905104 0.750000
O O7 0.415819 0.967873 0.495061
O O8 0.331055 0.995021 0.512049
O O9 0.808770 0.750000 0.500000
O O10 0.806067 0.596752 0.250000
O O11 0.835319 0.482683 0.503386
O O12 0.752974 0.549073 0.470834
O O13 0.882768 0.250000 0.500000
O O14 0.876208 0.099246 0.250000
O O15 0.461444 0.907432 0.250000
O O16 0.464522 0.750000 0.000000
O O17 0.500000 0.000000 0.000000
O O18 0.699150 0.750000 0.500000
O O19 0.699321 0.908980 0.750000
#
# Coordination Sequence:
#
# PCOD9438731 Si02
#       6
#     8   8   8   8   8   8
#     4  11  24  41  63  90 120 156 195 240 290 345
#     4  11  22  38  59  84 114 151 190 233 285 341
#     4  10  21  38  61  86 116 152 192 237 288 342
#     4  11  24  40  60  87 119 154 195 240 289 342
#     4  11  22  39  60  85 115 149 189 235 285 340
#     4  10  21  38  59  86 116 150 191 237 286 340
#
# _framework density 18.650669000000001
#
# number of rings (size 3 to 8) (size 9 to 14) (size 15 to 20)
#    0.000    1.333    0.000    7.000    0.000    8.667 
#    0.000    3.333    0.000    0.000    0.000    0.000 
#    0.000    0.000    0.000    0.000    0.000    0.000 
#
# Total GULP energy -268391.204572 kJ/mol
# GULP energy per Si atom -5591.483429 kJ/mol
# Density = 1.860822 g / cm^3
# Si number density = 18.650669 Si / 1000 Ang^3
#
#
#
# Elastic Constant Matrix: (Units=GPa)
#
#
# Indices 1 2 3 4 5 6 
#
# 1 178.4457 107.4975 83.9264 0.0000 0.0000 0.0000
# 2 107.4975 125.2719 59.3258 0.0000 0.0000 0.0000
# 3 83.9264 59.3258 130.7761 0.0000 0.0000 0.0000
# 4 0.0000 0.0000 0.0000 38.7355 0.0000 0.0000
# 5 0.0000 0.0000 0.0000 0.0000 32.9639 0.0000
# 6 0.0000 0.0000 0.0000 0.0000 0.0000 48.9553
#
#
#
# Elastic Compliance Matrix: (Units=1/GPa)
#
#
# Indices 1 2 3 4 5 6 
#
# 1 0.013230 -0.009338 -0.004254 0.000000 0.000000 0.000000
# 2 -0.009338 0.016758 -0.001609 0.000000 0.000000 0.000000
# 3 -0.004254 -0.001609 0.011107 0.000000 0.000000 0.000000
# 4 0.000000 0.000000 0.000000 0.025816 0.000000 0.000000
# 5 0.000000 0.000000 0.000000 0.000000 0.030336 0.000000
# 6 0.000000 0.000000 0.000000 0.000000 0.000000 0.020427
#
#
# Mechanical properties :
#
#
# Convention : Reuss Voigt Hill
#
# Bulk Modulus (GPa) = 93.53283 103.99920 98.76602
# Shear Modulus (GPa) = 32.97227 36.38056 34.67642
#
# Velocity S-wave (km/s) = 4.20919 4.42139 4.31659
# Velocity P-wave (km/s) = 8.59545 9.05249 8.82693
#
# Compressibility (1/GPa) = 0.01069143
#
# Stress axis : x y z
#
# Youngs Moduli (GPa) = 75.58334 59.67239 90.03363
#
# Poissons Ratio (x) = 0.55725 0.38304
# Poissons Ratio (y) = 0.70583 0.14489
# Poissons Ratio (z) = 0.32156 0.09603
#
# Static dielectric constant tensor:
#      x y z
#    x 1.644330 0.000000 0.000000 
#    y 0.000000 1.595460 0.000000 
#    z 0.000000 0.000000 1.622050 
# 
# From -- ./inp_files/9975.got.cif
#   From: 2010.05.17/outbox.cif.g08.bks.cpg/sg57_5_cif.got.tgz:9975.got - 2010.06.03 13:58:18.
