data_PCOD9438049
_publ_section_title
;
Structure prediction by ZEFSAII (Michael W. Deem and Ramdas Pophale) SiO2 
 PCOD9438049
Probable space group: P B C M
;
_chemical_formula_sum "Si O2"
_cell_formula_units_Z 40
_cell_length_a 13.773009
_cell_length_b 8.126585
_cell_length_c 15.781309
_cell_angle_alpha 90.000000
_cell_angle_beta 90.000000
_cell_angle_gamma 90.000000
_cell_volume 1766.362910
_symmetry_space_group_name_H-M "P B C M"
_symmetry_group_IT_number 57
_symmetry_cell_setting 'orthorhombic'
loop_
_space_group_symop_operation_xyz
x,y,z
-x,-y,1/2+z
x,1/2-y,-z
-x,1/2+y,1/2-z
-x,-y,-z
x,y,1/2-z
-x,1/2+y,z
x,1/2-y,1/2+z
loop_
_atom_site_type_symbol
_atom_site_label
_atom_site_fract_x
_atom_site_fract_y
_atom_site_fract_z
Si Si1 0.846708 0.234820 0.250000
Si Si2 0.527313 0.279049 0.594907
Si Si3 0.199367 0.179890 0.150863
Si Si4 0.963643 0.578758 0.250000
Si Si5 0.270344 0.843496 0.089323
Si Si6 0.639361 0.908218 0.345510
O O1 0.916732 0.397326 0.250000
O O2 0.782952 0.247605 0.334398
O O3 0.921398 0.084367 0.250000
O O4 0.491738 0.250000 0.500000
O O5 0.615208 0.151550 0.610029
O O6 0.583536 0.450950 0.603556
O O7 0.435505 0.244780 0.652729
O O8 0.234548 0.150811 0.250000
O O9 0.256911 0.341833 0.123269
O O10 0.084144 0.172297 0.168513
O O11 0.229046 0.027225 0.093206
O O12 0.258499 0.750000 0.000000
O O13 0.650379 0.970300 0.250000
#
# Coordination Sequence:
#
# PCOD9438049 Si02
#       6
#     4   8   8   4   8   8
#     4  10  20  38  63  84 121 156 199 254 300 366
#     4  11  24  38  54  85 126 163 197 248 300 352
#     4   8  18  38  59  85 122 154 199 249 301 351
#     4   8  18  36  61  88 117 156 189 250 314 350
#     4  10  21  38  60  87 120 163 201 246 305 361
#     4  11  22  36  63  90 116 159 208 242 294 364
#
# _framework density 22.645401
#
# number of rings (size 3 to 8) (size 9 to 14) (size 15 to 20)
#    0.600    1.600    1.000    2.400    2.800    4.800 
#    0.000    4.000    0.000    1.200    0.000    0.000 
#    0.000    0.000    0.000    0.000    0.000    0.000 
#
# Total GULP energy -223212.834578 kJ/mol
# GULP energy per Si atom -5580.320864 kJ/mol
# Density = 2.259386 g / cm^3
# Si number density = 22.645401 Si / 1000 Ang^3
#
#
#
# Elastic Constant Matrix: (Units=GPa)
#
#
# Indices 1 2 3 4 5 6 
#
# 1 53.5126 -18.7863 25.0376 0.0000 0.0000 0.0000
# 2 -18.7863 65.5039 23.3473 0.0000 0.0000 0.0000
# 3 25.0376 23.3473 88.5991 0.0000 0.0000 0.0000
# 4 0.0000 0.0000 0.0000 20.5050 0.0000 0.0000
# 5 0.0000 0.0000 0.0000 0.0000 11.9569 0.0000
# 6 0.0000 0.0000 0.0000 0.0000 0.0000 37.6683
#
#
#
# Elastic Compliance Matrix: (Units=1/GPa)
#
#
# Indices 1 2 3 4 5 6 
#
# 1 0.028105 0.012020 -0.011110 0.000000 0.000000 0.000000
# 2 0.012020 0.021990 -0.009192 0.000000 0.000000 0.000000
# 3 -0.011110 -0.009192 0.016848 0.000000 0.000000 0.000000
# 4 0.000000 0.000000 0.000000 0.048769 0.000000 0.000000
# 5 0.000000 0.000000 0.000000 0.000000 0.083634 0.000000
# 6 0.000000 0.000000 0.000000 0.000000 0.000000 0.026547
#
#
# Mechanical properties :
#
#
# Convention : Reuss Voigt Hill
#
# Bulk Modulus (GPa) = 19.84866 29.64587 24.74726
# Shear Modulus (GPa) = 19.28643 25.89383 22.59013
#
# Velocity S-wave (km/s) = 2.92151 3.38516 3.16184
# Velocity P-wave (km/s) = 4.49047 5.32906 4.92763
#
# Compressibility (1/GPa) = 0.05038125
#
# Stress axis : x y z
#
# Youngs Moduli (GPa) = 35.58062 45.47571 59.35247
#
# Poissons Ratio (x) = -0.54663 0.65940
# Poissons Ratio (y) = -0.42769 0.54554
# Poissons Ratio (z) = 0.39530 0.41799
#
# Static dielectric constant tensor:
#      x y z
#    x 1.849490 0.000000 0.000000 
#    y 0.000000 1.988430 0.000000 
#    z 0.000000 0.000000 1.847630 
# 
# From -- ./inp_files/22315.got.cif
#   From: 2010.05.17/outbox.cif.g08.bks.cpg/sg57_12_cif.got.tgz:22315.got - 2010.06.03 13:58:18.
