data_PCOD9438421
_publ_section_title
;
Structure prediction by ZEFSAII (Michael W. Deem and Ramdas Pophale) SiO2 
 PCOD9438421
Probable space group: P B C M
;
_chemical_formula_sum "Si O2"
_cell_formula_units_Z 48
_cell_length_a 21.651850
_cell_length_b 14.446787
_cell_length_c 9.028550
_cell_angle_alpha 90.000000
_cell_angle_beta 90.000000
_cell_angle_gamma 90.000000
_cell_volume 2824.127416
_symmetry_space_group_name_H-M "P B C M"
_symmetry_group_IT_number 57
_symmetry_cell_setting 'orthorhombic'
loop_
_space_group_symop_operation_xyz
x,y,z
-x,-y,1/2+z
x,1/2-y,-z
-x,1/2+y,1/2-z
-x,-y,-z
x,y,1/2-z
-x,1/2+y,z
x,1/2-y,1/2+z
loop_
_atom_site_type_symbol
_atom_site_label
_atom_site_fract_x
_atom_site_fract_y
_atom_site_fract_z
Si Si1 0.566958 0.499812 0.928571
Si Si2 0.229703 0.000278 0.571790
Si Si3 0.997688 0.149670 0.426862
Si Si4 0.903643 0.009759 0.926526
Si Si5 0.667936 0.849955 0.427971
Si Si6 0.667960 0.349928 0.572101
O O1 0.561813 0.499759 0.750000
O O2 0.608191 0.588992 0.971010
O O3 0.608041 0.410522 0.971241
O O4 0.500000 0.500000 0.000000
O O5 0.220676 0.000467 0.750000
O O6 0.164788 0.999087 0.490304
O O7 0.271902 0.911272 0.534005
O O8 0.271710 0.089285 0.533325
O O9 0.004151 0.250000 0.500000
O O10 0.990454 0.158336 0.250000
O O11 0.939990 0.093836 0.495509
O O12 0.056745 0.083488 0.456222
O O13 0.902890 0.024314 0.750000
O O14 0.668238 0.750000 0.500000
O O15 0.667075 0.841798 0.250000
O O16 0.668725 0.250000 0.500000
O O17 0.666949 0.341602 0.750000
#
# Coordination Sequence:
#
# PCOD9438421 Si02
#       6
#     8   8   8   8   8   8
#     4   9  19  35  52  73 102 134 168 207 253 303
#     4   9  19  36  54  73 103 139 170 207 256 306
#     4  10  21  37  56  78 106 139 174 213 257 306
#     4  10  21  36  55  80 107 136 173 215 258 306
#     4   9  19  35  53  74 102 135 171 211 255 304
#     4   9  19  35  53  74 101 133 169 208 251 300
#
# _framework density 16.996400000000001
#
# number of rings (size 3 to 8) (size 9 to 14) (size 15 to 20)
#    0.000    2.667    0.000    3.000    0.000    6.667 
#    0.000   11.667    0.000    0.000    0.000    0.000 
#    0.000    0.000    0.000    0.000    0.000    0.000 
#
# Total GULP energy -267766.571644 kJ/mol
# GULP energy per Si atom -5578.470243 kJ/mol
# Density = 1.695772 g / cm^3
# Si number density = 16.996400 Si / 1000 Ang^3
#
#
#
# Elastic Constant Matrix: (Units=GPa)
#
#
# Indices 1 2 3 4 5 6 
#
# 1 177.8216 93.0664 67.2001 0.0000 0.0000 0.0000
# 2 93.0664 182.1233 67.8879 0.0000 0.0000 0.0000
# 3 67.2001 67.8879 51.1522 0.0000 0.0000 0.0000
# 4 0.0000 0.0000 0.0000 37.6329 0.0000 0.0000
# 5 0.0000 0.0000 0.0000 0.0000 36.6984 0.0000
# 6 0.0000 0.0000 0.0000 0.0000 0.0000 5.1153
#
#
#
# Elastic Compliance Matrix: (Units=1/GPa)
#
#
# Indices 1 2 3 4 5 6 
#
# 1 0.011189 -0.000472 -0.014073 0.000000 0.000000 0.000000
# 2 -0.000472 0.010887 -0.013829 0.000000 0.000000 0.000000
# 3 -0.014073 -0.013829 0.056391 0.000000 0.000000 0.000000
# 4 0.000000 0.000000 0.000000 0.026572 0.000000 0.000000
# 5 0.000000 0.000000 0.000000 0.000000 0.027249 0.000000
# 6 0.000000 0.000000 0.000000 0.000000 0.000000 0.195491
#
#
# Mechanical properties :
#
#
# Convention : Reuss Voigt Hill
#
# Bulk Modulus (GPa) = 46.04208 96.37843 71.21026
# Shear Modulus (GPa) = 12.76275 28.08550 20.42413
#
# Velocity S-wave (km/s) = 2.74324 4.06943 3.47028
# Velocity P-wave (km/s) = 6.09770 8.88305 7.61875
#
# Compressibility (1/GPa) = 0.02171926
#
# Stress axis : x y z
#
# Youngs Moduli (GPa) = 89.37537 91.85598 17.73348
#
# Poissons Ratio (x) = 0.04333 0.24956
# Poissons Ratio (y) = 0.04216 0.24523
# Poissons Ratio (z) = 1.25777 1.27025
#
# Static dielectric constant tensor:
#      x y z
#    x 1.551900 0.000000 0.000000 
#    y 0.000000 1.553610 0.000000 
#    z 0.000000 0.000000 1.565480 
# 
# From -- ./inp_files/7876.got.cif
#   From: 2010.05.17/outbox.cif.g08.bks.cpg/sg57_4_cif.got.tgz:7876.got - 2010.06.03 13:58:18.
