data_PCOD9438926
_publ_section_title
;
Structure prediction by ZEFSAII (Michael W. Deem and Ramdas Pophale) SiO2 
 PCOD9438926
Probable space group: P B C M
;
_chemical_formula_sum "Si O2"
_cell_formula_units_Z 64
_cell_length_a 13.752363
_cell_length_b 8.772601
_cell_length_c 26.377635
_cell_angle_alpha 90.000000
_cell_angle_beta 90.000000
_cell_angle_gamma 90.000000
_cell_volume 3182.303223
_symmetry_space_group_name_H-M "P B C M"
_symmetry_group_IT_number 57
_symmetry_cell_setting 'orthorhombic'
loop_
_space_group_symop_operation_xyz
x,y,z
-x,-y,1/2+z
x,1/2-y,-z
-x,1/2+y,1/2-z
-x,-y,-z
x,y,1/2-z
-x,1/2+y,z
x,1/2-y,1/2+z
loop_
_atom_site_type_symbol
_atom_site_label
_atom_site_fract_x
_atom_site_fract_y
_atom_site_fract_z
Si Si1 0.538754 0.979048 0.189752
Si Si2 0.275941 0.281136 0.308515
Si Si3 0.937722 0.258599 0.123619
Si Si4 0.804558 0.448902 0.193367
Si Si5 0.871796 0.933467 0.380367
Si Si6 0.226675 0.836295 0.448788
Si Si7 0.363948 0.711754 0.649415
Si Si8 0.890617 0.570708 0.504668
O O1 0.519920 0.013822 0.250000
O O2 0.587572 0.124710 0.161862
O O3 0.613113 0.835427 0.188772
O O4 0.443832 0.918011 0.160907
O O5 0.245323 0.305307 0.250000
O O6 0.247937 0.107081 0.321354
O O7 0.217995 0.387542 0.346640
O O8 0.889127 0.389094 0.157744
O O9 0.918563 0.087917 0.141582
O O10 0.875935 0.271269 0.072130
O O11 0.049490 0.298362 0.119570
O O12 0.841239 0.466284 0.250000
O O13 0.722445 0.318949 0.189270
O O14 0.849158 0.958960 0.439150
O O15 0.256256 0.750000 0.500000
O O16 0.307526 0.812699 0.404648
O O17 0.188607 0.003862 0.465162
O O18 0.901226 0.750000 0.500000
O O19 0.000000 0.500000 0.500000
#
# Coordination Sequence:
#
# PCOD9438926 Si02
#       8
#     8   8   8   8   8   8   8   8
#     4  11  22  42  68 100 130 167 217 270 332 407
#     4  10  23  40  63  91 128 167 215 270 329 399
#     4  11  23  36  60  89 127 170 214 272 321 388
#     4  10  21  39  61  91 126 167 212 267 333 397
#     4  12  23  38  61  91 126 171 221 267 328 386
#     4  11  23  44  63  95 128 169 217 270 324 387
#     4  11  24  40  70  96 130 168 213 271 329 390
#     4  12  24  39  67  96 130 175 226 274 325 385
#
# _framework density 20.111221
#
# number of rings (size 3 to 8) (size 9 to 14) (size 15 to 20)
#    0.000    1.000    2.500    5.250    3.500    3.000 
#    0.000    0.625    0.000    0.000    0.000    0.000 
#    0.000    0.000    0.000    0.000    0.000    0.000 
#
# Total GULP energy -357123.485086 kJ/mol
# GULP energy per Si atom -5580.054454 kJ/mol
# Density = 2.006545 g / cm^3
# Si number density = 20.111221 Si / 1000 Ang^3
#
#
#
# Elastic Constant Matrix: (Units=GPa)
#
#
# Indices 1 2 3 4 5 6 
#
# 1 75.1193 10.2684 45.3417 0.0000 0.0000 0.0000
# 2 10.2684 101.4927 28.6232 0.0000 0.0000 0.0000
# 3 45.3417 28.6232 102.7582 0.0000 0.0000 0.0000
# 4 0.0000 0.0000 0.0000 26.5757 0.0000 0.0000
# 5 0.0000 0.0000 0.0000 0.0000 13.1709 0.0000
# 6 0.0000 0.0000 0.0000 0.0000 0.0000 34.7178
#
#
#
# Elastic Compliance Matrix: (Units=1/GPa)
#
#
# Indices 1 2 3 4 5 6 
#
# 1 0.018164 0.000459 -0.008143 0.000000 0.000000 0.000000
# 2 0.000459 0.010705 -0.003184 0.000000 0.000000 0.000000
# 3 -0.008143 -0.003184 0.014211 0.000000 0.000000 0.000000
# 4 0.000000 0.000000 0.000000 0.037628 0.000000 0.000000
# 5 0.000000 0.000000 0.000000 0.000000 0.075925 0.000000
# 6 0.000000 0.000000 0.000000 0.000000 0.000000 0.028804
#
#
# Mechanical properties :
#
#
# Convention : Reuss Voigt Hill
#
# Bulk Modulus (GPa) = 46.85155 49.75963 48.30559
# Shear Modulus (GPa) = 23.33307 27.90201 25.61754
#
# Velocity S-wave (km/s) = 3.40987 3.72880 3.57290
# Velocity P-wave (km/s) = 6.23296 6.58290 6.41032
#
# Compressibility (1/GPa) = 0.02134401
#
# Stress axis : x y z
#
# Youngs Moduli (GPa) = 55.05277 93.41858 70.36572
#
# Poissons Ratio (x) = -0.04285 0.57297
# Poissons Ratio (y) = -0.02525 0.22405
# Poissons Ratio (z) = 0.44828 0.29746
#
# Static dielectric constant tensor:
#      x y z
#    x 1.689180 0.000000 0.000000 
#    y 0.000000 1.788870 0.000000 
#    z 0.000000 0.000000 1.763340 
# 
# From -- ./inp_files/27505.got.cif
#   From: 2010.05.17/outbox.cif.g08.bks.cpg/sg57_14_cif.got.tgz:27505.got - 2010.06.03 13:58:18.
