data_PCOD9438305
_publ_section_title
;
Structure prediction by ZEFSAII (Michael W. Deem and Ramdas Pophale) SiO2 
 PCOD9438305
Probable space group: P B C M
;
_chemical_formula_sum "Si O2"
_cell_formula_units_Z 52
_cell_length_a 8.972421
_cell_length_b 11.697445
_cell_length_c 24.641422
_cell_angle_alpha 90.000000
_cell_angle_beta 90.000000
_cell_angle_gamma 90.000000
_cell_volume 2586.225690
_symmetry_space_group_name_H-M "P B C M"
_symmetry_group_IT_number 57
_symmetry_cell_setting 'orthorhombic'
loop_
_space_group_symop_operation_xyz
x,y,z
-x,-y,1/2+z
x,1/2-y,-z
-x,1/2+y,1/2-z
-x,-y,-z
x,y,1/2-z
-x,1/2+y,z
x,1/2-y,1/2+z
loop_
_atom_site_type_symbol
_atom_site_label
_atom_site_fract_x
_atom_site_fract_y
_atom_site_fract_z
Si Si1 0.159757 0.084512 0.463728
Si Si2 0.042687 0.086889 0.583263
Si Si3 0.322610 0.522579 0.370484
Si Si4 0.420621 0.573108 0.560029
Si Si5 0.357617 0.797332 0.250000
Si Si6 0.372903 0.250000 0.000000
Si Si7 0.216250 0.726309 0.865879
Si Si8 0.444458 0.966782 0.750000
O O1 0.069272 0.107121 0.519011
O O2 0.262676 0.195064 0.454955
O O3 0.285416 0.986216 0.472115
O O4 0.053791 0.031781 0.418126
O O5 0.941437 0.180117 0.612769
O O6 0.201092 0.069555 0.611016
O O7 0.471591 0.510534 0.406356
O O8 0.246940 0.643835 0.381132
O O9 0.360363 0.513892 0.306928
O O10 0.522896 0.651819 0.522979
O O11 0.340461 0.652145 0.603692
O O12 0.252497 0.788685 0.197335
O O13 0.460662 0.677397 0.250000
O O14 0.437073 0.924231 0.250000
#
# Coordination Sequence:
#
# PCOD9438305 Si02
#       8
#     8   8   8   8   4   4   8   4
#     4  10  23  39  54  84 124 165 209 251 304 380
#     4  10  23  41  55  85 128 167 205 250 313 381
#     4  11  22  40  66  91 127 163 213 271 324 388
#     4  11  22  38  60  92 122 161 215 265 316 376
#     4  10  20  43  68  98 126 164 214 273 332 394
#     4  12  22  34  62  90 118 164 216 262 308 378
#     4  10  23  40  64  89 125 167 206 263 329 383
#     4  10  22  41  68 102 126 162 216 277 336 392
#
# _framework density 20.10652
#
# number of rings (size 3 to 8) (size 9 to 14) (size 15 to 20)
#    0.000    1.538    3.077    1.385    4.308    0.615 
#    0.000    1.538    0.000    0.000    0.000    0.000 
#    0.000    0.000    0.000    0.000    0.000    0.000 
#
# Total GULP energy -289871.215363 kJ/mol
# GULP energy per Si atom -5574.446449 kJ/mol
# Density = 2.006076 g / cm^3
# Si number density = 20.106520 Si / 1000 Ang^3
#
#
#
# Elastic Constant Matrix: (Units=GPa)
#
#
# Indices 1 2 3 4 5 6 
#
# 1 97.6706 37.3276 23.2348 0.0000 0.0000 0.0000
# 2 37.3276 92.7335 25.2326 0.0000 0.0000 0.0000
# 3 23.2348 25.2326 69.6487 0.0000 0.0000 0.0000
# 4 0.0000 0.0000 0.0000 26.8424 0.0000 0.0000
# 5 0.0000 0.0000 0.0000 0.0000 -491.0370 0.0000
# 6 0.0000 0.0000 0.0000 0.0000 0.0000 -21.9552
#
#
#
# Elastic Compliance Matrix: (Units=1/GPa)
#
#
# Indices 1 2 3 4 5 6 
#
# 1 0.012512 -0.004327 -0.002606 0.000000 0.000000 0.000000
# 2 -0.004327 0.013459 -0.003433 0.000000 0.000000 0.000000
# 3 -0.002606 -0.003433 0.016471 0.000000 0.000000 0.000000
# 4 0.000000 0.000000 0.000000 0.037255 0.000000 0.000000
# 5 0.000000 0.000000 0.000000 0.000000 -0.002037 0.000000
# 6 0.000000 0.000000 0.000000 0.000000 0.000000 -0.045547
#
#
# Mechanical properties :
#
#
# Convention : Reuss Voigt Hill
#
# Bulk Modulus (GPa) = 46.06158 47.96030 47.01094
# Shear Modulus (GPa) = 83.21880 -85.61278 -1.19699
#
# Velocity S-wave (km/s) = 6.44040 -6.53238 -0.77241
# Velocity P-wave (km/s) = 8.84667 5.74379 4.75775
#
# Compressibility (1/GPa) = 0.02171007
#
# Stress axis : x y z
#
# Youngs Moduli (GPa) = 79.92104 74.29726 60.71342
#
# Poissons Ratio (x) = 0.32151 0.15824
# Poissons Ratio (y) = 0.34585 0.20840
# Poissons Ratio (z) = 0.20831 0.25503
#
# Static dielectric constant tensor:
#      x y z
#    x 1.722870 0.000000 0.000000 
#    y 0.000000 1.801030 0.000000 
#    z 0.000000 0.000000 1.710530 
# 
# From -- ./inp_files/28356.got.cif
#   From: 2010.05.17/outbox.cif.g08.bks.cpg/sg57_15_cif.got.tgz:28356.got - 2010.06.03 13:58:18.
