data_PCOD9438829
_publ_section_title
;
Structure prediction by ZEFSAII (Michael W. Deem and Ramdas Pophale) SiO2 
 PCOD9438829
Probable space group: P B C M
;
_chemical_formula_sum "Si O2"
_cell_formula_units_Z 48
_cell_length_a 16.554118
_cell_length_b 13.938871
_cell_length_c 9.893067
_cell_angle_alpha 90.000000
_cell_angle_beta 90.000000
_cell_angle_gamma 90.000000
_cell_volume 2282.782822
_symmetry_space_group_name_H-M "P B C M"
_symmetry_group_IT_number 57
_symmetry_cell_setting 'orthorhombic'
loop_
_space_group_symop_operation_xyz
x,y,z
-x,-y,1/2+z
x,1/2-y,-z
-x,1/2+y,1/2-z
-x,-y,-z
x,y,1/2-z
-x,1/2+y,z
x,1/2-y,1/2+z
loop_
_atom_site_type_symbol
_atom_site_label
_atom_site_fract_x
_atom_site_fract_y
_atom_site_fract_z
Si Si1 0.129736 0.291089 0.750000
Si Si2 0.778850 0.896322 0.520936
Si Si3 0.395930 0.155159 0.588838
Si Si4 0.119221 0.073573 0.750000
Si Si5 0.957738 0.358238 0.750000
Si Si6 0.252943 0.899404 0.101388
Si Si7 0.429160 0.653856 0.911297
Si Si8 0.875114 0.250000 0.000000
O O1 0.185384 0.313369 0.881419
O O2 0.088082 0.185290 0.750000
O O3 0.054591 0.363063 0.750000
O O4 0.687602 0.883471 0.469190
O O5 0.830075 0.920737 0.387993
O O6 0.777718 0.993142 0.606057
O O7 0.406689 0.250000 0.500000
O O8 0.386067 0.172097 0.750000
O O9 0.483190 0.104118 0.569200
O O10 0.074051 0.969727 0.750000
O O11 0.928598 0.294959 0.620831
O O12 0.255986 0.855362 0.250000
O O13 0.345795 0.899134 0.051673
O O14 0.187306 0.836526 0.026472
O O15 0.427515 0.675745 0.750000
O O16 0.426108 0.750000 0.000000
#
# Coordination Sequence:
#
# PCOD9438829 Si02
#       8
#     4   8   8   4   4   8   8   4
#     4  12  30  50  72 104 139 179 227 302 350 412
#     4  12  25  44  70  99 137 186 231 281 350 415
#     4  10  21  38  62  94 135 179 229 281 341 404
#     4  12  26  48  74 106 134 180 230 280 352 420
#     4  12  30  48  76 106 137 183 233 284 358 414
#     4  11  22  41  69 101 139 178 230 279 345 410
#     4   9  19  36  61  96 135 178 225 285 336 401
#     4  12  24  46  72 104 140 180 222 294 340 418
#
# _framework density 21.026968
#
# number of rings (size 3 to 8) (size 9 to 14) (size 15 to 20)
#    0.000    1.000    5.000    1.500    3.500    2.667 
#    1.500    0.000    0.000    0.000    0.000    0.000 
#    0.000    0.000    0.000    0.000    0.000    0.000 
#
# Total GULP energy -267212.309620 kJ/mol
# GULP energy per Si atom -5566.923117 kJ/mol
# Density = 2.097911 g / cm^3
# Si number density = 21.026968 Si / 1000 Ang^3
#
#
#
# Elastic Constant Matrix: (Units=GPa)
#
#
# Indices 1 2 3 4 5 6 
#
# 1 120.0026 28.7620 52.8585 0.0000 0.0000 0.0000
# 2 28.7620 97.7726 36.8091 0.0000 0.0000 0.0000
# 3 52.8585 36.8091 110.9142 0.0000 0.0000 0.0000
# 4 0.0000 0.0000 0.0000 24.1324 0.0000 0.0000
# 5 0.0000 0.0000 0.0000 0.0000 28.3734 0.0000
# 6 0.0000 0.0000 0.0000 0.0000 0.0000 27.3209
#
#
#
# Elastic Compliance Matrix: (Units=1/GPa)
#
#
# Indices 1 2 3 4 5 6 
#
# 1 0.010713 -0.001405 -0.004639 0.000000 0.000000 0.000000
# 2 -0.001405 0.011872 -0.003271 0.000000 0.000000 0.000000
# 3 -0.004639 -0.003271 0.012312 0.000000 0.000000 0.000000
# 4 0.000000 0.000000 0.000000 0.041438 0.000000 0.000000
# 5 0.000000 0.000000 0.000000 0.000000 0.035244 0.000000
# 6 0.000000 0.000000 0.000000 0.000000 0.000000 0.036602
#
#
# Mechanical properties :
#
#
# Convention : Reuss Voigt Hill
#
# Bulk Modulus (GPa) = 61.46901 62.83874 62.15388
# Shear Modulus (GPa) = 29.03004 29.98265 29.50634
#
# Velocity S-wave (km/s) = 3.71969 3.78022 3.75008
# Velocity P-wave (km/s) = 6.90977 7.00023 6.95515
#
# Compressibility (1/GPa) = 0.01626836
#
# Stress axis : x y z
#
# Youngs Moduli (GPa) = 93.34040 84.22901 81.21893
#
# Poissons Ratio (x) = 0.11834 0.37681
# Poissons Ratio (y) = 0.13114 0.26563
# Poissons Ratio (z) = 0.43305 0.27547
#
# Static dielectric constant tensor:
#      x y z
#    x 1.827750 0.000000 0.000000 
#    y 0.000000 1.750250 0.000000 
#    z 0.000000 0.000000 1.781530 
# 
# From -- ./inp_files/6638.got.cif
#   From: 2010.05.17/outbox.cif.g08.bks.cpg/sg57_4_cif.got.tgz:6638.got - 2010.06.03 13:58:18.
