data_PCOD9438327
_publ_section_title
;
Structure prediction by ZEFSAII (Michael W. Deem and Ramdas Pophale) SiO2 
 PCOD9438327
Probable space group: P B C M
;
_chemical_formula_sum "Si O2"
_cell_formula_units_Z 48
_cell_length_a 15.381668
_cell_length_b 20.987671
_cell_length_c 8.783551
_cell_angle_alpha 90.000000
_cell_angle_beta 90.000000
_cell_angle_gamma 90.000000
_cell_volume 2835.553254
_symmetry_space_group_name_H-M "P B C M"
_symmetry_group_IT_number 57
_symmetry_cell_setting 'orthorhombic'
loop_
_space_group_symop_operation_xyz
x,y,z
-x,-y,1/2+z
x,1/2-y,-z
-x,1/2+y,1/2-z
-x,-y,-z
x,y,1/2-z
-x,1/2+y,z
x,1/2-y,1/2+z
loop_
_atom_site_type_symbol
_atom_site_label
_atom_site_fract_x
_atom_site_fract_y
_atom_site_fract_z
Si Si1 0.701521 0.342102 0.573290
Si Si2 0.925603 0.045432 0.434047
Si Si3 0.885993 0.182719 0.930799
Si Si4 0.493546 0.814640 0.933409
Si Si5 0.567776 0.550531 0.068732
Si Si6 0.732265 0.491610 0.925365
O O1 0.716514 0.322416 0.750000
O O2 0.783463 0.321529 0.473876
O O3 0.607732 0.319426 0.519210
O O4 0.698609 0.418771 0.572720
O O5 0.928931 0.048482 0.250000
O O6 0.926461 0.117941 0.497772
O O7 0.832046 0.014570 0.476800
O O8 0.000000 0.000000 0.500000
O O9 0.897336 0.182323 0.750000
O O10 0.918253 0.250000 0.000000
O O11 0.494253 0.812573 0.750000
O O12 0.541673 0.878713 0.983220
O O13 0.531550 0.750000 0.000000
O O14 0.558823 0.548020 0.250000
O O15 0.500000 0.500000 0.000000
O O16 0.665277 0.532635 0.021342
O O17 0.730965 0.513508 0.750000
#
# Coordination Sequence:
#
# PCOD9438327 Si02
#       6
#     8   8   8   8   8   8
#     4   9  17  32  49  71 106 139 172 216 264 315
#     4  10  21  38  59  83 112 141 176 224 275 328
#     4  11  21  33  51  78 110 144 180 216 266 326
#     4  10  21  34  47  69 102 139 179 223 266 311
#     4  11  21  34  52  75 104 139 181 222 261 313
#     4   9  18  34  54  78 107 137 171 219 266 310
#
# _framework density 16.927913
#
# number of rings (size 3 to 8) (size 9 to 14) (size 15 to 20)
#    0.000    2.000    1.667    4.000    0.000    6.667 
#    0.000    0.000    0.000    1.000    0.000    2.333 
#    0.000    0.000    0.000    0.000    0.000    0.000 
#
# Total GULP energy -267811.240323 kJ/mol
# GULP energy per Si atom -5579.400840 kJ/mol
# Density = 1.688938 g / cm^3
# Si number density = 16.927913 Si / 1000 Ang^3
#
#
#
# Elastic Constant Matrix: (Units=GPa)
#
#
# Indices 1 2 3 4 5 6 
#
# 1 84.1363 71.9286 37.2939 0.0000 0.0000 0.0000
# 2 71.9286 148.6155 52.2374 0.0000 0.0000 0.0000
# 3 37.2939 52.2374 64.9001 0.0000 0.0000 0.0000
# 4 0.0000 0.0000 0.0000 29.4218 0.0000 0.0000
# 5 0.0000 0.0000 0.0000 0.0000 25.0090 0.0000
# 6 0.0000 0.0000 0.0000 0.0000 0.0000 19.4174
#
#
#
# Elastic Compliance Matrix: (Units=1/GPa)
#
#
# Indices 1 2 3 4 5 6 
#
# 1 0.021634 -0.008508 -0.005584 0.000000 0.000000 0.000000
# 2 -0.008508 0.012729 -0.005357 0.000000 0.000000 0.000000
# 3 -0.005584 -0.005357 0.022928 0.000000 0.000000 0.000000
# 4 0.000000 0.000000 0.000000 0.033988 0.000000 0.000000
# 5 0.000000 0.000000 0.000000 0.000000 0.039986 0.000000
# 6 0.000000 0.000000 0.000000 0.000000 0.000000 0.051500
#
#
# Mechanical properties :
#
#
# Convention : Reuss Voigt Hill
#
# Bulk Modulus (GPa) = 54.36255 68.95242 61.65749
# Shear Modulus (GPa) = 21.94956 23.84909 22.89932
#
# Velocity S-wave (km/s) = 3.60481 3.75755 3.68197
# Velocity P-wave (km/s) = 7.03634 7.72315 7.38773
#
# Compressibility (1/GPa) = 0.01839502
#
# Stress axis : x y z
#
# Youngs Moduli (GPa) = 46.22333 78.55774 43.61387
#
# Poissons Ratio (x) = 0.66838 0.24352
# Poissons Ratio (y) = 0.39327 0.23363
# Poissons Ratio (z) = 0.25810 0.42082
#
# Static dielectric constant tensor:
#      x y z
#    x 1.560420 0.000000 0.000000 
#    y 0.000000 1.585710 0.000000 
#    z 0.000000 0.000000 1.578080 
# 
# From -- ./inp_files/4915.got.cif
#   From: 2010.05.17/outbox.cif.g08.bks.cpg/sg57_3_cif.got.tgz:4915.got - 2010.06.03 13:58:18.
