data_PCOD9438112
_publ_section_title
;
Structure prediction by ZEFSAII (Michael W. Deem and Ramdas Pophale) SiO2 
 PCOD9438112
Probable space group: P B C M
;
_chemical_formula_sum "Si O2"
_cell_formula_units_Z 64
_cell_length_a 10.568710
_cell_length_b 16.539946
_cell_length_c 15.258465
_cell_angle_alpha 90.000000
_cell_angle_beta 90.000000
_cell_angle_gamma 90.000000
_cell_volume 2667.269595
_symmetry_space_group_name_H-M "P B C M"
_symmetry_group_IT_number 57
_symmetry_cell_setting 'orthorhombic'
loop_
_space_group_symop_operation_xyz
x,y,z
-x,-y,1/2+z
x,1/2-y,-z
-x,1/2+y,1/2-z
-x,-y,-z
x,y,1/2-z
-x,1/2+y,z
x,1/2-y,1/2+z
loop_
_atom_site_type_symbol
_atom_site_label
_atom_site_fract_x
_atom_site_fract_y
_atom_site_fract_z
Si Si1 0.149755 0.939619 0.651813
Si Si2 0.734134 0.898906 0.095852
Si Si3 0.806948 0.379962 0.353693
Si Si4 0.911342 0.881039 0.574994
Si Si5 0.447564 0.337142 0.521696
Si Si6 0.666018 0.288993 0.849876
Si Si7 0.054417 0.208455 0.849777
Si Si8 0.689517 0.957650 0.847984
O O1 0.097181 0.950625 0.750000
O O2 0.224556 0.855792 0.648943
O O3 0.036726 0.934242 0.582652
O O4 0.244172 0.013108 0.634355
O O5 0.807097 0.831846 0.152327
O O6 0.821418 0.892897 0.008238
O O7 0.589095 0.881675 0.069359
O O8 0.818684 0.399166 0.250000
O O9 0.725100 0.299254 0.363377
O O10 0.948810 0.356106 0.382723
O O11 0.732351 0.456920 0.390967
O O12 0.820349 0.908191 0.653915
O O13 0.945776 0.788112 0.591854
O O14 0.380620 0.250000 0.500000
O O15 0.574536 0.309305 0.569745
O O16 0.398922 0.401990 0.592986
O O17 0.609789 0.291042 0.750000
O O18 0.016500 0.230052 0.750000
O O19 0.637611 0.969123 0.750000
#
# Coordination Sequence:
#
# PCOD9438112 Si02
#       8
#     8   8   8   8   8   8   8   8
#     4  11  22  41  67  95 129 173 225 279 334 400
#     4  11  24  40  60  95 142 173 217 272 336 408
#     4   9  19  38  66 103 131 159 220 285 331 389
#     4  11  21  37  61  98 142 176 212 266 339 407
#     4  11  25  47  63  90 132 175 221 272 331 404
#     4  10  22  46  72  93 123 170 229 282 333 399
#     4  11  20  37  67 101 140 181 223 271 327 405
#     4  10  20  38  69 100 130 172 219 272 332 396
#
# _framework density 23.994575000000001
#
# number of rings (size 3 to 8) (size 9 to 14) (size 15 to 20)
#    0.000    1.500    1.250    4.875    0.000    2.500 
#    9.000    1.875    0.000    0.000    0.000    0.000 
#    0.000    0.000    0.000    0.000    0.000    0.000 
#
# Total GULP energy -357315.815650 kJ/mol
# GULP energy per Si atom -5583.059620 kJ/mol
# Density = 2.393996 g / cm^3
# Si number density = 23.994575 Si / 1000 Ang^3
#
#
#
# Elastic Constant Matrix: (Units=GPa)
#
#
# Indices 1 2 3 4 5 6 
#
# 1 46.3417 -15.5543 22.3429 0.0000 0.0000 0.0000
# 2 -15.5543 82.2906 14.8916 0.0000 0.0000 0.0000
# 3 22.3429 14.8916 74.1328 0.0000 0.0000 0.0000
# 4 0.0000 0.0000 0.0000 18.3578 0.0000 0.0000
# 5 0.0000 0.0000 0.0000 0.0000 20.4808 0.0000
# 6 0.0000 0.0000 0.0000 0.0000 0.0000 -3.6008
#
#
#
# Elastic Compliance Matrix: (Units=1/GPa)
#
#
# Indices 1 2 3 4 5 6 
#
# 1 0.028950 0.007317 -0.010195 0.000000 0.000000 0.000000
# 2 0.007317 0.014460 -0.005110 0.000000 0.000000 0.000000
# 3 -0.010195 -0.005110 0.017589 0.000000 0.000000 0.000000
# 4 0.000000 0.000000 0.000000 0.054473 0.000000 0.000000
# 5 0.000000 0.000000 0.000000 0.000000 0.048826 0.000000
# 6 0.000000 0.000000 0.000000 0.000000 0.000000 -0.277714
#
#
# Mechanical properties :
#
#
# Convention : Reuss Voigt Hill
#
# Bulk Modulus (GPa) = 22.21117 27.34729 24.77923
# Shear Modulus (GPa) = -60.65541 19.11987 -20.76777
#
# Velocity S-wave (km/s) = -5.03326 2.82590 -2.94516
# Velocity P-wave (km/s) = 4.94989 4.69783 1.10267
#
# Compressibility (1/GPa) = 0.04502238
#
# Stress axis : x y z
#
# Youngs Moduli (GPa) = 34.54210 69.15716 56.85530
#
# Poissons Ratio (x) = -0.50603 0.57965
# Poissons Ratio (y) = -0.25275 0.29053
# Poissons Ratio (z) = 0.35216 0.35339
#
# Static dielectric constant tensor:
#      x y z
#    x 1.945270 0.000000 0.000000 
#    y 0.000000 1.905330 0.000000 
#    z 0.000000 0.000000 1.968580 
# 
# From -- ./inp_files/22105.got.cif
#   From: 2010.05.17/outbox.cif.g08.bks.cpg/sg57_12_cif.got.tgz:22105.got - 2010.06.03 13:58:18.
