data_PCOD9438857
_publ_section_title
;
Structure prediction by ZEFSAII (Michael W. Deem and Ramdas Pophale) SiO2 
 PCOD9438857
Probable space group: P B C M
;
_chemical_formula_sum "Si O2"
_cell_formula_units_Z 32
_cell_length_a 5.206561
_cell_length_b 16.702134
_cell_length_c 15.973602
_cell_angle_alpha 90.000000
_cell_angle_beta 90.000000
_cell_angle_gamma 90.000000
_cell_volume 1389.075284
_symmetry_space_group_name_H-M "P B C M"
_symmetry_group_IT_number 57
_symmetry_cell_setting 'orthorhombic'
loop_
_space_group_symop_operation_xyz
x,y,z
-x,-y,1/2+z
x,1/2-y,-z
-x,1/2+y,1/2-z
-x,-y,-z
x,y,1/2-z
-x,1/2+y,z
x,1/2-y,1/2+z
loop_
_atom_site_type_symbol
_atom_site_label
_atom_site_fract_x
_atom_site_fract_y
_atom_site_fract_z
Si Si1 0.180552 0.530504 0.096442
Si Si2 0.486395 0.782929 0.406669
Si Si3 0.318928 0.964842 0.097099
Si Si4 0.002657 0.198208 0.345113
O O1 0.465342 0.523453 0.135354
O O2 0.052290 0.617312 0.103511
O O3 0.966508 0.471412 0.134948
O O4 0.249250 0.513158 0.999372
O O5 0.437162 0.750000 0.500000
O O6 0.447868 0.877976 0.403344
O O7 0.262753 0.746309 0.349972
O O8 0.765514 0.751083 0.380889
O O9 0.062246 0.175892 0.250000
#
# Coordination Sequence:
#
# PCOD9438857 Si02
#       4
#     8   8   8   8
#     4  10  21  39  64  95 127 166 213 277 326 393
#     4  12  24  42  69 101 129 176 225 282 328 397
#     4  10  21  38  65  98 124 158 225 277 319 376
#     4  12  26  44  64  96 139 179 217 273 350 409
#
# _framework density 23.036906999999999
#
# number of rings (size 3 to 8) (size 9 to 14) (size 15 to 20)
#    0.000    1.000    2.500    4.500    7.000    0.000 
#    0.000    7.500    0.000    0.000    0.000    0.000 
#    0.000    0.000    0.000    0.000    0.000    0.000 
#
# Total GULP energy -178712.561900 kJ/mol
# GULP energy per Si atom -5584.767559 kJ/mol
# Density = 2.298447 g / cm^3
# Si number density = 23.036907 Si / 1000 Ang^3
#
#
#
# Elastic Constant Matrix: (Units=GPa)
#
#
# Indices 1 2 3 4 5 6 
#
# 1 208.9455 71.2022 20.5948 0.0000 0.0000 0.0000
# 2 71.2022 95.3441 -11.9954 0.0000 0.0000 0.0000
# 3 20.5948 -11.9954 45.5517 0.0000 0.0000 0.0000
# 4 0.0000 0.0000 0.0000 -6.8031 0.0000 0.0000
# 5 0.0000 0.0000 0.0000 0.0000 4.3406 0.0000
# 6 0.0000 0.0000 0.0000 0.0000 0.0000 45.7350
#
#
#
# Elastic Compliance Matrix: (Units=1/GPa)
#
#
# Indices 1 2 3 4 5 6 
#
# 1 0.007356 -0.006114 -0.004936 0.000000 0.000000 0.000000
# 2 -0.006114 0.015930 0.006959 0.000000 0.000000 0.000000
# 3 -0.004936 0.006959 0.026017 0.000000 0.000000 0.000000
# 4 0.000000 0.000000 0.000000 -0.146992 0.000000 0.000000
# 5 0.000000 0.000000 0.000000 0.000000 0.230384 0.000000
# 6 0.000000 0.000000 0.000000 0.000000 0.000000 0.021865
#
#
# Mechanical properties :
#
#
# Convention : Reuss Voigt Hill
#
# Bulk Modulus (GPa) = 24.31808 56.60494 40.46151
# Shear Modulus (GPa) = 28.33667 26.65714 27.49691
#
# Velocity S-wave (km/s) = 3.51102 3.40538 3.45860
# Velocity P-wave (km/s) = 5.19763 6.33142 5.79234
#
# Compressibility (1/GPa) = 0.04112167
#
# Stress axis : x y z
#
# Youngs Moduli (GPa) = 135.94195 62.77408 38.43576
#
# Poissons Ratio (x) = 0.38383 0.18972
# Poissons Ratio (y) = 0.83121 -0.26749
# Poissons Ratio (z) = 0.67101 -0.43687
#
# Static dielectric constant tensor:
#      x y z
#    x 1.958450 0.000000 0.000000 
#    y 0.000000 1.879920 0.000000 
#    z 0.000000 0.000000 1.862910 
# 
# From -- ./inp_files/14823.got.cif
#   From: 2010.05.17/outbox.cif.g08.bks.cpg/sg57_8_cif.got.tgz:14823.got - 2010.06.03 13:58:18.
