data_PCOD9438219
_publ_section_title
;
Structure prediction by ZEFSAII (Michael W. Deem and Ramdas Pophale) SiO2 
 PCOD9438219
Probable space group: P B C M
;
_chemical_formula_sum "Si O2"
_cell_formula_units_Z 40
_cell_length_a 8.620850
_cell_length_b 9.418718
_cell_length_c 22.507217
_cell_angle_alpha 90.000000
_cell_angle_beta 90.000000
_cell_angle_gamma 90.000000
_cell_volume 1827.526490
_symmetry_space_group_name_H-M "P B C M"
_symmetry_group_IT_number 57
_symmetry_cell_setting 'orthorhombic'
loop_
_space_group_symop_operation_xyz
x,y,z
-x,-y,1/2+z
x,1/2-y,-z
-x,1/2+y,1/2-z
-x,-y,-z
x,y,1/2-z
-x,1/2+y,z
x,1/2-y,1/2+z
loop_
_atom_site_type_symbol
_atom_site_label
_atom_site_fract_x
_atom_site_fract_y
_atom_site_fract_z
Si Si1 0.017911 0.969287 0.569797
Si Si2 0.525760 0.561949 0.883357
Si Si3 0.288693 0.320919 0.750000
Si Si4 0.487613 0.928790 0.250000
Si Si5 0.333406 0.703895 0.067981
Si Si6 0.173392 0.266932 0.122285
O O1 0.169416 0.870799 0.580485
O O2 0.872872 0.877406 0.590392
O O3 0.046621 0.112796 0.606660
O O4 0.000000 0.000000 0.500000
O O5 0.550753 0.522910 0.814197
O O6 0.375174 0.658602 0.892784
O O7 0.539823 0.418662 0.919929
O O8 0.668344 0.663158 0.901243
O O9 0.456712 0.236770 0.750000
O O10 0.322070 0.489728 0.750000
O O11 0.200488 0.269589 0.808748
O O12 0.336178 0.750000 0.000000
#
# Coordination Sequence:
#
# PCOD9438219 Si02
#       6
#     8   8   4   4   8   8
#     4  11  24  43  63  86 126 170 205 250 314 372
#     4  10  22  39  62  92 122 157 206 259 306 368
#     4  10  22  40  64  94 128 162 204 258 308 368
#     4  10  20  40  64  88 126 162 192 246 320 362
#     4  11  23  38  60  90 123 160 207 257 309 365
#     4  10  23  41  62  90 123 162 208 254 306 367
#
# _framework density 21.887506999999999
#
# number of rings (size 3 to 8) (size 9 to 14) (size 15 to 20)
#    0.000    1.600    0.000    4.800    0.000   10.400 
#    0.000    2.000    0.000    0.000    0.000    0.000 
#    0.000    0.000    0.000    0.000    0.000    0.000 
#
# Total GULP energy -223263.146150 kJ/mol
# GULP energy per Si atom -5581.578654 kJ/mol
# Density = 2.183769 g / cm^3
# Si number density = 21.887507 Si / 1000 Ang^3
#
#
#
# Elastic Constant Matrix: (Units=GPa)
#
#
# Indices 1 2 3 4 5 6 
#
# 1 45.9353 48.4015 15.7582 0.0000 0.0000 0.0000
# 2 48.4015 125.3239 57.5506 0.0000 0.0000 0.0000
# 3 15.7582 57.5506 93.0697 0.0000 0.0000 0.0000
# 4 0.0000 0.0000 0.0000 34.2364 0.0000 0.0000
# 5 0.0000 0.0000 0.0000 0.0000 11.9599 0.0000
# 6 0.0000 0.0000 0.0000 0.0000 0.0000 65.5192
#
#
#
# Elastic Compliance Matrix: (Units=1/GPa)
#
#
# Indices 1 2 3 4 5 6 
#
# 1 0.037574 -0.016186 0.003647 0.000000 0.000000 0.000000
# 2 -0.016186 0.018116 -0.008462 0.000000 0.000000 0.000000
# 3 0.003647 -0.008462 0.015360 0.000000 0.000000 0.000000
# 4 0.000000 0.000000 0.000000 0.029209 0.000000 0.000000
# 5 0.000000 0.000000 0.000000 0.000000 0.083612 0.000000
# 6 0.000000 0.000000 0.000000 0.000000 0.000000 0.015263
#
#
# Mechanical properties :
#
#
# Convention : Reuss Voigt Hill
#
# Bulk Modulus (GPa) = 34.42601 56.41661 45.42131
# Shear Modulus (GPa) = 19.93472 31.85100 25.89286
#
# Velocity S-wave (km/s) = 3.02119 3.81886 3.44320
# Velocity P-wave (km/s) = 5.28515 6.72879 6.05019
#
# Compressibility (1/GPa) = 0.02904781
#
# Stress axis : x y z
#
# Youngs Moduli (GPa) = 26.61419 55.19841 65.10576
#
# Poissons Ratio (x) = 0.89346 -0.23744
# Poissons Ratio (y) = 0.43078 0.55092
# Poissons Ratio (z) = -0.09706 0.46708
#
# Static dielectric constant tensor:
#      x y z
#    x 1.851530 0.000000 0.000000 
#    y 0.000000 1.821340 0.000000 
#    z 0.000000 0.000000 1.747610 
# 
# From -- ./inp_files/26538.got.cif
#   From: 2010.05.17/outbox.cif.g08.bks.cpg/sg57_14_cif.got.tgz:26538.got - 2010.06.03 13:58:18.
