data_PCOD9438931
_publ_section_title
;
Structure prediction by ZEFSAII (Michael W. Deem and Ramdas Pophale) SiO2 
 PCOD9438931
Probable space group: P B C M
;
_chemical_formula_sum "Si O2"
_cell_formula_units_Z 48
_cell_length_a 12.048251
_cell_length_b 26.395686
_cell_length_c 8.855174
_cell_angle_alpha 90.000000
_cell_angle_beta 90.000000
_cell_angle_gamma 90.000000
_cell_volume 2816.138820
_symmetry_space_group_name_H-M "P B C M"
_symmetry_group_IT_number 57
_symmetry_cell_setting 'orthorhombic'
loop_
_space_group_symop_operation_xyz
x,y,z
-x,-y,1/2+z
x,1/2-y,-z
-x,1/2+y,1/2-z
-x,-y,-z
x,y,1/2-z
-x,1/2+y,z
x,1/2-y,1/2+z
loop_
_atom_site_type_symbol
_atom_site_label
_atom_site_fract_x
_atom_site_fract_y
_atom_site_fract_z
Si Si1 0.326593 0.805785 0.568316
Si Si2 0.270755 0.426371 0.425100
Si Si3 0.665754 0.041412 0.424116
Si Si4 0.965500 0.554544 0.070210
Si Si5 0.474741 0.119247 0.428083
Si Si6 0.836450 0.113277 0.571844
O O1 0.327151 0.750000 0.500000
O O2 0.319033 0.804706 0.750000
O O3 0.440461 0.835876 0.528487
O O4 0.225090 0.838655 0.501744
O O5 0.242456 0.417924 0.250000
O O6 0.328951 0.481510 0.436842
O O7 0.158513 0.430837 0.520383
O O8 0.360677 0.386118 0.482734
O O9 0.698606 0.054750 0.250000
O O10 0.548316 0.068282 0.449554
O O11 0.752892 0.066742 0.536714
O O12 0.974730 0.550785 0.250000
O O13 0.000000 0.500000 0.000000
O O14 0.049698 0.596642 0.006347
O O15 0.450831 0.123714 0.250000
O O16 0.850520 0.120132 0.750000
#
# Coordination Sequence:
#
# PCOD9438931 Si02
#       6
#     8   8   8   8   8   8
#     4  10  21  39  62  86 111 140 179 230 282 332
#     4  11  21  32  50  76 109 149 188 223 266 322
#     4   9  18  32  49  72 108 147 183 224 265 315
#     4  12  23  36  53  76 110 151 191 229 271 325
#     4   9  19  34  51  76 109 143 179 223 274 324
#     4  11  21  34  55  82 110 145 186 228 276 327
#
# _framework density 17.044613999999999
#
# number of rings (size 3 to 8) (size 9 to 14) (size 15 to 20)
#    0.000    1.667    1.667    5.500    0.000    4.000 
#    0.000    0.000    0.000    1.000    0.000    4.667 
#    0.000    0.000    0.000    0.000    0.000    0.000 
#
# Total GULP energy -267955.330035 kJ/mol
# GULP energy per Si atom -5582.402709 kJ/mol
# Density = 1.700582 g / cm^3
# Si number density = 17.044614 Si / 1000 Ang^3
#
#
#
# Elastic Constant Matrix: (Units=GPa)
#
#
# Indices 1 2 3 4 5 6 
#
# 1 103.7390 57.9527 67.9085 0.0000 0.0000 0.0000
# 2 57.9527 90.1902 55.3775 0.0000 0.0000 0.0000
# 3 67.9085 55.3775 121.2844 0.0000 0.0000 0.0000
# 4 0.0000 0.0000 0.0000 24.6970 0.0000 0.0000
# 5 0.0000 0.0000 0.0000 0.0000 30.4863 0.0000
# 6 0.0000 0.0000 0.0000 0.0000 0.0000 8.4135
#
#
#
# Elastic Compliance Matrix: (Units=1/GPa)
#
#
# Indices 1 2 3 4 5 6 
#
# 1 0.018339 -0.007614 -0.006792 0.000000 0.000000 0.000000
# 2 -0.007614 0.018568 -0.004215 0.000000 0.000000 0.000000
# 3 -0.006792 -0.004215 0.013972 0.000000 0.000000 0.000000
# 4 0.000000 0.000000 0.000000 0.040491 0.000000 0.000000
# 5 0.000000 0.000000 0.000000 0.000000 0.032802 0.000000
# 6 0.000000 0.000000 0.000000 0.000000 0.000000 0.118857
#
#
# Mechanical properties :
#
#
# Convention : Reuss Voigt Hill
#
# Bulk Modulus (GPa) = 73.32274 75.29900 74.31087
# Shear Modulus (GPa) = 17.55526 21.65103 19.60314
#
# Velocity S-wave (km/s) = 3.21278 3.56793 3.39500
# Velocity P-wave (km/s) = 7.54149 7.82605 7.68509
#
# Compressibility (1/GPa) = 0.01363833
#
# Stress axis : x y z
#
# Youngs Moduli (GPa) = 54.52923 53.85625 71.56949
#
# Poissons Ratio (x) = 0.41004 0.48608
# Poissons Ratio (y) = 0.41516 0.30167
# Poissons Ratio (z) = 0.37035 0.22701
#
# Static dielectric constant tensor:
#      x y z
#    x 1.581390 0.000000 0.000000 
#    y 0.000000 1.562360 0.000000 
#    z 0.000000 0.000000 1.579350 
# 
# From -- ./inp_files/3261.got.cif
#   From: 2010.05.17/outbox.cif.g08.bks.cpg/sg57_2_cif.got.tgz:3261.got - 2010.06.03 13:58:18.
