data_PCOD9438789
_publ_section_title
;
Structure prediction by ZEFSAII (Michael W. Deem and Ramdas Pophale) SiO2 
 PCOD9438789
Probable space group: P B C M
;
_chemical_formula_sum "Si O2"
_cell_formula_units_Z 48
_cell_length_a 14.841640
_cell_length_b 9.175880
_cell_length_c 18.077263
_cell_angle_alpha 90.000000
_cell_angle_beta 90.000000
_cell_angle_gamma 90.000000
_cell_volume 2461.854008
_symmetry_space_group_name_H-M "P B C M"
_symmetry_group_IT_number 57
_symmetry_cell_setting 'orthorhombic'
loop_
_space_group_symop_operation_xyz
x,y,z
-x,-y,1/2+z
x,1/2-y,-z
-x,1/2+y,1/2-z
-x,-y,-z
x,y,1/2-z
-x,1/2+y,z
x,1/2-y,1/2+z
loop_
_atom_site_type_symbol
_atom_site_label
_atom_site_fract_x
_atom_site_fract_y
_atom_site_fract_z
Si Si1 0.298987 0.384593 0.165232
Si Si2 0.589847 0.917146 0.023845
Si Si3 0.123954 0.965933 0.604128
Si Si4 0.980354 0.751953 0.410458
Si Si5 0.237424 0.587823 0.967767
Si Si6 0.187212 0.088605 0.337391
O O1 0.325660 0.397551 0.250000
O O2 0.380189 0.418953 0.109763
O O3 0.213399 0.490873 0.148895
O O4 0.259722 0.221073 0.152170
O O5 0.583132 0.750000 0.000000
O O6 0.500000 0.000000 0.000000
O O7 0.673855 0.995557 0.984995
O O8 0.156826 0.973992 0.518921
O O9 0.076046 0.811655 0.615231
O O10 0.047729 0.087686 0.615362
O O11 0.979759 0.750000 0.500000
O O12 0.902490 0.651880 0.375422
O O13 0.216177 0.554101 0.882866
O O14 0.250232 0.750000 0.000000
O O15 0.175848 0.066144 0.250000
#
# Coordination Sequence:
#
# PCOD9438789 Si02
#       6
#     8   8   8   8   8   8
#     4   9  20  41  64  90 129 173 212 265 332 383
#     4  11  22  41  69 100 126 160 211 263 317 399
#     4  10  22  33  60  86 123 170 222 269 318 375
#     4  11  20  34  56  88 121 164 223 275 313 376
#     4  11  22  39  62  92 126 167 216 268 321 389
#     4  10  21  38  61  88 123 171 218 268 330 379
#
# _framework density 19.497501
#
# number of rings (size 3 to 8) (size 9 to 14) (size 15 to 20)
#    0.000    1.667    3.333    1.500    2.333    0.667 
#    0.000    5.000    0.000    0.000    0.000    0.000 
#    0.000    0.000    0.000    0.000    0.000    0.000 
#
# Total GULP energy -267894.524258 kJ/mol
# GULP energy per Si atom -5581.135922 kJ/mol
# Density = 1.945312 g / cm^3
# Si number density = 19.497501 Si / 1000 Ang^3
#
#
#
# Elastic Constant Matrix: (Units=GPa)
#
#
# Indices 1 2 3 4 5 6 
#
# 1 108.3598 69.1453 55.3042 0.0000 0.0000 0.0000
# 2 69.1453 124.5720 53.3649 0.0000 0.0000 0.0000
# 3 55.3042 53.3649 136.8037 0.0000 0.0000 0.0000
# 4 0.0000 0.0000 0.0000 21.8191 0.0000 0.0000
# 5 0.0000 0.0000 0.0000 0.0000 12.8884 0.0000
# 6 0.0000 0.0000 0.0000 0.0000 0.0000 34.2952
#
#
#
# Elastic Compliance Matrix: (Units=1/GPa)
#
#
# Indices 1 2 3 4 5 6 
#
# 1 0.015579 -0.007143 -0.003512 0.000000 0.000000 0.000000
# 2 -0.007143 0.012913 -0.002150 0.000000 0.000000 0.000000
# 3 -0.003512 -0.002150 0.009568 0.000000 0.000000 0.000000
# 4 0.000000 0.000000 0.000000 0.045831 0.000000 0.000000
# 5 0.000000 0.000000 0.000000 0.000000 0.077589 0.000000
# 6 0.000000 0.000000 0.000000 0.000000 0.000000 0.029159
#
#
# Mechanical properties :
#
#
# Convention : Reuss Voigt Hill
#
# Bulk Modulus (GPa) = 80.31090 80.59603 80.45347
# Shear Modulus (GPa) = 22.68635 26.59529 24.64082
#
# Velocity S-wave (km/s) = 3.41479 3.69729 3.55884
# Velocity P-wave (km/s) = 7.53840 7.72353 7.63153
#
# Compressibility (1/GPa) = 0.01245161
#
# Stress axis : x y z
#
# Youngs Moduli (GPa) = 64.19062 77.44092 104.51685
#
# Poissons Ratio (x) = 0.55315 0.36701
# Poissons Ratio (y) = 0.45850 0.22467
# Poissons Ratio (z) = 0.22541 0.16647
#
# Static dielectric constant tensor:
#      x y z
#    x 1.667720 0.000000 0.000000 
#    y 0.000000 1.669670 0.000000 
#    z 0.000000 0.000000 1.679690 
# 
# From -- ./inp_files/22451.got.cif
#   From: 2010.05.17/outbox.cif.g08.bks.cpg/sg57_12_cif.got.tgz:22451.got - 2010.06.03 13:58:18.
