data_PCOD9438978
_publ_section_title
;
Structure prediction by ZEFSAII (Michael W. Deem and Ramdas Pophale) SiO2 
 PCOD9438978
Probable space group: P B C M
;
_chemical_formula_sum "Si O2"
_cell_formula_units_Z 32
_cell_length_a 5.264323
_cell_length_b 11.825649
_cell_length_c 21.606251
_cell_angle_alpha 90.000000
_cell_angle_beta 90.000000
_cell_angle_gamma 90.000000
_cell_volume 1345.076328
_symmetry_space_group_name_H-M "P B C M"
_symmetry_group_IT_number 57
_symmetry_cell_setting 'orthorhombic'
loop_
_space_group_symop_operation_xyz
x,y,z
-x,-y,1/2+z
x,1/2-y,-z
-x,1/2+y,1/2-z
-x,-y,-z
x,y,1/2-z
-x,1/2+y,z
x,1/2-y,1/2+z
loop_
_atom_site_type_symbol
_atom_site_label
_atom_site_fract_x
_atom_site_fract_y
_atom_site_fract_z
Si Si1 0.055396 0.620542 0.250000
Si Si2 0.750143 0.292937 0.149836
Si Si3 0.577381 0.670331 0.452621
Si Si4 0.443390 0.532909 0.750000
Si Si5 0.815761 0.056646 0.952105
O O1 0.100640 0.702789 0.308895
O O2 0.283275 0.527805 0.250000
O O3 0.782808 0.560204 0.250000
O O4 0.551485 0.232224 0.104637
O O5 0.603782 0.382928 0.192426
O O6 0.921328 0.365902 0.102449
O O7 0.742120 0.750000 0.500000
O O8 0.375687 0.625525 0.503892
O O9 0.689986 0.555961 0.424254
O O10 0.000000 0.000000 0.000000
#
# Coordination Sequence:
#
# PCOD9438978 Si02
#       5
#     4   8   8   4   8
#     4  11  26  49  70 102 138 183 236 295 354 414
#     4  10  23  43  69  98 137 187 230 293 353 418
#     4   9  20  40  60  95 136 176 221 278 342 411
#     4  11  26  49  72 106 138 185 244 293 352 418
#     4  10  21  39  63  99 134 177 226 278 342 421
#
# _framework density 23.790472000000001
#
# number of rings (size 3 to 8) (size 9 to 14) (size 15 to 20)
#    0.000    2.000    0.000    1.500    3.500    7.000 
#   18.000    0.000    0.000    0.000    0.000    0.000 
#    0.000    0.000    0.000    0.000    0.000    0.000 
#
# Total GULP energy -178780.371518 kJ/mol
# GULP energy per Si atom -5586.886610 kJ/mol
# Density = 2.373632 g / cm^3
# Si number density = 23.790472 Si / 1000 Ang^3
#
#
#
# Elastic Constant Matrix: (Units=GPa)
#
#
# Indices 1 2 3 4 5 6 
#
# 1 32.5093 12.6171 8.7858 0.0000 0.0000 0.0000
# 2 12.6171 134.0171 74.6074 0.0000 0.0000 0.0000
# 3 8.7858 74.6074 136.3619 0.0000 0.0000 0.0000
# 4 0.0000 0.0000 0.0000 56.3696 0.0000 0.0000
# 5 0.0000 0.0000 0.0000 0.0000 22.2073 0.0000
# 6 0.0000 0.0000 0.0000 0.0000 0.0000 4.2253
#
#
#
# Elastic Compliance Matrix: (Units=1/GPa)
#
#
# Indices 1 2 3 4 5 6 
#
# 1 0.031960 -0.002678 -0.000594 0.000000 0.000000 0.000000
# 2 -0.002678 0.010954 -0.005821 0.000000 0.000000 0.000000
# 3 -0.000594 -0.005821 0.010556 0.000000 0.000000 0.000000
# 4 0.000000 0.000000 0.000000 0.017740 0.000000 0.000000
# 5 0.000000 0.000000 0.000000 0.000000 0.045030 0.000000
# 6 0.000000 0.000000 0.000000 0.000000 0.000000 0.236668
#
#
# Mechanical properties :
#
#
# Convention : Reuss Voigt Hill
#
# Bulk Modulus (GPa) = 28.34053 54.98988 41.66521
# Shear Modulus (GPa) = 13.05970 30.35231 21.70601
#
# Velocity S-wave (km/s) = 2.34550 3.57573 3.02384
# Velocity P-wave (km/s) = 4.39017 6.34131 5.45371
#
# Compressibility (1/GPa) = 0.03528516
#
# Stress axis : x y z
#
# Youngs Moduli (GPa) = 31.28872 91.28777 94.72881
#
# Poissons Ratio (x) = 0.24450 0.05625
# Poissons Ratio (y) = 0.08380 0.55140
# Poissons Ratio (z) = 0.01858 0.53137
#
# Static dielectric constant tensor:
#      x y z
#    x 2.161350 0.000000 0.000000 
#    y 0.000000 -14.155090 0.000000 
#    z 0.000000 0.000000 1.869530 
# 
# From -- ./inp_files/23359.got.cif
#   From: 2010.05.17/outbox.cif.g08.bks.cpg/sg57_12_cif.got.tgz:23359.got - 2010.06.03 13:58:18.
