data_PCOD9438299
_publ_section_title
;
Structure prediction by ZEFSAII (Michael W. Deem and Ramdas Pophale) SiO2 
 PCOD9438299
Probable space group: P B C M
;
_chemical_formula_sum "Si O2"
_cell_formula_units_Z 64
_cell_length_a 18.631861
_cell_length_b 8.946702
_cell_length_c 18.652328
_cell_angle_alpha 90.000000
_cell_angle_beta 90.000000
_cell_angle_gamma 90.000000
_cell_volume 3109.225719
_symmetry_space_group_name_H-M "P B C M"
_symmetry_group_IT_number 57
_symmetry_cell_setting 'orthorhombic'
loop_
_space_group_symop_operation_xyz
x,y,z
-x,-y,1/2+z
x,1/2-y,-z
-x,1/2+y,1/2-z
-x,-y,-z
x,y,1/2-z
-x,1/2+y,z
x,1/2-y,1/2+z
loop_
_atom_site_type_symbol
_atom_site_label
_atom_site_fract_x
_atom_site_fract_y
_atom_site_fract_z
Si Si1 0.486946 0.128981 0.056943
Si Si2 0.871475 0.637740 0.830125
Si Si3 0.614422 0.759214 0.831157
Si Si4 0.221811 0.648783 0.168273
Si Si5 0.766168 0.600059 0.168119
Si Si6 0.804617 0.368678 0.055760
Si Si7 0.388729 0.903278 0.835535
Si Si8 0.074500 0.074820 0.978923
O O1 0.424913 0.126518 0.116113
O O2 0.556744 0.165112 0.106167
O O3 0.462982 0.250000 0.000000
O O4 0.500000 0.000000 0.000000
O O5 0.901832 0.630923 0.750000
O O6 0.805865 0.520464 0.834200
O O7 0.837885 0.801604 0.842126
O O8 0.921962 0.583977 0.893044
O O9 0.589699 0.788255 0.750000
O O10 0.698576 0.790717 0.834776
O O11 0.602403 0.583256 0.845636
O O12 0.215074 0.698627 0.250000
O O13 0.172436 0.752139 0.118045
O O14 0.306590 0.646312 0.150001
O O15 0.767216 0.539211 0.250000
O O16 0.758818 0.482422 0.103959
O O17 0.770471 0.250000 0.000000
O O18 0.863035 0.469926 0.013930
O O19 0.402766 0.872471 0.750000
O O20 0.081802 0.250000 0.000000
O O21 0.000000 0.000000 0.000000
#
# Coordination Sequence:
#
# PCOD9438299 Si02
#       8
#     8   8   8   8   8   8   8   8
#     4  12  25  42  57  89 130 169 213 274 332 396
#     4  10  20  42  71 100 131 171 223 275 328 388
#     4  10  21  42  68  90 119 170 224 269 331 404
#     4  10  21  39  66  99 130 164 215 277 332 394
#     4  10  21  41  69  99 126 166 225 281 328 392
#     4  12  24  40  63  99 137 173 212 263 334 384
#     4  10  21  41  66  89 122 170 218 269 332 400
#     4  12  26  47  70  98 139 181 224 266 316 389
#
# _framework density 20.583902999999999
#
# number of rings (size 3 to 8) (size 9 to 14) (size 15 to 20)
#    0.000    1.250    5.000    1.125    0.000    2.500 
#    2.250    3.125    0.000    0.000    0.000    0.000 
#    0.000    0.000    0.000    0.000    0.000    0.000 
#
# Total GULP energy -356434.730515 kJ/mol
# GULP energy per Si atom -5569.292664 kJ/mol
# Density = 2.053705 g / cm^3
# Si number density = 20.583903 Si / 1000 Ang^3
#
#
#
# Elastic Constant Matrix: (Units=GPa)
#
#
# Indices 1 2 3 4 5 6 
#
# 1 40.9288 1.2216 44.6311 0.0000 0.0000 0.0000
# 2 1.2216 55.5960 26.6833 0.0000 0.0000 0.0000
# 3 44.6311 26.6833 152.8936 0.0000 0.0000 0.0000
# 4 0.0000 0.0000 0.0000 31.1390 0.0000 0.0000
# 5 0.0000 0.0000 0.0000 0.0000 13.2206 0.0000
# 6 0.0000 0.0000 0.0000 0.0000 0.0000 20.7153
#
#
#
# Elastic Compliance Matrix: (Units=1/GPa)
#
#
# Indices 1 2 3 4 5 6 
#
# 1 0.036963 0.004766 -0.011622 0.000000 0.000000 0.000000
# 2 0.004766 0.020246 -0.004924 0.000000 0.000000 0.000000
# 3 -0.011622 -0.004924 0.010792 0.000000 0.000000 0.000000
# 4 0.000000 0.000000 0.000000 0.032114 0.000000 0.000000
# 5 0.000000 0.000000 0.000000 0.000000 0.075639 0.000000
# 6 0.000000 0.000000 0.000000 0.000000 0.000000 0.048274
#
#
# Mechanical properties :
#
#
# Convention : Reuss Voigt Hill
#
# Bulk Modulus (GPa) = 22.50202 43.83227 33.16715
# Shear Modulus (GPa) = 19.05466 24.80713 21.93090
#
# Velocity S-wave (km/s) = 3.04584 3.47532 3.26765
# Velocity P-wave (km/s) = 4.82961 6.11919 5.51224
#
# Compressibility (1/GPa) = 0.04444045
#
# Stress axis : x y z
#
# Youngs Moduli (GPa) = 27.05383 49.39327 92.65787
#
# Poissons Ratio (x) = -0.23539 1.07684
# Poissons Ratio (y) = -0.12893 0.45629
# Poissons Ratio (z) = 0.31441 0.24323
#
# Static dielectric constant tensor:
#      x y z
#    x 1.699760 0.000000 0.000000 
#    y 0.000000 1.759720 0.000000 
#    z 0.000000 0.000000 1.764890 
# 
# From -- ./inp_files/23039.got.cif
#   From: 2010.05.17/outbox.cif.g08.bks.cpg/sg57_12_cif.got.tgz:23039.got - 2010.06.03 13:58:18.
