data_PCOD9438676
_publ_section_title
;
Structure prediction by ZEFSAII (Michael W. Deem and Ramdas Pophale) SiO2 
 PCOD9438676
Probable space group: P B C M
;
_chemical_formula_sum "Si O2"
_cell_formula_units_Z 40
_cell_length_a 12.480405
_cell_length_b 15.747449
_cell_length_c 9.448963
_cell_angle_alpha 90.000000
_cell_angle_beta 90.000000
_cell_angle_gamma 90.000000
_cell_volume 1857.047608
_symmetry_space_group_name_H-M "P B C M"
_symmetry_group_IT_number 57
_symmetry_cell_setting 'orthorhombic'
loop_
_space_group_symop_operation_xyz
x,y,z
-x,-y,1/2+z
x,1/2-y,-z
-x,1/2+y,1/2-z
-x,-y,-z
x,y,1/2-z
-x,1/2+y,z
x,1/2-y,1/2+z
loop_
_atom_site_type_symbol
_atom_site_label
_atom_site_fract_x
_atom_site_fract_y
_atom_site_fract_z
Si Si1 0.246646 0.454019 0.536103
Si Si2 0.155543 0.750000 0.000000
Si Si3 0.927884 0.608385 0.250000
Si Si4 0.525792 0.910071 0.921417
Si Si5 0.670803 0.138284 0.913212
Si Si6 0.001545 0.701549 0.750000
Si Si7 0.124812 0.477421 0.250000
O O1 0.143443 0.420244 0.617950
O O2 0.349073 0.391989 0.547657
O O3 0.293302 0.540625 0.600516
O O4 0.203245 0.475553 0.382725
O O5 0.241003 0.675597 0.021421
O O6 0.079044 0.711406 0.883116
O O7 0.936496 0.710123 0.250000
O O8 0.040391 0.556379 0.250000
O O9 0.508891 0.913140 0.750000
O O10 0.441922 0.852137 0.006740
O O11 0.500000 0.000000 0.000000
O O12 0.671745 0.172533 0.750000
O O13 0.941259 0.612027 0.750000
#
# Coordination Sequence:
#
# PCOD9438676 Si02
#       7
#     8   4   4   8   8   4   4
#     4  11  22  41  66  96 132 172 219 275 324 395
#     4  12  24  44  66  92 136 168 212 282 336 384
#     4  12  22  44  66  90 132 182 226 272 332 388
#     4  10  21  37  65  97 129 167 215 271 334 399
#     4  11  23  41  67  99 130 169 221 271 335 409
#     4  12  26  44  66  98 134 174 224 280 332 394
#     4  12  26  40  66 102 130 178 234 268 328 394
#
# _framework density 21.539566000000001
#
# number of rings (size 3 to 8) (size 9 to 14) (size 15 to 20)
#    0.000    0.800    3.000    6.000    8.400    0.000 
#    0.000    2.000    0.000    0.000    0.000    0.000 
#    0.000    0.000    0.000    0.000    0.000    0.000 
#
# Total GULP energy -222992.983244 kJ/mol
# GULP energy per Si atom -5574.824581 kJ/mol
# Density = 2.149054 g / cm^3
# Si number density = 21.539566 Si / 1000 Ang^3
#
#
#
# Elastic Constant Matrix: (Units=GPa)
#
#
# Indices 1 2 3 4 5 6 
#
# 1 107.4180 9.8160 55.2654 0.0000 0.0000 0.0000
# 2 9.8160 58.0938 -12.5465 0.0000 0.0000 0.0000
# 3 55.2654 -12.5465 113.9284 0.0000 0.0000 0.0000
# 4 0.0000 0.0000 0.0000 13.8102 0.0000 0.0000
# 5 0.0000 0.0000 0.0000 0.0000 17.2418 0.0000
# 6 0.0000 0.0000 0.0000 0.0000 0.0000 92.0840
#
#
#
# Elastic Compliance Matrix: (Units=1/GPa)
#
#
# Indices 1 2 3 4 5 6 
#
# 1 0.013132 -0.003682 -0.006776 0.000000 0.000000 0.000000
# 2 -0.003682 0.018665 0.003842 0.000000 0.000000 0.000000
# 3 -0.006776 0.003842 0.012487 0.000000 0.000000 0.000000
# 4 0.000000 0.000000 0.000000 0.072410 0.000000 0.000000
# 5 0.000000 0.000000 0.000000 0.000000 0.057999 0.000000
# 6 0.000000 0.000000 0.000000 0.000000 0.000000 0.010860
#
#
# Mechanical properties :
#
#
# Convention : Reuss Voigt Hill
#
# Bulk Modulus (GPa) = 32.20359 42.72330 37.46345
# Shear Modulus (GPa) = 23.90790 39.75422 31.83106
#
# Velocity S-wave (km/s) = 3.33521 4.30075 3.84838
# Velocity P-wave (km/s) = 5.46030 6.67381 6.09732
#
# Compressibility (1/GPa) = 0.03105244
#
# Stress axis : x y z
#
# Youngs Moduli (GPa) = 76.15038 53.57499 80.08128
#
# Poissons Ratio (x) = 0.19727 0.54260
# Poissons Ratio (y) = 0.28040 -0.30765
# Poissons Ratio (z) = 0.51597 -0.20582
#
# Static dielectric constant tensor:
#      x y z
#    x 1.802890 0.000000 0.000000 
#    y 0.000000 1.900820 0.000000 
#    z 0.000000 0.000000 2.087440 
# 
# From -- ./inp_files/2770.got.cif
#   From: 2010.05.17/outbox.cif.g08.bks.cpg/sg57_2_cif.got.tgz:2770.got - 2010.06.03 13:58:18.
