data_PCOD9438985
_publ_section_title
;
Structure prediction by ZEFSAII (Michael W. Deem and Ramdas Pophale) SiO2 
 PCOD9438985
Probable space group: P B C M
;
_chemical_formula_sum "Si O2"
_cell_formula_units_Z 40
_cell_length_a 5.218591
_cell_length_b 18.332322
_cell_length_c 21.629759
_cell_angle_alpha 90.000000
_cell_angle_beta 90.000000
_cell_angle_gamma 90.000000
_cell_volume 2069.295047
_symmetry_space_group_name_H-M "P B C M"
_symmetry_group_IT_number 57
_symmetry_cell_setting 'orthorhombic'
loop_
_space_group_symop_operation_xyz
x,y,z
-x,-y,1/2+z
x,1/2-y,-z
-x,1/2+y,1/2-z
-x,-y,-z
x,y,1/2-z
-x,1/2+y,z
x,1/2-y,1/2+z
loop_
_atom_site_type_symbol
_atom_site_label
_atom_site_fract_x
_atom_site_fract_y
_atom_site_fract_z
Si Si1 0.873812 0.093944 0.984565
Si Si2 0.477360 0.942676 0.677400
Si Si3 0.161696 0.278929 0.433704
Si Si4 0.008256 0.369849 0.875831
Si Si5 0.630620 0.929492 0.084130
O O1 0.605735 0.064334 0.962324
O O2 0.912441 0.175491 0.955768
O O3 0.108761 0.052143 0.952283
O O4 0.079471 0.896481 0.943541
O O5 0.510877 0.954755 0.750000
O O6 0.740230 0.911338 0.648633
O O7 0.238842 0.887510 0.665920
O O8 0.409648 0.017646 0.641596
O O9 0.273328 0.250000 0.500000
O O10 0.091422 0.213618 0.388404
O O11 0.332622 0.342781 0.403171
#
# Coordination Sequence:
#
# PCOD9438985 Si02
#       5
#     8   8   8   8   8
#     4   9  20  36  65  98 118 149 197 257 329 374
#     4  12  27  43  58  86 128 176 218 254 291 358
#     4   8  20  38  62  97 125 152 188 258 325 383
#     4  11  23  40  68  91 131 157 204 265 319 367
#     4  10  21  39  64  90 130 161 199 253 315 382
#
# _framework density 19.330254
#
# number of rings (size 3 to 8) (size 9 to 14) (size 15 to 20)
#    1.200    0.800    0.000    3.000    2.800    5.600 
#    0.000    2.000    0.000    0.000    0.000    0.000 
#    0.000    0.000    0.000    0.000    0.000    0.000 
#
# Total GULP energy -223020.625923 kJ/mol
# GULP energy per Si atom -5575.515648 kJ/mol
# Density = 1.928626 g / cm^3
# Si number density = 19.330254 Si / 1000 Ang^3
#
#
#
# Elastic Constant Matrix: (Units=GPa)
#
#
# Indices 1 2 3 4 5 6 
#
# 1 112.7946 45.8600 37.8536 0.0000 0.0000 0.0000
# 2 45.8600 116.7450 63.5753 0.0000 0.0000 0.0000
# 3 37.8536 63.5753 110.3504 0.0000 0.0000 0.0000
# 4 0.0000 0.0000 0.0000 15.3467 0.0000 0.0000
# 5 0.0000 0.0000 0.0000 0.0000 16.2031 0.0000
# 6 0.0000 0.0000 0.0000 0.0000 0.0000 21.7956
#
#
#
# Elastic Compliance Matrix: (Units=1/GPa)
#
#
# Indices 1 2 3 4 5 6 
#
# 1 0.010800 -0.003242 -0.001837 0.000000 0.000000 0.000000
# 2 -0.003242 0.013455 -0.006640 0.000000 0.000000 0.000000
# 3 -0.001837 -0.006640 0.013517 0.000000 0.000000 0.000000
# 4 0.000000 0.000000 0.000000 0.065160 0.000000 0.000000
# 5 0.000000 0.000000 0.000000 0.000000 0.061717 0.000000
# 6 0.000000 0.000000 0.000000 0.000000 0.000000 0.045881
#
#
# Mechanical properties :
#
#
# Convention : Reuss Voigt Hill
#
# Bulk Modulus (GPa) = 69.75805 70.49641 70.12723
# Shear Modulus (GPa) = 20.94272 23.50915 22.22593
#
# Velocity S-wave (km/s) = 3.29510 3.49117 3.39455
# Velocity P-wave (km/s) = 7.11637 7.26634 7.19174
#
# Compressibility (1/GPa) = 0.01433526
#
# Stress axis : x y z
#
# Youngs Moduli (GPa) = 92.58916 74.32187 73.97916
#
# Poissons Ratio (x) = 0.24098 0.13589
# Poissons Ratio (y) = 0.30021 0.49118
# Poissons Ratio (z) = 0.17008 0.49346
#
# Static dielectric constant tensor:
#      x y z
#    x 1.677760 0.000000 0.000000 
#    y 0.000000 2.104690 0.000000 
#    z 0.000000 0.000000 1.636270 
# 
# From -- ./inp_files/27869.got.cif
#   From: 2010.05.17/outbox.cif.g08.bks.cpg/sg57_14_cif.got.tgz:27869.got - 2010.06.03 13:58:18.
