data_PCOD9438169
_publ_section_title
;
Structure prediction by ZEFSAII (Michael W. Deem and Ramdas Pophale) SiO2 
 PCOD9438169
Probable space group: P B C M
;
_chemical_formula_sum "Si O2"
_cell_formula_units_Z 40
_cell_length_a 12.537729
_cell_length_b 15.737850
_cell_length_c 9.771607
_cell_angle_alpha 90.000000
_cell_angle_beta 90.000000
_cell_angle_gamma 90.000000
_cell_volume 1928.103185
_symmetry_space_group_name_H-M "P B C M"
_symmetry_group_IT_number 57
_symmetry_cell_setting 'orthorhombic'
loop_
_space_group_symop_operation_xyz
x,y,z
-x,-y,1/2+z
x,1/2-y,-z
-x,1/2+y,1/2-z
-x,-y,-z
x,y,1/2-z
-x,1/2+y,z
x,1/2-y,1/2+z
loop_
_atom_site_type_symbol
_atom_site_label
_atom_site_fract_x
_atom_site_fract_y
_atom_site_fract_z
Si Si1 0.235973 0.449593 0.487986
Si Si2 0.160035 0.750000 0.000000
Si Si3 0.908601 0.512630 0.250000
Si Si4 0.540780 0.920312 0.911395
Si Si5 0.684022 0.130816 0.094740
Si Si6 0.013510 0.802004 0.750000
Si Si7 0.095309 0.372622 0.250000
O O1 0.165435 0.481268 0.615882
O O2 0.340292 0.398593 0.539955
O O3 0.283399 0.532206 0.411842
O O4 0.161611 0.398844 0.384001
O O5 0.243686 0.674050 0.979541
O O6 0.084584 0.718268 0.118831
O O7 0.976603 0.600614 0.250000
O O8 0.986618 0.430360 0.250000
O O9 0.545475 0.942029 0.750000
O O10 0.441743 0.856366 0.928016
O O11 0.500000 0.000000 0.000000
O O12 0.708073 0.161225 0.250000
O O13 0.924876 0.728113 0.750000
#
# Coordination Sequence:
#
# PCOD9438169 Si02
#       7
#     8   4   4   8   8   4   4
#     4  11  21  40  65  92 125 166 212 256 316 374
#     4  12  22  42  62  88 126 164 200 266 318 362
#     4  12  24  42  64  94 128 170 220 266 306 370
#     4   9  19  36  62  92 122 155 201 258 316 380
#     4  10  20  39  64  93 124 160 205 257 316 379
#     4  12  26  42  62  94 130 162 216 268 314 362
#     4  12  24  40  62  92 124 178 218 254 314 376
#
# _framework density 20.745778999999999
#
# number of rings (size 3 to 8) (size 9 to 14) (size 15 to 20)
#    0.000    1.200    3.000    4.200    1.400    0.000 
#    1.800    2.000    0.000    0.000    0.000    0.000 
#    0.000    0.000    0.000    0.000    0.000    0.000 
#
# Total GULP energy -223127.088620 kJ/mol
# GULP energy per Si atom -5578.177216 kJ/mol
# Density = 2.069856 g / cm^3
# Si number density = 20.745779 Si / 1000 Ang^3
#
#
#
# Elastic Constant Matrix: (Units=GPa)
#
#
# Indices 1 2 3 4 5 6 
#
# 1 108.9820 -6.3476 34.4484 0.0000 0.0000 0.0000
# 2 -6.3476 37.6042 -15.0536 0.0000 0.0000 0.0000
# 3 34.4484 -15.0536 81.1484 0.0000 0.0000 0.0000
# 4 0.0000 0.0000 0.0000 13.0420 0.0000 0.0000
# 5 0.0000 0.0000 0.0000 0.0000 22.2367 0.0000
# 6 0.0000 0.0000 0.0000 0.0000 0.0000 -31.7335
#
#
#
# Elastic Compliance Matrix: (Units=1/GPa)
#
#
# Indices 1 2 3 4 5 6 
#
# 1 0.010598 -0.000013 -0.004501 0.000000 0.000000 0.000000
# 2 -0.000013 0.028726 0.005334 0.000000 0.000000 0.000000
# 3 -0.004501 0.005334 0.015224 0.000000 0.000000 0.000000
# 4 0.000000 0.000000 0.000000 0.076675 0.000000 0.000000
# 5 0.000000 0.000000 0.000000 0.000000 0.044971 0.000000
# 6 0.000000 0.000000 0.000000 0.000000 0.000000 -0.031512
#
#
# Mechanical properties :
#
#
# Convention : Reuss Voigt Hill
#
# Bulk Modulus (GPa) = 17.79751 28.20322 23.00037
# Shear Modulus (GPa) = 30.90807 15.02154 22.96481
#
# Velocity S-wave (km/s) = 3.86404 2.69379 3.33071
# Velocity P-wave (km/s) = 5.33903 4.82696 5.08944
#
# Compressibility (1/GPa) = 0.05618762
#
# Stress axis : x y z
#
# Youngs Moduli (GPa) = 94.35823 34.81159 65.68766
#
# Poissons Ratio (x) = 0.00045 0.29568
# Poissons Ratio (y) = 0.00123 -0.35041
# Poissons Ratio (z) = 0.42474 -0.18570
#
# Static dielectric constant tensor:
#      x y z
#    x 1.791020 0.000000 0.000000 
#    y 0.000000 1.778040 0.000000 
#    z 0.000000 0.000000 1.426890 
# 
# From -- ./inp_files/2767.got.cif
#   From: 2010.05.17/outbox.cif.g08.bks.cpg/sg57_2_cif.got.tgz:2767.got - 2010.06.03 13:58:18.
