data_PCOD9438939
_publ_section_title
;
Structure prediction by ZEFSAII (Michael W. Deem and Ramdas Pophale) SiO2 
 PCOD9438939
Probable space group: P B C M
;
_chemical_formula_sum "Si O2"
_cell_formula_units_Z 32
_cell_length_a 9.442160
_cell_length_b 12.469376
_cell_length_c 14.310471
_cell_angle_alpha 90.000000
_cell_angle_beta 90.000000
_cell_angle_gamma 90.000000
_cell_volume 1684.883992
_symmetry_space_group_name_H-M "P B C M"
_symmetry_group_IT_number 57
_symmetry_cell_setting 'orthorhombic'
loop_
_space_group_symop_operation_xyz
x,y,z
-x,-y,1/2+z
x,1/2-y,-z
-x,1/2+y,1/2-z
-x,-y,-z
x,y,1/2-z
-x,1/2+y,z
x,1/2-y,1/2+z
loop_
_atom_site_type_symbol
_atom_site_label
_atom_site_fract_x
_atom_site_fract_y
_atom_site_fract_z
Si Si1 0.001401 0.462613 0.250000
Si Si2 0.654543 0.230604 0.109933
Si Si3 0.305310 0.952437 0.750000
Si Si4 0.982429 0.275014 0.109421
Si Si5 0.434726 0.312213 0.250000
Si Si6 0.175474 0.348319 0.750000
O O1 0.851484 0.524621 0.250000
O O2 0.134483 0.542798 0.250000
O O3 0.016756 0.389485 0.157184
O O4 0.641571 0.113140 0.158600
O O5 0.538342 0.301609 0.161942
O O6 0.816908 0.260122 0.132517
O O7 0.637097 0.250000 0.000000
O O8 0.354911 0.075066 0.750000
O O9 0.088347 0.194859 0.161197
O O10 0.997433 0.250000 0.000000
O O11 0.325495 0.211646 0.250000
#
# Coordination Sequence:
#
# PCOD9438939 Si02
#       6
#     4   8   4   8   4   4
#     4  11  20  39  66  92 124 165 203 259 318 359
#     4  10  23  43  62  87 128 166 205 254 304 378
#     4  11  20  41  67  87 125 168 201 255 320 354
#     4  10  21  39  62  88 121 163 209 253 305 370
#     4  11  23  38  64  94 126 162 207 261 305 364
#     4  11  21  38  61  95 123 159 205 261 303 361
#
# _framework density 18.992405000000002
#
# number of rings (size 3 to 8) (size 9 to 14) (size 15 to 20)
#    0.000    1.500    5.000    2.250    0.000    7.000 
#    0.000    0.000    0.000    0.000    0.000    0.000 
#    0.000    0.000    0.000    0.000    0.000    0.000 
#
# Total GULP energy -178277.403096 kJ/mol
# GULP energy per Si atom -5571.168847 kJ/mol
# Density = 1.894918 g / cm^3
# Si number density = 18.992405 Si / 1000 Ang^3
#
#
#
# Elastic Constant Matrix: (Units=GPa)
#
#
# Indices 1 2 3 4 5 6 
#
# 1 78.2904 1.1053 50.0739 0.0000 0.0000 0.0000
# 2 1.1053 80.3410 41.7799 0.0000 0.0000 0.0000
# 3 50.0739 41.7799 142.4695 0.0000 0.0000 0.0000
# 4 0.0000 0.0000 0.0000 3.2487 0.0000 0.0000
# 5 0.0000 0.0000 0.0000 0.0000 36.4860 0.0000
# 6 0.0000 0.0000 0.0000 0.0000 0.0000 38.1446
#
#
#
# Elastic Compliance Matrix: (Units=1/GPa)
#
#
# Indices 1 2 3 4 5 6 
#
# 1 0.017246 0.003440 -0.007070 0.000000 0.000000 0.000000
# 2 0.003440 0.015373 -0.005717 0.000000 0.000000 0.000000
# 3 -0.007070 -0.005717 0.011181 0.000000 0.000000 0.000000
# 4 0.000000 0.000000 0.000000 0.307813 0.000000 0.000000
# 5 0.000000 0.000000 0.000000 0.000000 0.027408 0.000000
# 6 0.000000 0.000000 0.000000 0.000000 0.000000 0.026216
#
#
# Mechanical properties :
#
#
# Convention : Reuss Voigt Hill
#
# Bulk Modulus (GPa) = 39.83402 54.11324 46.97363
# Shear Modulus (GPa) = 11.56605 29.45197 20.50901
#
# Velocity S-wave (km/s) = 2.47043 3.94219 3.28968
# Velocity P-wave (km/s) = 5.39968 7.01962 6.26226
#
# Compressibility (1/GPa) = 0.02510417
#
# Stress axis : x y z
#
# Youngs Moduli (GPa) = 57.98280 65.05057 89.44074
#
# Poissons Ratio (x) = -0.22374 0.63237
# Poissons Ratio (y) = -0.19943 0.51133
# Poissons Ratio (z) = 0.40996 0.37189
#
# Static dielectric constant tensor:
#      x y z
#    x 1.652280 0.000000 0.000000 
#    y 0.000000 1.689280 0.000000 
#    z 0.000000 0.000000 1.702200 
# 
# From -- ./inp_files/15573.got.cif
#   From: 2010.05.17/outbox.cif.g08.bks.cpg/sg57_8_cif.got.tgz:15573.got - 2010.06.03 13:58:18.
