data_PCOD9438514
_publ_section_title
;
Structure prediction by ZEFSAII (Michael W. Deem and Ramdas Pophale) SiO2 
 PCOD9438514
Probable space group: P B C M
;
_chemical_formula_sum "Si O2"
_cell_formula_units_Z 64
_cell_length_a 24.305845
_cell_length_b 16.062495
_cell_length_c 8.548694
_cell_angle_alpha 90.000000
_cell_angle_beta 90.000000
_cell_angle_gamma 90.000000
_cell_volume 3337.517114
_symmetry_space_group_name_H-M "P B C M"
_symmetry_group_IT_number 57
_symmetry_cell_setting 'orthorhombic'
loop_
_space_group_symop_operation_xyz
x,y,z
-x,-y,1/2+z
x,1/2-y,-z
-x,1/2+y,1/2-z
-x,-y,-z
x,y,1/2-z
-x,1/2+y,z
x,1/2-y,1/2+z
loop_
_atom_site_type_symbol
_atom_site_label
_atom_site_fract_x
_atom_site_fract_y
_atom_site_fract_z
Si Si1 0.364764 0.990680 0.562468
Si Si2 0.578498 0.836599 0.062374
Si Si3 0.943013 0.096658 0.061010
Si Si4 0.242302 0.508220 0.937488
Si Si5 0.530145 0.082878 0.937672
Si Si6 0.181012 0.339704 0.938745
Si Si7 0.935793 0.591903 0.439053
Si Si8 0.827883 0.337493 0.937135
O O1 0.362952 0.989976 0.750000
O O2 0.388468 0.081208 0.510366
O O3 0.304475 0.980223 0.494014
O O4 0.408909 0.921797 0.506861
O O5 0.580232 0.836013 0.250000
O O6 0.514253 0.847409 0.015165
O O7 0.600992 0.750000 0.000000
O O8 0.942706 0.093782 0.250000
O O9 0.891240 0.150766 0.008783
O O10 0.004093 0.125039 0.010901
O O11 0.933586 0.002991 0.999129
O O12 0.239874 0.510282 0.750000
O O13 0.217955 0.418501 0.989085
O O14 0.205472 0.582987 0.003045
O O15 0.533352 0.080622 0.750000
O O16 0.500000 0.000000 0.000000
O O17 0.181495 0.337623 0.750000
O O18 0.118171 0.358656 0.992052
O O19 0.199251 0.250000 0.000000
O O20 0.934402 0.590008 0.250000
O O21 0.826541 0.336725 0.750000
O O22 0.805984 0.250000 0.000000
#
# Coordination Sequence:
#
# PCOD9438514 Si02
#       8
#     8   8   8   8   8   8   8   8
#     4  10  21  37  57  82 110 147 191 235 281 336
#     4   9  19  33  53  83 118 149 182 223 271 323
#     4   9  18  32  55  83 110 143 183 230 289 349
#     4  11  23  41  61  83 112 153 198 246 296 344
#     4   9  17  32  53  80 110 143 181 221 265 320
#     4  10  22  37  56  81 113 152 193 237 288 347
#     4   9  17  33  54  80 113 146 184 231 284 348
#     4  11  23  39  60  86 113 146 189 240 296 355
#
# _framework density 19.175930999999999
#
# number of rings (size 3 to 8) (size 9 to 14) (size 15 to 20)
#    0.000    2.250    1.250    2.250    0.000    6.000 
#    0.000    3.125    0.000    1.500    0.000    0.000 
#    0.000    0.000    0.000    0.000    0.000    0.000 
#
# Total GULP energy -356987.215537 kJ/mol
# GULP energy per Si atom -5577.925243 kJ/mol
# Density = 1.913229 g / cm^3
# Si number density = 19.175931 Si / 1000 Ang^3
#
#
#
# Elastic Constant Matrix: (Units=GPa)
#
#
# Indices 1 2 3 4 5 6 
#
# 1 111.7015 27.3358 22.2104 0.0000 0.0000 0.0000
# 2 27.3358 71.6820 14.2471 0.0000 0.0000 0.0000
# 3 22.2104 14.2471 25.7840 0.0000 0.0000 0.0000
# 4 0.0000 0.0000 0.0000 27.2595 0.0000 0.0000
# 5 0.0000 0.0000 0.0000 0.0000 18.2769 0.0000
# 6 0.0000 0.0000 0.0000 0.0000 0.0000 6.6394
#
#
#
# Elastic Compliance Matrix: (Units=1/GPa)
#
#
# Indices 1 2 3 4 5 6 
#
# 1 0.011234 -0.002652 -0.008212 0.000000 0.000000 0.000000
# 2 -0.002652 0.016298 -0.006721 0.000000 0.000000 0.000000
# 3 -0.008212 -0.006721 0.049571 0.000000 0.000000 0.000000
# 4 0.000000 0.000000 0.000000 0.036684 0.000000 0.000000
# 5 0.000000 0.000000 0.000000 0.000000 0.054714 0.000000
# 6 0.000000 0.000000 0.000000 0.000000 0.000000 0.150616
#
#
# Mechanical properties :
#
#
# Convention : Reuss Voigt Hill
#
# Bulk Modulus (GPa) = 23.84729 37.41710 30.63220
# Shear Modulus (GPa) = 13.57720 20.12679 16.85199
#
# Velocity S-wave (km/s) = 2.66378 3.24325 2.96769
# Velocity P-wave (km/s) = 4.68231 5.79480 5.26800
#
# Compressibility (1/GPa) = 0.04193349
#
# Stress axis : x y z
#
# Youngs Moduli (GPa) = 89.01353 61.35857 20.17310
#
# Poissons Ratio (x) = 0.16272 0.16566
# Poissons Ratio (y) = 0.23607 0.13558
# Poissons Ratio (z) = 0.73096 0.41238
#
# Static dielectric constant tensor:
#      x y z
#    x 1.690870 0.000000 0.000000 
#    y 0.000000 1.653990 0.000000 
#    z 0.000000 0.000000 1.669290 
# 
# From -- ./inp_files/9375.got.cif
#   From: 2010.05.17/outbox.cif.g08.bks.cpg/sg57_5_cif.got.tgz:9375.got - 2010.06.03 13:58:18.
