data_PCOD9438815
_publ_section_title
;
Structure prediction by ZEFSAII (Michael W. Deem and Ramdas Pophale) SiO2 
 PCOD9438815
Probable space group: P B C M
;
_chemical_formula_sum "Si O2"
_cell_formula_units_Z 56
_cell_length_a 5.471042
_cell_length_b 25.471491
_cell_length_c 18.824262
_cell_angle_alpha 90.000000
_cell_angle_beta 90.000000
_cell_angle_gamma 90.000000
_cell_volume 2623.266270
_symmetry_space_group_name_H-M "P B C M"
_symmetry_group_IT_number 57
_symmetry_cell_setting 'orthorhombic'
loop_
_space_group_symop_operation_xyz
x,y,z
-x,-y,1/2+z
x,1/2-y,-z
-x,1/2+y,1/2-z
-x,-y,-z
x,y,1/2-z
-x,1/2+y,z
x,1/2-y,1/2+z
loop_
_atom_site_type_symbol
_atom_site_label
_atom_site_fract_x
_atom_site_fract_y
_atom_site_fract_z
Si Si1 0.638371 0.453843 0.571233
Si Si2 0.575641 0.098340 0.922045
Si Si3 0.911970 0.952164 0.116609
Si Si4 0.029185 0.763075 0.586018
Si Si5 0.526108 0.720650 0.576358
Si Si6 0.247841 0.029813 0.176825
Si Si7 0.922705 0.371402 0.666677
O O1 0.557301 0.428326 0.498818
O O2 0.837445 0.499935 0.563047
O O3 0.410852 0.481150 0.609393
O O4 0.727401 0.407965 0.624974
O O5 0.342395 0.079041 0.875068
O O6 0.529494 0.159835 0.932766
O O7 0.857260 0.085653 0.900076
O O8 0.022451 0.989668 0.177025
O O9 0.040312 0.750000 0.500000
O O10 0.787094 0.732820 0.611225
O O11 0.014823 0.822701 0.614758
O O12 0.289306 0.743782 0.615122
O O13 0.539907 0.750000 0.500000
O O14 0.391211 0.023321 0.250000
O O15 0.150592 0.088753 0.171372
O O16 0.859936 0.358309 0.750000
#
# Coordination Sequence:
#
# PCOD9438815 Si02
#       7
#     8   8   8   8   8   8   8
#     4  11  22  37  66  95 137 165 215 259 333 403
#     4  12  24  38  66  94 133 169 213 269 333 391
#     4  11  24  41  60  97 132 170 207 266 323 397
#     4  10  21  38  62  90 126 165 216 267 330 383
#     4  10  22  39  60  91 123 163 212 265 322 373
#     4  10  23  41  64  95 131 173 218 263 326 404
#     4  10  23  39  63  98 133 171 212 271 343 403
#
# _framework density 21.347432999999999
#
# number of rings (size 3 to 8) (size 9 to 14) (size 15 to 20)
#    0.000    1.429    1.429    3.857   10.000    0.571 
#    0.000    0.000    0.000    5.143    0.000    0.000 
#    0.000    0.000    0.000    0.000    0.000    0.000 
#
# Total GULP energy -311740.745875 kJ/mol
# GULP energy per Si atom -5566.799033 kJ/mol
# Density = 2.129884 g / cm^3
# Si number density = 21.347433 Si / 1000 Ang^3
#
#
#
# Elastic Constant Matrix: (Units=GPa)
#
#
# Indices 1 2 3 4 5 6 
#
# 1 116.8004 2.7414 7.5579 0.0000 0.0000 0.0000
# 2 2.7414 103.0693 16.7060 0.0000 0.0000 0.0000
# 3 7.5579 16.7060 48.2851 0.0000 0.0000 0.0000
# 4 0.0000 0.0000 0.0000 -84.9258 0.0000 0.0000
# 5 0.0000 0.0000 0.0000 0.0000 17.5727 0.0000
# 6 0.0000 0.0000 0.0000 0.0000 0.0000 28.6351
#
#
#
# Elastic Compliance Matrix: (Units=1/GPa)
#
#
# Indices 1 2 3 4 5 6 
#
# 1 0.008649 -0.000011 -0.001350 0.000000 0.000000 0.000000
# 2 -0.000011 0.010279 -0.003555 0.000000 0.000000 0.000000
# 3 -0.001350 -0.003555 0.022151 0.000000 0.000000 0.000000
# 4 0.000000 0.000000 0.000000 -0.011775 0.000000 0.000000
# 5 0.000000 0.000000 0.000000 0.000000 0.056907 0.000000
# 6 0.000000 0.000000 0.000000 0.000000 0.000000 0.034922
#
#
# Mechanical properties :
#
#
# Convention : Reuss Voigt Hill
#
# Bulk Modulus (GPa) = 32.00215 35.79616 33.89915
# Shear Modulus (GPa) = 35.36555 8.33302 21.84929
#
# Velocity S-wave (km/s) = 4.07463 1.97788 3.20270
# Velocity P-wave (km/s) = 6.09594 4.69263 5.43973
#
# Compressibility (1/GPa) = 0.03124790
#
# Stress axis : x y z
#
# Youngs Moduli (GPa) = 115.61724 97.28908 45.14382
#
# Poissons Ratio (x) = 0.00109 0.06094
# Poissons Ratio (y) = 0.00130 0.16046
# Poissons Ratio (z) = 0.15608 0.34582
#
# Static dielectric constant tensor:
#      x y z
#    x 1.854310 0.000000 0.000000 
#    y 0.000000 1.795380 0.000000 
#    z 0.000000 0.000000 1.764780 
# 
# From -- ./inp_files/23789.got.cif
#   From: 2010.05.17/outbox.cif.g08.bks.cpg/sg57_12_cif.got.tgz:23789.got - 2010.06.03 13:58:18.
