data_PCOD9438951
_publ_section_title
;
Structure prediction by ZEFSAII (Michael W. Deem and Ramdas Pophale) SiO2 
 PCOD9438951
Probable space group: P B C M
;
_chemical_formula_sum "Si O2"
_cell_formula_units_Z 56
_cell_length_a 7.876473
_cell_length_b 18.587687
_cell_length_c 16.398131
_cell_angle_alpha 90.000000
_cell_angle_beta 90.000000
_cell_angle_gamma 90.000000
_cell_volume 2400.775171
_symmetry_space_group_name_H-M "P B C M"
_symmetry_group_IT_number 57
_symmetry_cell_setting 'orthorhombic'
loop_
_space_group_symop_operation_xyz
x,y,z
-x,-y,1/2+z
x,1/2-y,-z
-x,1/2+y,1/2-z
-x,-y,-z
x,y,1/2-z
-x,1/2+y,z
x,1/2-y,1/2+z
loop_
_atom_site_type_symbol
_atom_site_label
_atom_site_fract_x
_atom_site_fract_y
_atom_site_fract_z
Si Si1 0.037120 0.902808 0.841459
Si Si2 0.206580 0.098977 0.497532
Si Si3 0.249962 0.745181 0.160152
Si Si4 0.457972 0.839018 0.953912
Si Si5 0.677929 0.049235 0.573150
Si Si6 0.020604 0.613092 0.842905
Si Si7 0.613482 0.027524 0.154966
O O1 0.961811 0.911871 0.750000
O O2 0.140059 0.827687 0.839889
O O3 0.183175 0.963227 0.853825
O O4 0.916807 0.897270 0.919194
O O5 0.353938 0.158257 0.489453
O O6 0.285389 0.018938 0.484647
O O7 0.501249 0.963906 0.383092
O O8 0.332587 0.752390 0.250000
O O9 0.384939 0.732278 0.087890
O O10 0.121049 0.811008 0.151682
O O11 0.464308 0.898959 0.881528
O O12 0.334785 0.879789 0.017770
O O13 0.830149 0.056074 0.637020
O O14 0.890019 0.891368 0.417481
O O15 0.955302 0.605439 0.750000
O O16 0.582374 0.025410 0.250000
#
# Coordination Sequence:
#
# PCOD9438951 Si02
#       7
#     8   8   8   8   8   8   8
#     4   9  19  36  63  94 123 161 208 266 324 375
#     4  11  23  39  63  97 131 162 207 264 323 387
#     4   9  20  42  66  87 117 162 213 258 310 378
#     4  10  21  39  63  88 118 160 208 262 314 374
#     4  11  23  39  57  89 128 168 213 258 310 384
#     4  11  24  42  64  91 129 172 213 266 326 382
#     4   9  17  33  56  83 119 160 201 246 303 369
#
# _framework density 23.325800000000001
#
# number of rings (size 3 to 8) (size 9 to 14) (size 15 to 20)
#    0.000    2.000    0.000    5.571    0.000    6.857 
#    0.000   11.429    0.000    3.429    0.000    1.000 
#    0.000    0.000    0.000    0.000    0.000    0.000 
#
# Total GULP energy -313087.939877 kJ/mol
# GULP energy per Si atom -5590.856069 kJ/mol
# Density = 2.327271 g / cm^3
# Si number density = 23.325800 Si / 1000 Ang^3
#
#
#
# Elastic Constant Matrix: (Units=GPa)
#
#
# Indices 1 2 3 4 5 6 
#
# 1 100.7387 11.4842 78.2457 0.0000 0.0000 0.0000
# 2 11.4842 83.7664 28.5764 0.0000 0.0000 0.0000
# 3 78.2457 28.5764 198.1876 0.0000 0.0000 0.0000
# 4 0.0000 0.0000 0.0000 27.9391 0.0000 0.0000
# 5 0.0000 0.0000 0.0000 0.0000 19.0273 0.0000
# 6 0.0000 0.0000 0.0000 0.0000 0.0000 27.8477
#
#
#
# Elastic Compliance Matrix: (Units=1/GPa)
#
#
# Indices 1 2 3 4 5 6 
#
# 1 0.014317 -0.000036 -0.005647 0.000000 0.000000 0.000000
# 2 -0.000036 0.012556 -0.001796 0.000000 0.000000 0.000000
# 3 -0.005647 -0.001796 0.007534 0.000000 0.000000 0.000000
# 4 0.000000 0.000000 0.000000 0.035792 0.000000 0.000000
# 5 0.000000 0.000000 0.000000 0.000000 0.052556 0.000000
# 6 0.000000 0.000000 0.000000 0.000000 0.000000 0.035910
#
#
# Mechanical properties :
#
#
# Convention : Reuss Voigt Hill
#
# Bulk Modulus (GPa) = 51.41964 68.81169 60.11566
# Shear Modulus (GPa) = 27.76131 32.58858 30.17495
#
# Velocity S-wave (km/s) = 3.45360 3.74184 3.60061
# Velocity P-wave (km/s) = 6.16402 6.94498 6.56612
#
# Compressibility (1/GPa) = 0.01944782
#
# Stress axis : x y z
#
# Youngs Moduli (GPa) = 69.84630 79.64539 132.72682
#
# Poissons Ratio (x) = 0.00289 0.74954
# Poissons Ratio (y) = 0.00254 0.23838
# Poissons Ratio (z) = 0.39444 0.14305
#
# Static dielectric constant tensor:
#      x y z
#    x 1.880450 0.000000 0.000000 
#    y 0.000000 1.934720 0.000000 
#    z 0.000000 0.000000 1.912540 
# 
# From -- ./inp_files/21355.got.cif
#   From: 2010.05.17/outbox.cif.g08.bks.cpg/sg57_11_cif.got.tgz:21355.got - 2010.06.03 13:58:18.
