data_PCOD9438523
_publ_section_title
;
Structure prediction by ZEFSAII (Michael W. Deem and Ramdas Pophale) SiO2 
 PCOD9438523
Probable space group: P B C M
;
_chemical_formula_sum "Si O2"
_cell_formula_units_Z 64
_cell_length_a 6.694701
_cell_length_b 30.766167
_cell_length_c 16.129572
_cell_angle_alpha 90.000000
_cell_angle_beta 90.000000
_cell_angle_gamma 90.000000
_cell_volume 3322.212606
_symmetry_space_group_name_H-M "P B C M"
_symmetry_group_IT_number 57
_symmetry_cell_setting 'orthorhombic'
loop_
_space_group_symop_operation_xyz
x,y,z
-x,-y,1/2+z
x,1/2-y,-z
-x,1/2+y,1/2-z
-x,-y,-z
x,y,1/2-z
-x,1/2+y,z
x,1/2-y,1/2+z
loop_
_atom_site_type_symbol
_atom_site_label
_atom_site_fract_x
_atom_site_fract_y
_atom_site_fract_z
Si Si1 0.519787 0.368347 0.444004
Si Si2 0.824813 0.800092 0.491397
Si Si3 0.711368 0.093764 0.390615
Si Si4 0.988259 0.490545 0.595554
Si Si5 0.904718 0.160367 0.652519
Si Si6 0.045173 0.154263 0.154140
Si Si7 0.201910 0.079081 0.656126
Si Si8 0.281554 0.069960 0.342422
O O1 0.368032 0.330707 0.474819
O O2 0.645156 0.389616 0.518803
O O3 0.680003 0.348667 0.379212
O O4 0.378643 0.405568 0.404315
O O5 0.766524 0.750000 0.500000
O O6 0.978213 0.809439 0.414632
O O7 0.926257 0.811963 0.579972
O O8 0.856689 0.052493 0.391613
O O9 0.824774 0.133688 0.347918
O O10 0.514044 0.077638 0.345742
O O11 0.892322 0.532056 0.639034
O O12 0.000000 0.500000 0.500000
O O13 0.210128 0.475093 0.619687
O O14 0.910060 0.174461 0.750000
O O15 0.026418 0.114851 0.648028
O O16 0.095208 0.166550 0.250000
O O17 0.184331 0.114020 0.123040
O O18 0.278527 0.080756 0.750000
O O19 0.200222 0.068454 0.250000
#
# Coordination Sequence:
#
# PCOD9438523 Si02
#       8
#     8   8   8   8   8   8   8   8
#     4  11  21  39  65  90 124 163 209 253 312 377
#     4  11  24  42  68  95 125 158 200 255 318 379
#     4  11  21  37  61  87 117 165 209 251 303 368
#     4  11  23  35  54  85 123 160 209 259 302 356
#     4  10  22  42  67  91 124 166 209 253 306 371
#     4  10  21  40  63  90 122 159 199 247 307 372
#     4  10  22  38  57  86 124 166 208 258 310 362
#     4  10  21  37  57  83 118 159 205 253 301 357
#
# _framework density 19.264271000000001
#
# number of rings (size 3 to 8) (size 9 to 14) (size 15 to 20)
#    0.000    1.500    2.500    2.625    3.500    6.000 
#    0.000    0.000    0.000    0.000    0.000    0.000 
#    0.000    0.000    0.000    0.000    0.000    0.000 
#
# Total GULP energy -356913.287270 kJ/mol
# GULP energy per Si atom -5576.770114 kJ/mol
# Density = 1.922042 g / cm^3
# Si number density = 19.264271 Si / 1000 Ang^3
#
#
#
# Elastic Constant Matrix: (Units=GPa)
#
#
# Indices 1 2 3 4 5 6 
#
# 1 63.1917 -1.3044 10.4662 0.0000 0.0000 0.0000
# 2 -1.3044 66.8305 31.1366 0.0000 0.0000 0.0000
# 3 10.4662 31.1366 97.4103 0.0000 0.0000 0.0000
# 4 0.0000 0.0000 0.0000 10.4049 0.0000 0.0000
# 5 0.0000 0.0000 0.0000 0.0000 34.0283 0.0000
# 6 0.0000 0.0000 0.0000 0.0000 0.0000 11.5445
#
#
#
# Elastic Compliance Matrix: (Units=1/GPa)
#
#
# Indices 1 2 3 4 5 6 
#
# 1 0.016211 0.001325 -0.002165 0.000000 0.000000 0.000000
# 2 0.001325 0.017690 -0.005797 0.000000 0.000000 0.000000
# 3 -0.002165 -0.005797 0.012351 0.000000 0.000000 0.000000
# 4 0.000000 0.000000 0.000000 0.096109 0.000000 0.000000
# 5 0.000000 0.000000 0.000000 0.000000 0.029387 0.000000
# 6 0.000000 0.000000 0.000000 0.000000 0.000000 0.086621
#
#
# Mechanical properties :
#
#
# Convention : Reuss Voigt Hill
#
# Bulk Modulus (GPa) = 30.32301 34.22547 32.27424
# Shear Modulus (GPa) = 17.69061 23.67116 20.68089
#
# Velocity S-wave (km/s) = 3.03365 3.50917 3.28004
# Velocity P-wave (km/s) = 5.29580 5.85012 5.57985
#
# Compressibility (1/GPa) = 0.03297825
#
# Stress axis : x y z
#
# Youngs Moduli (GPa) = 61.68703 56.52955 80.96225
#
# Poissons Ratio (x) = -0.07492 0.17531
# Poissons Ratio (y) = -0.08175 0.46933
# Poissons Ratio (z) = 0.13358 0.32769
#
# Static dielectric constant tensor:
#      x y z
#    x 1.718060 0.000000 0.000000 
#    y 0.000000 1.865330 0.000000 
#    z 0.000000 0.000000 1.700300 
# 
# From -- ./inp_files/20361.got.cif
#   From: 2010.05.17/outbox.cif.g08.bks.cpg/sg57_11_cif.got.tgz:20361.got - 2010.06.03 13:58:18.
