data_PCOD9438986
_publ_section_title
;
Structure prediction by ZEFSAII (Michael W. Deem and Ramdas Pophale) SiO2 
 PCOD9438986
Probable space group: P B C M
;
_chemical_formula_sum "Si O2"
_cell_formula_units_Z 60
_cell_length_a 9.733670
_cell_length_b 22.580082
_cell_length_c 14.724578
_cell_angle_alpha 90.000000
_cell_angle_beta 90.000000
_cell_angle_gamma 90.000000
_cell_volume 3236.271808
_symmetry_space_group_name_H-M "P B C M"
_symmetry_group_IT_number 57
_symmetry_cell_setting 'orthorhombic'
loop_
_space_group_symop_operation_xyz
x,y,z
-x,-y,1/2+z
x,1/2-y,-z
-x,1/2+y,1/2-z
-x,-y,-z
x,y,1/2-z
-x,1/2+y,z
x,1/2-y,1/2+z
loop_
_atom_site_type_symbol
_atom_site_label
_atom_site_fract_x
_atom_site_fract_y
_atom_site_fract_z
Si Si1 0.576652 0.271963 0.641569
Si Si2 0.305932 0.291107 0.416915
Si Si3 0.104059 0.761047 0.896491
Si Si4 0.906626 0.716038 0.750000
Si Si5 0.771384 0.484953 0.647323
Si Si6 0.743152 0.916654 0.505635
Si Si7 0.983725 0.609771 0.352842
Si Si8 0.495457 0.407405 0.644160
O O1 0.575459 0.267780 0.750000
O O2 0.462464 0.227987 0.602941
O O3 0.731313 0.259283 0.610978
O O4 0.532300 0.339491 0.619423
O O5 0.258244 0.250000 0.500000
O O6 0.212321 0.280103 0.329613
O O7 0.294561 0.358477 0.448454
O O8 0.052111 0.825996 0.865766
O O9 0.027088 0.716547 0.829475
O O10 0.065988 0.750000 0.000000
O O11 0.774163 0.511651 0.750000
O O12 0.774896 0.532190 0.566753
O O13 0.898739 0.439886 0.641234
O O14 0.632609 0.446570 0.639560
O O15 0.618068 0.930509 0.574209
O O16 0.871006 0.901831 0.570911
O O17 0.924889 0.608900 0.250000
O O18 0.448584 0.407923 0.750000
#
# Coordination Sequence:
#
# PCOD9438986 Si02
#       8
#     8   8   8   4   8   8   8   8
#     4  11  21  41  64  88 126 169 216 266 316 382
#     4  12  25  40  61  98 132 171 212 260 324 399
#     4  12  24  39  65  94 124 170 219 268 324 383
#     4  12  24  40  58  90 136 164 208 258 326 384
#     4  10  23  42  65  93 125 171 217 260 322 385
#     4  12  24  39  65  96 129 168 209 270 324 375
#     4  11  22  42  66  94 125 167 220 268 318 380
#     4  10  21  39  64  91 120 159 216 270 314 366
#
# _framework density 18.539850999999999
#
# number of rings (size 3 to 8) (size 9 to 14) (size 15 to 20)
#    0.000    0.800    4.667    3.600    0.933    0.000 
#    0.000    0.000    0.000    0.000    3.467    0.000 
#    0.000    0.000    0.000    0.000    0.000    0.000 
#
# Total GULP energy -334317.390389 kJ/mol
# GULP energy per Si atom -5571.956506 kJ/mol
# Density = 1.849765 g / cm^3
# Si number density = 18.539851 Si / 1000 Ang^3
#
#
#
# Elastic Constant Matrix: (Units=GPa)
#
#
# Indices 1 2 3 4 5 6 
#
# 1 99.5619 -0.7937 38.2648 0.0000 0.0000 0.0000
# 2 -0.7937 46.2078 15.6138 0.0000 0.0000 0.0000
# 3 38.2648 15.6138 133.4325 0.0000 0.0000 0.0000
# 4 0.0000 0.0000 0.0000 21.1136 0.0000 0.0000
# 5 0.0000 0.0000 0.0000 0.0000 -33.5364 0.0000
# 6 0.0000 0.0000 0.0000 0.0000 0.0000 11.2176
#
#
#
# Elastic Compliance Matrix: (Units=1/GPa)
#
#
# Indices 1 2 3 4 5 6 
#
# 1 0.011368 0.001350 -0.003418 0.000000 0.000000 0.000000
# 2 0.001350 0.022693 -0.003043 0.000000 0.000000 0.000000
# 3 -0.003418 -0.003043 0.008831 0.000000 0.000000 0.000000
# 4 0.000000 0.000000 0.000000 0.047363 0.000000 0.000000
# 5 0.000000 0.000000 0.000000 0.000000 -0.029818 0.000000
# 6 0.000000 0.000000 0.000000 0.000000 0.000000 0.089146
#
#
# Mechanical properties :
#
#
# Convention : Reuss Voigt Hill
#
# Bulk Modulus (GPa) = 30.60836 42.81911 36.71373
# Shear Modulus (GPa) = 29.29228 14.83343 22.06286
#
# Velocity S-wave (km/s) = 3.97919 2.83164 3.45341
# Velocity P-wave (km/s) = 6.13655 5.81694 5.97888
#
# Compressibility (1/GPa) = 0.03267081
#
# Stress axis : x y z
#
# Youngs Moduli (GPa) = 87.96251 44.06705 113.24123
#
# Poissons Ratio (x) = -0.05950 0.38708
# Poissons Ratio (y) = -0.11877 0.34455
# Poissons Ratio (z) = 0.30067 0.13408
#
# Static dielectric constant tensor:
#      x y z
#    x 1.633270 0.000000 0.000000 
#    y 0.000000 1.625560 0.000000 
#    z 0.000000 0.000000 1.644800 
# 
# From -- ./inp_files/16904.got.cif
#   From: 2010.05.17/outbox.cif.g08.bks.cpg/sg57_9_cif.got.tgz:16904.got - 2010.06.03 13:58:18.
