data_PCOD9438663
_publ_section_title
;
Structure prediction by ZEFSAII (Michael W. Deem and Ramdas Pophale) SiO2 
 PCOD9438663
Probable space group: P B C M
;
_chemical_formula_sum "Si O2"
_cell_formula_units_Z 52
_cell_length_a 5.393778
_cell_length_b 29.469452
_cell_length_c 15.068499
_cell_angle_alpha 90.000000
_cell_angle_beta 90.000000
_cell_angle_gamma 90.000000
_cell_volume 2395.163259
_symmetry_space_group_name_H-M "P B C M"
_symmetry_group_IT_number 57
_symmetry_cell_setting 'orthorhombic'
loop_
_space_group_symop_operation_xyz
x,y,z
-x,-y,1/2+z
x,1/2-y,-z
-x,1/2+y,1/2-z
-x,-y,-z
x,y,1/2-z
-x,1/2+y,z
x,1/2-y,1/2+z
loop_
_atom_site_type_symbol
_atom_site_label
_atom_site_fract_x
_atom_site_fract_y
_atom_site_fract_z
Si Si1 0.521743 0.802752 0.850589
Si Si2 0.835662 0.063665 0.850054
Si Si3 0.084515 0.030010 0.083877
Si Si4 0.340926 0.091838 0.951148
Si Si5 0.896207 0.827115 0.520438
Si Si6 0.197134 0.888256 0.851046
Si Si7 0.786270 0.250000 0.000000
O O1 0.503023 0.786683 0.750000
O O2 0.791649 0.801585 0.893225
O O3 0.441929 0.856450 0.849241
O O4 0.364566 0.773321 0.920421
O O5 0.811656 0.080662 0.750000
O O6 0.604125 0.080179 0.908977
O O7 0.103311 0.078626 0.889719
O O8 0.821945 0.008788 0.850861
O O9 0.860293 0.059224 0.126390
O O10 0.292935 0.063356 0.042297
O O11 0.000000 0.000000 0.000000
O O12 0.315340 0.145463 0.969712
O O13 0.064620 0.865235 0.564821
O O14 0.044603 0.791028 0.464197
O O15 0.094577 0.881841 0.750000
#
# Coordination Sequence:
#
# PCOD9438663 Si02
#       7
#     8   8   8   8   8   8   4
#     4  10  21  38  65  94 123 158 205 260 318 390
#     4  11  22  40  59  86 124 169 217 268 314 374
#     4   9  19  34  57  86 120 162 210 259 315 373
#     4  10  23  38  64  86 123 165 217 259 321 386
#     4  10  21  37  63  87 122 158 202 255 321 383
#     4   9  18  34  55  87 121 154 199 257 313 367
#     4  10  22  40  64  94 122 162 194 256 328 390
#
# _framework density 21.710419999999999
#
# number of rings (size 3 to 8) (size 9 to 14) (size 15 to 20)
#    0.000    2.154    0.000    2.308    8.615    0.615 
#    2.769    1.538    0.000    0.000    0.000    0.000 
#    0.000    0.000    0.000    0.000    0.000    0.000 
#
# Total GULP energy -289618.934005 kJ/mol
# GULP energy per Si atom -5569.594885 kJ/mol
# Density = 2.166101 g / cm^3
# Si number density = 21.710420 Si / 1000 Ang^3
#
#
#
# Elastic Constant Matrix: (Units=GPa)
#
#
# Indices 1 2 3 4 5 6 
#
# 1 64.8109 6.7878 25.0647 0.0000 0.0000 0.0000
# 2 6.7878 80.6733 30.7782 0.0000 0.0000 0.0000
# 3 25.0647 30.7782 96.2157 0.0000 0.0000 0.0000
# 4 0.0000 0.0000 0.0000 26.5698 0.0000 0.0000
# 5 0.0000 0.0000 0.0000 0.0000 18.9216 0.0000
# 6 0.0000 0.0000 0.0000 0.0000 0.0000 21.4559
#
#
#
# Elastic Compliance Matrix: (Units=1/GPa)
#
#
# Indices 1 2 3 4 5 6 
#
# 1 0.017164 0.000298 -0.004567 0.000000 0.000000 0.000000
# 2 0.000298 0.014124 -0.004596 0.000000 0.000000 0.000000
# 3 -0.004567 -0.004596 0.013053 0.000000 0.000000 0.000000
# 4 0.000000 0.000000 0.000000 0.037637 0.000000 0.000000
# 5 0.000000 0.000000 0.000000 0.000000 0.052850 0.000000
# 6 0.000000 0.000000 0.000000 0.000000 0.000000 0.046607
#
#
# Mechanical properties :
#
#
# Convention : Reuss Voigt Hill
#
# Bulk Modulus (GPa) = 37.57613 40.77348 39.17480
# Shear Modulus (GPa) = 24.03446 25.32741 24.68093
#
# Velocity S-wave (km/s) = 3.33084 3.41926 3.37534
# Velocity P-wave (km/s) = 5.66905 5.86599 5.76836
#
# Compressibility (1/GPa) = 0.02661264
#
# Stress axis : x y z
#
# Youngs Moduli (GPa) = 58.26004 70.80185 76.61023
#
# Poissons Ratio (x) = -0.02111 0.34986
# Poissons Ratio (y) = -0.01737 0.35208
# Poissons Ratio (z) = 0.26606 0.32539
#
# Static dielectric constant tensor:
#      x y z
#    x 1.871720 0.000000 0.000000 
#    y 0.000000 1.863450 0.000000 
#    z 0.000000 0.000000 1.801500 
# 
# From -- ./inp_files/15244.got.cif
#   From: 2010.05.17/outbox.cif.g08.bks.cpg/sg57_8_cif.got.tgz:15244.got - 2010.06.03 13:58:18.
