data_PCOD9438022
_publ_section_title
;
Structure prediction by ZEFSAII (Michael W. Deem and Ramdas Pophale) SiO2 
 PCOD9438022
Probable space group: P B C M
;
_chemical_formula_sum "Si O2"
_cell_formula_units_Z 48
_cell_length_a 13.620205
_cell_length_b 14.170217
_cell_length_c 10.108659
_cell_angle_alpha 90.000000
_cell_angle_beta 90.000000
_cell_angle_gamma 90.000000
_cell_volume 1950.983928
_symmetry_space_group_name_H-M "P B C M"
_symmetry_group_IT_number 57
_symmetry_cell_setting 'orthorhombic'
loop_
_space_group_symop_operation_xyz
x,y,z
-x,-y,1/2+z
x,1/2-y,-z
-x,1/2+y,1/2-z
-x,-y,-z
x,y,1/2-z
-x,1/2+y,z
x,1/2-y,1/2+z
loop_
_atom_site_type_symbol
_atom_site_label
_atom_site_fract_x
_atom_site_fract_y
_atom_site_fract_z
Si Si1 0.997675 0.904843 0.908210
Si Si2 0.424815 0.329816 0.750000
Si Si3 0.702479 0.389302 0.250000
Si Si4 0.347810 0.667176 0.250000
Si Si5 0.625294 0.652202 0.974721
Si Si6 0.522242 0.901154 0.250000
Si Si7 0.163016 0.368228 0.397720
Si Si8 0.790968 0.084485 0.465060
O O1 0.983110 0.919838 0.750000
O O2 0.106192 0.863278 0.932012
O O3 0.909366 0.849666 0.979555
O O4 0.000000 0.000000 0.000000
O O5 0.538207 0.359552 0.750000
O O6 0.366368 0.373150 0.626563
O O7 0.440908 0.212696 0.750000
O O8 0.676915 0.277801 0.250000
O O9 0.590436 0.425520 0.250000
O O10 0.763182 0.414709 0.381292
O O11 0.296073 0.627943 0.119405
O O12 0.572645 0.573908 0.887445
O O13 0.729780 0.676762 0.911182
O O14 0.564489 0.750000 0.000000
O O15 0.121729 0.350399 0.250000
O O16 0.191130 0.478974 0.411050
#
# Coordination Sequence:
#
# PCOD9438022 Si02
#       8
#     8   4   4   4   8   4   8   8
#     4  10  21  38  63  87 117 157 199 237 292 369
#     4   9  20  33  62  85 114 160 203 241 284 367
#     4  11  24  35  65  89 120 162 204 247 291 359
#     4  11  20  43  59  87 124 160 202 245 303 345
#     4  10  20  38  62  86 118 156 202 247 294 353
#     4   9  18  39  56  85 116 162 205 231 290 365
#     4  11  23  40  64  88 122 161 197 246 301 357
#     4  11  22  39  61  90 122 156 201 249 295 357
#
# _framework density 24.602971
#
# number of rings (size 3 to 8) (size 9 to 14) (size 15 to 20)
#    0.000    1.667    2.500    3.000    7.000    2.667 
#    0.000    6.667    0.000    0.000    0.000    0.000 
#    0.000    0.000    0.000    0.000    0.000    0.000 
#
# Total GULP energy -267801.373075 kJ/mol
# GULP energy per Si atom -5579.195272 kJ/mol
# Density = 2.454697 g / cm^3
# Si number density = 24.602971 Si / 1000 Ang^3
#
#
#
# Elastic Constant Matrix: (Units=GPa)
#
#
# Indices 1 2 3 4 5 6 
#
# 1 126.7039 -10.0119 48.5593 0.0000 0.0000 0.0000
# 2 -10.0119 58.5504 -5.9402 0.0000 0.0000 0.0000
# 3 48.5593 -5.9402 239.9126 0.0000 0.0000 0.0000
# 4 0.0000 0.0000 0.0000 15.1842 0.0000 0.0000
# 5 0.0000 0.0000 0.0000 0.0000 44.3561 0.0000
# 6 0.0000 0.0000 0.0000 0.0000 0.0000 12.4046
#
#
#
# Elastic Compliance Matrix: (Units=1/GPa)
#
#
# Indices 1 2 3 4 5 6 
#
# 1 0.008655 0.001305 -0.001719 0.000000 0.000000 0.000000
# 2 0.001305 0.017319 0.000165 0.000000 0.000000 0.000000
# 3 -0.001719 0.000165 0.004520 0.000000 0.000000 0.000000
# 4 0.000000 0.000000 0.000000 0.065858 0.000000 0.000000
# 5 0.000000 0.000000 0.000000 0.000000 0.022545 0.000000
# 6 0.000000 0.000000 0.000000 0.000000 0.000000 0.080615
#
#
# Mechanical properties :
#
#
# Convention : Reuss Voigt Hill
#
# Bulk Modulus (GPa) = 33.33851 54.48682 43.91266
# Shear Modulus (GPa) = 23.80849 40.55964 32.18407
#
# Velocity S-wave (km/s) = 3.11418 4.06466 3.62074
# Velocity P-wave (km/s) = 5.14886 6.65005 5.94701
#
# Compressibility (1/GPa) = 0.02999534
#
# Stress axis : x y z
#
# Youngs Moduli (GPa) = 115.54648 57.73928 221.22568
#
# Poissons Ratio (x) = -0.07538 0.38037
# Poissons Ratio (y) = -0.15084 -0.03641
# Poissons Ratio (z) = 0.19867 -0.00950
#
# Static dielectric constant tensor:
#      x y z
#    x 1.991480 0.000000 0.000000 
#    y 0.000000 2.127510 0.000000 
#    z 0.000000 0.000000 2.854840 
# 
# From -- ./inp_files/4969.got.cif
#   From: 2010.05.17/outbox.cif.g08.bks.cpg/sg57_3_cif.got.tgz:4969.got - 2010.06.03 13:58:18.
