data_PCOD9438043
_publ_section_title
;
Structure prediction by ZEFSAII (Michael W. Deem and Ramdas Pophale) SiO2 
 PCOD9438043
Probable space group: P B C M
;
_chemical_formula_sum "Si O2"
_cell_formula_units_Z 64
_cell_length_a 12.096139
_cell_length_b 31.373279
_cell_length_c 9.023970
_cell_angle_alpha 90.000000
_cell_angle_beta 90.000000
_cell_angle_gamma 90.000000
_cell_volume 3424.556401
_symmetry_space_group_name_H-M "P B C M"
_symmetry_group_IT_number 57
_symmetry_cell_setting 'orthorhombic'
loop_
_space_group_symop_operation_xyz
x,y,z
-x,-y,1/2+z
x,1/2-y,-z
-x,1/2+y,1/2-z
-x,-y,-z
x,y,1/2-z
-x,1/2+y,z
x,1/2-y,1/2+z
loop_
_atom_site_type_symbol
_atom_site_label
_atom_site_fract_x
_atom_site_fract_y
_atom_site_fract_z
Si Si1 0.002139 0.794035 0.927676
Si Si2 0.021976 0.954616 0.426270
Si Si3 0.481429 0.954361 0.926584
Si Si4 0.519725 0.293373 0.426709
Si Si5 0.124269 0.373382 0.071683
Si Si6 0.253060 0.817224 0.924188
Si Si7 0.616363 0.621936 0.928187
Si Si8 0.237372 0.581048 0.423085
O O1 0.992090 0.792847 0.750000
O O2 0.132455 0.799621 0.964359
O O3 0.962495 0.750000 0.000000
O O4 0.937014 0.834442 0.991981
O O5 0.016792 0.959228 0.250000
O O6 0.141196 0.937636 0.476547
O O7 0.933781 0.918041 0.470083
O O8 0.000000 0.000000 0.500000
O O9 0.496971 0.956821 0.750000
O O10 0.355747 0.939519 0.955153
O O11 0.561685 0.918631 0.994028
O O12 0.500000 0.000000 0.000000
O O13 0.476621 0.250000 0.500000
O O14 0.516285 0.289621 0.250000
O O15 0.645539 0.299984 0.480781
O O16 0.449432 0.335080 0.470751
O O17 0.112482 0.368298 0.250000
O O18 0.254141 0.374172 0.036256
O O19 0.273887 0.807956 0.750000
O O20 0.247206 0.868229 0.942128
O O21 0.606158 0.616948 0.750000
O O22 0.209834 0.572945 0.250000
#
# Coordination Sequence:
#
# PCOD9438043 Si02
#       8
#     8   8   8   8   8   8   8   8
#     4  11  23  39  62  90 121 157 197 246 298 358
#     4  11  24  40  63  92 124 161 204 253 304 363
#     4  11  24  41  64  92 124 161 202 251 303 361
#     4  11  23  38  61  89 120 157 199 247 297 358
#     4  10  23  43  63  86 120 160 202 250 302 354
#     4  10  20  38  62  90 123 156 196 246 302 357
#     4  10  23  43  63  87 121 160 203 250 302 358
#     4  10  21  40  64  90 124 160 198 249 305 357
#
# _framework density 18.688552999999999
#
# number of rings (size 3 to 8) (size 9 to 14) (size 15 to 20)
#    0.000    1.500    2.500    1.875    1.750    5.500 
#    0.000    1.250    0.000    0.000    0.000    0.000 
#    0.000    0.000    0.000    0.000    0.000    0.000 
#
# Total GULP energy -357772.161462 kJ/mol
# GULP energy per Si atom -5590.190023 kJ/mol
# Density = 1.864602 g / cm^3
# Si number density = 18.688553 Si / 1000 Ang^3
#
#
#
# Elastic Constant Matrix: (Units=GPa)
#
#
# Indices 1 2 3 4 5 6 
#
# 1 121.9157 84.3873 61.2609 0.0000 0.0000 0.0000
# 2 84.3873 172.8135 67.7822 0.0000 0.0000 0.0000
# 3 61.2609 67.7822 50.7907 0.0000 0.0000 0.0000
# 4 0.0000 0.0000 0.0000 38.7142 0.0000 0.0000
# 5 0.0000 0.0000 0.0000 0.0000 27.5283 0.0000
# 6 0.0000 0.0000 0.0000 0.0000 0.0000 45.5839
#
#
#
# Elastic Compliance Matrix: (Units=1/GPa)
#
#
# Indices 1 2 3 4 5 6 
#
# 1 0.020858 -0.000667 -0.024268 0.000000 0.000000 0.000000
# 2 -0.000667 0.012164 -0.015429 0.000000 0.000000 0.000000
# 3 -0.024268 -0.015429 0.069550 0.000000 0.000000 0.000000
# 4 0.000000 0.000000 0.000000 0.025830 0.000000 0.000000
# 5 0.000000 0.000000 0.000000 0.000000 0.036326 0.000000
# 6 0.000000 0.000000 0.000000 0.000000 0.000000 0.021938
#
#
# Mechanical properties :
#
#
# Convention : Reuss Voigt Hill
#
# Bulk Modulus (GPa) = 45.77842 85.82009 65.79925
# Shear Modulus (GPa) = 18.20327 31.17126 24.68726
#
# Velocity S-wave (km/s) = 3.12434 4.08846 3.63848
# Velocity P-wave (km/s) = 6.12894 8.26488 7.27572
#
# Compressibility (1/GPa) = 0.02184436
#
# Stress axis : x y z
#
# Youngs Moduli (GPa) = 47.94231 82.21136 14.37810
#
# Poissons Ratio (x) = 0.05481 0.34893
# Poissons Ratio (y) = 0.03196 0.22184
# Poissons Ratio (z) = 1.16349 1.26843
#
# Static dielectric constant tensor:
#      x y z
#    x 1.619020 0.000000 0.000000 
#    y 0.000000 1.627200 0.000000 
#    z 0.000000 0.000000 1.629730 
# 
# From -- ./inp_files/3821.got.cif
#   From: 2010.05.17/outbox.cif.g08.bks.cpg/sg57_2_cif.got.tgz:3821.got - 2010.06.03 13:58:18.
