data_PCOD9438827
_publ_section_title
;
Structure prediction by ZEFSAII (Michael W. Deem and Ramdas Pophale) SiO2 
 PCOD9438827
Probable space group: P B C M
;
_chemical_formula_sum "Si O2"
_cell_formula_units_Z 56
_cell_length_a 5.761260
_cell_length_b 31.239344
_cell_length_c 14.655567
_cell_angle_alpha 90.000000
_cell_angle_beta 90.000000
_cell_angle_gamma 90.000000
_cell_volume 2637.679389
_symmetry_space_group_name_H-M "P B C M"
_symmetry_group_IT_number 57
_symmetry_cell_setting 'orthorhombic'
loop_
_space_group_symop_operation_xyz
x,y,z
-x,-y,1/2+z
x,1/2-y,-z
-x,1/2+y,1/2-z
-x,-y,-z
x,y,1/2-z
-x,1/2+y,z
x,1/2-y,1/2+z
loop_
_atom_site_type_symbol
_atom_site_label
_atom_site_fract_x
_atom_site_fract_y
_atom_site_fract_z
Si Si1 0.025208 0.256800 0.141386
Si Si2 0.480177 0.704112 0.639578
Si Si3 0.309377 0.962863 0.997609
Si Si4 0.035349 0.010625 0.146794
Si Si5 0.498323 0.132357 0.502428
Si Si6 0.818310 0.603914 0.151359
Si Si7 0.198018 0.669540 0.350704
O O1 0.030979 0.265153 0.250000
O O2 0.775861 0.277447 0.110216
O O3 0.990049 0.206122 0.128339
O O4 0.280653 0.271736 0.108363
O O5 0.477705 0.704264 0.750000
O O6 0.511870 0.656931 0.597261
O O7 0.130853 0.975029 0.078477
O O8 0.386383 0.914288 0.011020
O O9 0.192261 0.970072 0.899746
O O10 0.500000 0.000000 0.000000
O O11 0.003418 0.995833 0.250000
O O12 0.197672 0.052807 0.147840
O O13 0.271148 0.121849 0.443918
O O14 0.627590 0.164579 0.432942
O O15 0.707639 0.616998 0.250000
O O16 0.074073 0.623716 0.156857
O O17 0.295261 0.681180 0.250000
#
# Coordination Sequence:
#
# PCOD9438827 Si02
#       7
#     8   8   8   8   8   8   8
#     4   9  21  44  67  91 130 175 222 275 328 388
#     4  10  24  45  67  92 133 182 223 273 326 388
#     4  11  23  41  62  91 132 166 213 270 327 389
#     4  10  22  41  65  91 126 170 215 267 330 397
#     4  12  24  38  66  95 132 167 216 274 328 400
#     4  10  21  38  62  94 127 159 205 268 335 394
#     4  10  22  40  64  95 129 166 209 264 335 398
#
# _framework density 21.230785000000001
#
# number of rings (size 3 to 8) (size 9 to 14) (size 15 to 20)
#    0.000    1.714    2.857    0.429    4.000    2.286 
#    0.000    0.000    0.000    0.000    0.000    0.000 
#    0.000    0.000    0.000    0.000    0.000    0.000 
#
# Total GULP energy -311951.553307 kJ/mol
# GULP energy per Si atom -5570.563452 kJ/mol
# Density = 2.118246 g / cm^3
# Si number density = 21.230785 Si / 1000 Ang^3
#
#
#
# Elastic Constant Matrix: (Units=GPa)
#
#
# Indices 1 2 3 4 5 6 
#
# 1 71.3885 21.0202 16.1127 0.0000 0.0000 0.0000
# 2 21.0202 69.7765 12.0747 0.0000 0.0000 0.0000
# 3 16.1127 12.0747 73.7161 0.0000 0.0000 0.0000
# 4 0.0000 0.0000 0.0000 28.5139 0.0000 0.0000
# 5 0.0000 0.0000 0.0000 0.0000 14.2848 0.0000
# 6 0.0000 0.0000 0.0000 0.0000 0.0000 30.0088
#
#
#
# Elastic Compliance Matrix: (Units=1/GPa)
#
#
# Indices 1 2 3 4 5 6 
#
# 1 0.015902 -0.004311 -0.002770 0.000000 0.000000 0.000000
# 2 -0.004311 0.015918 -0.001665 0.000000 0.000000 0.000000
# 3 -0.002770 -0.001665 0.014444 0.000000 0.000000 0.000000
# 4 0.000000 0.000000 0.000000 0.035071 0.000000 0.000000
# 5 0.000000 0.000000 0.000000 0.000000 0.070005 0.000000
# 6 0.000000 0.000000 0.000000 0.000000 0.000000 0.033324
#
#
# Mechanical properties :
#
#
# Convention : Reuss Voigt Hill
#
# Bulk Modulus (GPa) = 34.75565 34.81069 34.78317
# Shear Modulus (GPa) = 23.61317 25.60640 24.60978
#
# Velocity S-wave (km/s) = 3.33860 3.47666 3.40833
# Velocity P-wave (km/s) = 5.59175 5.70510 5.64871
#
# Compressibility (1/GPa) = 0.02877230
#
# Stress axis : x y z
#
# Youngs Moduli (GPa) = 62.88336 62.82041 69.23431
#
# Poissons Ratio (x) = 0.27084 0.19176
# Poissons Ratio (y) = 0.27111 0.11528
# Poissons Ratio (z) = 0.17417 0.10460
#
# Static dielectric constant tensor:
#      x y z
#    x 1.866330 0.000000 0.000000 
#    y 0.000000 1.770260 0.000000 
#    z 0.000000 0.000000 1.795960 
# 
# From -- ./inp_files/15263.got.cif
#   From: 2010.05.17/outbox.cif.g08.bks.cpg/sg57_8_cif.got.tgz:15263.got - 2010.06.03 13:58:18.
