data_PCOD9438205
_publ_section_title
;
Structure prediction by ZEFSAII (Michael W. Deem and Ramdas Pophale) SiO2 
 PCOD9438205
Probable space group: P B C M
;
_chemical_formula_sum "Si O2"
_cell_formula_units_Z 64
_cell_length_a 13.744871
_cell_length_b 16.057377
_cell_length_c 15.478335
_cell_angle_alpha 90.000000
_cell_angle_beta 90.000000
_cell_angle_gamma 90.000000
_cell_volume 3416.170312
_symmetry_space_group_name_H-M "P B C M"
_symmetry_group_IT_number 57
_symmetry_cell_setting 'orthorhombic'
loop_
_space_group_symop_operation_xyz
x,y,z
-x,-y,1/2+z
x,1/2-y,-z
-x,1/2+y,1/2-z
-x,-y,-z
x,y,1/2-z
-x,1/2+y,z
x,1/2-y,1/2+z
loop_
_atom_site_type_symbol
_atom_site_label
_atom_site_fract_x
_atom_site_fract_y
_atom_site_fract_z
Si Si1 0.695319 0.032058 0.430632
Si Si2 0.646172 0.686213 0.150193
Si Si3 0.972558 0.656742 0.492537
Si Si4 0.473523 0.655566 0.014245
Si Si5 0.893525 0.091536 0.151199
Si Si6 0.399624 0.374165 0.349623
Si Si7 0.798693 0.555916 0.415196
Si Si8 0.042963 0.561778 0.655517
O O1 0.607104 0.094797 0.447633
O O2 0.787573 0.076531 0.387772
O O3 0.664498 0.954528 0.370782
O O4 0.726894 0.994113 0.522650
O O5 0.615906 0.673169 0.250000
O O6 0.563153 0.660774 0.081830
O O7 0.657814 0.786251 0.138608
O O8 0.740270 0.629712 0.131705
O O9 0.936412 0.750000 0.500000
O O10 0.882083 0.596659 0.474638
O O11 0.044972 0.650446 0.411410
O O12 0.028878 0.624412 0.576750
O O13 0.436863 0.750000 0.000000
O O14 0.515818 0.626154 0.921781
O O15 0.889457 0.120210 0.250000
O O16 0.954554 0.004877 0.150107
O O17 0.433389 0.376340 0.250000
O O18 0.858645 0.492135 0.355636
O O19 0.040553 0.601544 0.750000
#
# Coordination Sequence:
#
# PCOD9438205 Si02
#       8
#     8   8   8   8   8   8   8   8
#     4  12  21  37  63  89 119 159 204 245 304 355
#     4  10  22  39  61  90 126 158 197 251 303 355
#     4  11  23  38  61  86 120 159 196 247 304 364
#     4  10  23  41  61  85 122 164 203 250 300 357
#     4  10  21  39  61  84 117 153 197 247 293 356
#     4  10  22  39  60  91 125 158 199 249 302 358
#     4  11  21  37  62  90 118 155 201 247 307 354
#     4  10  20  40  61  86 119 155 196 245 299 358
#
# _framework density 18.734428999999999
#
# number of rings (size 3 to 8) (size 9 to 14) (size 15 to 20)
#    0.000    1.500    3.750    1.875    1.750    2.500 
#    0.000    0.625    0.000    0.000    0.000    0.000 
#    0.000    0.000    0.000    0.000    0.000    0.000 
#
# Total GULP energy -357279.413808 kJ/mol
# GULP energy per Si atom -5582.490841 kJ/mol
# Density = 1.869179 g / cm^3
# Si number density = 18.734429 Si / 1000 Ang^3
#
#
#
# Elastic Constant Matrix: (Units=GPa)
#
#
# Indices 1 2 3 4 5 6 
#
# 1 62.5724 24.8094 16.0745 0.0000 0.0000 0.0000
# 2 24.8094 33.8634 11.9920 0.0000 0.0000 0.0000
# 3 16.0745 11.9920 102.5075 0.0000 0.0000 0.0000
# 4 0.0000 0.0000 0.0000 7.0524 0.0000 0.0000
# 5 0.0000 0.0000 0.0000 0.0000 11.9279 0.0000
# 6 0.0000 0.0000 0.0000 0.0000 0.0000 12.1719
#
#
#
# Elastic Compliance Matrix: (Units=1/GPa)
#
#
# Indices 1 2 3 4 5 6 
#
# 1 0.022802 -0.016107 -0.001691 0.000000 0.000000 0.000000
# 2 -0.016107 0.042184 -0.002409 0.000000 0.000000 0.000000
# 3 -0.001691 -0.002409 0.010302 0.000000 0.000000 0.000000
# 4 0.000000 0.000000 0.000000 0.141796 0.000000 0.000000
# 5 0.000000 0.000000 0.000000 0.000000 0.083837 0.000000
# 6 0.000000 0.000000 0.000000 0.000000 0.000000 0.082157
#
#
# Mechanical properties :
#
#
# Convention : Reuss Voigt Hill
#
# Bulk Modulus (GPa) = 28.67473 33.85503 31.26488
# Shear Modulus (GPa) = 11.49117 15.96826 13.72972
#
# Velocity S-wave (km/s) = 2.47932 2.92267 2.71008
# Velocity P-wave (km/s) = 4.85131 5.43135 5.14950
#
# Compressibility (1/GPa) = 0.03487391
#
# Stress axis : x y z
#
# Youngs Moduli (GPa) = 43.85550 23.70581 97.06409
#
# Poissons Ratio (x) = 0.38182 0.16418
# Poissons Ratio (y) = 0.70636 0.23385
# Poissons Ratio (z) = 0.07418 0.05711
#
# Static dielectric constant tensor:
#      x y z
#    x 1.617320 0.000000 0.000000 
#    y 0.000000 1.641050 0.000000 
#    z 0.000000 0.000000 1.654100 
# 
# From -- ./inp_files/17942.got.cif
#   From: 2010.05.17/outbox.cif.g08.bks.cpg/sg57_9_cif.got.tgz:17942.got - 2010.06.03 13:58:18.
