data_PCOD9438262
_publ_section_title
;
Structure prediction by ZEFSAII (Michael W. Deem and Ramdas Pophale) SiO2 
 PCOD9438262
Probable space group: P B C M
;
_chemical_formula_sum "Si O2"
_cell_formula_units_Z 40
_cell_length_a 7.567601
_cell_length_b 12.191921
_cell_length_c 18.757884
_cell_angle_alpha 90.000000
_cell_angle_beta 90.000000
_cell_angle_gamma 90.000000
_cell_volume 1730.669785
_symmetry_space_group_name_H-M "P B C M"
_symmetry_group_IT_number 57
_symmetry_cell_setting 'orthorhombic'
loop_
_space_group_symop_operation_xyz
x,y,z
-x,-y,1/2+z
x,1/2-y,-z
-x,1/2+y,1/2-z
-x,-y,-z
x,y,1/2-z
-x,1/2+y,z
x,1/2-y,1/2+z
loop_
_atom_site_type_symbol
_atom_site_label
_atom_site_fract_x
_atom_site_fract_y
_atom_site_fract_z
Si Si1 0.545203 0.583587 0.170663
Si Si2 0.759602 0.591979 0.981411
Si Si3 0.639170 0.399026 0.056090
Si Si4 0.156896 0.269060 0.618143
Si Si5 0.223320 0.728296 0.330194
O O1 0.579546 0.543130 0.250000
O O2 0.596128 0.492664 0.114151
O O3 0.665389 0.691429 0.157079
O O4 0.343398 0.620539 0.164286
O O5 0.760763 0.462654 0.998602
O O6 0.847152 0.655840 0.047147
O O7 0.550538 0.625833 0.979009
O O8 0.835079 0.643445 0.909074
O O9 0.723375 0.302113 0.101460
O O10 0.984284 0.290831 0.663573
O O11 0.261549 0.773943 0.250000
#
# Coordination Sequence:
#
# PCOD9438262 Si02
#       5
#     8   8   8   8   8
#     4  10  21  40  63  88 129 168 209 263 309 368
#     4   9  20  40  60  90 122 160 202 255 315 362
#     4  10  20  41  66  91 125 164 213 258 317 377
#     4  10  20  41  61  91 126 165 203 258 318 371
#     4  11  23  40  64  93 123 169 215 254 316 379
#
# _framework density 23.112439999999999
#
# number of rings (size 3 to 8) (size 9 to 14) (size 15 to 20)
#    0.000    2.000    2.000    1.200    0.000    0.800 
#   28.800    0.000    0.000    0.000    0.000    0.000 
#    0.000    0.000    0.000    0.000    0.000    0.000 
#
# Total GULP energy -223525.311744 kJ/mol
# GULP energy per Si atom -5588.132794 kJ/mol
# Density = 2.305983 g / cm^3
# Si number density = 23.112440 Si / 1000 Ang^3
#
#
#
# Elastic Constant Matrix: (Units=GPa)
#
#
# Indices 1 2 3 4 5 6 
#
# 1 66.8488 0.9483 15.5873 0.0000 0.0000 0.0000
# 2 0.9483 43.2205 18.0604 0.0000 0.0000 0.0000
# 3 15.5873 18.0604 86.6867 0.0000 0.0000 0.0000
# 4 0.0000 0.0000 0.0000 33.0601 0.0000 0.0000
# 5 0.0000 0.0000 0.0000 0.0000 35.6556 0.0000
# 6 0.0000 0.0000 0.0000 0.0000 0.0000 16.3325
#
#
#
# Elastic Compliance Matrix: (Units=1/GPa)
#
#
# Indices 1 2 3 4 5 6 
#
# 1 0.015647 0.000912 -0.003003 0.000000 0.000000 0.000000
# 2 0.000912 0.025397 -0.005455 0.000000 0.000000 0.000000
# 3 -0.003003 -0.005455 0.013212 0.000000 0.000000 0.000000
# 4 0.000000 0.000000 0.000000 0.030248 0.000000 0.000000
# 5 0.000000 0.000000 0.000000 0.000000 0.028046 0.000000
# 6 0.000000 0.000000 0.000000 0.000000 0.000000 0.061228
#
#
# Mechanical properties :
#
#
# Convention : Reuss Voigt Hill
#
# Bulk Modulus (GPa) = 25.53497 29.54978 27.54238
# Shear Modulus (GPa) = 24.76171 27.82031 26.29101
#
# Velocity S-wave (km/s) = 3.27671 3.47319 3.37638
# Velocity P-wave (km/s) = 5.03864 5.37560 5.20985
#
# Compressibility (1/GPa) = 0.03916199
#
# Stress axis : x y z
#
# Youngs Moduli (GPa) = 63.91201 39.37528 75.68673
#
# Poissons Ratio (x) = -0.03590 0.22732
# Poissons Ratio (y) = -0.05827 0.41288
# Poissons Ratio (z) = 0.19195 0.21480
#
# Static dielectric constant tensor:
#      x y z
#    x 1.855420 0.000000 0.000000 
#    y 0.000000 1.895310 0.000000 
#    z 0.000000 0.000000 1.855750 
# 
# From -- ./inp_files/26114.got.cif
#   From: 2010.05.17/outbox.cif.g08.bks.cpg/sg57_14_cif.got.tgz:26114.got - 2010.06.03 13:58:18.
