data_PCOD9438618
_publ_section_title
;
Structure prediction by ZEFSAII (Michael W. Deem and Ramdas Pophale) SiO2 
 PCOD9438618
Probable space group: P B C M
;
_chemical_formula_sum "Si O2"
_cell_formula_units_Z 64
_cell_length_a 29.251386
_cell_length_b 5.438771
_cell_length_c 19.075525
_cell_angle_alpha 90.000000
_cell_angle_beta 90.000000
_cell_angle_gamma 90.000000
_cell_volume 3034.755600
_symmetry_space_group_name_H-M "P B C M"
_symmetry_group_IT_number 57
_symmetry_cell_setting 'orthorhombic'
loop_
_space_group_symop_operation_xyz
x,y,z
-x,-y,1/2+z
x,1/2-y,-z
-x,1/2+y,1/2-z
-x,-y,-z
x,y,1/2-z
-x,1/2+y,z
x,1/2-y,1/2+z
loop_
_atom_site_type_symbol
_atom_site_label
_atom_site_fract_x
_atom_site_fract_y
_atom_site_fract_z
Si Si1 0.178538 0.264595 0.917104
Si Si2 0.027572 0.711662 0.334119
Si Si3 0.315605 0.653890 0.427754
Si Si4 0.470821 0.633544 0.170198
Si Si5 0.122117 0.761722 0.583114
Si Si6 0.262408 0.151024 0.828854
Si Si7 0.407318 0.379556 0.069790
Si Si8 0.642062 0.947311 0.828818
O O1 0.147386 0.502852 0.902905
O O2 0.222968 0.294150 0.868677
O O3 0.152919 0.004808 0.902157
O O4 0.190625 0.250000 0.000000
O O5 0.034416 0.712428 0.250000
O O6 0.075806 0.718356 0.373139
O O7 0.000772 0.459345 0.351974
O O8 0.296333 0.750000 0.500000
O O9 0.274204 0.573072 0.379286
O O10 0.355521 0.462454 0.448774
O O11 0.344055 0.839869 0.380748
O O12 0.450850 0.619417 0.250000
O O13 0.496012 0.895318 0.165016
O O14 0.436803 0.595780 0.104504
O O15 0.111822 0.750000 0.500000
O O16 0.249135 0.085190 0.750000
O O17 0.311653 0.284654 0.825469
O O18 0.399143 0.198348 0.135553
O O19 0.426570 0.250000 0.000000
O O20 0.631550 0.026342 0.750000
#
# Coordination Sequence:
#
# PCOD9438618 Si02
#       8
#     8   8   8   8   8   8   8   8
#     4  10  23  39  61  87 123 166 208 258 313 373
#     4  10  21  37  60  89 120 156 200 253 315 376
#     4  11  23  38  65  92 124 164 207 261 317 378
#     4  10  24  44  66  94 128 169 211 254 313 379
#     4  10  22  40  59  89 122 160 209 254 311 378
#     4  10  24  40  59  90 122 162 215 262 313 375
#     4  11  23  40  62  94 126 160 208 255 317 377
#     4  10  22  40  61  89 123 159 205 262 310 370
#
# _framework density 21.089010999999999
#
# number of rings (size 3 to 8) (size 9 to 14) (size 15 to 20)
#    0.000    1.750    1.250    1.500    5.250    4.000 
#    0.000    0.000    0.000    0.000    0.000    0.000 
#    0.000    0.000    0.000    0.000    0.000    0.000 
#
# Total GULP energy -357378.324574 kJ/mol
# GULP energy per Si atom -5584.036321 kJ/mol
# Density = 2.104101 g / cm^3
# Si number density = 21.089011 Si / 1000 Ang^3
#
#
#
# Elastic Constant Matrix: (Units=GPa)
#
#
# Indices 1 2 3 4 5 6 
#
# 1 82.5588 28.8129 46.5733 0.0000 0.0000 0.0000
# 2 28.8129 102.7875 35.9757 0.0000 0.0000 0.0000
# 3 46.5733 35.9757 105.1392 0.0000 0.0000 0.0000
# 4 0.0000 0.0000 0.0000 17.4619 0.0000 0.0000
# 5 0.0000 0.0000 0.0000 0.0000 14.8435 0.0000
# 6 0.0000 0.0000 0.0000 0.0000 0.0000 31.6375
#
#
#
# Elastic Compliance Matrix: (Units=1/GPa)
#
#
# Indices 1 2 3 4 5 6 
#
# 1 0.016640 -0.002368 -0.006561 0.000000 0.000000 0.000000
# 2 -0.002368 0.011390 -0.002848 0.000000 0.000000 0.000000
# 3 -0.006561 -0.002848 0.013392 0.000000 0.000000 0.000000
# 4 0.000000 0.000000 0.000000 0.057268 0.000000 0.000000
# 5 0.000000 0.000000 0.000000 0.000000 0.067370 0.000000
# 6 0.000000 0.000000 0.000000 0.000000 0.000000 0.031608
#
#
# Mechanical properties :
#
#
# Convention : Reuss Voigt Hill
#
# Bulk Modulus (GPa) = 55.96767 57.02325 56.49546
# Shear Modulus (GPa) = 22.00930 24.73015 23.36972
#
# Velocity S-wave (km/s) = 3.23404 3.42812 3.33250
# Velocity P-wave (km/s) = 6.36724 6.53968 6.45404
#
# Compressibility (1/GPa) = 0.01786746
#
# Stress axis : x y z
#
# Youngs Moduli (GPa) = 60.09574 87.80012 74.67184
#
# Poissons Ratio (x) = 0.20793 0.48990
# Poissons Ratio (y) = 0.14232 0.21267
# Poissons Ratio (z) = 0.39427 0.25007
#
# Static dielectric constant tensor:
#      x y z
#    x 1.770950 0.000000 0.000000 
#    y 0.000000 1.830590 0.000000 
#    z 0.000000 0.000000 1.819830 
# 
# From -- ./inp_files/23182.got.cif
#   From: 2010.05.17/outbox.cif.g08.bks.cpg/sg57_12_cif.got.tgz:23182.got - 2010.06.03 13:58:18.
