data_PCOD9438265
_publ_section_title
;
Structure prediction by ZEFSAII (Michael W. Deem and Ramdas Pophale) SiO2 
 PCOD9438265
Probable space group: P B C M
;
_chemical_formula_sum "Si O2"
_cell_formula_units_Z 48
_cell_length_a 14.037812
_cell_length_b 9.536111
_cell_length_c 19.179445
_cell_angle_alpha 90.000000
_cell_angle_beta 90.000000
_cell_angle_gamma 90.000000
_cell_volume 2567.478143
_symmetry_space_group_name_H-M "P B C M"
_symmetry_group_IT_number 57
_symmetry_cell_setting 'orthorhombic'
loop_
_space_group_symop_operation_xyz
x,y,z
-x,-y,1/2+z
x,1/2-y,-z
-x,1/2+y,1/2-z
-x,-y,-z
x,y,1/2-z
-x,1/2+y,z
x,1/2-y,1/2+z
loop_
_atom_site_type_symbol
_atom_site_label
_atom_site_fract_x
_atom_site_fract_y
_atom_site_fract_z
Si Si1 0.074762 0.046264 0.667906
Si Si2 0.231430 0.809387 0.828950
Si Si3 0.411285 0.336474 0.072878
Si Si4 0.146139 0.499538 0.670077
Si Si5 0.586992 0.167938 0.426720
Si Si6 0.796007 0.751203 0.083406
O O1 0.078308 0.086499 0.750000
O O2 0.144635 0.915003 0.657012
O O3 0.965829 0.008303 0.652636
O O4 0.117498 0.167230 0.619842
O O5 0.265147 0.838185 0.750000
O O6 0.189169 0.654034 0.831579
O O7 0.317925 0.823363 0.881713
O O8 0.433359 0.501477 0.064047
O O9 0.498397 0.252197 0.108215
O O10 0.305393 0.320901 0.103774
O O11 0.403624 0.250000 0.000000
O O12 0.154791 0.445702 0.750000
O O13 0.200562 0.403121 0.615458
O O14 0.602434 0.250000 0.500000
O O15 0.805966 0.750000 0.000000
#
# Coordination Sequence:
#
# PCOD9438265 Si02
#       6
#     8   8   8   8   8   8
#     4  10  20  41  63  84 117 162 203 238 290 354
#     4  10  22  38  59  89 119 150 199 249 294 342
#     4  10  22  38  61  91 116 155 196 238 293 358
#     4  10  22  39  63  86 115 162 204 237 287 358
#     4  11  22  39  65  86 117 158 196 241 291 357
#     4  11  23  37  59  92 124 149 195 249 296 345
#
# _framework density 18.695388000000001
#
# number of rings (size 3 to 8) (size 9 to 14) (size 15 to 20)
#    0.000    1.667    1.667    3.500    7.000    3.333 
#    0.000    4.167    0.000    0.000    0.000    0.000 
#    0.000    0.000    0.000    0.000    0.000    0.000 
#
# Total GULP energy -267788.262925 kJ/mol
# GULP energy per Si atom -5578.922144 kJ/mol
# Density = 1.865284 g / cm^3
# Si number density = 18.695388 Si / 1000 Ang^3
#
#
#
# Elastic Constant Matrix: (Units=GPa)
#
#
# Indices 1 2 3 4 5 6 
#
# 1 104.6488 26.1045 33.4957 0.0000 0.0000 0.0000
# 2 26.1045 114.5192 23.4459 0.0000 0.0000 0.0000
# 3 33.4957 23.4459 37.5777 0.0000 0.0000 0.0000
# 4 0.0000 0.0000 0.0000 27.8021 0.0000 0.0000
# 5 0.0000 0.0000 0.0000 0.0000 -5.9808 0.0000
# 6 0.0000 0.0000 0.0000 0.0000 0.0000 24.4170
#
#
#
# Elastic Compliance Matrix: (Units=1/GPa)
#
#
# Indices 1 2 3 4 5 6 
#
# 1 0.013419 -0.000699 -0.011525 0.000000 0.000000 0.000000
# 2 -0.000699 0.010047 -0.005646 0.000000 0.000000 0.000000
# 3 -0.011525 -0.005646 0.040407 0.000000 0.000000 0.000000
# 4 0.000000 0.000000 0.000000 0.035969 0.000000 0.000000
# 5 0.000000 0.000000 0.000000 0.000000 -0.167202 0.000000
# 6 0.000000 0.000000 0.000000 0.000000 0.000000 0.040955
#
#
# Mechanical properties :
#
#
# Convention : Reuss Voigt Hill
#
# Bulk Modulus (GPa) = 35.54457 46.98200 41.26328
# Shear Modulus (GPa) = 267.19307 20.82764 144.01035
#
# Velocity S-wave (km/s) = 11.96785 3.34136 8.78619
# Velocity P-wave (km/s) = 14.49229 6.33017 11.18252
#
# Compressibility (1/GPa) = 0.02813370
#
# Stress axis : x y z
#
# Youngs Moduli (GPa) = 74.52047 99.52830 24.74815
#
# Poissons Ratio (x) = 0.06960 0.28522
# Poissons Ratio (y) = 0.05211 0.13972
# Poissons Ratio (z) = 0.85886 0.56189
#
# Static dielectric constant tensor:
#      x y z
#    x 1.659270 0.000000 0.000000 
#    y 0.000000 1.660070 0.000000 
#    z 0.000000 0.000000 1.641260 
# 
# From -- ./inp_files/22399.got.cif
#   From: 2010.05.17/outbox.cif.g08.bks.cpg/sg57_12_cif.got.tgz:22399.got - 2010.06.03 13:58:18.
