data_PCOD9438427
_publ_section_title
;
Structure prediction by ZEFSAII (Michael W. Deem and Ramdas Pophale) SiO2 
 PCOD9438427
Probable space group: P B C M
;
_chemical_formula_sum "Si O2"
_cell_formula_units_Z 48
_cell_length_a 17.979520
_cell_length_b 9.227980
_cell_length_c 14.298004
_cell_angle_alpha 90.000000
_cell_angle_beta 90.000000
_cell_angle_gamma 90.000000
_cell_volume 2372.248343
_symmetry_space_group_name_H-M "P B C M"
_symmetry_group_IT_number 57
_symmetry_cell_setting 'orthorhombic'
loop_
_space_group_symop_operation_xyz
x,y,z
-x,-y,1/2+z
x,1/2-y,-z
-x,1/2+y,1/2-z
-x,-y,-z
x,y,1/2-z
-x,1/2+y,z
x,1/2-y,1/2+z
loop_
_atom_site_type_symbol
_atom_site_label
_atom_site_fract_x
_atom_site_fract_y
_atom_site_fract_z
Si Si1 0.460234 0.904042 0.361066
Si Si2 0.824995 0.161599 0.146419
Si Si3 0.608289 0.903477 0.016616
Si Si4 0.043827 0.640824 0.587718
Si Si5 0.662182 0.156696 0.358513
Si Si6 0.889790 0.596144 0.964931
O O1 0.469939 0.931693 0.250000
O O2 0.537263 0.877529 0.415094
O O3 0.405460 0.767167 0.372951
O O4 0.421616 0.033807 0.418396
O O5 0.823578 0.098232 0.250000
O O6 0.891307 0.278946 0.143876
O O7 0.743435 0.228184 0.128734
O O8 0.838015 0.028853 0.076202
O O9 0.654745 0.025348 0.069837
O O10 0.646652 0.750000 0.000000
O O11 0.038733 0.750000 0.500000
O O12 0.072042 0.484704 0.553547
O O13 0.956795 0.621751 0.611059
O O14 0.656993 0.107848 0.250000
O O15 0.859635 0.750000 0.000000
#
# Coordination Sequence:
#
# PCOD9438427 Si02
#       6
#     8   8   8   8   8   8
#     4  10  21  38  59  83 113 149 188 227 269 331
#     4  10  21  36  55  81 110 143 184 229 276 324
#     4  11  22  35  57  87 113 143 184 229 284 336
#     4   8  16  32  53  75 103 143 184 217 259 325
#     4  10  22  40  58  78 111 151 190 232 277 332
#     4   9  17  32  54  79 108 143 181 222 272 327
#
# _framework density 20.233968000000001
#
# number of rings (size 3 to 8) (size 9 to 14) (size 15 to 20)
#    0.000    2.333    0.000    4.000    0.000    8.000 
#    0.000    0.833    0.000    4.000    0.000    0.000 
#    0.000    0.000    0.000    0.000    0.000    0.000 
#
# Total GULP energy -267427.038789 kJ/mol
# GULP energy per Si atom -5571.396641 kJ/mol
# Density = 2.018791 g / cm^3
# Si number density = 20.233968 Si / 1000 Ang^3
#
#
#
# Elastic Constant Matrix: (Units=GPa)
#
#
# Indices 1 2 3 4 5 6 
#
# 1 81.7103 0.4755 15.4804 0.0000 0.0000 0.0000
# 2 0.4755 92.0887 26.7399 0.0000 0.0000 0.0000
# 3 15.4804 26.7399 81.4625 0.0000 0.0000 0.0000
# 4 0.0000 0.0000 0.0000 17.4630 0.0000 0.0000
# 5 0.0000 0.0000 0.0000 0.0000 24.5444 0.0000
# 6 0.0000 0.0000 0.0000 0.0000 0.0000 20.8560
#
#
#
# Elastic Compliance Matrix: (Units=1/GPa)
#
#
# Indices 1 2 3 4 5 6 
#
# 1 0.012737 0.000704 -0.002651 0.000000 0.000000 0.000000
# 2 0.000704 0.012042 -0.004087 0.000000 0.000000 0.000000
# 3 -0.002651 -0.004087 0.014121 0.000000 0.000000 0.000000
# 4 0.000000 0.000000 0.000000 0.057264 0.000000 0.000000
# 5 0.000000 0.000000 0.000000 0.000000 0.040743 0.000000
# 6 0.000000 0.000000 0.000000 0.000000 0.000000 0.047948
#
#
# Mechanical properties :
#
#
# Convention : Reuss Voigt Hill
#
# Bulk Modulus (GPa) = 37.26938 37.85036 37.55987
# Shear Modulus (GPa) = 24.28770 26.74373 25.51571
#
# Velocity S-wave (km/s) = 3.46836 3.63950 3.55496
# Velocity P-wave (km/s) = 5.87354 6.03392 5.95427
#
# Compressibility (1/GPa) = 0.02683168
#
# Stress axis : x y z
#
# Youngs Moduli (GPa) = 78.51386 83.04203 70.81715
#
# Poissons Ratio (x) = -0.05847 0.18777
# Poissons Ratio (y) = -0.05529 0.28940
# Poissons Ratio (z) = 0.20818 0.33936
#
# Static dielectric constant tensor:
#      x y z
#    x 1.794390 0.000000 0.000000 
#    y 0.000000 1.708930 0.000000 
#    z 0.000000 0.000000 1.907100 
# 
# From -- ./inp_files/18959.got.cif
#   From: 2010.05.17/outbox.cif.g08.bks.cpg/sg57_10_cif.got.tgz:18959.got - 2010.06.03 13:58:18.
