data_PCOD9438635
_publ_section_title
;
Structure prediction by ZEFSAII (Michael W. Deem and Ramdas Pophale) SiO2 
 PCOD9438635
Probable space group: P B C M
;
_chemical_formula_sum "Si O2"
_cell_formula_units_Z 60
_cell_length_a 18.809619
_cell_length_b 18.271971
_cell_length_c 9.173963
_cell_angle_alpha 90.000000
_cell_angle_beta 90.000000
_cell_angle_gamma 90.000000
_cell_volume 3152.988453
_symmetry_space_group_name_H-M "P B C M"
_symmetry_group_IT_number 57
_symmetry_cell_setting 'orthorhombic'
loop_
_space_group_symop_operation_xyz
x,y,z
-x,-y,1/2+z
x,1/2-y,-z
-x,1/2+y,1/2-z
-x,-y,-z
x,y,1/2-z
-x,1/2+y,z
x,1/2-y,1/2+z
loop_
_atom_site_type_symbol
_atom_site_label
_atom_site_fract_x
_atom_site_fract_y
_atom_site_fract_z
Si Si1 0.356569 0.323409 0.577361
Si Si2 0.574155 0.519453 0.424796
Si Si3 0.710003 0.452365 0.578663
Si Si4 0.949807 0.320995 0.584857
Si Si5 0.221815 0.113089 0.581129
Si Si6 0.196475 0.829120 0.073527
Si Si7 0.071413 0.428862 0.986019
Si Si8 0.970952 0.477821 0.250000
O O1 0.383439 0.250000 0.500000
O O2 0.351931 0.312287 0.750000
O O3 0.404488 0.395414 0.550089
O O4 0.279060 0.342527 0.512011
O O5 0.500000 0.500000 0.500000
O O6 0.572410 0.507600 0.250000
O O7 0.635894 0.471726 0.500624
O O8 0.700763 0.433296 0.750000
O O9 0.755215 0.527649 0.574461
O O10 0.750661 0.389153 0.491759
O O11 0.977816 0.250000 0.500000
O O12 0.926161 0.303510 0.750000
O O13 0.882880 0.345642 0.487988
O O14 0.012145 0.379311 0.592976
O O15 0.225166 0.136185 0.750000
O O16 0.141801 0.115627 0.523109
O O17 0.197240 0.826827 0.250000
O O18 0.212904 0.750000 0.000000
O O19 0.084724 0.495369 0.877501
O O20 0.030595 0.456667 0.126692
#
# Coordination Sequence:
#
# PCOD9438635 Si02
#       8
#     8   8   8   8   8   8   8   4
#     4  10  22  40  64  92 126 162 201 243 294 355
#     4  10  21  40  65  97 128 160 199 240 288 344
#     4  10  21  37  61  88 119 152 189 237 286 345
#     4  11  24  39  55  75 103 144 191 240 294 353
#     4  10  22  37  57  85 115 152 197 244 300 354
#     4  11  23  38  58  81 111 150 192 241 294 352
#     4  11  23  38  55  80 111 147 196 248 306 360
#     4  10  24  36  54  80 110 146 190 252 306 356
#
# _framework density 19.029565999999999
#
# number of rings (size 3 to 8) (size 9 to 14) (size 15 to 20)
#    0.000    1.600    1.333    3.600    6.533    2.667 
#    0.000    0.667    0.000    1.600    0.000    0.000 
#    0.000    0.000    0.000    0.000    0.000    0.000 
#
# Total GULP energy -334021.068451 kJ/mol
# GULP energy per Si atom -5567.017808 kJ/mol
# Density = 1.898625 g / cm^3
# Si number density = 19.029566 Si / 1000 Ang^3
#
#
#
# Elastic Constant Matrix: (Units=GPa)
#
#
# Indices 1 2 3 4 5 6 
#
# 1 95.0720 33.6790 50.8307 0.0000 0.0000 0.0000
# 2 33.6790 78.5604 54.0587 0.0000 0.0000 0.0000
# 3 50.8307 54.0587 182.9855 0.0000 0.0000 0.0000
# 4 0.0000 0.0000 0.0000 26.4406 0.0000 0.0000
# 5 0.0000 0.0000 0.0000 0.0000 24.0157 0.0000
# 6 0.0000 0.0000 0.0000 0.0000 0.0000 16.4539
#
#
#
# Elastic Compliance Matrix: (Units=1/GPa)
#
#
# Indices 1 2 3 4 5 6 
#
# 1 0.013265 -0.003955 -0.002516 0.000000 0.000000 0.000000
# 2 -0.003955 0.017156 -0.003970 0.000000 0.000000 0.000000
# 3 -0.002516 -0.003970 0.007337 0.000000 0.000000 0.000000
# 4 0.000000 0.000000 0.000000 0.037821 0.000000 0.000000
# 5 0.000000 0.000000 0.000000 0.000000 0.041639 0.000000
# 6 0.000000 0.000000 0.000000 0.000000 0.000000 0.060776
#
#
# Mechanical properties :
#
#
# Convention : Reuss Voigt Hill
#
# Bulk Modulus (GPa) = 59.25790 70.41719 64.83754
# Shear Modulus (GPa) = 24.44973 27.91867 26.18420
#
# Velocity S-wave (km/s) = 3.58834 3.83446 3.71344
# Velocity P-wave (km/s) = 6.95527 7.52918 7.24790
#
# Compressibility (1/GPa) = 0.01687539
#
# Stress axis : x y z
#
# Youngs Moduli (GPa) = 75.38753 58.28771 136.30158
#
# Poissons Ratio (x) = 0.23053 0.34298
# Poissons Ratio (y) = 0.29817 0.54108
# Poissons Ratio (z) = 0.18970 0.23139
#
# Static dielectric constant tensor:
#      x y z
#    x 1.629400 0.000000 0.000000 
#    y 0.000000 1.790230 0.000000 
#    z 0.000000 0.000000 1.643860 
# 
# From -- ./inp_files/6866.got.cif
#   From: 2010.05.17/outbox.cif.g08.bks.cpg/sg57_4_cif.got.tgz:6866.got - 2010.06.03 13:58:18.
