data_PCOD9438686
_publ_section_title
;
Structure prediction by ZEFSAII (Michael W. Deem and Ramdas Pophale) SiO2 
 PCOD9438686
Probable space group: P B C M
;
_chemical_formula_sum "Si O2"
_cell_formula_units_Z 48
_cell_length_a 9.836012
_cell_length_b 16.188928
_cell_length_c 14.075959
_cell_angle_alpha 90.000000
_cell_angle_beta 90.000000
_cell_angle_gamma 90.000000
_cell_volume 2241.378154
_symmetry_space_group_name_H-M "P B C M"
_symmetry_group_IT_number 57
_symmetry_cell_setting 'orthorhombic'
loop_
_space_group_symop_operation_xyz
x,y,z
-x,-y,1/2+z
x,1/2-y,-z
-x,1/2+y,1/2-z
-x,-y,-z
x,y,1/2-z
-x,1/2+y,z
x,1/2-y,1/2+z
loop_
_atom_site_type_symbol
_atom_site_label
_atom_site_fract_x
_atom_site_fract_y
_atom_site_fract_z
Si Si1 0.794225 0.839022 0.459659
Si Si2 0.158813 0.991862 0.022519
Si Si3 0.347245 0.745702 0.364480
Si Si4 0.471349 0.393578 0.138381
Si Si5 0.631480 0.439210 0.864565
Si Si6 0.910396 0.338848 0.136938
O O1 0.759405 0.750000 0.500000
O O2 0.682417 0.865504 0.382695
O O3 0.944468 0.834213 0.414188
O O4 0.792096 0.913854 0.536387
O O5 0.237676 0.959106 0.929337
O O6 0.165603 0.923367 0.104507
O O7 0.000000 0.000000 0.000000
O O8 0.350690 0.749934 0.250000
O O9 0.433422 0.822472 0.403311
O O10 0.403701 0.655315 0.386347
O O11 0.190205 0.763419 0.389664
O O12 0.497206 0.394289 0.250000
O O13 0.477765 0.489782 0.109104
O O14 0.657835 0.445766 0.750000
O O15 0.929598 0.339433 0.250000
#
# Coordination Sequence:
#
# PCOD9438686 Si02
#       6
#     8   8   8   8   8   8
#     4  10  21  38  57  83 119 151 195 245 299 364
#     4   9  20  35  56  84 113 152 195 240 293 355
#     4   9  19  35  59  89 115 154 202 239 292 355
#     4   9  18  38  60  81 116 155 193 244 296 358
#     4   9  18  35  60  87 118 157 196 240 303 361
#     4  10  21  38  59  84 117 154 197 250 299 346
#
# _framework density 21.415396000000001
#
# number of rings (size 3 to 8) (size 9 to 14) (size 15 to 20)
#    0.000    2.667    0.000    0.500    4.667    4.000 
#    6.000    3.333    0.000    0.000    0.000    0.000 
#    0.000    0.000    0.000    0.000    0.000    0.000 
#
# Total GULP energy -267647.902322 kJ/mol
# GULP energy per Si atom -5575.997965 kJ/mol
# Density = 2.136665 g / cm^3
# Si number density = 21.415396 Si / 1000 Ang^3
#
#
#
# Elastic Constant Matrix: (Units=GPa)
#
#
# Indices 1 2 3 4 5 6 
#
# 1 60.2333 36.8299 -8.9703 0.0000 0.0000 0.0000
# 2 36.8299 142.0397 15.8402 0.0000 0.0000 0.0000
# 3 -8.9703 15.8402 81.9802 0.0000 0.0000 0.0000
# 4 0.0000 0.0000 0.0000 19.2150 0.0000 0.0000
# 5 0.0000 0.0000 0.0000 0.0000 18.6446 0.0000
# 6 0.0000 0.0000 0.0000 0.0000 0.0000 23.1958
#
#
#
# Elastic Compliance Matrix: (Units=1/GPa)
#
#
# Indices 1 2 3 4 5 6 
#
# 1 0.020597 -0.005715 0.003358 0.000000 0.000000 0.000000
# 2 -0.005715 0.008781 -0.002322 0.000000 0.000000 0.000000
# 3 0.003358 -0.002322 0.013014 0.000000 0.000000 0.000000
# 4 0.000000 0.000000 0.000000 0.052043 0.000000 0.000000
# 5 0.000000 0.000000 0.000000 0.000000 0.053635 0.000000
# 6 0.000000 0.000000 0.000000 0.000000 0.000000 0.043111
#
#
# Mechanical properties :
#
#
# Convention : Reuss Voigt Hill
#
# Bulk Modulus (GPa) = 30.27208 41.29473 35.78341
# Shear Modulus (GPa) = 23.63505 28.24797 25.94151
#
# Velocity S-wave (km/s) = 3.32572 3.63581 3.48422
# Velocity P-wave (km/s) = 5.37714 6.07866 5.73863
#
# Compressibility (1/GPa) = 0.03303374
#
# Stress axis : x y z
#
# Youngs Moduli (GPa) = 48.55149 113.88082 76.83934
#
# Poissons Ratio (x) = 0.65083 -0.25802
# Poissons Ratio (y) = 0.27747 0.17842
# Poissons Ratio (z) = -0.16303 0.26443
#
# Static dielectric constant tensor:
#      x y z
#    x 1.772590 0.000000 0.000000 
#    y 0.000000 1.757110 0.000000 
#    z 0.000000 0.000000 1.766740 
# 
# From -- ./inp_files/17602.got.cif
#   From: 2010.05.17/outbox.cif.g08.bks.cpg/sg57_9_cif.got.tgz:17602.got - 2010.06.03 13:58:18.
