data_PCOD9438225
_publ_section_title
;
Structure prediction by ZEFSAII (Michael W. Deem and Ramdas Pophale) SiO2 
 PCOD9438225
Probable space group: P B C M
;
_chemical_formula_sum "Si O2"
_cell_formula_units_Z 48
_cell_length_a 5.140351
_cell_length_b 13.932182
_cell_length_c 25.946402
_cell_angle_alpha 90.000000
_cell_angle_beta 90.000000
_cell_angle_gamma 90.000000
_cell_volume 1858.185457
_symmetry_space_group_name_H-M "P B C M"
_symmetry_group_IT_number 57
_symmetry_cell_setting 'orthorhombic'
loop_
_space_group_symop_operation_xyz
x,y,z
-x,-y,1/2+z
x,1/2-y,-z
-x,1/2+y,1/2-z
-x,-y,-z
x,y,1/2-z
-x,1/2+y,z
x,1/2-y,1/2+z
loop_
_atom_site_type_symbol
_atom_site_label
_atom_site_fract_x
_atom_site_fract_y
_atom_site_fract_z
Si Si1 0.918734 0.344899 0.036196
Si Si2 0.230294 0.439600 0.250000
Si Si3 0.441685 0.134424 0.492079
Si Si4 0.169987 0.918209 0.602907
Si Si5 0.817979 0.637455 0.636160
Si Si6 0.362826 0.334941 0.856601
Si Si7 0.257198 0.423786 0.750000
O O1 0.970308 0.320358 0.095483
O O2 0.892720 0.250000 0.000000
O O3 0.155163 0.400399 0.007660
O O4 0.646133 0.399713 0.035225
O O5 0.178465 0.379693 0.197405
O O6 0.509934 0.495044 0.250000
O O7 0.008291 0.518581 0.250000
O O8 0.404429 0.250000 0.500000
O O9 0.624946 0.112236 0.442806
O O10 0.344416 0.873620 0.647645
O O11 0.867678 0.883701 0.606834
O O12 0.190963 0.031153 0.612688
O O13 0.614263 0.723324 0.629668
O O14 0.259791 0.357963 0.800171
#
# Coordination Sequence:
#
# PCOD9438225 Si02
#       7
#     8   4   8   8   8   8   4
#     4  10  22  41  67 103 145 190 242 296 359 441
#     4  12  27  50  73 114 142 190 257 308 375 460
#     4  10  20  40  64  99 145 187 236 295 355 431
#     4  12  26  45  75 110 151 192 250 305 366 445
#     4  12  27  48  79 109 150 200 251 310 381 449
#     4  12  25  46  73 106 147 195 241 311 375 436
#     4  12  23  50  73 102 150 190 245 322 369 444
#
# _framework density 25.831648999999999
#
# number of rings (size 3 to 8) (size 9 to 14) (size 15 to 20)
#    0.000    0.667    3.333    5.500    0.000    6.667 
#    0.000    1.667    0.000    0.000    0.000    0.000 
#    0.000    0.000    0.000    0.000    0.000    0.000 
#
# Total GULP energy -267222.074576 kJ/mol
# GULP energy per Si atom -5567.126554 kJ/mol
# Density = 2.577286 g / cm^3
# Si number density = 25.831649 Si / 1000 Ang^3
#
#
#
# Elastic Constant Matrix: (Units=GPa)
#
#
# Indices 1 2 3 4 5 6 
#
# 1 165.3023 2.8691 24.7135 0.0000 0.0000 0.0000
# 2 2.8691 89.8824 21.7747 0.0000 0.0000 0.0000
# 3 24.7135 21.7747 118.9973 0.0000 0.0000 0.0000
# 4 0.0000 0.0000 0.0000 34.0996 0.0000 0.0000
# 5 0.0000 0.0000 0.0000 0.0000 -0.9032 0.0000
# 6 0.0000 0.0000 0.0000 0.0000 0.0000 -7.2886
#
#
#
# Elastic Compliance Matrix: (Units=1/GPa)
#
#
# Indices 1 2 3 4 5 6 
#
# 1 0.006245 0.000120 -0.001319 0.000000 0.000000 0.000000
# 2 0.000120 0.011644 -0.002156 0.000000 0.000000 0.000000
# 3 -0.001319 -0.002156 0.009072 0.000000 0.000000 0.000000
# 4 0.000000 0.000000 0.000000 0.029326 0.000000 0.000000
# 5 0.000000 0.000000 0.000000 0.000000 -1.107187 0.000000
# 6 0.000000 0.000000 0.000000 0.000000 0.000000 -0.137201
#
#
# Mechanical properties :
#
#
# Convention : Reuss Voigt Hill
#
# Bulk Modulus (GPa) = 49.37815 52.54406 50.96111
# Shear Modulus (GPa) = -4.25662 26.83654 11.28996
#
# Velocity S-wave (km/s) = -1.28507 3.22670 2.09286
# Velocity P-wave (km/s) = 4.11764 5.85382 5.06074
#
# Compressibility (1/GPa) = 0.02025187
#
# Stress axis : x y z
#
# Youngs Moduli (GPa) = 160.13793 85.88095 110.23040
#
# Poissons Ratio (x) = -0.01032 0.14538
# Poissons Ratio (y) = -0.01925 0.23762
# Poissons Ratio (z) = 0.21120 0.18513
#
# Static dielectric constant tensor:
#      x y z
#    x 2.108040 0.000000 0.000000 
#    y 0.000000 2.948940 0.000000 
#    z 0.000000 0.000000 2.351240 
# 
# From -- ./inp_files/27992.got.cif
#   From: 2010.05.17/outbox.cif.g08.bks.cpg/sg57_14_cif.got.tgz:27992.got - 2010.06.03 13:58:18.
