data_PCOD9438107
_publ_section_title
;
Structure prediction by ZEFSAII (Michael W. Deem and Ramdas Pophale) SiO2 
 PCOD9438107
Probable space group: P B C M
;
_chemical_formula_sum "Si O2"
_cell_formula_units_Z 56
_cell_length_a 10.381429
_cell_length_b 19.922422
_cell_length_c 13.808039
_cell_angle_alpha 90.000000
_cell_angle_beta 90.000000
_cell_angle_gamma 90.000000
_cell_volume 2855.822943
_symmetry_space_group_name_H-M "P B C M"
_symmetry_group_IT_number 57
_symmetry_cell_setting 'orthorhombic'
loop_
_space_group_symop_operation_xyz
x,y,z
-x,-y,1/2+z
x,1/2-y,-z
-x,1/2+y,1/2-z
-x,-y,-z
x,y,1/2-z
-x,1/2+y,z
x,1/2-y,1/2+z
loop_
_atom_site_type_symbol
_atom_site_label
_atom_site_fract_x
_atom_site_fract_y
_atom_site_fract_z
Si Si1 0.466595 0.844123 0.934358
Si Si2 0.066450 0.304038 0.867421
Si Si3 0.285732 0.413280 0.635832
Si Si4 0.541377 0.803275 0.360897
Si Si5 0.156316 0.161337 0.862072
Si Si6 0.811245 0.384740 0.634176
Si Si7 0.857512 0.979359 0.470820
O O1 0.567273 0.897585 0.891406
O O2 0.515478 0.773674 0.889720
O O3 0.320142 0.852562 0.903330
O O4 0.477879 0.843952 0.050910
O O5 0.060430 0.300621 0.750000
O O6 0.939456 0.344584 0.899707
O O7 0.195105 0.347951 0.887056
O O8 0.080212 0.226804 0.899552
O O9 0.272617 0.427041 0.750000
O O10 0.229327 0.470395 0.566411
O O11 0.498596 0.816018 0.250000
O O12 0.693426 0.818157 0.365460
O O13 0.120907 0.150538 0.750000
O O14 0.139367 0.092209 0.917794
O O15 0.812767 0.383548 0.750000
O O16 0.810427 0.461077 0.597680
O O17 0.000000 0.000000 0.500000
#
# Coordination Sequence:
#
# PCOD9438107 Si02
#       7
#     8   8   8   8   8   8   8
#     4  11  22  40  67  97 130 175 218 265 335 400
#     4   9  19  38  67  96 125 167 216 269 327 385
#     4  11  21  39  65  93 128 172 222 268 319 396
#     4  10  20  38  66  99 130 163 215 280 327 378
#     4  10  20  39  69  99 127 165 223 282 325 380
#     4  11  24  44  66  95 137 177 214 266 339 413
#     4  12  25  41  62  95 130 179 223 269 332 395
#
# _framework density 19.609058999999998
#
# number of rings (size 3 to 8) (size 9 to 14) (size 15 to 20)
#    0.000    1.429    4.286    1.714    0.000    1.714 
#    5.143    0.714    0.000    0.000    0.000    0.000 
#    0.000    0.000    0.000    0.000    0.000    0.000 
#
# Total GULP energy -312801.847769 kJ/mol
# GULP energy per Si atom -5585.747282 kJ/mol
# Density = 1.956443 g / cm^3
# Si number density = 19.609059 Si / 1000 Ang^3
#
#
#
# Elastic Constant Matrix: (Units=GPa)
#
#
# Indices 1 2 3 4 5 6 
#
# 1 75.8714 22.7346 22.3806 0.0000 0.0000 0.0000
# 2 22.7346 82.1311 43.2283 0.0000 0.0000 0.0000
# 3 22.3806 43.2283 132.3652 0.0000 0.0000 0.0000
# 4 0.0000 0.0000 0.0000 24.5681 0.0000 0.0000
# 5 0.0000 0.0000 0.0000 0.0000 27.9253 0.0000
# 6 0.0000 0.0000 0.0000 0.0000 0.0000 15.3296
#
#
#
# Elastic Compliance Matrix: (Units=1/GPa)
#
#
# Indices 1 2 3 4 5 6 
#
# 1 0.014580 -0.003307 -0.001385 0.000000 0.000000 0.000000
# 2 -0.003307 0.015453 -0.004488 0.000000 0.000000 0.000000
# 3 -0.001385 -0.004488 0.009255 0.000000 0.000000 0.000000
# 4 0.000000 0.000000 0.000000 0.040703 0.000000 0.000000
# 5 0.000000 0.000000 0.000000 0.000000 0.035810 0.000000
# 6 0.000000 0.000000 0.000000 0.000000 0.000000 0.065233
#
#
# Mechanical properties :
#
#
# Convention : Reuss Voigt Hill
#
# Bulk Modulus (GPa) = 47.78237 51.89499 49.83868
# Shear Modulus (GPa) = 24.22849 27.03287 25.63068
#
# Velocity S-wave (km/s) = 3.51889 3.71697 3.61928
# Velocity P-wave (km/s) = 6.39770 6.70398 6.55263
#
# Compressibility (1/GPa) = 0.02092822
#
# Stress axis : x y z
#
# Youngs Moduli (GPa) = 68.58871 64.71265 108.05380
#
# Poissons Ratio (x) = 0.21398 0.14968
# Poissons Ratio (y) = 0.22680 0.48490
# Poissons Ratio (z) = 0.09501 0.29040
#
# Static dielectric constant tensor:
#      x y z
#    x 1.696210 0.000000 0.000000 
#    y 0.000000 1.687920 0.000000 
#    z 0.000000 0.000000 1.731490 
# 
# From -- ./inp_files/16745.got.cif
#   From: 2010.05.17/outbox.cif.g08.bks.cpg/sg57_9_cif.got.tgz:16745.got - 2010.06.03 13:58:18.
