data_PCOD9438285
_publ_section_title
;
Structure prediction by ZEFSAII (Michael W. Deem and Ramdas Pophale) SiO2 
 PCOD9438285
Probable space group: P B C M
;
_chemical_formula_sum "Si O2"
_cell_formula_units_Z 48
_cell_length_a 31.624259
_cell_length_b 7.567416
_cell_length_c 9.834748
_cell_angle_alpha 90.000000
_cell_angle_beta 90.000000
_cell_angle_gamma 90.000000
_cell_volume 2353.592131
_symmetry_space_group_name_H-M "P B C M"
_symmetry_group_IT_number 57
_symmetry_cell_setting 'orthorhombic'
loop_
_space_group_symop_operation_xyz
x,y,z
-x,-y,1/2+z
x,1/2-y,-z
-x,1/2+y,1/2-z
-x,-y,-z
x,y,1/2-z
-x,1/2+y,z
x,1/2-y,1/2+z
loop_
_atom_site_type_symbol
_atom_site_label
_atom_site_fract_x
_atom_site_fract_y
_atom_site_fract_z
Si Si1 0.756023 0.737495 0.750000
Si Si2 0.630963 0.037423 0.019615
Si Si3 0.870472 0.415004 0.592814
Si Si4 0.303308 0.921592 0.750000
Si Si5 0.816853 0.750000 0.000000
Si Si6 0.323120 0.497487 0.750000
Si Si7 0.539402 0.426997 0.586420
Si Si8 0.038574 0.078332 0.588176
O O1 0.740233 0.531806 0.750000
O O2 0.785417 0.781110 0.623609
O O3 0.715512 0.863690 0.750000
O O4 0.669066 0.012374 0.123400
O O5 0.584852 0.976038 0.070315
O O6 0.629321 0.250000 0.000000
O O7 0.646660 0.964689 0.877757
O O8 0.859683 0.250000 0.500000
O O9 0.858900 0.386373 0.750000
O O10 0.846335 0.585564 0.537194
O O11 0.920829 0.451347 0.587622
O O12 0.305670 0.704421 0.750000
O O13 0.546350 0.250000 0.500000
O O14 0.500000 0.500000 0.500000
O O15 0.531089 0.406224 0.750000
O O16 0.050960 0.250000 0.500000
O O17 0.028407 0.113344 0.750000
O O18 0.000000 0.000000 0.500000
#
# Coordination Sequence:
#
# PCOD9438285 Si02
#       8
#     4   8   8   4   4   4   8   8
#     4  12  26  42  72 100 136 176 232 290 354 414
#     4   9  19  37  64  87 123 167 215 267 342 399
#     4  11  26  46  73 103 140 192 244 288 356 427
#     4  10  20  42  63  93 130 164 219 280 339 415
#     4  12  26  48  68 102 144 186 228 294 356 426
#     4  10  22  40  65  97 124 174 217 282 347 411
#     4  11  23  40  62  91 130 174 220 270 326 399
#     4  11  23  41  67 104 146 190 239 300 355 418
#
# _framework density 20.394359000000001
#
# number of rings (size 3 to 8) (size 9 to 14) (size 15 to 20)
#    0.000    1.333    2.500    2.500    5.833    4.000 
#    3.000    0.000    0.000    0.000    0.000    0.000 
#    0.000    0.000    0.000    0.000    0.000    0.000 
#
# Total GULP energy -267719.056045 kJ/mol
# GULP energy per Si atom -5577.480334 kJ/mol
# Density = 2.034794 g / cm^3
# Si number density = 20.394359 Si / 1000 Ang^3
#
#
#
# Elastic Constant Matrix: (Units=GPa)
#
#
# Indices 1 2 3 4 5 6 
#
# 1 105.2847 26.6199 61.9534 0.0000 0.0000 0.0000
# 2 26.6199 80.3164 49.5382 0.0000 0.0000 0.0000
# 3 61.9534 49.5382 212.7250 0.0000 0.0000 0.0000
# 4 0.0000 0.0000 0.0000 44.4412 0.0000 0.0000
# 5 0.0000 0.0000 0.0000 0.0000 31.5101 0.0000
# 6 0.0000 0.0000 0.0000 0.0000 0.0000 34.9144
#
#
#
# Elastic Compliance Matrix: (Units=1/GPa)
#
#
# Indices 1 2 3 4 5 6 
#
# 1 0.011754 -0.002084 -0.002938 0.000000 0.000000 0.000000
# 2 -0.002084 0.014908 -0.002865 0.000000 0.000000 0.000000
# 3 -0.002938 -0.002865 0.006224 0.000000 0.000000 0.000000
# 4 0.000000 0.000000 0.000000 0.022502 0.000000 0.000000
# 5 0.000000 0.000000 0.000000 0.000000 0.031736 0.000000
# 6 0.000000 0.000000 0.000000 0.000000 0.000000 0.028641
#
#
# Mechanical properties :
#
#
# Convention : Reuss Voigt Hill
#
# Bulk Modulus (GPa) = 58.43542 74.94993 66.69267
# Shear Modulus (GPa) = 36.43203 39.52077 37.97640
#
# Velocity S-wave (km/s) = 4.23114 4.40685 4.31989
# Velocity P-wave (km/s) = 7.25155 7.91984 7.59305
#
# Compressibility (1/GPa) = 0.01711291
#
# Stress axis : x y z
#
# Youngs Moduli (GPa) = 85.08022 67.07618 160.67596
#
# Poissons Ratio (x) = 0.13976 0.47205
# Poissons Ratio (y) = 0.17727 0.46033
# Poissons Ratio (z) = 0.24996 0.19217
#
# Static dielectric constant tensor:
#      x y z
#    x 1.769140 0.000000 0.000000 
#    y 0.000000 1.576040 0.000000 
#    z 0.000000 0.000000 1.776300 
# 
# From -- ./inp_files/10205.got.cif
#   From: 2010.05.17/outbox.cif.g08.bks.cpg/sg57_6_cif.got.tgz:10205.got - 2010.06.03 13:58:18.
