data_PCOD9438390
_publ_section_title
;
Structure prediction by ZEFSAII (Michael W. Deem and Ramdas Pophale) SiO2 
 PCOD9438390
Probable space group: P B C M
;
_chemical_formula_sum "Si O2"
_cell_formula_units_Z 64
_cell_length_a 9.471528
_cell_length_b 13.848370
_cell_length_c 23.075114
_cell_angle_alpha 90.000000
_cell_angle_beta 90.000000
_cell_angle_gamma 90.000000
_cell_volume 3026.652501
_symmetry_space_group_name_H-M "P B C M"
_symmetry_group_IT_number 57
_symmetry_cell_setting 'orthorhombic'
loop_
_space_group_symop_operation_xyz
x,y,z
-x,-y,1/2+z
x,1/2-y,-z
-x,1/2+y,1/2-z
-x,-y,-z
x,y,1/2-z
-x,1/2+y,z
x,1/2-y,1/2+z
loop_
_atom_site_type_symbol
_atom_site_label
_atom_site_fract_x
_atom_site_fract_y
_atom_site_fract_z
Si Si1 0.760019 0.990152 0.489277
Si Si2 0.441011 0.111079 0.685109
Si Si3 0.950509 0.404190 0.353152
Si Si4 0.779164 0.473228 0.855865
Si Si5 0.001199 0.356236 0.017196
Si Si6 0.658849 0.498834 0.387332
Si Si7 0.717472 0.813709 0.819543
Si Si8 0.948488 0.303524 0.815643
O O1 0.727024 0.998043 0.421089
O O2 0.652874 0.001172 0.542593
O O3 0.845769 0.891874 0.502966
O O4 0.881078 0.071693 0.495496
O O5 0.499023 0.124663 0.750000
O O6 0.342699 0.015719 0.683927
O O7 0.349374 0.206999 0.670829
O O8 0.560362 0.083854 0.639337
O O9 0.001575 0.362121 0.414211
O O10 0.816101 0.468800 0.367368
O O11 0.917650 0.310581 0.315987
O O12 0.080808 0.469682 0.334900
O O13 0.834304 0.363458 0.852733
O O14 0.966461 0.250000 0.000000
O O15 0.640058 0.603944 0.357562
O O16 0.704947 0.833888 0.750000
O O17 0.886065 0.813575 0.833406
O O18 0.936837 0.340260 0.750000
#
# Coordination Sequence:
#
# PCOD9438390 Si02
#       8
#     8   8   8   8   8   8   8   8
#     4   9  21  34  58  94 122 165 207 255 310 385
#     4  11  25  43  63  89 128 174 215 262 321 385
#     4  10  21  35  59  91 120 159 210 264 310 372
#     4  11  21  40  63  92 131 165 209 270 325 371
#     4   9  17  31  55  86 126 158 195 254 315 360
#     4  11  23  42  64  92 129 168 213 256 321 388
#     4  10  22  40  63  90 124 167 213 267 325 382
#     4  11  22  35  62  96 126 163 216 270 319 378
#
# _framework density 21.145474
#
# number of rings (size 3 to 8) (size 9 to 14) (size 15 to 20)
#    0.000    1.750    2.500    2.250    1.750    3.000 
#    0.000    1.250    0.000    1.500    0.000    0.000 
#    0.000    0.000    0.000    0.000    0.000    0.000 
#
# Total GULP energy -356970.245282 kJ/mol
# GULP energy per Si atom -5577.660083 kJ/mol
# Density = 2.109735 g / cm^3
# Si number density = 21.145474 Si / 1000 Ang^3
#
#
#
# Elastic Constant Matrix: (Units=GPa)
#
#
# Indices 1 2 3 4 5 6 
#
# 1 38.5914 4.7212 22.7147 0.0000 0.0000 0.0000
# 2 4.7212 84.9010 27.8277 0.0000 0.0000 0.0000
# 3 22.7147 27.8277 79.1569 0.0000 0.0000 0.0000
# 4 0.0000 0.0000 0.0000 20.0139 0.0000 0.0000
# 5 0.0000 0.0000 0.0000 0.0000 29.1762 0.0000
# 6 0.0000 0.0000 0.0000 0.0000 0.0000 25.5260
#
#
#
# Elastic Compliance Matrix: (Units=1/GPa)
#
#
# Indices 1 2 3 4 5 6 
#
# 1 0.031317 0.001361 -0.009465 0.000000 0.000000 0.000000
# 2 0.001361 0.013371 -0.005091 0.000000 0.000000 0.000000
# 3 -0.009465 -0.005091 0.017139 0.000000 0.000000 0.000000
# 4 0.000000 0.000000 0.000000 0.049965 0.000000 0.000000
# 5 0.000000 0.000000 0.000000 0.000000 0.034274 0.000000
# 6 0.000000 0.000000 0.000000 0.000000 0.000000 0.039176
#
#
# Mechanical properties :
#
#
# Convention : Reuss Voigt Hill
#
# Bulk Modulus (GPa) = 28.21935 34.79738 31.50836
# Shear Modulus (GPa) = 22.37670 24.76893 23.57282
#
# Velocity S-wave (km/s) = 3.25657 3.42622 3.34247
# Velocity P-wave (km/s) = 5.24544 5.66956 5.46162
#
# Compressibility (1/GPa) = 0.03543668
#
# Stress axis : x y z
#
# Youngs Moduli (GPa) = 31.93133 74.78600 58.34622
#
# Poissons Ratio (x) = -0.10177 0.55226
# Poissons Ratio (y) = -0.04345 0.29706
# Poissons Ratio (z) = 0.30223 0.38076
#
# Static dielectric constant tensor:
#      x y z
#    x 1.767210 0.000000 0.000000 
#    y 0.000000 1.636150 0.000000 
#    z 0.000000 0.000000 1.799760 
# 
# From -- ./inp_files/26872.got.cif
#   From: 2010.05.17/outbox.cif.g08.bks.cpg/sg57_14_cif.got.tgz:26872.got - 2010.06.03 13:58:18.
