data_PCOD9438616
_publ_section_title
;
Structure prediction by ZEFSAII (Michael W. Deem and Ramdas Pophale) SiO2 
 PCOD9438616
Probable space group: P B C M
;
_chemical_formula_sum "Si O2"
_cell_formula_units_Z 52
_cell_length_a 20.034091
_cell_length_b 9.164414
_cell_length_c 14.942430
_cell_angle_alpha 90.000000
_cell_angle_beta 90.000000
_cell_angle_gamma 90.000000
_cell_volume 2743.440668
_symmetry_space_group_name_H-M "P B C M"
_symmetry_group_IT_number 57
_symmetry_cell_setting 'orthorhombic'
loop_
_space_group_symop_operation_xyz
x,y,z
-x,-y,1/2+z
x,1/2-y,-z
-x,1/2+y,1/2-z
-x,-y,-z
x,y,1/2-z
-x,1/2+y,z
x,1/2-y,1/2+z
loop_
_atom_site_type_symbol
_atom_site_label
_atom_site_fract_x
_atom_site_fract_y
_atom_site_fract_z
Si Si1 0.836057 0.928117 0.606011
Si Si2 0.812452 0.591265 0.602667
Si Si3 0.672683 0.061925 0.355875
Si Si4 0.707584 0.399802 0.147833
Si Si5 0.500787 0.250000 0.500000
Si Si6 0.406147 0.501007 0.970202
Si Si7 0.916003 0.537969 0.750000
Si Si8 0.055554 0.382512 0.750000
O O1 0.810276 0.763563 0.625967
O O2 0.837104 0.931597 0.498697
O O3 0.904040 0.938956 0.662446
O O4 0.783555 0.050184 0.636395
O O5 0.739276 0.528053 0.620254
O O6 0.867305 0.517961 0.665871
O O7 0.656902 0.045748 0.250000
O O8 0.692854 0.230826 0.373294
O O9 0.614379 0.015452 0.424889
O O10 0.687627 0.424429 0.250000
O O11 0.662240 0.496344 0.083163
O O12 0.549785 0.356978 0.445948
O O13 0.451397 0.361472 0.549086
O O14 0.940137 0.706796 0.750000
O O15 0.980260 0.436897 0.750000
#
# Coordination Sequence:
#
# PCOD9438616 Si02
#       8
#     8   8   8   8   4   8   4   4
#     4  10  21  37  60  89 119 153 201 247 291 349
#     4  10  21  37  60  89 119 153 201 247 291 349
#     4  11  22  36  59  90 119 153 199 248 295 343
#     4  11  22  36  59  90 119 153 199 248 295 343
#     4  10  24  42  66  82 124 160 198 230 310 364
#     4  11  22  44  60  88 119 162 192 250 292 358
#     4  10  22  40  58  86 126 161 194 243 295 355
#     4  10  22  40  58  86 126 161 194 243 295 355
#
# _framework density 18.954301000000001
#
# number of rings (size 3 to 8) (size 9 to 14) (size 15 to 20)
#    0.000    1.538    4.615    0.000    2.154    1.846 
#    0.000    4.615    0.000    0.000    0.000    0.000 
#    0.000    0.000    0.000    0.000    0.000    0.000 
#
# Total GULP energy -290113.897931 kJ/mol
# GULP energy per Si atom -5579.113422 kJ/mol
# Density = 1.891116 g / cm^3
# Si number density = 18.954301 Si / 1000 Ang^3
#
#
#
# Elastic Constant Matrix: (Units=GPa)
#
#
# Indices 1 2 3 4 5 6 
#
# 1 83.9545 24.9205 21.2619 0.0000 0.0000 0.0000
# 2 24.9205 46.0823 13.8732 0.0000 0.0000 0.0000
# 3 21.2619 13.8732 82.6141 0.0000 0.0000 0.0000
# 4 0.0000 0.0000 0.0000 14.4605 0.0000 0.0000
# 5 0.0000 0.0000 0.0000 0.0000 -36.3597 0.0000
# 6 0.0000 0.0000 0.0000 0.0000 0.0000 38.6910
#
#
#
# Elastic Compliance Matrix: (Units=1/GPa)
#
#
# Indices 1 2 3 4 5 6 
#
# 1 0.014692 -0.007169 -0.002577 0.000000 0.000000 0.000000
# 2 -0.007169 0.026354 -0.002580 0.000000 0.000000 0.000000
# 3 -0.002577 -0.002580 0.013201 0.000000 0.000000 0.000000
# 4 0.000000 0.000000 0.000000 0.069154 0.000000 0.000000
# 5 0.000000 0.000000 0.000000 0.000000 -0.027503 0.000000
# 6 0.000000 0.000000 0.000000 0.000000 0.000000 0.025846
#
#
# Mechanical properties :
#
#
# Convention : Reuss Voigt Hill
#
# Bulk Modulus (GPa) = 33.79151 36.97355 35.38253
# Shear Modulus (GPa) = 31.99744 13.53137 22.76440
#
# Velocity S-wave (km/s) = 4.11315 2.67478 3.46933
# Velocity P-wave (km/s) = 6.35798 5.39336 5.89543
#
# Compressibility (1/GPa) = 0.02959323
#
# Stress axis : x y z
#
# Youngs Moduli (GPa) = 68.06422 37.94460 75.75128
#
# Poissons Ratio (x) = 0.27204 0.19523
# Poissons Ratio (y) = 0.48797 0.19548
# Poissons Ratio (z) = 0.17542 0.09792
#
# Static dielectric constant tensor:
#      x y z
#    x 1.616560 0.000000 0.000000 
#    y 0.000000 1.676230 0.000000 
#    z 0.000000 0.000000 1.675470 
# 
# From -- ./inp_files/19311.got.cif
#   From: 2010.05.17/outbox.cif.g08.bks.cpg/sg57_10_cif.got.tgz:19311.got - 2010.06.03 13:58:18.
