data_PCOD9438701
_publ_section_title
;
Structure prediction by ZEFSAII (Michael W. Deem and Ramdas Pophale) SiO2 
 PCOD9438701
Probable space group: P B C M
;
_chemical_formula_sum "Si O2"
_cell_formula_units_Z 64
_cell_length_a 16.515765
_cell_length_b 11.752596
_cell_length_c 16.564042
_cell_angle_alpha 90.000000
_cell_angle_beta 90.000000
_cell_angle_gamma 90.000000
_cell_volume 3215.132127
_symmetry_space_group_name_H-M "P B C M"
_symmetry_group_IT_number 57
_symmetry_cell_setting 'orthorhombic'
loop_
_space_group_symop_operation_xyz
x,y,z
-x,-y,1/2+z
x,1/2-y,-z
-x,1/2+y,1/2-z
-x,-y,-z
x,y,1/2-z
-x,1/2+y,z
x,1/2-y,1/2+z
loop_
_atom_site_type_symbol
_atom_site_label
_atom_site_fract_x
_atom_site_fract_y
_atom_site_fract_z
Si Si1 0.191591 0.566326 0.154167
Si Si2 0.075156 0.436209 0.044397
Si Si3 0.961310 0.736901 0.162823
Si Si4 0.843979 0.544159 0.388641
Si Si5 0.445800 0.384310 0.501661
Si Si6 0.854222 0.293324 0.341378
Si Si7 0.336574 0.392164 0.342476
Si Si8 0.328675 0.370343 0.658468
O O1 0.179223 0.574010 0.250000
O O2 0.113483 0.515663 0.111709
O O3 0.204320 0.696052 0.124968
O O4 0.266541 0.483061 0.141597
O O5 0.056275 0.318745 0.088195
O O6 0.146230 0.416442 0.980133
O O7 0.000000 0.500000 0.000000
O O8 0.936828 0.788446 0.250000
O O9 0.912955 0.618922 0.155411
O O10 0.058103 0.733971 0.162725
O O11 0.861840 0.410441 0.387709
O O12 0.755066 0.563498 0.354589
O O13 0.478018 0.250000 0.500000
O O14 0.500000 0.500000 0.500000
O O15 0.397622 0.395230 0.417118
O O16 0.389842 0.390276 0.583291
O O17 0.830321 0.325232 0.250000
O O18 0.368095 0.411919 0.250000
O O19 0.304404 0.262919 0.342936
O O20 0.360812 0.393713 0.750000
#
# Coordination Sequence:
#
# PCOD9438701 Si02
#       8
#     8   8   8   8   8   8   8   8
#     4  10  21  38  58  82 114 155 204 255 312 374
#     4  12  23  37  55  80 111 151 205 265 322 377
#     4  11  23  39  57  78 111 158 209 260 324 386
#     4  12  23  39  59  85 120 157 211 270 324 374
#     4  10  22  43  69 101 139 169 205 251 310 383
#     4  10  22  37  54  78 115 160 204 265 326 375
#     4   9  19  39  67  95 125 163 208 253 303 372
#     4  10  21  39  65  95 127 167 212 261 316 379
#
# _framework density 19.905867000000001
#
# number of rings (size 3 to 8) (size 9 to 14) (size 15 to 20)
#    0.000    1.500    1.250    4.125    0.000    4.000 
#    2.250    0.000    0.000    0.000    0.000    0.000 
#    0.000    0.000    0.000    0.000    0.000    0.000 
#
# Total GULP energy -356673.292114 kJ/mol
# GULP energy per Si atom -5573.020189 kJ/mol
# Density = 1.986056 g / cm^3
# Si number density = 19.905867 Si / 1000 Ang^3
#
#
#
# Elastic Constant Matrix: (Units=GPa)
#
#
# Indices 1 2 3 4 5 6 
#
# 1 51.3498 57.3968 30.8181 0.0000 0.0000 0.0000
# 2 57.3968 135.3297 53.7103 0.0000 0.0000 0.0000
# 3 30.8181 53.7103 97.4144 0.0000 0.0000 0.0000
# 4 0.0000 0.0000 0.0000 20.6763 0.0000 0.0000
# 5 0.0000 0.0000 0.0000 0.0000 2.2852 0.0000
# 6 0.0000 0.0000 0.0000 0.0000 0.0000 37.7103
#
#
#
# Elastic Compliance Matrix: (Units=1/GPa)
#
#
# Indices 1 2 3 4 5 6 
#
# 1 0.038230 -0.014612 -0.004038 0.000000 0.000000 0.000000
# 2 -0.014612 0.015044 -0.003672 0.000000 0.000000 0.000000
# 3 -0.004038 -0.003672 0.013568 0.000000 0.000000 0.000000
# 4 0.000000 0.000000 0.000000 0.048365 0.000000 0.000000
# 5 0.000000 0.000000 0.000000 0.000000 0.437604 0.000000
# 6 0.000000 0.000000 0.000000 0.000000 0.000000 0.026518
#
#
# Mechanical properties :
#
#
# Convention : Reuss Voigt Hill
#
# Bulk Modulus (GPa) = 45.04958 63.10493 54.07725
# Shear Modulus (GPa) = 7.91927 21.61227 14.76577
#
# Velocity S-wave (km/s) = 1.99675 3.29861 2.72652
# Velocity P-wave (km/s) = 5.29117 6.80281 6.09404
#
# Compressibility (1/GPa) = 0.02219777
#
# Stress axis : x y z
#
# Youngs Moduli (GPa) = 26.15725 66.47196 73.70514
#
# Poissons Ratio (x) = 0.97127 0.29764
# Poissons Ratio (y) = 0.38220 0.27065
# Poissons Ratio (z) = 0.10563 0.24409
#
# Static dielectric constant tensor:
#      x y z
#    x 1.703210 0.000000 0.000000 
#    y 0.000000 1.763760 0.000000 
#    z 0.000000 0.000000 1.763090 
# 
# From -- ./inp_files/19106.got.cif
#   From: 2010.05.17/outbox.cif.g08.bks.cpg/sg57_10_cif.got.tgz:19106.got - 2010.06.03 13:58:18.
