data_PCOD9438544
_publ_section_title
;
Structure prediction by ZEFSAII (Michael W. Deem and Ramdas Pophale) SiO2 
 PCOD9438544
Probable space group: P B C M
;
_chemical_formula_sum "Si O2"
_cell_formula_units_Z 40
_cell_length_a 26.378410
_cell_length_b 9.281448
_cell_length_c 8.745590
_cell_angle_alpha 90.000000
_cell_angle_beta 90.000000
_cell_angle_gamma 90.000000
_cell_volume 2141.181407
_symmetry_space_group_name_H-M "P B C M"
_symmetry_group_IT_number 57
_symmetry_cell_setting 'orthorhombic'
loop_
_space_group_symop_operation_xyz
x,y,z
-x,-y,1/2+z
x,1/2-y,-z
-x,1/2+y,1/2-z
-x,-y,-z
x,y,1/2-z
-x,1/2+y,z
x,1/2-y,1/2+z
loop_
_atom_site_type_symbol
_atom_site_label
_atom_site_fract_x
_atom_site_fract_y
_atom_site_fract_z
Si Si1 0.660137 0.411498 0.433560
Si Si2 0.752887 0.589995 0.566092
Si Si3 0.147691 0.910269 0.566037
Si Si4 0.952704 0.911220 0.434226
Si Si5 0.545834 0.090561 0.567443
O O1 0.666069 0.250000 0.500000
O O2 0.665304 0.405737 0.250000
O O3 0.702318 0.514382 0.504067
O O4 0.602797 0.462673 0.470546
O O5 0.757911 0.750000 0.500000
O O6 0.751514 0.596156 0.750000
O O7 0.801161 0.493030 0.518998
O O8 0.145351 0.750000 0.500000
O O9 0.147948 0.899936 0.750000
O O10 0.098737 0.004508 0.522070
O O11 0.952462 0.750000 0.500000
O O12 0.955785 0.905566 0.250000
O O13 0.000000 0.000000 0.500000
O O14 0.542414 0.250000 0.500000
O O15 0.541744 0.095146 0.750000
O O16 0.500000 0.000000 0.500000
#
# Coordination Sequence:
#
# PCOD9438544 Si02
#       5
#     8   8   8   8   8
#     4  10  21  38  59  84 113 148 188 233 282 337
#     4  11  23  39  59  85 115 150 190 235 285 338
#     4  10  23  40  60  86 116 151 192 236 285 339
#     4  11  23  40  61  88 120 155 195 240 288 340
#     4  10  21  37  58  83 113 148 188 232 282 336
#
# _framework density 18.681273999999998
#
# number of rings (size 3 to 8) (size 9 to 14) (size 15 to 20)
#    0.000    1.600    0.000    4.200    0.000    9.600 
#    0.000    0.000    0.000    0.000    0.000    0.000 
#    0.000    0.000    0.000    0.000    0.000    0.000 
#
# Total GULP energy -223589.757758 kJ/mol
# GULP energy per Si atom -5589.743944 kJ/mol
# Density = 1.863875 g / cm^3
# Si number density = 18.681274 Si / 1000 Ang^3
#
#
#
# Elastic Constant Matrix: (Units=GPa)
#
#
# Indices 1 2 3 4 5 6 
#
# 1 208.9296 123.1090 72.5290 0.0000 0.0000 0.0000
# 2 123.1090 169.3521 55.8342 0.0000 0.0000 0.0000
# 3 72.5290 55.8342 65.9254 0.0000 0.0000 0.0000
# 4 0.0000 0.0000 0.0000 42.0851 0.0000 0.0000
# 5 0.0000 0.0000 0.0000 0.0000 31.8084 0.0000
# 6 0.0000 0.0000 0.0000 0.0000 0.0000 42.3250
#
#
#
# Elastic Compliance Matrix: (Units=1/GPa)
#
#
# Indices 1 2 3 4 5 6 
#
# 1 0.010208 -0.005158 -0.006862 0.000000 0.000000 0.000000
# 2 -0.005158 0.010799 -0.003471 0.000000 0.000000 0.000000
# 3 -0.006862 -0.003471 0.025657 0.000000 0.000000 0.000000
# 4 0.000000 0.000000 0.000000 0.023761 0.000000 0.000000
# 5 0.000000 0.000000 0.000000 0.000000 0.031438 0.000000
# 6 0.000000 0.000000 0.000000 0.000000 0.000000 0.023627
#
#
# Mechanical properties :
#
#
# Convention : Reuss Voigt Hill
#
# Bulk Modulus (GPa) = 63.76623 105.23905 84.50264
# Shear Modulus (GPa) = 30.92165 36.09269 33.50717
#
# Velocity S-wave (km/s) = 4.07286 4.40025 4.23971
# Velocity P-wave (km/s) = 7.50503 9.07042 8.32460
#
# Compressibility (1/GPa) = 0.01568228
#
# Stress axis : x y z
#
# Youngs Moduli (GPa) = 97.96613 92.60186 38.97535
#
# Poissons Ratio (x) = 0.47765 0.26743
# Poissons Ratio (y) = 0.50532 0.13529
# Poissons Ratio (z) = 0.67219 0.32143
#
# Static dielectric constant tensor:
#      x y z
#    x 1.644640 0.000000 0.000000 
#    y 0.000000 1.594400 0.000000 
#    z 0.000000 0.000000 1.627260 
# 
# From -- ./inp_files/8874.got.cif
#   From: 2010.05.17/outbox.cif.g08.bks.cpg/sg57_5_cif.got.tgz:8874.got - 2010.06.03 13:58:18.
