data_PCOD9438703
_publ_section_title
;
Structure prediction by ZEFSAII (Michael W. Deem and Ramdas Pophale) SiO2 
 PCOD9438703
Probable space group: P B C M
;
_chemical_formula_sum "Si O2"
_cell_formula_units_Z 56
_cell_length_a 9.158697
_cell_length_b 23.290212
_cell_length_c 14.570664
_cell_angle_alpha 90.000000
_cell_angle_beta 90.000000
_cell_angle_gamma 90.000000
_cell_volume 3108.039120
_symmetry_space_group_name_H-M "P B C M"
_symmetry_group_IT_number 57
_symmetry_cell_setting 'orthorhombic'
loop_
_space_group_symop_operation_xyz
x,y,z
-x,-y,1/2+z
x,1/2-y,-z
-x,1/2+y,1/2-z
-x,-y,-z
x,y,1/2-z
-x,1/2+y,z
x,1/2-y,1/2+z
loop_
_atom_site_type_symbol
_atom_site_label
_atom_site_fract_x
_atom_site_fract_y
_atom_site_fract_z
Si Si1 0.471621 0.827434 0.640365
Si Si2 0.719789 0.382266 0.015598
Si Si3 0.962601 0.932161 0.002401
Si Si4 0.288826 0.098614 0.642718
Si Si5 0.565589 0.473766 0.142916
Si Si6 0.722977 0.907727 0.856405
Si Si7 0.534173 0.307645 0.359413
O O1 0.447693 0.836240 0.750000
O O2 0.355810 0.862175 0.578946
O O3 0.630882 0.852238 0.616816
O O4 0.474692 0.759706 0.621223
O O5 0.650024 0.437961 0.065530
O O6 0.672523 0.332886 0.087122
O O7 0.889024 0.395977 0.004858
O O8 0.855402 0.913633 0.085224
O O9 0.866019 0.918495 0.913863
O O10 0.000000 0.000000 0.000000
O O11 0.254307 0.105908 0.750000
O O12 0.397102 0.043800 0.632587
O O13 0.392317 0.153075 0.614866
O O14 0.604268 0.457874 0.250000
O O15 0.610402 0.539324 0.131345
O O16 0.760275 0.904424 0.750000
O O17 0.550475 0.315145 0.250000
#
# Coordination Sequence:
#
# PCOD9438703 Si02
#       7
#     8   8   8   8   8   8   8
#     4  10  22  39  63  86 109 147 195 244 291 335
#     4  11  21  35  58  83 120 152 188 226 285 341
#     4  12  25  36  51  85 125 158 182 222 287 354
#     4   9  20  37  61  86 110 145 195 243 281 327
#     4   9  18  35  59  84 108 146 198 245 281 324
#     4  10  21  38  58  83 115 153 193 236 287 341
#     4   9  19  41  66  88 108 140 197 253 286 323
#
# _framework density 18.017792
#
# number of rings (size 3 to 8) (size 9 to 14) (size 15 to 20)
#    0.000    2.000    1.429    3.429    2.000    3.429 
#    0.000    2.857    0.000    3.429    0.000    0.000 
#    0.000    0.000    0.000    0.000    0.000    0.000 
#
# Total GULP energy -312380.370152 kJ/mol
# GULP energy per Si atom -5578.220896 kJ/mol
# Density = 1.797678 g / cm^3
# Si number density = 18.017792 Si / 1000 Ang^3
#
#
#
# Elastic Constant Matrix: (Units=GPa)
#
#
# Indices 1 2 3 4 5 6 
#
# 1 152.4464 68.6487 73.4554 0.0000 0.0000 0.0000
# 2 68.6487 108.0198 49.4441 0.0000 0.0000 0.0000
# 3 73.4554 49.4441 97.8583 0.0000 0.0000 0.0000
# 4 0.0000 0.0000 0.0000 11.4432 0.0000 0.0000
# 5 0.0000 0.0000 0.0000 0.0000 -18.5413 0.0000
# 6 0.0000 0.0000 0.0000 0.0000 0.0000 16.0713
#
#
#
# Elastic Compliance Matrix: (Units=1/GPa)
#
#
# Indices 1 2 3 4 5 6 
#
# 1 0.011719 -0.004450 -0.006548 0.000000 0.000000 0.000000
# 2 -0.004450 0.013733 -0.003598 0.000000 0.000000 0.000000
# 3 -0.006548 -0.003598 0.016952 0.000000 0.000000 0.000000
# 4 0.000000 0.000000 0.000000 0.087388 0.000000 0.000000
# 5 0.000000 0.000000 0.000000 0.000000 -0.053934 0.000000
# 6 0.000000 0.000000 0.000000 0.000000 0.000000 0.062223
#
#
# Mechanical properties :
#
#
# Convention : Reuss Voigt Hill
#
# Bulk Modulus (GPa) = 75.69557 82.38009 79.03783
# Shear Modulus (GPa) = 29.12446 12.91306 21.01876
#
# Velocity S-wave (km/s) = 4.02484 2.68000 3.41919
# Velocity P-wave (km/s) = 7.98135 7.44294 7.71684
#
# Compressibility (1/GPa) = 0.01321081
#
# Stress axis : x y z
#
# Youngs Moduli (GPa) = 85.33298 72.81830 58.99045
#
# Poissons Ratio (x) = 0.32407 0.38626
# Poissons Ratio (y) = 0.37976 0.21225
# Poissons Ratio (z) = 0.55875 0.26201
#
# Static dielectric constant tensor:
#      x y z
#    x 1.575740 0.000000 0.000000 
#    y 0.000000 1.631590 0.000000 
#    z 0.000000 0.000000 1.669820 
# 
# From -- ./inp_files/16755.got.cif
#   From: 2010.05.17/outbox.cif.g08.bks.cpg/sg57_9_cif.got.tgz:16755.got - 2010.06.03 13:58:18.
