data_PCOD9438126
_publ_section_title
;
Structure prediction by ZEFSAII (Michael W. Deem and Ramdas Pophale) SiO2 
 PCOD9438126
Probable space group: P B C M
;
_chemical_formula_sum "Si O2"
_cell_formula_units_Z 56
_cell_length_a 21.335722
_cell_length_b 8.034815
_cell_length_c 14.681979
_cell_angle_alpha 90.000000
_cell_angle_beta 90.000000
_cell_angle_gamma 90.000000
_cell_volume 2516.910799
_symmetry_space_group_name_H-M "P B C M"
_symmetry_group_IT_number 57
_symmetry_cell_setting 'orthorhombic'
loop_
_space_group_symop_operation_xyz
x,y,z
-x,-y,1/2+z
x,1/2-y,-z
-x,1/2+y,1/2-z
-x,-y,-z
x,y,1/2-z
-x,1/2+y,z
x,1/2-y,1/2+z
loop_
_atom_site_type_symbol
_atom_site_label
_atom_site_fract_x
_atom_site_fract_y
_atom_site_fract_z
Si Si1 0.918895 0.512624 0.854121
Si Si2 0.945185 0.116493 0.645687
Si Si3 0.693177 0.510330 0.461573
Si Si4 0.476825 0.316956 0.602259
Si Si5 0.404486 0.846001 0.145106
Si Si6 0.351918 0.162014 0.646580
Si Si7 0.837338 0.449899 0.013349
O O1 0.907388 0.565892 0.750000
O O2 0.930608 0.313070 0.854312
O O3 0.984014 0.591154 0.888235
O O4 0.861447 0.538968 0.921817
O O5 0.944461 0.055681 0.750000
O O6 0.892102 0.025457 0.587535
O O7 0.657294 0.356206 0.415344
O O8 0.674983 0.664724 0.395362
O O9 0.667328 0.539536 0.564146
O O10 0.767636 0.500708 0.462023
O O11 0.476439 0.250000 0.500000
O O12 0.547800 0.306574 0.636477
O O13 0.448129 0.500027 0.611975
O O14 0.426209 0.198397 0.650753
O O15 0.387733 0.869862 0.250000
O O16 0.330295 0.124174 0.750000
O O17 0.834973 0.250000 0.000000
#
# Coordination Sequence:
#
# PCOD9438126 Si02
#       7
#     8   8   8   8   8   8   8
#     4   9  18  35  57  85 116 147 188 237 282 331
#     4   9  18  34  57  84 114 148 188 233 282 331
#     4  10  21  38  56  83 114 154 194 234 286 353
#     4  11  20  37  61  85 114 149 189 243 297 349
#     4  11  22  38  61  89 118 151 194 245 300 357
#     4  10  20  39  60  78 110 151 192 241 296 344
#     4  10  21  37  57  80 114 158 190 226 282 344
#
# _framework density 22.249499
#
# number of rings (size 3 to 8) (size 9 to 14) (size 15 to 20)
#    0.000    2.000    2.857    3.429    0.000    2.286 
#    5.143    0.000    0.000    0.000    0.000    0.000 
#    0.000    0.000    0.000    0.000    0.000    0.000 
#
# Total GULP energy -312907.336673 kJ/mol
# GULP energy per Si atom -5587.631012 kJ/mol
# Density = 2.219886 g / cm^3
# Si number density = 22.249499 Si / 1000 Ang^3
#
#
#
# Elastic Constant Matrix: (Units=GPa)
#
#
# Indices 1 2 3 4 5 6 
#
# 1 163.6561 11.9695 46.8852 0.0000 0.0000 0.0000
# 2 11.9695 32.4001 8.4582 0.0000 0.0000 0.0000
# 3 46.8852 8.4582 140.1153 0.0000 0.0000 0.0000
# 4 0.0000 0.0000 0.0000 5.0949 0.0000 0.0000
# 5 0.0000 0.0000 0.0000 0.0000 8.4983 0.0000
# 6 0.0000 0.0000 0.0000 0.0000 0.0000 25.9879
#
#
#
# Elastic Compliance Matrix: (Units=1/GPa)
#
#
# Indices 1 2 3 4 5 6 
#
# 1 0.006880 -0.001972 -0.002183 0.000000 0.000000 0.000000
# 2 -0.001972 0.031923 -0.001267 0.000000 0.000000 0.000000
# 3 -0.002183 -0.001267 0.007944 0.000000 0.000000 0.000000
# 4 0.000000 0.000000 0.000000 0.196275 0.000000 0.000000
# 5 0.000000 0.000000 0.000000 0.000000 0.117671 0.000000
# 6 0.000000 0.000000 0.000000 0.000000 0.000000 0.038479
#
#
# Mechanical properties :
#
#
# Convention : Reuss Voigt Hill
#
# Bulk Modulus (GPa) = 27.85289 52.31082 40.08186
# Shear Modulus (GPa) = 11.84875 25.84011 18.84443
#
# Velocity S-wave (km/s) = 2.31019 3.41160 2.91341
# Velocity P-wave (km/s) = 4.43414 6.25146 5.41952
#
# Compressibility (1/GPa) = 0.03590292
#
# Stress axis : x y z
#
# Youngs Moduli (GPa) = 145.34821 31.32506 125.88109
#
# Poissons Ratio (x) = 0.06177 0.27482
# Poissons Ratio (y) = 0.28659 0.15953
# Poissons Ratio (z) = 0.31732 0.03970
#
# Static dielectric constant tensor:
#      x y z
#    x 1.798210 0.000000 0.000000 
#    y 0.000000 1.906220 0.000000 
#    z 0.000000 0.000000 1.831960 
# 
# From -- ./inp_files/19348.got.cif
#   From: 2010.05.17/outbox.cif.g08.bks.cpg/sg57_10_cif.got.tgz:19348.got - 2010.06.03 13:58:18.
