data_PCOD9438500
_publ_section_title
;
Structure prediction by ZEFSAII (Michael W. Deem and Ramdas Pophale) SiO2 
 PCOD9438500
Probable space group: P B C M
;
_chemical_formula_sum "Si O2"
_cell_formula_units_Z 64
_cell_length_a 20.191315
_cell_length_b 19.394890
_cell_length_c 8.444702
_cell_angle_alpha 90.000000
_cell_angle_beta 90.000000
_cell_angle_gamma 90.000000
_cell_volume 3307.015676
_symmetry_space_group_name_H-M "P B C M"
_symmetry_group_IT_number 57
_symmetry_cell_setting 'orthorhombic'
loop_
_space_group_symop_operation_xyz
x,y,z
-x,-y,1/2+z
x,1/2-y,-z
-x,1/2+y,1/2-z
-x,-y,-z
x,y,1/2-z
-x,1/2+y,z
x,1/2-y,1/2+z
loop_
_atom_site_type_symbol
_atom_site_label
_atom_site_fract_x
_atom_site_fract_y
_atom_site_fract_z
Si Si1 0.466247 0.827746 0.439061
Si Si2 0.590647 0.581715 0.942904
Si Si3 0.634971 0.066388 0.060547
Si Si4 0.157901 0.407133 0.558986
Si Si5 0.215615 0.553395 0.560194
Si Si6 0.120724 0.672867 0.440321
Si Si7 0.283828 0.326643 0.439824
Si Si8 0.969601 0.672947 0.441175
O O1 0.471062 0.750000 0.500000
O O2 0.469586 0.825937 0.250000
O O3 0.527184 0.875323 0.498572
O O4 0.399493 0.866106 0.491067
O O5 0.589110 0.580973 0.750000
O O6 0.596211 0.502572 0.995926
O O7 0.657325 0.621987 0.990464
O O8 0.631088 0.069183 0.250000
O O9 0.711081 0.058643 0.010854
O O10 0.156406 0.408306 0.750000
O O11 0.179896 0.482957 0.504345
O O12 0.214506 0.354229 0.505540
O O13 0.086404 0.380249 0.503204
O O14 0.221127 0.551025 0.750000
O O15 0.171462 0.618039 0.509638
O O16 0.135191 0.750000 0.500000
O O17 0.123810 0.671593 0.250000
O O18 0.044846 0.656398 0.490689
O O19 0.297580 0.250000 0.500000
O O20 0.281406 0.326502 0.250000
O O21 0.953763 0.750000 0.500000
O O22 0.968808 0.673988 0.250000
#
# Coordination Sequence:
#
# PCOD9438500 Si02
#       8
#     8   8   8   8   8   8   8   8
#     4  11  23  41  62  90 121 154 195 243 294 348
#     4   9  20  38  61  87 119 154 194 239 288 346
#     4  11  22  41  64  88 118 156 197 242 294 351
#     4  10  21  37  56  83 119 156 195 241 289 345
#     4  11  23  39  60  88 120 154 195 243 293 349
#     4  10  21  39  62  86 114 151 195 244 297 351
#     4  11  21  35  55  84 119 158 198 239 284 340
#     4   9  19  36  57  83 116 154 196 241 291 347
#
# _framework density 19.352796000000001
#
# number of rings (size 3 to 8) (size 9 to 14) (size 15 to 20)
#    0.000    1.750    1.250    3.000    0.000    3.500 
#    0.000    6.250    0.000    0.000    0.000    0.000 
#    0.000    0.000    0.000    0.000    0.000    0.000 
#
# Total GULP energy -357614.022994 kJ/mol
# GULP energy per Si atom -5587.719109 kJ/mol
# Density = 1.930875 g / cm^3
# Si number density = 19.352796 Si / 1000 Ang^3
#
#
#
# Elastic Constant Matrix: (Units=GPa)
#
#
# Indices 1 2 3 4 5 6 
#
# 1 102.9852 73.0912 15.0883 0.0000 0.0000 0.0000
# 2 73.0912 91.0196 16.7754 0.0000 0.0000 0.0000
# 3 15.0883 16.7754 26.9382 0.0000 0.0000 0.0000
# 4 0.0000 0.0000 0.0000 24.5518 0.0000 0.0000
# 5 0.0000 0.0000 0.0000 0.0000 20.4920 0.0000
# 6 0.0000 0.0000 0.0000 0.0000 0.0000 37.2696
#
#
#
# Elastic Compliance Matrix: (Units=1/GPa)
#
#
# Indices 1 2 3 4 5 6 
#
# 1 0.022634 -0.017893 -0.001535 0.000000 0.000000 0.000000
# 2 -0.017893 0.026556 -0.006515 0.000000 0.000000 0.000000
# 3 -0.001535 -0.006515 0.042039 0.000000 0.000000 0.000000
# 4 0.000000 0.000000 0.000000 0.040730 0.000000 0.000000
# 5 0.000000 0.000000 0.000000 0.000000 0.048800 0.000000
# 6 0.000000 0.000000 0.000000 0.000000 0.000000 0.026831
#
#
# Mechanical properties :
#
#
# Convention : Reuss Voigt Hill
#
# Bulk Modulus (GPa) = 25.41775 47.87255 36.64515
# Shear Modulus (GPa) = 18.34250 24.19522 21.26886
#
# Velocity S-wave (km/s) = 3.08197 3.53968 3.31872
# Velocity P-wave (km/s) = 5.08204 6.44176 5.80187
#
# Compressibility (1/GPa) = 0.03934259
#
# Stress axis : x y z
#
# Youngs Moduli (GPa) = 44.18128 37.65641 23.78737
#
# Poissons Ratio (x) = 0.67378 0.03651
# Poissons Ratio (y) = 0.79053 0.15498
# Poissons Ratio (z) = 0.06782 0.24535
#
# Static dielectric constant tensor:
#      x y z
#    x 1.663730 0.000000 0.000000 
#    y 0.000000 1.651630 0.000000 
#    z 0.000000 0.000000 1.659970 
# 
# From -- ./inp_files/8406.got.cif
#   From: 2010.05.17/outbox.cif.g08.bks.cpg/sg57_5_cif.got.tgz:8406.got - 2010.06.03 13:58:18.
