data_PCOD9438980
_publ_section_title
;
Structure prediction by ZEFSAII (Michael W. Deem and Ramdas Pophale) SiO2 
 PCOD9438980
Probable space group: P B C M
;
_chemical_formula_sum "Si O2"
_cell_formula_units_Z 40
_cell_length_a 13.186859
_cell_length_b 7.906972
_cell_length_c 15.832902
_cell_angle_alpha 90.000000
_cell_angle_beta 90.000000
_cell_angle_gamma 90.000000
_cell_volume 1650.867003
_symmetry_space_group_name_H-M "P B C M"
_symmetry_group_IT_number 57
_symmetry_cell_setting 'orthorhombic'
loop_
_space_group_symop_operation_xyz
x,y,z
-x,-y,1/2+z
x,1/2-y,-z
-x,1/2+y,1/2-z
-x,-y,-z
x,y,1/2-z
-x,1/2+y,z
x,1/2-y,1/2+z
loop_
_atom_site_type_symbol
_atom_site_label
_atom_site_fract_x
_atom_site_fract_y
_atom_site_fract_z
Si Si1 0.651496 0.690773 0.413028
Si Si2 0.223688 0.838492 0.408963
Si Si3 0.339133 0.719486 0.250000
Si Si4 0.024347 0.032319 0.402483
Si Si5 0.540016 0.573658 0.250000
Si Si6 0.846351 0.650563 0.652639
O O1 0.600623 0.750000 0.500000
O O2 0.708557 0.509395 0.419910
O O3 0.577305 0.669967 0.334144
O O4 0.740886 0.826757 0.395139
O O5 0.216195 0.750000 0.500000
O O6 0.274320 0.727924 0.335268
O O7 0.113811 0.902581 0.378472
O O8 0.418977 0.568303 0.250000
O O9 0.405532 0.892399 0.250000
O O10 0.917488 0.012249 0.355646
O O11 0.078061 0.209767 0.386436
O O12 0.000000 0.000000 0.500000
O O13 0.826135 0.690001 0.750000
#
# Coordination Sequence:
#
# PCOD9438980 Si02
#       6
#     8   8   4   8   4   8
#     4  10  21  39  64  86 120 157 199 253 305 362
#     4  10  22  40  62  89 124 163 201 248 313 363
#     4  10  24  42  67  86 124 160 203 262 311 374
#     4  11  22  37  58  87 124 163 203 244 296 364
#     4  10  22  44  61  90 114 158 201 250 311 364
#     4  11  21  35  57  87 120 159 201 243 300 360
#
# _framework density 24.229692
#
# number of rings (size 3 to 8) (size 9 to 14) (size 15 to 20)
#    0.000    1.600    1.000    4.800    5.600    2.400 
#    0.000    4.000    0.000    0.000    0.000    0.000 
#    0.000    0.000    0.000    0.000    0.000    0.000 
#
# Total GULP energy -224049.271510 kJ/mol
# GULP energy per Si atom -5601.231788 kJ/mol
# Density = 2.417454 g / cm^3
# Si number density = 24.229692 Si / 1000 Ang^3
#
#
#
# Elastic Constant Matrix: (Units=GPa)
#
#
# Indices 1 2 3 4 5 6 
#
# 1 85.1846 22.2858 14.8598 0.0000 0.0000 0.0000
# 2 22.2858 63.4067 12.9497 0.0000 0.0000 0.0000
# 3 14.8598 12.9497 122.9917 0.0000 0.0000 0.0000
# 4 0.0000 0.0000 0.0000 29.0024 0.0000 0.0000
# 5 0.0000 0.0000 0.0000 0.0000 2.6908 0.0000
# 6 0.0000 0.0000 0.0000 0.0000 0.0000 41.2505
#
#
#
# Elastic Compliance Matrix: (Units=1/GPa)
#
#
# Indices 1 2 3 4 5 6 
#
# 1 0.013077 -0.004368 -0.001120 0.000000 0.000000 0.000000
# 2 -0.004368 0.017576 -0.001323 0.000000 0.000000 0.000000
# 3 -0.001120 -0.001323 0.008405 0.000000 0.000000 0.000000
# 4 0.000000 0.000000 0.000000 0.034480 0.000000 0.000000
# 5 0.000000 0.000000 0.000000 0.000000 0.371637 0.000000
# 6 0.000000 0.000000 0.000000 0.000000 0.000000 0.024242
#
#
# Mechanical properties :
#
#
# Convention : Reuss Voigt Hill
#
# Bulk Modulus (GPa) = 39.31165 41.30819 40.30992
# Shear Modulus (GPa) = 10.17257 29.35458 19.76357
#
# Velocity S-wave (km/s) = 2.05122 3.48446 2.85910
# Velocity P-wave (km/s) = 4.67652 5.76838 5.25090
#
# Compressibility (1/GPa) = 0.02543775
#
# Stress axis : x y z
#
# Youngs Moduli (GPa) = 76.46874 56.89422 118.97323
#
# Poissons Ratio (x) = 0.24849 0.13327
# Poissons Ratio (y) = 0.33398 0.15739
# Poissons Ratio (z) = 0.08566 0.07527
#
# Static dielectric constant tensor:
#      x y z
#    x 1.867140 0.000000 0.000000 
#    y 0.000000 2.097700 0.000000 
#    z 0.000000 0.000000 1.493030 
# 
# From -- ./inp_files/18282.got.cif
#   From: 2010.05.17/outbox.cif.g08.bks.cpg/sg57_10_cif.got.tgz:18282.got - 2010.06.03 13:58:18.
