data_PCOD9438320
_publ_section_title
;
Structure prediction by ZEFSAII (Michael W. Deem and Ramdas Pophale) SiO2 
 PCOD9438320
Probable space group: P B C M
;
_chemical_formula_sum "Si O2"
_cell_formula_units_Z 48
_cell_length_a 21.018587
_cell_length_b 5.592440
_cell_length_c 19.229201
_cell_angle_alpha 90.000000
_cell_angle_beta 90.000000
_cell_angle_gamma 90.000000
_cell_volume 2260.300021
_symmetry_space_group_name_H-M "P B C M"
_symmetry_group_IT_number 57
_symmetry_cell_setting 'orthorhombic'
loop_
_space_group_symop_operation_xyz
x,y,z
-x,-y,1/2+z
x,1/2-y,-z
-x,1/2+y,1/2-z
-x,-y,-z
x,y,1/2-z
-x,1/2+y,z
x,1/2-y,1/2+z
loop_
_atom_site_type_symbol
_atom_site_label
_atom_site_fract_x
_atom_site_fract_y
_atom_site_fract_z
Si Si1 0.282185 0.969243 0.827896
Si Si2 0.847502 0.180647 0.672865
Si Si3 0.345594 0.632695 0.570870
Si Si4 0.969824 0.466247 0.833875
Si Si5 0.524185 0.963931 0.919843
Si Si6 0.217021 0.142871 0.072757
O O1 0.299128 0.050363 0.750000
O O2 0.222957 0.786669 0.821463
O O3 0.336764 0.826282 0.868382
O O4 0.252650 0.174865 0.875656
O O5 0.866134 0.086806 0.750000
O O6 0.896928 0.388290 0.653546
O O7 0.839939 0.980964 0.614622
O O8 0.369215 0.750000 0.500000
O O9 0.399457 0.438094 0.586201
O O10 0.275359 0.534600 0.554960
O O11 0.977349 0.477563 0.750000
O O12 0.008993 0.229585 0.858891
O O13 0.493047 0.724891 0.889283
O O14 0.500000 0.000000 0.000000
O O15 0.195162 0.250000 0.000000
#
# Coordination Sequence:
#
# PCOD9438320 Si02
#       6
#     8   8   8   8   8   8
#     4  10  22  38  58  85 118 158 197 248 313 365
#     4   9  20  36  54  83 120 152 194 249 307 363
#     4  11  21  36  58  87 121 150 200 251 300 354
#     4   9  18  32  55  85 114 151 198 249 300 355
#     4  10  21  33  57  89 120 152 196 250 297 351
#     4  11  22  33  59  84 115 157 200 253 298 356
#
# _framework density 21.23612
#
# number of rings (size 3 to 8) (size 9 to 14) (size 15 to 20)
#    0.000    2.000    3.333    0.500    7.000    0.667 
#    0.000    0.000    0.000    2.000    0.000    0.000 
#    0.000    0.000    0.000    0.000    0.000    0.000 
#
# Total GULP energy -267595.912069 kJ/mol
# GULP energy per Si atom -5574.914835 kJ/mol
# Density = 2.118779 g / cm^3
# Si number density = 21.236120 Si / 1000 Ang^3
#
#
#
# Elastic Constant Matrix: (Units=GPa)
#
#
# Indices 1 2 3 4 5 6 
#
# 1 63.7907 -3.5578 -5.1006 0.0000 0.0000 0.0000
# 2 -3.5578 70.7928 15.2029 0.0000 0.0000 0.0000
# 3 -5.1006 15.2029 78.7743 0.0000 0.0000 0.0000
# 4 0.0000 0.0000 0.0000 23.2825 0.0000 0.0000
# 5 0.0000 0.0000 0.0000 0.0000 0.4004 0.0000
# 6 0.0000 0.0000 0.0000 0.0000 0.0000 5.5977
#
#
#
# Elastic Compliance Matrix: (Units=1/GPa)
#
#
# Indices 1 2 3 4 5 6 
#
# 1 0.015782 0.000599 0.000906 0.000000 0.000000 0.000000
# 2 0.000599 0.014759 -0.002810 0.000000 0.000000 0.000000
# 3 0.000906 -0.002810 0.013295 0.000000 0.000000 0.000000
# 4 0.000000 0.000000 0.000000 0.042951 0.000000 0.000000
# 5 0.000000 0.000000 0.000000 0.000000 2.497254 0.000000
# 6 0.000000 0.000000 0.000000 0.000000 0.000000 0.178645
#
#
# Mechanical properties :
#
#
# Convention : Reuss Voigt Hill
#
# Bulk Modulus (GPa) = 24.25584 25.16075 24.70829
# Shear Modulus (GPa) = 1.79918 19.64369 10.72144
#
# Velocity S-wave (km/s) = 0.92145 3.04470 2.24936
# Velocity P-wave (km/s) = 3.54667 4.92281 4.29028
#
# Compressibility (1/GPa) = 0.04122719
#
# Stress axis : x y z
#
# Youngs Moduli (GPa) = 63.36280 67.75437 75.21382
#
# Poissons Ratio (x) = -0.04055 -0.06817
# Poissons Ratio (y) = -0.03792 0.21133
# Poissons Ratio (z) = -0.05743 0.19037
#
# Static dielectric constant tensor:
#      x y z
#    x 1.761930 0.000000 0.000000 
#    y 0.000000 1.859560 0.000000 
#    z 0.000000 0.000000 1.780560 
# 
# From -- ./inp_files/23109.got.cif
#   From: 2010.05.17/outbox.cif.g08.bks.cpg/sg57_12_cif.got.tgz:23109.got - 2010.06.03 13:58:18.
