data_PCOD9438643
_publ_section_title
;
Structure prediction by ZEFSAII (Michael W. Deem and Ramdas Pophale) SiO2 
 PCOD9438643
Probable space group: P B C M
;
_chemical_formula_sum "Si O2"
_cell_formula_units_Z 56
_cell_length_a 15.609405
_cell_length_b 8.839841
_cell_length_c 20.318046
_cell_angle_alpha 90.000000
_cell_angle_beta 90.000000
_cell_angle_gamma 90.000000
_cell_volume 2803.578635
_symmetry_space_group_name_H-M "P B C M"
_symmetry_group_IT_number 57
_symmetry_cell_setting 'orthorhombic'
loop_
_space_group_symop_operation_xyz
x,y,z
-x,-y,1/2+z
x,1/2-y,-z
-x,1/2+y,1/2-z
-x,-y,-z
x,y,1/2-z
-x,1/2+y,z
x,1/2-y,1/2+z
loop_
_atom_site_type_symbol
_atom_site_label
_atom_site_fract_x
_atom_site_fract_y
_atom_site_fract_z
Si Si1 0.886282 0.732560 0.422740
Si Si2 0.974498 0.043982 0.639207
Si Si3 0.613430 0.173170 0.673846
Si Si4 0.698845 0.826723 0.428304
Si Si5 0.740492 0.325964 0.928643
Si Si6 0.429201 0.180626 0.174186
Si Si7 0.879930 0.325925 0.680700
O O1 0.880817 0.750000 0.500000
O O2 0.915372 0.564023 0.404771
O O3 0.791214 0.774819 0.398566
O O4 0.960047 0.845677 0.398542
O O5 0.913152 0.154514 0.678954
O O6 0.036907 0.932450 0.678207
O O7 0.643922 0.189515 0.750000
O O8 0.681137 0.224334 0.619042
O O9 0.528573 0.275497 0.666621
O O10 0.587173 0.997931 0.664931
O O11 0.687692 0.750000 0.500000
O O12 0.626472 0.772841 0.378076
O O13 0.700862 0.007277 0.437195
O O14 0.826497 0.348747 0.885729
O O15 0.754154 0.250000 0.000000
O O16 0.405534 0.219047 0.250000
O O17 0.833505 0.356930 0.750000
#
# Coordination Sequence:
#
# PCOD9438643 Si02
#       7
#     8   8   8   8   8   8   8
#     4  10  21  37  61  90 126 167 210 264 315 373
#     4  10  22  40  62  89 121 164 218 263 317 374
#     4  10  22  43  70 100 132 166 210 257 312 378
#     4  11  24  42  62  93 132 168 213 266 317 380
#     4  12  26  42  65  95 130 170 215 265 318 379
#     4  10  22  42  70 100 130 168 209 256 313 379
#     4  11  24  42  64  91 126 167 212 265 320 376
#
# _framework density 19.974471999999999
#
# number of rings (size 3 to 8) (size 9 to 14) (size 15 to 20)
#    0.000    1.429    1.429    3.000    6.000    5.143 
#    0.000    3.571    0.000    0.000    0.000    0.000 
#    0.000    0.000    0.000    0.000    0.000    0.000 
#
# Total GULP energy -312719.264831 kJ/mol
# GULP energy per Si atom -5584.272586 kJ/mol
# Density = 1.992901 g / cm^3
# Si number density = 19.974472 Si / 1000 Ang^3
#
#
#
# Elastic Constant Matrix: (Units=GPa)
#
#
# Indices 1 2 3 4 5 6 
#
# 1 28.3924 -9.0170 24.3382 0.0000 0.0000 0.0000
# 2 -9.0170 88.6607 27.4522 0.0000 0.0000 0.0000
# 3 24.3382 27.4522 115.6307 0.0000 0.0000 0.0000
# 4 0.0000 0.0000 0.0000 11.4621 0.0000 0.0000
# 5 0.0000 0.0000 0.0000 0.0000 40.9403 0.0000
# 6 0.0000 0.0000 0.0000 0.0000 0.0000 20.4915
#
#
#
# Elastic Compliance Matrix: (Units=1/GPa)
#
#
# Indices 1 2 3 4 5 6 
#
# 1 0.048532 0.008741 -0.012291 0.000000 0.000000 0.000000
# 2 0.008741 0.013748 -0.005104 0.000000 0.000000 0.000000
# 3 -0.012291 -0.005104 0.012447 0.000000 0.000000 0.000000
# 4 0.000000 0.000000 0.000000 0.087244 0.000000 0.000000
# 5 0.000000 0.000000 0.000000 0.000000 0.024426 0.000000
# 6 0.000000 0.000000 0.000000 0.000000 0.000000 0.048801
#
#
# Mechanical properties :
#
#
# Convention : Reuss Voigt Hill
#
# Bulk Modulus (GPa) = 17.41506 35.35896 26.38701
# Shear Modulus (GPa) = 18.40636 27.23947 22.82292
#
# Velocity S-wave (km/s) = 3.03891 3.69686 3.38391
# Velocity P-wave (km/s) = 4.58812 5.99690 5.33918
#
# Compressibility (1/GPa) = 0.05742158
#
# Stress axis : x y z
#
# Youngs Moduli (GPa) = 20.60476 72.73611 80.34120
#
# Poissons Ratio (x) = -0.63582 0.98744
# Poissons Ratio (y) = -0.18012 0.41006
# Poissons Ratio (z) = 0.25324 0.37124
#
# Static dielectric constant tensor:
#      x y z
#    x 1.700180 0.000000 0.000000 
#    y 0.000000 1.632270 0.000000 
#    z 0.000000 0.000000 1.693150 
# 
# From -- ./inp_files/25390.got.cif
#   From: 2010.05.17/outbox.cif.g08.bks.cpg/sg57_13_cif.got.tgz:25390.got - 2010.06.03 13:58:18.
