data_PCOD9438383
_publ_section_title
;
Structure prediction by ZEFSAII (Michael W. Deem and Ramdas Pophale) SiO2 
 PCOD9438383
Probable space group: P B C M
;
_chemical_formula_sum "Si O2"
_cell_formula_units_Z 60
_cell_length_a 17.088992
_cell_length_b 17.564745
_cell_length_c 9.605015
_cell_angle_alpha 90.000000
_cell_angle_beta 90.000000
_cell_angle_gamma 90.000000
_cell_volume 2883.077675
_symmetry_space_group_name_H-M "P B C M"
_symmetry_group_IT_number 57
_symmetry_cell_setting 'orthorhombic'
loop_
_space_group_symop_operation_xyz
x,y,z
-x,-y,1/2+z
x,1/2-y,-z
-x,1/2+y,1/2-z
-x,-y,-z
x,y,1/2-z
-x,1/2+y,z
x,1/2-y,1/2+z
loop_
_atom_site_type_symbol
_atom_site_label
_atom_site_fract_x
_atom_site_fract_y
_atom_site_fract_z
Si Si1 0.025702 0.522019 0.250000
Si Si2 0.525846 0.323282 0.085791
Si Si3 0.911801 0.553695 0.989240
Si Si4 0.207392 0.324409 0.911606
Si Si5 0.029009 0.817535 0.403670
Si Si6 0.619916 0.885685 0.585986
Si Si7 0.336577 0.946409 0.086493
Si Si8 0.210215 0.672544 0.582207
O O1 0.091781 0.511744 0.374855
O O2 0.957471 0.531811 0.371366
O O3 0.513998 0.306122 0.250000
O O4 0.589383 0.390435 0.075916
O O5 0.554717 0.250000 0.000000
O O6 0.446677 0.349778 0.009786
O O7 0.969450 0.613592 0.910203
O O8 0.835021 0.600560 0.028799
O O9 0.184095 0.314725 0.750000
O O10 0.300278 0.337765 0.917976
O O11 0.186355 0.250000 0.000000
O O12 0.001789 0.750000 0.500000
O O13 0.032315 0.784892 0.250000
O O14 0.117596 0.840693 0.439150
O O15 0.594802 0.889719 0.750000
O O16 0.641255 0.970520 0.532156
O O17 0.319219 0.960292 0.250000
O O18 0.262467 0.898429 0.033424
O O19 0.230243 0.750000 0.500000
O O20 0.222862 0.682482 0.750000
#
# Coordination Sequence:
#
# PCOD9438383 Si02
#       8
#     4   8   8   8   8   8   8   8
#     4  10  24  38  60  84 120 148 194 248 306 368
#     4  11  22  38  62  93 124 160 201 248 301 366
#     4  11  22  42  59  90 116 160 201 252 310 369
#     4  11  25  42  66  90 121 164 216 263 311 371
#     4  10  21  35  58  84 114 153 199 250 300 356
#     4  10  22  42  63  91 122 161 204 256 311 365
#     4   9  19  36  62  90 119 161 200 245 302 369
#     4   9  18  35  56  84 118 156 199 244 295 361
#
# _framework density 20.811095000000002
#
# number of rings (size 3 to 8) (size 9 to 14) (size 15 to 20)
#    0.000    1.867    1.333    2.000    1.867    4.800 
#    2.400    2.000    0.000    0.000    0.000    0.000 
#    0.000    0.000    0.000    0.000    0.000    0.000 
#
# Total GULP energy -334050.571427 kJ/mol
# GULP energy per Si atom -5567.509524 kJ/mol
# Density = 2.076373 g / cm^3
# Si number density = 20.811095 Si / 1000 Ang^3
#
#
#
# Elastic Constant Matrix: (Units=GPa)
#
#
# Indices 1 2 3 4 5 6 
#
# 1 49.6016 -7.7665 15.8779 0.0000 0.0000 0.0000
# 2 -7.7665 47.3966 30.1364 0.0000 0.0000 0.0000
# 3 15.8779 30.1364 115.6923 0.0000 0.0000 0.0000
# 4 0.0000 0.0000 0.0000 -57.5503 0.0000 0.0000
# 5 0.0000 0.0000 0.0000 0.0000 19.7547 0.0000
# 6 0.0000 0.0000 0.0000 0.0000 0.0000 22.2123
#
#
#
# Elastic Compliance Matrix: (Units=1/GPa)
#
#
# Indices 1 2 3 4 5 6 
#
# 1 0.022810 0.006865 -0.004919 0.000000 0.000000 0.000000
# 2 0.006865 0.027353 -0.008067 0.000000 0.000000 0.000000
# 3 -0.004919 -0.008067 0.011420 0.000000 0.000000 0.000000
# 4 0.000000 0.000000 0.000000 -0.017376 0.000000 0.000000
# 5 0.000000 0.000000 0.000000 0.000000 0.050621 0.000000
# 6 0.000000 0.000000 0.000000 0.000000 0.000000 0.045020
#
#
# Mechanical properties :
#
#
# Convention : Reuss Voigt Hill
#
# Bulk Modulus (GPa) = 20.26692 32.13181 26.19937
# Shear Modulus (GPa) = 29.66702 8.51282 19.08992
#
# Velocity S-wave (km/s) = 3.77973 2.02470 3.03197
# Velocity P-wave (km/s) = 5.36732 4.57593 4.98735
#
# Compressibility (1/GPa) = 0.04934149
#
# Stress axis : x y z
#
# Youngs Moduli (GPa) = 43.84014 36.55902 87.56465
#
# Poissons Ratio (x) = -0.25099 0.43072
# Poissons Ratio (y) = -0.30097 0.70641
# Poissons Ratio (z) = 0.21564 0.29493
#
# Static dielectric constant tensor:
#      x y z
#    x 1.744520 0.000000 0.000000 
#    y 0.000000 1.862450 0.000000 
#    z 0.000000 0.000000 1.721970 
# 
# From -- ./inp_files/6901.got.cif
#   From: 2010.05.17/outbox.cif.g08.bks.cpg/sg57_4_cif.got.tgz:6901.got - 2010.06.03 13:58:18.
