data_PCOD9438364
_publ_section_title
;
Structure prediction by ZEFSAII (Michael W. Deem and Ramdas Pophale) SiO2 
 PCOD9438364
Probable space group: P B C M
;
_chemical_formula_sum "Si O2"
_cell_formula_units_Z 48
_cell_length_a 8.120620
_cell_length_b 8.689451
_cell_length_c 32.118718
_cell_angle_alpha 90.000000
_cell_angle_beta 90.000000
_cell_angle_gamma 90.000000
_cell_volume 2266.416531
_symmetry_space_group_name_H-M "P B C M"
_symmetry_group_IT_number 57
_symmetry_cell_setting 'orthorhombic'
loop_
_space_group_symop_operation_xyz
x,y,z
-x,-y,1/2+z
x,1/2-y,-z
-x,1/2+y,1/2-z
-x,-y,-z
x,y,1/2-z
-x,1/2+y,z
x,1/2-y,1/2+z
loop_
_atom_site_type_symbol
_atom_site_label
_atom_site_fract_x
_atom_site_fract_y
_atom_site_fract_z
Si Si1 0.172178 0.194143 0.651975
Si Si2 0.492613 0.997818 0.339458
Si Si3 0.012618 0.445412 0.798069
Si Si4 0.674622 0.254116 0.704792
Si Si5 0.659931 0.843615 0.917796
Si Si6 0.588381 0.377871 0.469952
O O1 0.184305 0.264875 0.605429
O O2 0.154029 0.335469 0.684123
O O3 0.342339 0.102227 0.655493
O O4 0.033708 0.075908 0.668236
O O5 0.537734 0.117042 0.303501
O O6 0.455253 0.094422 0.380456
O O7 0.350036 0.878486 0.328686
O O8 0.038131 0.498634 0.750000
O O9 0.848245 0.339745 0.796774
O O10 0.647721 0.185239 0.750000
O O11 0.550334 0.718854 0.943685
O O12 0.695567 0.003368 0.942372
O O13 0.671115 0.250000 0.500000
O O14 0.500000 0.500000 0.500000
#
# Coordination Sequence:
#
# PCOD9438364 Si02
#       6
#     8   8   8   8   8   8
#     4  11  23  39  61  84 122 167 213 267 311 359
#     4  11  20  36  58  87 119 153 203 272 317 352
#     4  10  24  42  56  80 122 174 229 261 298 360
#     4  10  21  35  52  79 116 161 213 259 310 358
#     4  11  19  37  60  96 130 148 197 256 309 379
#     4   9  19  35  62  98 134 157 181 239 326 394
#
# _framework density 21.178808
#
# number of rings (size 3 to 8) (size 9 to 14) (size 15 to 20)
#    0.000    1.667    3.333    1.000    2.333    2.000 
#    0.000    0.000    0.000    0.000    0.000   15.167 
#    0.000    0.000    0.000    0.000    0.000    0.000 
#
# Total GULP energy -267503.911491 kJ/mol
# GULP energy per Si atom -5572.998156 kJ/mol
# Density = 2.113060 g / cm^3
# Si number density = 21.178808 Si / 1000 Ang^3
#
#
#
# Elastic Constant Matrix: (Units=GPa)
#
#
# Indices 1 2 3 4 5 6 
#
# 1 43.0760 25.7142 22.1032 0.0000 0.0000 0.0000
# 2 25.7142 134.9017 56.2963 0.0000 0.0000 0.0000
# 3 22.1032 56.2963 107.9857 0.0000 0.0000 0.0000
# 4 0.0000 0.0000 0.0000 56.8806 0.0000 0.0000
# 5 0.0000 0.0000 0.0000 0.0000 17.9021 0.0000
# 6 0.0000 0.0000 0.0000 0.0000 0.0000 43.5206
#
#
#
# Elastic Compliance Matrix: (Units=1/GPa)
#
#
# Indices 1 2 3 4 5 6 
#
# 1 0.027290 -0.003669 -0.003673 0.000000 0.000000 0.000000
# 2 -0.003669 0.009967 -0.004445 0.000000 0.000000 0.000000
# 3 -0.003673 -0.004445 0.012330 0.000000 0.000000 0.000000
# 4 0.000000 0.000000 0.000000 0.017581 0.000000 0.000000
# 5 0.000000 0.000000 0.000000 0.000000 0.055860 0.000000
# 6 0.000000 0.000000 0.000000 0.000000 0.000000 0.022978
#
#
# Mechanical properties :
#
#
# Convention : Reuss Voigt Hill
#
# Bulk Modulus (GPa) = 38.44368 54.91010 46.67689
# Shear Modulus (GPa) = 28.05052 35.78395 31.91723
#
# Velocity S-wave (km/s) = 3.64326 4.11495 3.88627
# Velocity P-wave (km/s) = 5.99076 6.96852 6.49805
#
# Compressibility (1/GPa) = 0.02601208
#
# Stress axis : x y z
#
# Youngs Moduli (GPa) = 36.64386 100.32885 81.10466
#
# Poissons Ratio (x) = 0.36811 0.29790
# Poissons Ratio (y) = 0.13445 0.36053
# Poissons Ratio (z) = 0.13460 0.44598
#
# Static dielectric constant tensor:
#      x y z
#    x 1.757620 0.000000 0.000000 
#    y 0.000000 1.835090 0.000000 
#    z 0.000000 0.000000 1.811640 
# 
# From -- ./inp_files/29465.got.cif
#   From: 2010.05.17/outbox.cif.g08.bks.cpg/sg57_15_cif.got.tgz:29465.got - 2010.06.03 13:58:18.
