data_PCOD9438480
_publ_section_title
;
Structure prediction by ZEFSAII (Michael W. Deem and Ramdas Pophale) SiO2 
 PCOD9438480
Probable space group: P B C M
;
_chemical_formula_sum "Si O2"
_cell_formula_units_Z 48
_cell_length_a 12.120409
_cell_length_b 26.740275
_cell_length_c 8.748517
_cell_angle_alpha 90.000000
_cell_angle_beta 90.000000
_cell_angle_gamma 90.000000
_cell_volume 2835.421216
_symmetry_space_group_name_H-M "P B C M"
_symmetry_group_IT_number 57
_symmetry_cell_setting 'orthorhombic'
loop_
_space_group_symop_operation_xyz
x,y,z
-x,-y,1/2+z
x,1/2-y,-z
-x,1/2+y,1/2-z
-x,-y,-z
x,y,1/2-z
-x,1/2+y,z
x,1/2-y,1/2+z
loop_
_atom_site_type_symbol
_atom_site_label
_atom_site_fract_x
_atom_site_fract_y
_atom_site_fract_z
Si Si1 0.210713 0.069055 0.068110
Si Si2 0.825966 0.195155 0.932880
Si Si3 0.672626 0.103967 0.931673
Si Si4 0.986459 0.619047 0.566683
Si Si5 0.853022 0.464151 0.930709
Si Si6 0.549666 0.948582 0.431238
O O1 0.209413 0.069562 0.250000
O O2 0.134982 0.113639 0.002934
O O3 0.335646 0.066834 0.007817
O O4 0.155047 0.018070 0.006732
O O5 0.828156 0.198902 0.750000
O O6 0.724902 0.157623 0.971866
O O7 0.939059 0.166736 0.979975
O O8 0.815515 0.250000 0.000000
O O9 0.697489 0.095105 0.750000
O O10 0.543681 0.093996 0.952229
O O11 0.737903 0.063383 0.031207
O O12 0.980831 0.617499 0.750000
O O13 0.056859 0.571727 0.507047
O O14 0.871343 0.468281 0.750000
O O15 0.567106 0.955900 0.250000
O O16 0.500000 0.000000 0.500000
#
# Coordination Sequence:
#
# PCOD9438480 Si02
#       6
#     8   8   8   8   8   8
#     4  12  23  34  49  73 108 145 182 219 261 312
#     4   9  19  36  59  83 105 132 167 218 275 324
#     4   9  19  35  53  76 108 142 178 219 263 312
#     4  10  21  37  53  74 105 138 176 218 268 320
#     4  11  20  31  50  75 105 141 179 217 261 311
#     4  11  21  34  53  76 107 147 187 221 261 311
#
# _framework density 16.928701
#
# number of rings (size 3 to 8) (size 9 to 14) (size 15 to 20)
#    0.000    1.667    1.667    5.500    0.000    4.000 
#    0.000    0.000    0.000    1.000    0.000    2.333 
#    0.000    0.000    0.000    0.000    0.000    0.000 
#
# Total GULP energy -267940.111573 kJ/mol
# GULP energy per Si atom -5582.085658 kJ/mol
# Density = 1.689017 g / cm^3
# Si number density = 16.928701 Si / 1000 Ang^3
#
#
#
# Elastic Constant Matrix: (Units=GPa)
#
#
# Indices 1 2 3 4 5 6 
#
# 1 79.0504 37.8629 27.2183 0.0000 0.0000 0.0000
# 2 37.8629 98.3809 29.7812 0.0000 0.0000 0.0000
# 3 27.2183 29.7812 79.6933 0.0000 0.0000 0.0000
# 4 0.0000 0.0000 0.0000 27.1296 0.0000 0.0000
# 5 0.0000 0.0000 0.0000 0.0000 29.5100 0.0000
# 6 0.0000 0.0000 0.0000 0.0000 0.0000 10.8206
#
#
#
# Elastic Compliance Matrix: (Units=1/GPa)
#
#
# Indices 1 2 3 4 5 6 
#
# 1 0.016403 -0.005206 -0.003657 0.000000 0.000000 0.000000
# 2 -0.005206 0.013113 -0.003122 0.000000 0.000000 0.000000
# 3 -0.003657 -0.003122 0.014964 0.000000 0.000000 0.000000
# 4 0.000000 0.000000 0.000000 0.036860 0.000000 0.000000
# 5 0.000000 0.000000 0.000000 0.000000 0.033887 0.000000
# 6 0.000000 0.000000 0.000000 0.000000 0.000000 0.092416
#
#
# Mechanical properties :
#
#
# Convention : Reuss Voigt Hill
#
# Bulk Modulus (GPa) = 48.75698 49.64995 49.20346
# Shear Modulus (GPa) = 20.96881 24.30953 22.63917
#
# Velocity S-wave (km/s) = 3.52327 3.79356 3.66091
# Velocity P-wave (km/s) = 6.73908 6.96999 6.85550
#
# Compressibility (1/GPa) = 0.02050988
#
# Stress axis : x y z
#
# Youngs Moduli (GPa) = 60.96579 76.25858 66.82767
#
# Poissons Ratio (x) = 0.39699 0.24437
# Poissons Ratio (y) = 0.31737 0.20866
# Poissons Ratio (z) = 0.22294 0.23811
#
# Static dielectric constant tensor:
#      x y z
#    x 1.612110 0.000000 0.000000 
#    y 0.000000 1.557360 0.000000 
#    z 0.000000 0.000000 1.565660 
# 
# From -- ./inp_files/3272.got.cif
#   From: 2010.05.17/outbox.cif.g08.bks.cpg/sg57_2_cif.got.tgz:3272.got - 2010.06.03 13:58:18.
