data_PCOD9438228
_publ_section_title
;
Structure prediction by ZEFSAII (Michael W. Deem and Ramdas Pophale) SiO2 
 PCOD9438228
Probable space group: P B C M
;
_chemical_formula_sum "Si O2"
_cell_formula_units_Z 40
_cell_length_a 8.377376
_cell_length_b 16.297253
_cell_length_c 14.401849
_cell_angle_alpha 90.000000
_cell_angle_beta 90.000000
_cell_angle_gamma 90.000000
_cell_volume 1966.258753
_symmetry_space_group_name_H-M "P B C M"
_symmetry_group_IT_number 57
_symmetry_cell_setting 'orthorhombic'
loop_
_space_group_symop_operation_xyz
x,y,z
-x,-y,1/2+z
x,1/2-y,-z
-x,1/2+y,1/2-z
-x,-y,-z
x,y,1/2-z
-x,1/2+y,z
x,1/2-y,1/2+z
loop_
_atom_site_type_symbol
_atom_site_label
_atom_site_fract_x
_atom_site_fract_y
_atom_site_fract_z
Si Si1 0.034933 0.656288 0.854233
Si Si2 0.825932 0.040768 0.509279
Si Si3 0.249456 0.700582 0.096268
Si Si4 0.721985 0.633065 0.520330
Si Si5 0.598041 0.760937 0.645153
O O1 0.985979 0.634025 0.750000
O O2 0.889089 0.652544 0.927143
O O3 0.165042 0.591812 0.894790
O O4 0.112560 0.746356 0.855000
O O5 0.798079 0.108534 0.430111
O O6 0.709410 0.963459 0.498785
O O7 0.000000 0.000000 0.500000
O O8 0.418940 0.704791 0.145867
O O9 0.271889 0.750000 0.000000
O O10 0.596924 0.673292 0.592122
O O11 0.700937 0.681094 0.423369
O O12 0.659739 0.755008 0.750000
#
# Coordination Sequence:
#
# PCOD9438228 Si02
#       5
#     8   8   8   8   8
#     4  10  21  39  66  96 125 168 219 263 319 384
#     4   9  21  38  66  90 125 167 207 268 327 364
#     4  10  20  40  65  88 127 167 208 262 321 379
#     4  10  22  41  62  93 130 169 210 270 323 378
#     4  11  23  40  62  90 127 173 215 254 321 393
#
# _framework density 20.343202000000002
#
# number of rings (size 3 to 8) (size 9 to 14) (size 15 to 20)
#    0.000    2.000    2.000    1.200   14.000    1.600 
#    0.000   10.000    0.000    0.000    0.000    0.000 
#    0.000    0.000    0.000    0.000    0.000    0.000 
#
# Total GULP energy -223023.441354 kJ/mol
# GULP energy per Si atom -5575.586034 kJ/mol
# Density = 2.029690 g / cm^3
# Si number density = 20.343202 Si / 1000 Ang^3
#
#
#
# Elastic Constant Matrix: (Units=GPa)
#
#
# Indices 1 2 3 4 5 6 
#
# 1 66.9956 34.1131 26.0106 0.0000 0.0000 0.0000
# 2 34.1131 132.6791 21.7909 0.0000 0.0000 0.0000
# 3 26.0106 21.7909 130.4627 0.0000 0.0000 0.0000
# 4 0.0000 0.0000 0.0000 11.3917 0.0000 0.0000
# 5 0.0000 0.0000 0.0000 0.0000 18.7302 0.0000
# 6 0.0000 0.0000 0.0000 0.0000 0.0000 28.3893
#
#
#
# Elastic Compliance Matrix: (Units=1/GPa)
#
#
# Indices 1 2 3 4 5 6 
#
# 1 0.018201 -0.004199 -0.002927 0.000000 0.000000 0.000000
# 2 -0.004199 0.008718 -0.000619 0.000000 0.000000 0.000000
# 3 -0.002927 -0.000619 0.008352 0.000000 0.000000 0.000000
# 4 0.000000 0.000000 0.000000 0.087783 0.000000 0.000000
# 5 0.000000 0.000000 0.000000 0.000000 0.053390 0.000000
# 6 0.000000 0.000000 0.000000 0.000000 0.000000 0.035225
#
#
# Mechanical properties :
#
#
# Convention : Reuss Voigt Hill
#
# Bulk Modulus (GPa) = 50.55473 54.88520 52.71996
# Shear Modulus (GPa) = 21.39013 28.25042 24.82028
#
# Velocity S-wave (km/s) = 3.24615 3.73056 3.49675
# Velocity P-wave (km/s) = 6.24138 6.75235 6.50189
#
# Compressibility (1/GPa) = 0.01978054
#
# Stress axis : x y z
#
# Youngs Moduli (GPa) = 54.94235 114.70236 119.73080
#
# Poissons Ratio (x) = 0.48162 0.35050
# Poissons Ratio (y) = 0.23069 0.07412
# Poissons Ratio (z) = 0.16084 0.07101
#
# Static dielectric constant tensor:
#      x y z
#    x 1.807640 0.000000 0.000000 
#    y 0.000000 1.757330 0.000000 
#    z 0.000000 0.000000 1.763080 
# 
# From -- ./inp_files/16125.got.cif
#   From: 2010.05.17/outbox.cif.g08.bks.cpg/sg57_9_cif.got.tgz:16125.got - 2010.06.03 13:58:18.
