data_PCOD9438933
_publ_section_title
;
Structure prediction by ZEFSAII (Michael W. Deem and Ramdas Pophale) SiO2 
 PCOD9438933
Probable space group: P B C M
;
_chemical_formula_sum "Si O2"
_cell_formula_units_Z 40
_cell_length_a 7.088227
_cell_length_b 30.442093
_cell_length_c 8.875955
_cell_angle_alpha 90.000000
_cell_angle_beta 90.000000
_cell_angle_gamma 90.000000
_cell_volume 1915.257702
_symmetry_space_group_name_H-M "P B C M"
_symmetry_group_IT_number 57
_symmetry_cell_setting 'orthorhombic'
loop_
_space_group_symop_operation_xyz
x,y,z
-x,-y,1/2+z
x,1/2-y,-z
-x,1/2+y,1/2-z
-x,-y,-z
x,y,1/2-z
-x,1/2+y,z
x,1/2-y,1/2+z
loop_
_atom_site_type_symbol
_atom_site_label
_atom_site_fract_x
_atom_site_fract_y
_atom_site_fract_z
Si Si1 0.899417 0.203590 0.072791
Si Si2 0.159590 0.369457 0.427466
Si Si3 0.325013 0.941783 0.927753
Si Si4 0.394646 0.647417 0.573973
Si Si5 0.269625 0.037121 0.567918
O O1 0.902514 0.207770 0.250000
O O2 0.949742 0.250000 0.000000
O O3 0.694741 0.187322 0.016904
O O4 0.039888 0.165195 0.019769
O O5 0.116664 0.364328 0.250000
O O6 0.382206 0.358997 0.448835
O O7 0.138492 0.421148 0.467127
O O8 0.309841 0.932252 0.750000
O O9 0.212191 0.986781 0.961130
O O10 0.293432 0.897626 0.021135
O O11 0.540635 0.954526 0.972044
O O12 0.360529 0.654108 0.750000
O O13 0.311826 0.040033 0.750000
#
# Coordination Sequence:
#
# PCOD9438933 Si02
#       5
#     8   8   8   8   8
#     4  12  26  43  63  86 113 146 188 240 294 347
#     4   9  19  38  62  87 117 153 191 233 283 337
#     4   9  15  26  49  82 117 152 192 233 276 332
#     4  10  21  39  62  87 118 155 193 236 286 339
#     4   8  15  28  49  79 116 156 192 229 277 333
#
# _framework density 20.884917999999999
#
# number of rings (size 3 to 8) (size 9 to 14) (size 15 to 20)
#    0.000    2.400    0.000    4.200    0.000    5.600 
#    0.000    1.000    0.000    0.000    0.000    0.000 
#    0.000    0.000    0.000    0.000    0.000    0.000 
#
# Total GULP energy -223325.800895 kJ/mol
# GULP energy per Si atom -5583.145022 kJ/mol
# Density = 2.083738 g / cm^3
# Si number density = 20.884918 Si / 1000 Ang^3
#
#
#
# Elastic Constant Matrix: (Units=GPa)
#
#
# Indices 1 2 3 4 5 6 
#
# 1 56.1353 22.7796 22.0475 0.0000 0.0000 0.0000
# 2 22.7796 122.9955 64.5515 0.0000 0.0000 0.0000
# 3 22.0475 64.5515 96.4952 0.0000 0.0000 0.0000
# 4 0.0000 0.0000 0.0000 33.5464 0.0000 0.0000
# 5 0.0000 0.0000 0.0000 0.0000 23.6112 0.0000
# 6 0.0000 0.0000 0.0000 0.0000 0.0000 26.6622
#
#
#
# Elastic Compliance Matrix: (Units=1/GPa)
#
#
# Indices 1 2 3 4 5 6 
#
# 1 0.019885 -0.002001 -0.003205 0.000000 0.000000 0.000000
# 2 -0.002001 0.012731 -0.008059 0.000000 0.000000 0.000000
# 3 -0.003205 -0.008059 0.016487 0.000000 0.000000 0.000000
# 4 0.000000 0.000000 0.000000 0.029809 0.000000 0.000000
# 5 0.000000 0.000000 0.000000 0.000000 0.042353 0.000000
# 6 0.000000 0.000000 0.000000 0.000000 0.000000 0.037506
#
#
# Mechanical properties :
#
#
# Convention : Reuss Voigt Hill
#
# Bulk Modulus (GPa) = 44.30173 54.93148 49.61661
# Shear Modulus (GPa) = 25.93035 27.84713 26.88874
#
# Velocity S-wave (km/s) = 3.52743 3.65548 3.59203
# Velocity P-wave (km/s) = 6.15213 6.64649 6.40408
#
# Compressibility (1/GPa) = 0.02257248
#
# Stress axis : x y z
#
# Youngs Moduli (GPa) = 50.28979 78.55099 60.65498
#
# Poissons Ratio (x) = 0.15716 0.19439
# Poissons Ratio (y) = 0.10062 0.48883
# Poissons Ratio (z) = 0.16117 0.63305
#
# Static dielectric constant tensor:
#      x y z
#    x 1.782050 0.000000 0.000000 
#    y 0.000000 1.760900 0.000000 
#    z 0.000000 0.000000 1.700360 
# 
# From -- ./inp_files/1716.got.cif
#   From: 2010.05.17/outbox.cif.g08.bks.cpg/sg57_1_cif.got.tgz:1716.got - 2010.06.03 13:58:18.
