data_PCOD9438443
_publ_section_title
;
Structure prediction by ZEFSAII (Michael W. Deem and Ramdas Pophale) SiO2 
 PCOD9438443
Probable space group: P B C M
;
_chemical_formula_sum "Si O2"
_cell_formula_units_Z 56
_cell_length_a 19.877213
_cell_length_b 16.222343
_cell_length_c 8.601717
_cell_angle_alpha 90.000000
_cell_angle_beta 90.000000
_cell_angle_gamma 90.000000
_cell_volume 2773.666373
_symmetry_space_group_name_H-M "P B C M"
_symmetry_group_IT_number 57
_symmetry_cell_setting 'orthorhombic'
loop_
_space_group_symop_operation_xyz
x,y,z
-x,-y,1/2+z
x,1/2-y,-z
-x,1/2+y,1/2-z
-x,-y,-z
x,y,1/2-z
-x,1/2+y,z
x,1/2-y,1/2+z
loop_
_atom_site_type_symbol
_atom_site_label
_atom_site_fract_x
_atom_site_fract_y
_atom_site_fract_z
Si Si1 0.213721 0.080532 0.436586
Si Si2 0.649427 0.337472 0.434099
Si Si3 0.073631 0.156962 0.437766
Si Si4 0.073141 0.842967 0.937584
Si Si5 0.649264 0.661748 0.434766
Si Si6 0.575485 0.499720 0.564463
Si Si7 0.782284 0.403852 0.565217
O O1 0.212749 0.065206 0.250000
O O2 0.139602 0.108041 0.488896
O O3 0.271111 0.148002 0.466313
O O4 0.234118 0.997682 0.523644
O O5 0.624680 0.250000 0.500000
O O6 0.641890 0.338668 0.250000
O O7 0.612323 0.417079 0.504582
O O8 0.727848 0.347757 0.479854
O O9 0.078048 0.250000 0.500000
O O10 0.075261 0.159393 0.250000
O O11 0.000170 0.122965 0.486666
O O12 0.073604 0.841542 0.750000
O O13 0.141014 0.888140 0.988115
O O14 0.076745 0.750000 0.000000
O O15 0.627313 0.750000 0.500000
O O16 0.639334 0.660193 0.250000
O O17 0.611795 0.582931 0.506156
O O18 0.500000 0.500000 0.500000
O O19 0.575589 0.498815 0.750000
O O20 0.777459 0.389843 0.750000
#
# Coordination Sequence:
#
# PCOD9438443 Si02
#       7
#     8   8   8   8   8   8   8
#     4  10  21  36  57  84 120 162 208 263 320 376
#     4  12  25  44  69  99 133 172 217 266 320 383
#     4   9  18  34  53  77 111 154 203 259 318 376
#     4   9  19  34  52  77 111 152 204 260 316 379
#     4  11  23  41  66  98 133 174 220 267 318 379
#     4  12  26  47  73 103 137 173 211 260 315 377
#     4  11  22  36  57  86 120 162 211 265 320 379
#
# _framework density 20.189882000000001
#
# number of rings (size 3 to 8) (size 9 to 14) (size 15 to 20)
#    0.000    1.429    1.429    4.286    0.000    4.571 
#    0.000    2.857    0.000    0.000    0.000    0.000 
#    0.000    0.000    0.000    0.000    0.000    0.000 
#
# Total GULP energy -312919.686711 kJ/mol
# GULP energy per Si atom -5587.851548 kJ/mol
# Density = 2.014393 g / cm^3
# Si number density = 20.189882 Si / 1000 Ang^3
#
#
#
# Elastic Constant Matrix: (Units=GPa)
#
#
# Indices 1 2 3 4 5 6 
#
# 1 123.4665 57.4327 50.4580 0.0000 0.0000 0.0000
# 2 57.4327 139.0999 56.2268 0.0000 0.0000 0.0000
# 3 50.4580 56.2268 87.4601 0.0000 0.0000 0.0000
# 4 0.0000 0.0000 0.0000 32.7059 0.0000 0.0000
# 5 0.0000 0.0000 0.0000 0.0000 15.3797 0.0000
# 6 0.0000 0.0000 0.0000 0.0000 0.0000 18.9887
#
#
#
# Elastic Compliance Matrix: (Units=1/GPa)
#
#
# Indices 1 2 3 4 5 6 
#
# 1 0.011327 -0.002750 -0.004767 0.000000 0.000000 0.000000
# 2 -0.002750 0.010381 -0.005087 0.000000 0.000000 0.000000
# 3 -0.004767 -0.005087 0.017454 0.000000 0.000000 0.000000
# 4 0.000000 0.000000 0.000000 0.030576 0.000000 0.000000
# 5 0.000000 0.000000 0.000000 0.000000 0.065021 0.000000
# 6 0.000000 0.000000 0.000000 0.000000 0.000000 0.052663
#
#
# Mechanical properties :
#
#
# Convention : Reuss Voigt Hill
#
# Bulk Modulus (GPa) = 71.66347 75.36240 73.51294
# Shear Modulus (GPa) = 23.01179 25.80878 24.41029
#
# Velocity S-wave (km/s) = 3.37971 3.57921 3.48089
# Velocity P-wave (km/s) = 7.12753 7.38166 7.25571
#
# Compressibility (1/GPa) = 0.01395411
#
# Stress axis : x y z
#
# Youngs Moduli (GPa) = 88.28813 96.33183 57.29218
#
# Poissons Ratio (x) = 0.26489 0.27310
# Poissons Ratio (y) = 0.24277 0.29146
# Poissons Ratio (z) = 0.42085 0.49006
#
# Static dielectric constant tensor:
#      x y z
#    x 1.750960 0.000000 0.000000 
#    y 0.000000 1.684610 0.000000 
#    z 0.000000 0.000000 1.673210 
# 
# From -- ./inp_files/8197.got.cif
#   From: 2010.05.17/outbox.cif.g08.bks.cpg/sg57_5_cif.got.tgz:8197.got - 2010.06.03 13:58:18.
