data_PCOD9438603
_publ_section_title
;
Structure prediction by ZEFSAII (Michael W. Deem and Ramdas Pophale) SiO2 
 PCOD9438603
Probable space group: P B C M
;
_chemical_formula_sum "Si O2"
_cell_formula_units_Z 64
_cell_length_a 6.734340
_cell_length_b 27.134686
_cell_length_c 17.831564
_cell_angle_alpha 90.000000
_cell_angle_beta 90.000000
_cell_angle_gamma 90.000000
_cell_volume 3258.436606
_symmetry_space_group_name_H-M "P B C M"
_symmetry_group_IT_number 57
_symmetry_cell_setting 'orthorhombic'
loop_
_space_group_symop_operation_xyz
x,y,z
-x,-y,1/2+z
x,1/2-y,-z
-x,1/2+y,1/2-z
-x,-y,-z
x,y,1/2-z
-x,1/2+y,z
x,1/2-y,1/2+z
loop_
_atom_site_type_symbol
_atom_site_label
_atom_site_fract_x
_atom_site_fract_y
_atom_site_fract_z
Si Si1 0.516569 0.816672 0.419332
Si Si2 0.325534 0.129187 0.166650
Si Si3 0.063144 0.860602 0.926165
Si Si4 0.587869 0.202921 0.089443
Si Si5 0.323575 0.940293 0.837873
Si Si6 0.433099 0.031509 0.572588
Si Si7 0.732559 0.400902 0.338596
Si Si8 0.119278 0.382368 0.418842
O O1 0.484569 0.820309 0.509646
O O2 0.470762 0.759503 0.404827
O O3 0.369457 0.851218 0.371652
O O4 0.738639 0.835805 0.401695
O O5 0.243028 0.128723 0.250000
O O6 0.484769 0.172412 0.155136
O O7 0.450890 0.079707 0.154077
O O8 0.151388 0.138323 0.109830
O O9 0.179507 0.809881 0.910986
O O10 0.189553 0.904154 0.887809
O O11 0.028456 0.869877 0.013236
O O12 0.270626 0.937313 0.750000
O O13 0.323193 0.994613 0.870595
O O14 0.622267 0.056122 0.614028
O O15 0.275908 0.075256 0.556676
O O16 0.500000 0.000000 0.500000
O O17 0.692270 0.405946 0.250000
O O18 0.968628 0.398953 0.353943
#
# Coordination Sequence:
#
# PCOD9438603 Si02
#       8
#     8   8   8   8   8   8   8   8
#     4  10  22  42  63  90 122 166 208 257 310 373
#     4  10  21  37  59  91 126 159 199 257 316 369
#     4  11  20  37  63  89 123 161 206 256 311 372
#     4  10  21  39  64  90 123 162 211 254 310 374
#     4  10  22  38  58  87 125 161 199 252 313 367
#     4  11  24  41  66  91 123 164 214 257 311 374
#     4  11  25  44  64  93 130 167 209 265 318 373
#     4  11  23  40  64  90 122 164 213 257 309 372
#
# _framework density 19.641321999999999
#
# number of rings (size 3 to 8) (size 9 to 14) (size 15 to 20)
#    0.000    1.500    2.500    2.250    3.500    7.500 
#    0.000    1.250    0.000    0.000    0.000    0.000 
#    0.000    0.000    0.000    0.000    0.000    0.000 
#
# Total GULP energy -357235.670735 kJ/mol
# GULP energy per Si atom -5581.807355 kJ/mol
# Density = 1.959662 g / cm^3
# Si number density = 19.641322 Si / 1000 Ang^3
#
#
#
# Elastic Constant Matrix: (Units=GPa)
#
#
# Indices 1 2 3 4 5 6 
#
# 1 78.8488 30.7389 31.1260 0.0000 0.0000 0.0000
# 2 30.7389 106.8434 29.5219 0.0000 0.0000 0.0000
# 3 31.1260 29.5219 75.9197 0.0000 0.0000 0.0000
# 4 0.0000 0.0000 0.0000 14.0124 0.0000 0.0000
# 5 0.0000 0.0000 0.0000 0.0000 22.6268 0.0000
# 6 0.0000 0.0000 0.0000 0.0000 0.0000 13.9073
#
#
#
# Elastic Compliance Matrix: (Units=1/GPa)
#
#
# Indices 1 2 3 4 5 6 
#
# 1 0.016014 -0.003129 -0.005349 0.000000 0.000000 0.000000
# 2 -0.003129 0.011098 -0.003032 0.000000 0.000000 0.000000
# 3 -0.005349 -0.003032 0.016544 0.000000 0.000000 0.000000
# 4 0.000000 0.000000 0.000000 0.071366 0.000000 0.000000
# 5 0.000000 0.000000 0.000000 0.000000 0.044195 0.000000
# 6 0.000000 0.000000 0.000000 0.000000 0.000000 0.071905
#
#
# Mechanical properties :
#
#
# Convention : Reuss Voigt Hill
#
# Bulk Modulus (GPa) = 48.46213 49.37619 48.91916
# Shear Modulus (GPa) = 19.15562 21.45762 20.30662
#
# Velocity S-wave (km/s) = 3.12632 3.30884 3.21888
# Velocity P-wave (km/s) = 6.14483 6.30805 6.22697
#
# Compressibility (1/GPa) = 0.02063467
#
# Stress axis : x y z
#
# Youngs Moduli (GPa) = 62.44597 90.10881 60.44546
#
# Poissons Ratio (x) = 0.28198 0.32330
# Poissons Ratio (y) = 0.19541 0.18330
# Poissons Ratio (z) = 0.33400 0.27325
#
# Static dielectric constant tensor:
#      x y z
#    x 1.697490 0.000000 0.000000 
#    y 0.000000 1.679720 0.000000 
#    z 0.000000 0.000000 2.891320 
# 
# From -- ./inp_files/20330.got.cif
#   From: 2010.05.17/outbox.cif.g08.bks.cpg/sg57_11_cif.got.tgz:20330.got - 2010.06.03 13:58:18.
