data_PCOD9438713
_publ_section_title
;
Structure prediction by ZEFSAII (Michael W. Deem and Ramdas Pophale) SiO2 
 PCOD9438713
Probable space group: P B C M
;
_chemical_formula_sum "Si O2"
_cell_formula_units_Z 64
_cell_length_a 26.643503
_cell_length_b 15.124704
_cell_length_c 8.641165
_cell_angle_alpha 90.000000
_cell_angle_beta 90.000000
_cell_angle_gamma 90.000000
_cell_volume 3482.174299
_symmetry_space_group_name_H-M "P B C M"
_symmetry_group_IT_number 57
_symmetry_cell_setting 'orthorhombic'
loop_
_space_group_symop_operation_xyz
x,y,z
-x,-y,1/2+z
x,1/2-y,-z
-x,1/2+y,1/2-z
-x,-y,-z
x,y,1/2-z
-x,1/2+y,z
x,1/2-y,1/2+z
loop_
_atom_site_type_symbol
_atom_site_label
_atom_site_fract_x
_atom_site_fract_y
_atom_site_fract_z
Si Si1 0.631778 0.850698 0.935442
Si Si2 0.107462 0.158367 0.064128
Si Si3 0.819242 0.998609 0.936853
Si Si4 0.001921 0.598810 0.064137
Si Si5 0.633322 0.149827 0.063971
Si Si6 0.892021 0.158601 0.565554
Si Si7 0.292223 0.493862 0.435324
Si Si8 0.556081 0.996490 0.436382
O O1 0.630284 0.846761 0.750000
O O2 0.631936 0.750000 0.000000
O O3 0.585607 0.911122 0.997406
O O4 0.679545 0.909635 0.989806
O O5 0.106250 0.158512 0.250000
O O6 0.145211 0.082150 0.015032
O O7 0.050118 0.143162 0.010917
O O8 0.126233 0.250000 0.000000
O O9 0.812880 0.996061 0.750000
O O10 0.852416 0.083640 0.976616
O O11 0.765340 0.996583 0.014904
O O12 0.002661 0.598371 0.250000
O O13 0.052832 0.641658 0.003297
O O14 0.000000 0.500000 0.000000
O O15 0.633745 0.157179 0.250000
O O16 0.680043 0.085935 0.018016
O O17 0.585901 0.087090 0.020405
O O18 0.633388 0.250000 0.000000
O O19 0.872806 0.250000 0.500000
O O20 0.897024 0.160101 0.750000
O O21 0.297478 0.486198 0.250000
O O22 0.556624 0.990731 0.250000
O O23 0.500000 0.000000 0.500000
#
# Coordination Sequence:
#
# PCOD9438713 Si02
#       8
#     8   8   8   8   8   8   8   8
#     4  11  22  39  63  89 118 158 202 247 300 353
#     4  10  22  39  57  82 112 144 183 227 279 340
#     4  10  22  41  59  80 115 151 187 235 291 347
#     4  11  21  37  60  84 113 149 186 231 285 343
#     4   9  20  37  58  84 116 151 194 241 286 340
#     4  11  23  40  59  84 116 150 191 237 286 348
#     4  10  22  40  60  86 116 148 193 246 296 350
#     4  10  21  38  58  88 127 164 203 249 294 346
#
# _framework density 18.379321999999998
#
# number of rings (size 3 to 8) (size 9 to 14) (size 15 to 20)
#    0.000    1.750    1.250    3.750    0.000    8.000 
#    0.000    5.000    0.000    0.000    0.000    0.000 
#    0.000    0.000    0.000    0.000    0.000    0.000 
#
# Total GULP energy -357283.579057 kJ/mol
# GULP energy per Si atom -5582.555923 kJ/mol
# Density = 1.833749 g / cm^3
# Si number density = 18.379322 Si / 1000 Ang^3
#
#
#
# Elastic Constant Matrix: (Units=GPa)
#
#
# Indices 1 2 3 4 5 6 
#
# 1 160.5426 90.6773 55.1646 0.0000 0.0000 0.0000
# 2 90.6773 204.1858 60.2006 0.0000 0.0000 0.0000
# 3 55.1646 60.2006 66.9388 0.0000 0.0000 0.0000
# 4 0.0000 0.0000 0.0000 35.3596 0.0000 0.0000
# 5 0.0000 0.0000 0.0000 0.0000 33.1422 0.0000
# 6 0.0000 0.0000 0.0000 0.0000 0.0000 31.1103
#
#
#
# Elastic Compliance Matrix: (Units=1/GPa)
#
#
# Indices 1 2 3 4 5 6 
#
# 1 0.009630 -0.002636 -0.005566 0.000000 0.000000 0.000000
# 2 -0.002636 0.007386 -0.004470 0.000000 0.000000 0.000000
# 3 -0.005566 -0.004470 0.023546 0.000000 0.000000 0.000000
# 4 0.000000 0.000000 0.000000 0.028281 0.000000 0.000000
# 5 0.000000 0.000000 0.000000 0.000000 0.030173 0.000000
# 6 0.000000 0.000000 0.000000 0.000000 0.000000 0.032144
#
#
# Mechanical properties :
#
#
# Convention : Reuss Voigt Hill
#
# Bulk Modulus (GPa) = 65.70959 93.75025 79.72992
# Shear Modulus (GPa) = 30.94507 34.96406 32.95456
#
# Velocity S-wave (km/s) = 4.10773 4.36634 4.23901
# Velocity P-wave (km/s) = 7.63724 8.74866 8.21178
#
# Compressibility (1/GPa) = 0.01521848
#
# Stress axis : x y z
#
# Youngs Moduli (GPa) = 103.84198 135.39120 42.46945
#
# Poissons Ratio (x) = 0.35684 0.23638
# Poissons Ratio (y) = 0.27369 0.18986
# Poissons Ratio (z) = 0.57797 0.60526
#
# Static dielectric constant tensor:
#      x y z
#    x 1.618950 0.000000 0.000000 
#    y 0.000000 1.617000 0.000000 
#    z 0.000000 0.000000 1.628090 
# 
# From -- ./inp_files/9323.got.cif
#   From: 2010.05.17/outbox.cif.g08.bks.cpg/sg57_5_cif.got.tgz:9323.got - 2010.06.03 13:58:18.
