data_PCOD9438596
_publ_section_title
;
Structure prediction by ZEFSAII (Michael W. Deem and Ramdas Pophale) SiO2 
 PCOD9438596
Probable space group: P B C M
;
_chemical_formula_sum "Si O2"
_cell_formula_units_Z 36
_cell_length_a 6.558400
_cell_length_b 12.410111
_cell_length_c 21.583230
_cell_angle_alpha 90.000000
_cell_angle_beta 90.000000
_cell_angle_gamma 90.000000
_cell_volume 1756.669277
_symmetry_space_group_name_H-M "P B C M"
_symmetry_group_IT_number 57
_symmetry_cell_setting 'orthorhombic'
loop_
_space_group_symop_operation_xyz
x,y,z
-x,-y,1/2+z
x,1/2-y,-z
-x,1/2+y,1/2-z
-x,-y,-z
x,y,1/2-z
-x,1/2+y,z
x,1/2-y,1/2+z
loop_
_atom_site_type_symbol
_atom_site_label
_atom_site_fract_x
_atom_site_fract_y
_atom_site_fract_z
Si Si1 0.492016 0.401409 0.905726
Si Si2 0.777141 0.596410 0.895735
Si Si3 0.738855 0.750000 0.500000
Si Si4 0.157400 0.513337 0.821303
Si Si5 0.560895 0.277666 0.180022
O O1 0.623154 0.505964 0.922412
O O2 0.402487 0.332830 0.961940
O O3 0.305045 0.437006 0.861203
O O4 0.624114 0.320112 0.863805
O O5 0.642300 0.669417 0.849279
O O6 0.950404 0.535567 0.857871
O O7 0.855345 0.675783 0.950053
O O8 0.127846 0.477089 0.750000
O O9 0.273611 0.628013 0.819226
O O10 0.524967 0.240643 0.250000
#
# Coordination Sequence:
#
# PCOD9438596 Si02
#       5
#     8   8   4   8   8
#     4  10  21  38  59  83 113 150 191 235 284 337
#     4  10  21  38  58  82 113 151 191 234 281 333
#     4  10  22  40  58  80 114 154 192 234 284 338
#     4  10  21  37  59  88 116 146 189 236 286 341
#     4   9  19  36  57  83 115 147 182 230 286 340
#
# _framework density 20.493327000000001
#
# number of rings (size 3 to 8) (size 9 to 14) (size 15 to 20)
#    0.000    2.222    0.000    2.000    0.000    7.111 
#    0.000   15.556    0.000    0.000    0.000    0.000 
#    0.000    0.000    0.000    0.000    0.000    0.000 
#
# Total GULP energy -200942.934423 kJ/mol
# GULP energy per Si atom -5581.748178 kJ/mol
# Density = 2.044668 g / cm^3
# Si number density = 20.493327 Si / 1000 Ang^3
#
#
#
# Elastic Constant Matrix: (Units=GPa)
#
#
# Indices 1 2 3 4 5 6 
#
# 1 53.3156 8.1826 25.1891 0.0000 0.0000 0.0000
# 2 8.1826 79.4895 43.0681 0.0000 0.0000 0.0000
# 3 25.1891 43.0681 113.3297 0.0000 0.0000 0.0000
# 4 0.0000 0.0000 0.0000 44.1686 0.0000 0.0000
# 5 0.0000 0.0000 0.0000 0.0000 55.3610 0.0000
# 6 0.0000 0.0000 0.0000 0.0000 0.0000 -2.8010
#
#
#
# Elastic Compliance Matrix: (Units=1/GPa)
#
#
# Indices 1 2 3 4 5 6 
#
# 1 0.020970 0.000462 -0.004836 0.000000 0.000000 0.000000
# 2 0.000462 0.015852 -0.006127 0.000000 0.000000 0.000000
# 3 -0.004836 -0.006127 0.012227 0.000000 0.000000 0.000000
# 4 0.000000 0.000000 0.000000 0.022641 0.000000 0.000000
# 5 0.000000 0.000000 0.000000 0.000000 0.018063 0.000000
# 6 0.000000 0.000000 0.000000 0.000000 0.000000 -0.357018
#
#
# Mechanical properties :
#
#
# Convention : Reuss Voigt Hill
#
# Bulk Modulus (GPa) = 35.65485 44.33493 39.99489
# Shear Modulus (GPa) = -21.10487 30.65874 4.77693
#
# Velocity S-wave (km/s) = -3.21260 3.87206 1.52841
# Velocity P-wave (km/s) = 1.91703 6.45533 4.76163
#
# Compressibility (1/GPa) = 0.02804667
#
# Stress axis : x y z
#
# Youngs Moduli (GPa) = 47.68638 63.08205 81.78519
#
# Poissons Ratio (x) = -0.02913 0.39555
# Poissons Ratio (y) = -0.02202 0.50109
# Poissons Ratio (z) = 0.23063 0.38650
#
# Static dielectric constant tensor:
#      x y z
#    x 1.707570 0.000000 0.000000 
#    y 0.000000 1.735850 0.000000 
#    z 0.000000 0.000000 1.748010 
# 
# From -- ./inp_files/23448.got.cif
#   From: 2010.05.17/outbox.cif.g08.bks.cpg/sg57_12_cif.got.tgz:23448.got - 2010.06.03 13:58:18.
