data_PCOD9438687
_publ_section_title
;
Structure prediction by ZEFSAII (Michael W. Deem and Ramdas Pophale) SiO2 
 PCOD9438687
Probable space group: P B C M
;
_chemical_formula_sum "Si O2"
_cell_formula_units_Z 64
_cell_length_a 21.465996
_cell_length_b 9.165395
_cell_length_c 16.327998
_cell_angle_alpha 90.000000
_cell_angle_beta 90.000000
_cell_angle_gamma 90.000000
_cell_volume 3212.441066
_symmetry_space_group_name_H-M "P B C M"
_symmetry_group_IT_number 57
_symmetry_cell_setting 'orthorhombic'
loop_
_space_group_symop_operation_xyz
x,y,z
-x,-y,1/2+z
x,1/2-y,-z
-x,1/2+y,1/2-z
-x,-y,-z
x,y,1/2-z
-x,1/2+y,z
x,1/2-y,1/2+z
loop_
_atom_site_type_symbol
_atom_site_label
_atom_site_fract_x
_atom_site_fract_y
_atom_site_fract_z
Si Si1 0.312158 0.416540 0.492130
Si Si2 0.547807 0.642655 0.566095
Si Si3 0.277026 0.617787 0.342896
Si Si4 0.463290 0.074148 0.159763
Si Si5 0.670300 0.424464 0.342126
Si Si6 0.091358 0.400539 0.033418
Si Si7 0.136313 0.862703 0.841576
Si Si8 0.046101 0.646319 0.578383
O O1 0.290348 0.250000 0.500000
O O2 0.386680 0.406506 0.472992
O O3 0.284529 0.501212 0.414559
O O4 0.300532 0.497750 0.578296
O O5 0.515698 0.750000 0.500000
O O6 0.509234 0.506584 0.597543
O O7 0.555926 0.760144 0.638906
O O8 0.284261 0.558071 0.250000
O O9 0.324631 0.751013 0.353917
O O10 0.207868 0.687184 0.347782
O O11 0.491986 0.071364 0.250000
O O12 0.400464 0.979486 0.159314
O O13 0.696332 0.455989 0.250000
O O14 0.128798 0.510189 0.091099
O O15 0.028323 0.365957 0.085836
O O16 0.119347 0.250000 0.000000
O O17 0.070534 0.490360 0.952285
O O18 0.126580 0.921583 0.750000
O O19 0.087682 0.730652 0.855861
O O20 0.054398 0.750000 0.500000
#
# Coordination Sequence:
#
# PCOD9438687 Si02
#       8
#     8   8   8   8   8   8   8   8
#     4  11  23  41  63  89 118 158 196 250 313 360
#     4  11  23  39  58  87 120 150 192 241 296 364
#     4  10  24  42  63  86 116 160 208 255 299 359
#     4  11  23  39  60  88 119 153 193 241 298 359
#     4  10  22  41  61  88 119 154 203 249 297 361
#     4   9  17  32  56  86 117 155 195 240 289 350
#     4  10  21  38  57  86 121 154 200 249 296 353
#     4   8  16  32  55  80 114 155 196 232 284 345
#
# _framework density 19.922545
#
# number of rings (size 3 to 8) (size 9 to 14) (size 15 to 20)
#    0.000    2.000    2.500    1.875    1.750    5.500 
#    0.000    0.625    0.000    3.000    0.000    0.000 
#    0.000    0.000    0.000    0.000    0.000    0.000 
#
# Total GULP energy -356633.036815 kJ/mol
# GULP energy per Si atom -5572.391200 kJ/mol
# Density = 1.987720 g / cm^3
# Si number density = 19.922545 Si / 1000 Ang^3
#
#
#
# Elastic Constant Matrix: (Units=GPa)
#
#
# Indices 1 2 3 4 5 6 
#
# 1 27.9056 23.9571 17.4111 0.0000 0.0000 0.0000
# 2 23.9571 93.4631 37.8895 0.0000 0.0000 0.0000
# 3 17.4111 37.8895 114.4401 0.0000 0.0000 0.0000
# 4 0.0000 0.0000 0.0000 31.1431 0.0000 0.0000
# 5 0.0000 0.0000 0.0000 0.0000 33.7821 0.0000
# 6 0.0000 0.0000 0.0000 0.0000 0.0000 16.4652
#
#
#
# Elastic Compliance Matrix: (Units=1/GPa)
#
#
# Indices 1 2 3 4 5 6 
#
# 1 0.047245 -0.010622 -0.003671 0.000000 0.000000 0.000000
# 2 -0.010622 0.014746 -0.003266 0.000000 0.000000 0.000000
# 3 -0.003671 -0.003266 0.010378 0.000000 0.000000 0.000000
# 4 0.000000 0.000000 0.000000 0.032110 0.000000 0.000000
# 5 0.000000 0.000000 0.000000 0.000000 0.029601 0.000000
# 6 0.000000 0.000000 0.000000 0.000000 0.000000 0.060734
#
#
# Mechanical properties :
#
#
# Convention : Reuss Voigt Hill
#
# Bulk Modulus (GPa) = 26.84524 43.81381 35.32952
# Shear Modulus (GPa) = 20.63135 26.71481 23.67308
#
# Velocity S-wave (km/s) = 3.22153 3.66585 3.45085
# Velocity P-wave (km/s) = 5.22893 6.32121 5.80084
#
# Compressibility (1/GPa) = 0.03725055
#
# Stress axis : x y z
#
# Youngs Moduli (GPa) = 21.16646 67.81417 96.35651
#
# Poissons Ratio (x) = 0.72031 0.35374
# Poissons Ratio (y) = 0.22483 0.31472
# Poissons Ratio (z) = 0.07770 0.22150
#
# Static dielectric constant tensor:
#      x y z
#    x 1.728950 0.000000 0.000000 
#    y 0.000000 1.713150 0.000000 
#    z 0.000000 0.000000 1.758390 
# 
# From -- ./inp_files/19539.got.cif
#   From: 2010.05.17/outbox.cif.g08.bks.cpg/sg57_10_cif.got.tgz:19539.got - 2010.06.03 13:58:18.
