data_PCOD9438433
_publ_section_title
;
Structure prediction by ZEFSAII (Michael W. Deem and Ramdas Pophale) SiO2 
 PCOD9438433
Probable space group: P B C M
;
_chemical_formula_sum "Si O2"
_cell_formula_units_Z 36
_cell_length_a 9.740788
_cell_length_b 20.894225
_cell_length_c 7.586161
_cell_angle_alpha 90.000000
_cell_angle_beta 90.000000
_cell_angle_gamma 90.000000
_cell_volume 1543.982643
_symmetry_space_group_name_H-M "P B C M"
_symmetry_group_IT_number 57
_symmetry_cell_setting 'orthorhombic'
loop_
_space_group_symop_operation_xyz
x,y,z
-x,-y,1/2+z
x,1/2-y,-z
-x,1/2+y,1/2-z
-x,-y,-z
x,y,1/2-z
-x,1/2+y,z
x,1/2-y,1/2+z
loop_
_atom_site_type_symbol
_atom_site_label
_atom_site_fract_x
_atom_site_fract_y
_atom_site_fract_z
Si Si1 0.752609 0.389282 0.537172
Si Si2 0.256160 0.250000 0.500000
Si Si3 0.952665 0.648380 0.457459
Si Si4 0.552122 0.856556 0.458115
Si Si5 0.758962 0.964736 0.462162
O O1 0.757697 0.390937 0.750000
O O2 0.609537 0.358066 0.484500
O O3 0.755743 0.462822 0.472674
O O4 0.891192 0.353901 0.480220
O O5 0.144683 0.302984 0.438676
O O6 0.367619 0.197791 0.435153
O O7 0.945731 0.666974 0.250000
O O8 0.886072 0.577850 0.472010
O O9 0.580639 0.844508 0.250000
O O10 0.621699 0.924449 0.506778
O O11 0.768099 0.966648 0.250000
#
# Coordination Sequence:
#
# PCOD9438433 Si02
#       5
#     8   4   8   8   8
#     4  10  21  36  56  86 117 143 178 226 277 327
#     4  10  22  40  56  76 106 144 188 234 276 324
#     4  10  21  37  59  83 109 145 185 226 273 326
#     4  10  21  36  56  80 108 146 186 225 271 325
#     4   9  19  36  57  84 117 147 178 220 272 329
#
# _framework density 23.316324000000002
#
# number of rings (size 3 to 8) (size 9 to 14) (size 15 to 20)
#    0.000    2.222    0.000    2.000    0.000    8.000 
#    0.000    2.222    0.000    0.000    0.000    0.000 
#    0.000    0.000    0.000    0.000    0.000    0.000 
#
# Total GULP energy -200732.849114 kJ/mol
# GULP energy per Si atom -5575.912475 kJ/mol
# Density = 2.326325 g / cm^3
# Si number density = 23.316324 Si / 1000 Ang^3
#
#
#
# Elastic Constant Matrix: (Units=GPa)
#
#
# Indices 1 2 3 4 5 6 
#
# 1 245.1039 70.9414 28.2536 0.0000 0.0000 0.0000
# 2 70.9414 118.7398 27.2232 0.0000 0.0000 0.0000
# 3 28.2536 27.2232 78.8257 0.0000 0.0000 0.0000
# 4 0.0000 0.0000 0.0000 372.6926 0.0000 0.0000
# 5 0.0000 0.0000 0.0000 0.0000-2494.3165 0.0000
# 6 0.0000 0.0000 0.0000 0.0000 0.0000 6.8019
#
#
#
# Elastic Compliance Matrix: (Units=1/GPa)
#
#
# Indices 1 2 3 4 5 6 
#
# 1 0.004982 -0.002788 -0.000823 0.000000 0.000000 0.000000
# 2 -0.002788 0.010706 -0.002698 0.000000 0.000000 0.000000
# 3 -0.000823 -0.002698 0.013913 0.000000 0.000000 0.000000
# 4 0.000000 0.000000 0.000000 0.002683 0.000000 0.000000
# 5 0.000000 0.000000 0.000000 0.000000 -0.000401 0.000000
# 6 0.000000 0.000000 0.000000 0.000000 0.000000 0.147018
#
#
# Mechanical properties :
#
#
# Convention : Reuss Voigt Hill
#
# Bulk Modulus (GPa) = 58.88189 77.27842 68.08016
# Shear Modulus (GPa) = 25.35772 -401.88098 -188.26163
#
# Velocity S-wave (km/s) = 3.30138 -13.14285 -8.99543
# Velocity P-wave (km/s) = 6.31193 14.03913 8.86726
#
# Compressibility (1/GPa) = 0.01698315
#
# Stress axis : x y z
#
# Youngs Moduli (GPa) = 200.73952 93.40691 71.87531
#
# Poissons Ratio (x) = 0.26038 0.05914
# Poissons Ratio (y) = 0.55958 0.19393
# Poissons Ratio (z) = 0.16517 0.25203
#
# Static dielectric constant tensor:
#      x y z
#    x 1.825780 0.000000 0.000000 
#    y 0.000000 1.844280 0.000000 
#    z 0.000000 0.000000 1.985510 
# 
# From -- ./inp_files/1322.got.cif
#   From: 2010.05.17/outbox.cif.g08.bks.cpg/sg57_1_cif.got.tgz:1322.got - 2010.06.03 13:58:18.
