data_PCOD9438164
_publ_section_title
;
Structure prediction by ZEFSAII (Michael W. Deem and Ramdas Pophale) SiO2 
 PCOD9438164
Probable space group: P B C M
;
_chemical_formula_sum "Si O2"
_cell_formula_units_Z 48
_cell_length_a 9.928988
_cell_length_b 31.357530
_cell_length_c 8.605006
_cell_angle_alpha 90.000000
_cell_angle_beta 90.000000
_cell_angle_gamma 90.000000
_cell_volume 2679.156047
_symmetry_space_group_name_H-M "P B C M"
_symmetry_group_IT_number 57
_symmetry_cell_setting 'orthorhombic'
loop_
_space_group_symop_operation_xyz
x,y,z
-x,-y,1/2+z
x,1/2-y,-z
-x,1/2+y,1/2-z
-x,-y,-z
x,y,1/2-z
-x,1/2+y,z
x,1/2-y,1/2+z
loop_
_atom_site_type_symbol
_atom_site_label
_atom_site_fract_x
_atom_site_fract_y
_atom_site_fract_z
Si Si1 0.701841 0.067739 0.562928
Si Si2 0.510932 0.869694 0.934516
Si Si3 0.086316 0.859120 0.438252
Si Si4 0.144107 0.015932 0.437230
Si Si5 0.199692 0.389924 0.063108
Si Si6 0.315503 0.797254 0.436449
O O1 0.686836 0.070272 0.750000
O O2 0.569850 0.087791 0.486645
O O3 0.825734 0.099197 0.518873
O O4 0.745246 0.020052 0.521266
O O5 0.508438 0.866526 0.750000
O O6 0.662450 0.871989 0.995293
O O7 0.429836 0.829921 0.006478
O O8 0.083115 0.858459 0.250000
O O9 0.173427 0.818432 0.488935
O O10 0.933459 0.864303 0.491179
O O11 0.138159 0.018616 0.250000
O O12 0.179563 0.061471 0.508377
O O13 0.000000 0.000000 0.500000
O O14 0.205116 0.388844 0.250000
O O15 0.333003 0.750000 0.500000
O O16 0.317439 0.796565 0.250000
#
# Coordination Sequence:
#
# PCOD9438164 Si02
#       6
#     8   8   8   8   8   8
#     4   9  18  36  56  77 108 151 194 235 279 332
#     4  11  23  38  56  84 115 150 191 235 286 342
#     4   8  16  33  57  81 108 142 182 225 275 329
#     4  11  21  34  54  82 114 150 196 243 286 335
#     4  11  21  37  57  81 114 155 192 235 287 335
#     4  10  20  39  64  89 113 142 180 226 277 341
#
# _framework density 17.916088999999999
#
# number of rings (size 3 to 8) (size 9 to 14) (size 15 to 20)
#    0.000    2.000    1.667    4.000    0.000    2.000 
#    0.000    3.333    0.000    2.000    0.000    0.000 
#    0.000    0.000    0.000    0.000    0.000    0.000 
#
# Total GULP energy -267950.136162 kJ/mol
# GULP energy per Si atom -5582.294503 kJ/mol
# Density = 1.787531 g / cm^3
# Si number density = 17.916089 Si / 1000 Ang^3
#
#
#
# Elastic Constant Matrix: (Units=GPa)
#
#
# Indices 1 2 3 4 5 6 
#
# 1 152.0984 58.9266 36.5620 0.0000 0.0000 0.0000
# 2 58.9266 108.2635 33.7876 0.0000 0.0000 0.0000
# 3 36.5620 33.7876 66.7487 0.0000 0.0000 0.0000
# 4 0.0000 0.0000 0.0000 26.5366 0.0000 0.0000
# 5 0.0000 0.0000 0.0000 0.0000 22.3152 0.0000
# 6 0.0000 0.0000 0.0000 0.0000 0.0000 16.8022
#
#
#
# Elastic Compliance Matrix: (Units=1/GPa)
#
#
# Indices 1 2 3 4 5 6 
#
# 1 0.008760 -0.003884 -0.002832 0.000000 0.000000 0.000000
# 2 -0.003884 0.012692 -0.004297 0.000000 0.000000 0.000000
# 3 -0.002832 -0.004297 0.018708 0.000000 0.000000 0.000000
# 4 0.000000 0.000000 0.000000 0.037684 0.000000 0.000000
# 5 0.000000 0.000000 0.000000 0.000000 0.044812 0.000000
# 6 0.000000 0.000000 0.000000 0.000000 0.000000 0.059516
#
#
# Mechanical properties :
#
#
# Convention : Reuss Voigt Hill
#
# Bulk Modulus (GPa) = 55.14719 65.07366 60.11042
# Shear Modulus (GPa) = 23.78189 26.31977 25.05083
#
# Velocity S-wave (km/s) = 3.64731 3.83699 3.74335
# Velocity P-wave (km/s) = 6.97028 7.48533 7.23239
#
# Compressibility (1/GPa) = 0.01813329
#
# Stress axis : x y z
#
# Youngs Moduli (GPa) = 114.15003 78.79058 53.45285
#
# Poissons Ratio (x) = 0.30604 0.15140
# Poissons Ratio (y) = 0.44339 0.22968
# Poissons Ratio (z) = 0.32332 0.33856
#
# Static dielectric constant tensor:
#      x y z
#    x 1.611930 0.000000 0.000000 
#    y 0.000000 1.592590 0.000000 
#    z 0.000000 0.000000 1.603300 
# 
# From -- ./inp_files/2013.got.cif
#   From: 2010.05.17/outbox.cif.g08.bks.cpg/sg57_2_cif.got.tgz:2013.got - 2010.06.03 13:58:18.
