data_PCOD9438187
_publ_section_title
;
Structure prediction by ZEFSAII (Michael W. Deem and Ramdas Pophale) SiO2 
 PCOD9438187
Probable space group: P B C M
;
_chemical_formula_sum "Si O2"
_cell_formula_units_Z 64
_cell_length_a 11.433327
_cell_length_b 14.610396
_cell_length_c 17.351728
_cell_angle_alpha 90.000000
_cell_angle_beta 90.000000
_cell_angle_gamma 90.000000
_cell_volume 2898.526953
_symmetry_space_group_name_H-M "P B C M"
_symmetry_group_IT_number 57
_symmetry_cell_setting 'orthorhombic'
loop_
_space_group_symop_operation_xyz
x,y,z
-x,-y,1/2+z
x,1/2-y,-z
-x,1/2+y,1/2-z
-x,-y,-z
x,y,1/2-z
-x,1/2+y,z
x,1/2-y,1/2+z
loop_
_atom_site_type_symbol
_atom_site_label
_atom_site_fract_x
_atom_site_fract_y
_atom_site_fract_z
Si Si1 0.356942 0.041673 0.161277
Si Si2 0.019511 0.941293 0.424569
Si Si3 0.409082 0.549728 0.087823
Si Si4 0.716962 0.378806 0.067023
Si Si5 0.611285 0.651232 0.660617
Si Si6 0.375091 0.769380 0.837292
Si Si7 0.092902 0.389870 0.836804
Si Si8 0.839862 0.778724 0.416062
O O1 0.397627 0.053268 0.250000
O O2 0.452004 0.070011 0.097732
O O3 0.231712 0.089278 0.153721
O O4 0.331535 0.936218 0.140830
O O5 0.145553 0.895391 0.435565
O O6 0.916213 0.869946 0.416403
O O7 0.028283 0.016577 0.357280
O O8 0.000000 0.000000 0.500000
O O9 0.395170 0.442496 0.109797
O O10 0.363022 0.621913 0.150864
O O11 0.350320 0.580205 0.007378
O O12 0.693623 0.275719 0.091744
O O13 0.611293 0.622693 0.750000
O O14 0.504839 0.724034 0.652271
O O15 0.730412 0.703306 0.639193
O O16 0.337520 0.746970 0.750000
O O17 0.068919 0.362792 0.750000
O O18 0.074401 0.303472 0.890850
O O19 0.794517 0.750000 0.500000
#
# Coordination Sequence:
#
# PCOD9438187 Si02
#       8
#     8   8   8   8   8   8   8   8
#     4  10  20  39  66  95 136 178 215 267 336 403
#     4  11  24  48  71  96 133 180 229 288 346 394
#     4  12  23  39  67 101 137 181 226 279 332 402
#     4  11  24  41  67  97 132 174 231 276 328 408
#     4  11  25  44  68 100 142 179 223 282 341 407
#     4  11  24  43  65  97 142 183 220 270 345 413
#     4  10  23  43  71 104 134 177 232 280 337 413
#     4  12  25  43  73 100 136 180 230 286 342 401
#
# _framework density 22.080179999999999
#
# number of rings (size 3 to 8) (size 9 to 14) (size 15 to 20)
#    0.000    1.000    2.500    4.125    1.750    5.500 
#    2.250    0.000    0.000    0.000    0.000    0.000 
#    0.000    0.000    0.000    0.000    0.000    0.000 
#
# Total GULP energy -357420.400797 kJ/mol
# GULP energy per Si atom -5584.693762 kJ/mol
# Density = 2.202992 g / cm^3
# Si number density = 22.080180 Si / 1000 Ang^3
#
#
#
# Elastic Constant Matrix: (Units=GPa)
#
#
# Indices 1 2 3 4 5 6 
#
# 1 31.6959 -6.6020 -11.4219 0.0000 0.0000 0.0000
# 2 -6.6020 94.5207 7.1556 0.0000 0.0000 0.0000
# 3 -11.4219 7.1556 60.3264 0.0000 0.0000 0.0000
# 4 0.0000 0.0000 0.0000 31.0403 0.0000 0.0000
# 5 0.0000 0.0000 0.0000 0.0000 22.6042 0.0000
# 6 0.0000 0.0000 0.0000 0.0000 0.0000 12.2675
#
#
#
# Elastic Compliance Matrix: (Units=1/GPa)
#
#
# Indices 1 2 3 4 5 6 
#
# 1 0.034200 0.001916 0.006248 0.000000 0.000000 0.000000
# 2 0.001916 0.010783 -0.000916 0.000000 0.000000 0.000000
# 3 0.006248 -0.000916 0.017868 0.000000 0.000000 0.000000
# 4 0.000000 0.000000 0.000000 0.032216 0.000000 0.000000
# 5 0.000000 0.000000 0.000000 0.000000 0.044240 0.000000
# 6 0.000000 0.000000 0.000000 0.000000 0.000000 0.081516
#
#
# Mechanical properties :
#
#
# Convention : Reuss Voigt Hill
#
# Bulk Modulus (GPa) = 12.92879 18.31183 15.62031
# Shear Modulus (GPa) = 21.54150 26.34317 23.94233
#
# Velocity S-wave (km/s) = 3.12685 3.45783 3.29650
# Velocity P-wave (km/s) = 4.34792 4.92478 4.64531
#
# Compressibility (1/GPa) = 0.07734675
#
# Stress axis : x y z
#
# Youngs Moduli (GPa) = 29.23936 92.73970 55.96546
#
# Poissons Ratio (x) = -0.17767 -0.34968
# Poissons Ratio (y) = -0.05602 0.05128
# Poissons Ratio (z) = -0.18269 0.08498
#
# Static dielectric constant tensor:
#      x y z
#    x 1.762980 0.000000 0.000000 
#    y 0.000000 1.861810 0.000000 
#    z 0.000000 0.000000 1.893590 
# 
# From -- ./inp_files/22008.got.cif
#   From: 2010.05.17/outbox.cif.g08.bks.cpg/sg57_12_cif.got.tgz:22008.got - 2010.06.03 13:58:18.
