data_PCOD9438392
_publ_section_title
;
Structure prediction by ZEFSAII (Michael W. Deem and Ramdas Pophale) SiO2 
 PCOD9438392
Probable space group: P B C M
;
_chemical_formula_sum "Si O2"
_cell_formula_units_Z 32
_cell_length_a 8.893247
_cell_length_b 29.354381
_cell_length_c 5.363433
_cell_angle_alpha 90.000000
_cell_angle_beta 90.000000
_cell_angle_gamma 90.000000
_cell_volume 1400.155082
_symmetry_space_group_name_H-M "P B C M"
_symmetry_group_IT_number 57
_symmetry_cell_setting 'orthorhombic'
loop_
_space_group_symop_operation_xyz
x,y,z
-x,-y,1/2+z
x,1/2-y,-z
-x,1/2+y,1/2-z
-x,-y,-z
x,y,1/2-z
-x,1/2+y,z
x,1/2-y,1/2+z
loop_
_atom_site_type_symbol
_atom_site_label
_atom_site_fract_x
_atom_site_fract_y
_atom_site_fract_z
Si Si1 0.143934 0.454414 0.750000
Si Si2 0.321131 0.481356 0.250000
Si Si3 0.042286 0.723588 0.750000
Si Si4 0.806508 0.125481 0.750000
Si Si5 0.715161 0.863396 0.750000
Si Si6 0.175435 0.932872 0.750000
Si Si7 0.535808 0.889371 0.250000
Si Si8 0.289188 0.259677 0.750000
O O1 0.231428 0.470010 0.504113
O O2 0.150864 0.399420 0.750000
O O3 0.969418 0.466119 0.750000
O O4 0.327001 0.536215 0.250000
O O5 0.458184 0.445157 0.250000
O O6 0.091865 0.750000 0.500000
O O7 0.099880 0.672051 0.750000
O O8 0.859249 0.727826 0.750000
O O9 0.835109 0.096330 0.500729
O O10 0.627594 0.132337 0.750000
O O11 0.620898 0.873295 0.499649
O O12 0.764644 0.811477 0.750000
O O13 0.378006 0.250000 0.500000
#
# Coordination Sequence:
#
# PCOD9438392 Si02
#       8
#     4   4   4   4   4   4   4   4
#     4  10  21  36  63  91 128 160 208 269 318 374
#     4  10  21  41  61  92 131 173 209 263 319 351
#     4  10  23  42  62  88 126 159 195 267 319 373
#     4  12  26  41  63  95 127 172 214 251 315 372
#     4  10  21  39  63  88 115 164 199 255 316 365
#     4  12  24  37  65  96 129 168 217 262 306 389
#     4  10  23  43  62  87 132 169 210 250 299 383
#     4  10  21  35  61  91 120 141 198 261 312 375
#
# _framework density 22.854614000000002
#
# number of rings (size 3 to 8) (size 9 to 14) (size 15 to 20)
#    0.000    1.500    0.000    4.500    7.000    1.000 
#    0.000    3.750    0.000    0.000    0.000    0.000 
#    0.000    0.000    0.000    0.000    0.000    0.000 
#
# Total GULP energy -178877.954271 kJ/mol
# GULP energy per Si atom -5589.936071 kJ/mol
# Density = 2.280260 g / cm^3
# Si number density = 22.854614 Si / 1000 Ang^3
#
#
#
# Elastic Constant Matrix: (Units=GPa)
#
#
# Indices 1 2 3 4 5 6 
#
# 1 54.7274 -10.8058 17.3008 0.0000 0.0000 0.0000
# 2 -10.8058 84.1480 57.6717 0.0000 0.0000 0.0000
# 3 17.3008 57.6717 220.2022 0.0000 0.0000 0.0000
# 4 0.0000 0.0000 0.0000 40.5408 0.0000 0.0000
# 5 0.0000 0.0000 0.0000 0.0000 47.8487 0.0000
# 6 0.0000 0.0000 0.0000 0.0000 0.0000 -14.8615
#
#
#
# Elastic Compliance Matrix: (Units=1/GPa)
#
#
# Indices 1 2 3 4 5 6 
#
# 1 0.020015 0.004446 -0.002737 0.000000 0.000000 0.000000
# 2 0.004446 0.015471 -0.004401 0.000000 0.000000 0.000000
# 3 -0.002737 -0.004401 0.005909 0.000000 0.000000 0.000000
# 4 0.000000 0.000000 0.000000 0.024666 0.000000 0.000000
# 5 0.000000 0.000000 0.000000 0.000000 0.020899 0.000000
# 6 0.000000 0.000000 0.000000 0.000000 0.000000 -0.067288
#
#
# Mechanical properties :
#
#
# Convention : Reuss Voigt Hill
#
# Bulk Modulus (GPa) = 27.76898 54.15678 40.96288
# Shear Modulus (GPa) = 134.91070 34.36634 84.63852
#
# Velocity S-wave (km/s) = 7.69143 3.88196 6.09211
# Velocity P-wave (km/s) = 9.54223 6.62121 8.21263
#
# Compressibility (1/GPa) = 0.03601141
#
# Stress axis : x y z
#
# Youngs Moduli (GPa) = 49.96128 64.63599 169.23230
#
# Poissons Ratio (x) = -0.28738 0.46319
# Poissons Ratio (y) = -0.22213 0.74484
# Poissons Ratio (z) = 0.13675 0.28448
#
# Static dielectric constant tensor:
#      x y z
#    x 1.821600 0.000000 0.000000 
#    y 0.000000 1.873230 0.000000 
#    z 0.000000 0.000000 1.883140 
# 
# From -- ./inp_files/204.got.cif
#   From: 2010.05.17/outbox.cif.g08.bks.cpg/sg57_1_cif.got.tgz:204.got - 2010.06.03 13:58:18.
