data_PCOD9438809
_publ_section_title
;
Structure prediction by ZEFSAII (Michael W. Deem and Ramdas Pophale) SiO2 
 PCOD9438809
Probable space group: P B C M
;
_chemical_formula_sum "Si O2"
_cell_formula_units_Z 40
_cell_length_a 25.643679
_cell_length_b 9.391941
_cell_length_c 8.758237
_cell_angle_alpha 90.000000
_cell_angle_beta 90.000000
_cell_angle_gamma 90.000000
_cell_volume 2109.368133
_symmetry_space_group_name_H-M "P B C M"
_symmetry_group_IT_number 57
_symmetry_cell_setting 'orthorhombic'
loop_
_space_group_symop_operation_xyz
x,y,z
-x,-y,1/2+z
x,1/2-y,-z
-x,1/2+y,1/2-z
-x,-y,-z
x,y,1/2-z
-x,1/2+y,z
x,1/2-y,1/2+z
loop_
_atom_site_type_symbol
_atom_site_label
_atom_site_fract_x
_atom_site_fract_y
_atom_site_fract_z
Si Si1 0.638148 0.093845 0.067251
Si Si2 0.850532 0.593321 0.432570
Si Si3 0.452700 0.407681 0.932731
Si Si4 0.047625 0.591194 0.566672
Si Si5 0.239644 0.594373 0.068097
O O1 0.630151 0.094020 0.250000
O O2 0.699290 0.065296 0.036515
O O3 0.626141 0.250000 0.000000
O O4 0.600669 0.980827 0.988340
O O5 0.858555 0.750000 0.500000
O O6 0.847760 0.602610 0.250000
O O7 0.898876 0.490627 0.473132
O O8 0.798108 0.522255 0.496462
O O9 0.455436 0.404917 0.750000
O O10 0.456214 0.250000 0.000000
O O11 0.500000 0.500000 0.000000
O O12 0.047373 0.750000 0.500000
O O13 0.043399 0.597830 0.750000
O O14 0.000000 0.500000 0.500000
O O15 0.232578 0.598632 0.250000
O O16 0.227241 0.750000 0.000000
#
# Coordination Sequence:
#
# PCOD9438809 Si02
#       5
#     8   8   8   8   8
#     4  10  21  39  62  90 121 156 197 242 293 350
#     4  11  24  40  60  87 120 157 199 245 295 349
#     4  12  25  42  63  88 119 156 197 243 294 350
#     4  11  24  41  63  90 120 156 196 243 295 352
#     4  10  21  38  62  89 120 157 198 243 293 349
#
# _framework density 18.963025999999999
#
# number of rings (size 3 to 8) (size 9 to 14) (size 15 to 20)
#    0.000    1.200    0.000    6.000    0.000    9.600 
#    0.000    0.000    0.000    0.000    0.000    0.000 
#    0.000    0.000    0.000    0.000    0.000    0.000 
#
# Total GULP energy -223821.599276 kJ/mol
# GULP energy per Si atom -5595.539982 kJ/mol
# Density = 1.891986 g / cm^3
# Si number density = 18.963026 Si / 1000 Ang^3
#
#
#
# Elastic Constant Matrix: (Units=GPa)
#
#
# Indices 1 2 3 4 5 6 
#
# 1 100.0460 102.2527 71.5473 0.0000 0.0000 0.0000
# 2 102.2527 199.4058 85.0405 0.0000 0.0000 0.0000
# 3 71.5473 85.0405 112.8087 0.0000 0.0000 0.0000
# 4 0.0000 0.0000 0.0000 42.3657 0.0000 0.0000
# 5 0.0000 0.0000 0.0000 0.0000 31.3739 0.0000
# 6 0.0000 0.0000 0.0000 0.0000 0.0000 34.3553
#
#
#
# Elastic Compliance Matrix: (Units=1/GPa)
#
#
# Indices 1 2 3 4 5 6 
#
# 1 0.026728 -0.009545 -0.009757 0.000000 0.000000 0.000000
# 2 -0.009545 0.010800 -0.002088 0.000000 0.000000 0.000000
# 3 -0.009757 -0.002088 0.016626 0.000000 0.000000 0.000000
# 4 0.000000 0.000000 0.000000 0.023604 0.000000 0.000000
# 5 0.000000 0.000000 0.000000 0.000000 0.031874 0.000000
# 6 0.000000 0.000000 0.000000 0.000000 0.000000 0.029108
#
#
# Mechanical properties :
#
#
# Convention : Reuss Voigt Hill
#
# Bulk Modulus (GPa) = 87.90446 103.32683 95.61565
# Shear Modulus (GPa) = 26.98183 31.84698 29.41440
#
# Velocity S-wave (km/s) = 3.77618 4.10252 3.94273
# Velocity P-wave (km/s) = 8.09130 8.77769 8.44147
#
# Compressibility (1/GPa) = 0.01137599
#
# Stress axis : x y z
#
# Youngs Moduli (GPa) = 37.41342 92.59457 60.14606
#
# Poissons Ratio (x) = 0.88382 0.58682
# Poissons Ratio (y) = 0.35711 0.12556
# Poissons Ratio (z) = 0.36503 0.19329
#
# Static dielectric constant tensor:
#      x y z
#    x 1.647360 0.000000 0.000000 
#    y 0.000000 1.625410 0.000000 
#    z 0.000000 0.000000 1.630720 
# 
# From -- ./inp_files/8859.got.cif
#   From: 2010.05.17/outbox.cif.g08.bks.cpg/sg57_5_cif.got.tgz:8859.got - 2010.06.03 13:58:18.
