data_PCOD9438859
_publ_section_title
;
Structure prediction by ZEFSAII (Michael W. Deem and Ramdas Pophale) SiO2 
 PCOD9438859
Probable space group: P B C M
;
_chemical_formula_sum "Si O2"
_cell_formula_units_Z 48
_cell_length_a 5.075933
_cell_length_b 26.830186
_cell_length_c 17.124450
_cell_angle_alpha 90.000000
_cell_angle_beta 90.000000
_cell_angle_gamma 90.000000
_cell_volume 2332.148476
_symmetry_space_group_name_H-M "P B C M"
_symmetry_group_IT_number 57
_symmetry_cell_setting 'orthorhombic'
loop_
_space_group_symop_operation_xyz
x,y,z
-x,-y,1/2+z
x,1/2-y,-z
-x,1/2+y,1/2-z
-x,-y,-z
x,y,1/2-z
-x,1/2+y,z
x,1/2-y,1/2+z
loop_
_atom_site_type_symbol
_atom_site_label
_atom_site_fract_x
_atom_site_fract_y
_atom_site_fract_z
Si Si1 0.655236 0.702245 0.559742
Si Si2 0.249927 0.530595 0.030998
Si Si3 0.067297 0.380121 0.963265
Si Si4 0.173300 0.786214 0.338808
Si Si5 0.444876 0.076214 0.338462
Si Si6 0.210065 0.826844 0.667729
O O1 0.631779 0.750000 0.500000
O O2 0.748124 0.650492 0.520266
O O3 0.379490 0.690279 0.601598
O O4 0.884283 0.714965 0.622786
O O5 0.332344 0.541221 0.121712
O O6 0.170079 0.586511 0.002645
O O7 0.500000 0.500000 0.000000
O O8 0.000000 0.500000 0.000000
O O9 0.217520 0.417255 0.902956
O O10 0.954648 0.337208 0.908254
O O11 0.164834 0.806032 0.250000
O O12 0.288671 0.730049 0.333422
O O13 0.372749 0.061165 0.250000
O O14 0.563664 0.132025 0.333842
O O15 0.060399 0.835339 0.750000
#
# Coordination Sequence:
#
# PCOD9438859 Si02
#       6
#     8   8   8   8   8   8
#     4  12  24  38  64  95 130 167 227 267 320 384
#     4  11  23  43  66  94 127 165 210 258 328 398
#     4  11  22  37  66  95 132 166 213 268 328 386
#     4  11  24  41  59  85 131 182 222 266 317 376
#     4  10  21  38  66 100 130 159 201 265 343 399
#     4   9  19  34  55  90 130 167 205 257 324 381
#
# _framework density 20.581880000000002
#
# number of rings (size 3 to 8) (size 9 to 14) (size 15 to 20)
#    0.000    1.333    3.333    2.500    4.667    0.667 
#    0.000    0.000    0.000    6.000    0.000    0.000 
#    0.000    0.000    0.000    0.000    0.000    0.000 
#
# Total GULP energy -267346.237212 kJ/mol
# GULP energy per Si atom -5569.713275 kJ/mol
# Density = 2.053503 g / cm^3
# Si number density = 20.581880 Si / 1000 Ang^3
#
#
#
# Elastic Constant Matrix: (Units=GPa)
#
#
# Indices 1 2 3 4 5 6 
#
# 1 78.0128 5.6091 19.3944 0.0000 0.0000 0.0000
# 2 5.6091 60.9057 27.7295 0.0000 0.0000 0.0000
# 3 19.3944 27.7295 72.9590 0.0000 0.0000 0.0000
# 4 0.0000 0.0000 0.0000 22.2478 0.0000 0.0000
# 5 0.0000 0.0000 0.0000 0.0000 24.1660 0.0000
# 6 0.0000 0.0000 0.0000 0.0000 0.0000 31.3584
#
#
#
# Elastic Compliance Matrix: (Units=1/GPa)
#
#
# Indices 1 2 3 4 5 6 
#
# 1 0.013737 0.000481 -0.003834 0.000000 0.000000 0.000000
# 2 0.000481 0.019871 -0.007680 0.000000 0.000000 0.000000
# 3 -0.003834 -0.007680 0.017645 0.000000 0.000000 0.000000
# 4 0.000000 0.000000 0.000000 0.044948 0.000000 0.000000
# 5 0.000000 0.000000 0.000000 0.000000 0.041380 0.000000
# 6 0.000000 0.000000 0.000000 0.000000 0.000000 0.031889
#
#
# Mechanical properties :
#
#
# Convention : Reuss Voigt Hill
#
# Bulk Modulus (GPa) = 34.26410 35.26039 34.76224
# Shear Modulus (GPa) = 24.84256 26.16405 25.50331
#
# Velocity S-wave (km/s) = 3.47798 3.56928 3.52392
# Velocity P-wave (km/s) = 5.72820 5.84426 5.78652
#
# Compressibility (1/GPa) = 0.02918507
#
# Stress axis : x y z
#
# Youngs Moduli (GPa) = 72.79557 50.32393 56.67455
#
# Poissons Ratio (x) = -0.02419 0.21731
# Poissons Ratio (y) = -0.03499 0.43527
# Poissons Ratio (z) = 0.27912 0.38650
#
# Static dielectric constant tensor:
#      x y z
#    x 1.850290 0.000000 0.000000 
#    y 0.000000 1.770440 0.000000 
#    z 0.000000 0.000000 1.683260 
# 
# From -- ./inp_files/15106.got.cif
#   From: 2010.05.17/outbox.cif.g08.bks.cpg/sg57_8_cif.got.tgz:15106.got - 2010.06.03 13:58:18.
