data_PCOD9438233
_publ_section_title
;
Structure prediction by ZEFSAII (Michael W. Deem and Ramdas Pophale) SiO2 
 PCOD9438233
Probable space group: P B C M
;
_chemical_formula_sum "Si O2"
_cell_formula_units_Z 64
_cell_length_a 14.962789
_cell_length_b 13.503431
_cell_length_c 16.302001
_cell_angle_alpha 90.000000
_cell_angle_beta 90.000000
_cell_angle_gamma 90.000000
_cell_volume 3293.802818
_symmetry_space_group_name_H-M "P B C M"
_symmetry_group_IT_number 57
_symmetry_cell_setting 'orthorhombic'
loop_
_space_group_symop_operation_xyz
x,y,z
-x,-y,1/2+z
x,1/2-y,-z
-x,1/2+y,1/2-z
-x,-y,-z
x,y,1/2-z
-x,1/2+y,z
x,1/2-y,1/2+z
loop_
_atom_site_type_symbol
_atom_site_label
_atom_site_fract_x
_atom_site_fract_y
_atom_site_fract_z
Si Si1 0.916952 0.634864 0.653148
Si Si2 0.605192 0.002950 0.584709
Si Si3 0.353612 0.301976 0.843770
Si Si4 0.148357 0.161042 0.151071
Si Si5 0.072499 0.533216 0.567101
Si Si6 0.422956 0.109216 0.911995
Si Si7 0.251230 0.001187 0.846136
Si Si8 0.245093 0.866331 0.999895
O O1 0.902438 0.642226 0.750000
O O2 0.912634 0.747329 0.622365
O O3 0.833030 0.568264 0.624213
O O4 0.010905 0.585463 0.634608
O O5 0.520781 0.069217 0.610086
O O6 0.686558 0.074209 0.559086
O O7 0.621596 0.917349 0.650412
O O8 0.589328 0.935566 0.503098
O O9 0.363093 0.267799 0.750000
O O10 0.248933 0.302287 0.866427
O O11 0.409431 0.226419 0.899945
O O12 0.141264 0.145385 0.250000
O O13 0.122552 0.061937 0.104147
O O14 0.145869 0.606535 0.530064
O O15 0.000000 0.500000 0.500000
O O16 0.342699 0.061696 0.858942
O O17 0.239471 0.976647 0.750000
O O18 0.255961 0.909262 0.907966
O O19 0.262198 0.750000 0.000000
#
# Coordination Sequence:
#
# PCOD9438233 Si02
#       8
#     8   8   8   8   8   8   8   8
#     4  10  21  38  63  92 123 164 210 263 325 379
#     4  10  23  42  61  91 127 168 205 260 323 380
#     4  11  21  38  65  96 128 164 208 262 321 381
#     4  10  22  41  64  93 129 166 211 266 323 381
#     4  12  24  39  61  93 127 167 211 267 314 381
#     4  10  21  38  67  92 122 162 211 262 313 377
#     4  10  20  40  65  93 123 158 209 265 314 370
#     4  11  25  44  61  88 130 169 212 256 312 389
#
# _framework density 19.430427999999999
#
# number of rings (size 3 to 8) (size 9 to 14) (size 15 to 20)
#    0.000    1.500    3.750    1.125    1.750    4.000 
#    2.250    1.875    0.000    0.000    0.000    0.000 
#    0.000    0.000    0.000    0.000    0.000    0.000 
#
# Total GULP energy -357202.574922 kJ/mol
# GULP energy per Si atom -5581.290233 kJ/mol
# Density = 1.938620 g / cm^3
# Si number density = 19.430428 Si / 1000 Ang^3
#
#
#
# Elastic Constant Matrix: (Units=GPa)
#
#
# Indices 1 2 3 4 5 6 
#
# 1 97.9483 43.2998 18.8246 0.0000 0.0000 0.0000
# 2 43.2998 141.9025 33.1364 0.0000 0.0000 0.0000
# 3 18.8246 33.1364 44.1246 0.0000 0.0000 0.0000
# 4 0.0000 0.0000 0.0000 26.6527 0.0000 0.0000
# 5 0.0000 0.0000 0.0000 0.0000 18.1937 0.0000
# 6 0.0000 0.0000 0.0000 0.0000 0.0000 32.1172
#
#
#
# Elastic Compliance Matrix: (Units=1/GPa)
#
#
# Indices 1 2 3 4 5 6 
#
# 1 0.012099 -0.003015 -0.002897 0.000000 0.000000 0.000000
# 2 -0.003015 0.009297 -0.005695 0.000000 0.000000 0.000000
# 3 -0.002897 -0.005695 0.028176 0.000000 0.000000 0.000000
# 4 0.000000 0.000000 0.000000 0.037520 0.000000 0.000000
# 5 0.000000 0.000000 0.000000 0.000000 0.054964 0.000000
# 6 0.000000 0.000000 0.000000 0.000000 0.000000 0.031136
#
#
# Mechanical properties :
#
#
# Convention : Reuss Voigt Hill
#
# Bulk Modulus (GPa) = 37.94156 52.72189 45.33172
# Shear Modulus (GPa) = 24.36713 27.97370 26.17042
#
# Velocity S-wave (km/s) = 3.54513 3.79843 3.67397
# Velocity P-wave (km/s) = 6.02715 6.81396 6.43260
#
# Compressibility (1/GPa) = 0.02635633
#
# Stress axis : x y z
#
# Youngs Moduli (GPa) = 82.64933 107.55947 35.49076
#
# Poissons Ratio (x) = 0.32433 0.10283
# Poissons Ratio (y) = 0.24922 0.20214
# Poissons Ratio (z) = 0.23947 0.61260
#
# Static dielectric constant tensor:
#      x y z
#    x 1.671090 0.000000 0.000000 
#    y 0.000000 1.697100 0.000000 
#    z 0.000000 0.000000 1.708310 
# 
# From -- ./inp_files/22668.got.cif
#   From: 2010.05.17/outbox.cif.g08.bks.cpg/sg57_12_cif.got.tgz:22668.got - 2010.06.03 13:58:18.
