data_PCOD9438861
_publ_section_title
;
Structure prediction by ZEFSAII (Michael W. Deem and Ramdas Pophale) SiO2 
 PCOD9438861
Probable space group: P B C M
;
_chemical_formula_sum "Si O2"
_cell_formula_units_Z 56
_cell_length_a 15.583278
_cell_length_b 10.452776
_cell_length_c 14.876263
_cell_angle_alpha 90.000000
_cell_angle_beta 90.000000
_cell_angle_gamma 90.000000
_cell_volume 2423.172378
_symmetry_space_group_name_H-M "P B C M"
_symmetry_group_IT_number 57
_symmetry_cell_setting 'orthorhombic'
loop_
_space_group_symop_operation_xyz
x,y,z
-x,-y,1/2+z
x,1/2-y,-z
-x,1/2+y,1/2-z
-x,-y,-z
x,y,1/2-z
-x,1/2+y,z
x,1/2-y,1/2+z
loop_
_atom_site_type_symbol
_atom_site_label
_atom_site_fract_x
_atom_site_fract_y
_atom_site_fract_z
Si Si1 0.737515 0.233198 0.891126
Si Si2 0.913890 0.346104 0.594741
Si Si3 0.177762 0.277634 0.651623
Si Si4 0.207699 0.002882 0.032180
Si Si5 0.019483 0.390976 0.148729
Si Si6 0.344318 0.156695 0.581568
Si Si7 0.405830 0.719634 0.250000
Si Si8 0.543378 0.937642 0.250000
O O1 0.824757 0.301603 0.857472
O O2 0.656969 0.280464 0.835919
O O3 0.752632 0.080817 0.887019
O O4 0.726239 0.250000 0.000000
O O5 0.865387 0.416900 0.512655
O O6 0.975416 0.458361 0.630537
O O7 0.969993 0.217084 0.592528
O O8 0.161598 0.333252 0.750000
O O9 0.161372 0.374223 0.571731
O O10 0.118767 0.153230 0.644527
O O11 0.276121 0.239615 0.638107
O O12 0.284404 0.049161 0.966931
O O13 0.987568 0.371787 0.250000
O O14 0.377696 0.250000 0.500000
O O15 0.407769 0.100095 0.656418
O O16 0.459445 0.849913 0.250000
O O17 0.463458 0.591696 0.250000
#
# Coordination Sequence:
#
# PCOD9438861 Si02
#       8
#     8   8   8   8   8   8   4   4
#     4  10  25  49  73 107 142 202 247 299 377 446
#     4  11  24  45  68  97 147 193 251 306 364 434
#     4  10  21  38  66 103 142 191 248 307 357 439
#     4  10  22  44  68 104 141 204 245 297 378 431
#     4  11  25  40  63 101 143 186 256 309 363 415
#     4  10  21  43  77 108 152 195 246 307 366 457
#     4  12  30  48  86 105 159 189 243 312 370 468
#     4  12  26  48  76 123 141 197 241 300 396 438
#
# _framework density 23.110199999999999
#
# number of rings (size 3 to 8) (size 9 to 14) (size 15 to 20)
#    0.000    1.429    2.143    2.143    5.000    3.429 
#    6.429    2.143    0.000    0.000    0.000    0.000 
#    0.000    0.000    0.000    0.000    0.000    0.000 
#
# Total GULP energy -312395.876561 kJ/mol
# GULP energy per Si atom -5578.497796 kJ/mol
# Density = 2.305760 g / cm^3
# Si number density = 23.110200 Si / 1000 Ang^3
#
#
#
# Elastic Constant Matrix: (Units=GPa)
#
#
# Indices 1 2 3 4 5 6 
#
# 1 67.5197 36.6804 17.1534 0.0000 0.0000 0.0000
# 2 36.6804 129.3534 41.2888 0.0000 0.0000 0.0000
# 3 17.1534 41.2888 89.4875 0.0000 0.0000 0.0000
# 4 0.0000 0.0000 0.0000 28.1173 0.0000 0.0000
# 5 0.0000 0.0000 0.0000 0.0000 32.1864 0.0000
# 6 0.0000 0.0000 0.0000 0.0000 0.0000 35.5993
#
#
#
# Elastic Compliance Matrix: (Units=1/GPa)
#
#
# Indices 1 2 3 4 5 6 
#
# 1 0.017627 -0.004597 -0.001258 0.000000 0.000000 0.000000
# 2 -0.004597 0.010265 -0.003855 0.000000 0.000000 0.000000
# 3 -0.001258 -0.003855 0.013194 0.000000 0.000000 0.000000
# 4 0.000000 0.000000 0.000000 0.035565 0.000000 0.000000
# 5 0.000000 0.000000 0.000000 0.000000 0.031069 0.000000
# 6 0.000000 0.000000 0.000000 0.000000 0.000000 0.028090
#
#
# Mechanical properties :
#
#
# Convention : Reuss Voigt Hill
#
# Bulk Modulus (GPa) = 46.15306 52.95620 49.55463
# Shear Modulus (GPa) = 30.77804 31.92980 31.35392
#
# Velocity S-wave (km/s) = 3.65334 3.72106 3.68736
# Velocity P-wave (km/s) = 6.14899 6.43631 6.29429
#
# Compressibility (1/GPa) = 0.02166704
#
# Stress axis : x y z
#
# Youngs Moduli (GPa) = 56.72978 97.42032 75.78930
#
# Poissons Ratio (x) = 0.44785 0.09533
# Poissons Ratio (y) = 0.26079 0.29216
# Poissons Ratio (z) = 0.07136 0.37555
#
# Static dielectric constant tensor:
#      x y z
#    x 1.849990 0.000000 0.000000 
#    y 0.000000 1.977080 0.000000 
#    z 0.000000 0.000000 1.955100 
# 
# From -- ./inp_files/18580.got.cif
#   From: 2010.05.17/outbox.cif.g08.bks.cpg/sg57_10_cif.got.tgz:18580.got - 2010.06.03 13:58:18.
