data_PCOD9438255
_publ_section_title
;
Structure prediction by ZEFSAII (Michael W. Deem and Ramdas Pophale) SiO2 
 PCOD9438255
Probable space group: P B C M
;
_chemical_formula_sum "Si O2"
_cell_formula_units_Z 64
_cell_length_a 17.347375
_cell_length_b 9.284547
_cell_length_c 19.977305
_cell_angle_alpha 90.000000
_cell_angle_beta 90.000000
_cell_angle_gamma 90.000000
_cell_volume 3217.595056
_symmetry_space_group_name_H-M "P B C M"
_symmetry_group_IT_number 57
_symmetry_cell_setting 'orthorhombic'
loop_
_space_group_symop_operation_xyz
x,y,z
-x,-y,1/2+z
x,1/2-y,-z
-x,1/2+y,1/2-z
-x,-y,-z
x,y,1/2-z
-x,1/2+y,z
x,1/2-y,1/2+z
loop_
_atom_site_type_symbol
_atom_site_label
_atom_site_fract_x
_atom_site_fract_y
_atom_site_fract_z
Si Si1 0.143697 0.839790 0.569218
Si Si2 0.411075 0.246926 0.669985
Si Si3 0.283519 0.465694 0.673512
Si Si4 0.919345 0.582026 0.498231
Si Si5 0.564753 0.417884 0.831731
Si Si6 0.974427 0.284530 0.324145
Si Si7 0.893749 0.578775 0.150925
Si Si8 0.686736 0.239303 0.581416
O O1 0.133047 0.750000 0.500000
O O2 0.079390 0.787394 0.620476
O O3 0.229228 0.808721 0.592866
O O4 0.131562 0.007889 0.554419
O O5 0.413731 0.235069 0.750000
O O6 0.329500 0.320618 0.654280
O O7 0.479982 0.355941 0.652131
O O8 0.425806 0.084391 0.646678
O O9 0.309060 0.508894 0.750000
O O10 0.191729 0.440244 0.678540
O O11 0.304635 0.582749 0.616749
O O12 0.932957 0.750000 0.500000
O O13 0.881202 0.554365 0.427361
O O14 0.000000 0.500000 0.500000
O O15 0.576203 0.405477 0.750000
O O16 0.624243 0.324064 0.874762
O O17 0.951962 0.235973 0.250000
O O18 0.954211 0.453891 0.327712
O O19 0.061471 0.228522 0.336004
O O20 0.672862 0.250000 0.500000
#
# Coordination Sequence:
#
# PCOD9438255 Si02
#       8
#     8   8   8   8   8   8   8   8
#     4  11  22  42  63  88 119 160 218 264 310 382
#     4   9  20  39  68 101 130 166 216 259 307 387
#     4  11  22  42  67  91 126 172 215 262 323 384
#     4  12  23  39  63  86 112 163 215 263 314 381
#     4  10  20  40  68  98 130 168 211 258 314 384
#     4  12  24  39  60  88 124 161 206 264 324 378
#     4  12  24  41  61  89 125 166 214 263 324 380
#     4  11  23  40  64  94 129 167 215 269 321 382
#
# _framework density 19.890632
#
# number of rings (size 3 to 8) (size 9 to 14) (size 15 to 20)
#    0.000    1.000    3.750    4.125    0.000    3.500 
#    0.000    3.125    0.000    0.000    0.000    0.000 
#    0.000    0.000    0.000    0.000    0.000    0.000 
#
# Total GULP energy -357138.162089 kJ/mol
# GULP energy per Si atom -5580.283783 kJ/mol
# Density = 1.984536 g / cm^3
# Si number density = 19.890632 Si / 1000 Ang^3
#
#
#
# Elastic Constant Matrix: (Units=GPa)
#
#
# Indices 1 2 3 4 5 6 
#
# 1 89.6076 61.2460 22.9117 0.0000 0.0000 0.0000
# 2 61.2460 131.9509 8.9945 0.0000 0.0000 0.0000
# 3 22.9117 8.9945 78.1032 0.0000 0.0000 0.0000
# 4 0.0000 0.0000 0.0000 25.0587 0.0000 0.0000
# 5 0.0000 0.0000 0.0000 0.0000 29.4168 0.0000
# 6 0.0000 0.0000 0.0000 0.0000 0.0000 28.4940
#
#
#
# Elastic Compliance Matrix: (Units=1/GPa)
#
#
# Indices 1 2 3 4 5 6 
#
# 1 0.017652 -0.007903 -0.004268 0.000000 0.000000 0.000000
# 2 -0.007903 0.011176 0.001031 0.000000 0.000000 0.000000
# 3 -0.004268 0.001031 0.013937 0.000000 0.000000 0.000000
# 4 0.000000 0.000000 0.000000 0.039906 0.000000 0.000000
# 5 0.000000 0.000000 0.000000 0.000000 0.033994 0.000000
# 6 0.000000 0.000000 0.000000 0.000000 0.000000 0.035095
#
#
# Mechanical properties :
#
#
# Convention : Reuss Voigt Hill
#
# Bulk Modulus (GPa) = 48.81318 53.99623 51.40471
# Shear Modulus (GPa) = 27.64424 30.36120 29.00272
#
# Velocity S-wave (km/s) = 3.73206 3.91116 3.82266
# Velocity P-wave (km/s) = 6.57002 6.89940 6.73672
#
# Compressibility (1/GPa) = 0.02048627
#
# Stress axis : x y z
#
# Youngs Moduli (GPa) = 56.64936 89.47488 71.75181
#
# Poissons Ratio (x) = 0.70708 0.30626
# Poissons Ratio (y) = 0.44768 -0.07399
# Poissons Ratio (z) = 0.24180 -0.09226
#
# Static dielectric constant tensor:
#      x y z
#    x 1.688560 0.000000 0.000000 
#    y 0.000000 1.746420 0.000000 
#    z 0.000000 0.000000 1.713600 
# 
# From -- ./inp_files/25610.got.cif
#   From: 2010.05.17/outbox.cif.g08.bks.cpg/sg57_13_cif.got.tgz:25610.got - 2010.06.03 13:58:18.
