data_PCOD9438914
_publ_section_title
;
Structure prediction by ZEFSAII (Michael W. Deem and Ramdas Pophale) SiO2 
 PCOD9438914
Probable space group: P B C M
;
_chemical_formula_sum "Si O2"
_cell_formula_units_Z 48
_cell_length_a 11.904023
_cell_length_b 13.815488
_cell_length_c 13.987864
_cell_angle_alpha 90.000000
_cell_angle_beta 90.000000
_cell_angle_gamma 90.000000
_cell_volume 2300.442532
_symmetry_space_group_name_H-M "P B C M"
_symmetry_group_IT_number 57
_symmetry_cell_setting 'orthorhombic'
loop_
_space_group_symop_operation_xyz
x,y,z
-x,-y,1/2+z
x,1/2-y,-z
-x,1/2+y,1/2-z
-x,-y,-z
x,y,1/2-z
-x,1/2+y,z
x,1/2-y,1/2+z
loop_
_atom_site_type_symbol
_atom_site_label
_atom_site_fract_x
_atom_site_fract_y
_atom_site_fract_z
Si Si1 0.328155 0.087108 0.862705
Si Si2 0.761749 0.287425 0.863786
Si Si3 0.682198 0.805716 0.862949
Si Si4 0.119030 0.613961 0.969530
Si Si5 0.459320 0.898383 0.865844
Si Si6 0.134595 0.104913 0.009728
O O1 0.310477 0.071054 0.750000
O O2 0.367086 0.197787 0.874919
O O3 0.409695 0.001656 0.896460
O O4 0.211827 0.086394 0.918174
O O5 0.775990 0.295198 0.750000
O O6 0.832680 0.365309 0.924391
O O7 0.632534 0.315072 0.887508
O O8 0.808175 0.184637 0.901947
O O9 0.702497 0.819641 0.750000
O O10 0.584603 0.876559 0.899887
O O11 0.796120 0.825116 0.920240
O O12 0.987529 0.638855 0.976752
O O13 0.125131 0.501484 0.942198
O O14 0.467611 0.899812 0.750000
#
# Coordination Sequence:
#
# PCOD9438914 Si02
#       6
#     8   8   8   8   8   8
#     4  10  21  39  61  88 121 163 206 250 310 369
#     4  10  21  41  65  89 120 161 205 253 307 362
#     4  10  23  39  61  93 126 163 208 256 311 371
#     4  10  24  40  61  91 125 164 211 254 299 374
#     4   9  19  40  64  89 123 161 208 259 307 372
#     4  11  23  42  59  88 130 162 204 261 309 361
#
# _framework density 20.865551
#
# number of rings (size 3 to 8) (size 9 to 14) (size 15 to 20)
#    0.000    2.000    1.667    0.500    4.667    4.000 
#    6.000    6.667    0.000    0.000    0.000    0.000 
#    0.000    0.000    0.000    0.000    0.000    0.000 
#
# Total GULP energy -267899.448965 kJ/mol
# GULP energy per Si atom -5581.238520 kJ/mol
# Density = 2.081806 g / cm^3
# Si number density = 20.865551 Si / 1000 Ang^3
#
#
#
# Elastic Constant Matrix: (Units=GPa)
#
#
# Indices 1 2 3 4 5 6 
#
# 1 91.5556 17.6436 22.9444 0.0000 0.0000 0.0000
# 2 17.6436 92.8000 23.0004 0.0000 0.0000 0.0000
# 3 22.9444 23.0004 78.7661 0.0000 0.0000 0.0000
# 4 0.0000 0.0000 0.0000 26.0147 0.0000 0.0000
# 5 0.0000 0.0000 0.0000 0.0000 24.1534 0.0000
# 6 0.0000 0.0000 0.0000 0.0000 0.0000 25.4441
#
#
#
# Elastic Compliance Matrix: (Units=1/GPa)
#
#
# Indices 1 2 3 4 5 6 
#
# 1 0.011979 -0.001523 -0.003045 0.000000 0.000000 0.000000
# 2 -0.001523 0.011810 -0.003005 0.000000 0.000000 0.000000
# 3 -0.003045 -0.003005 0.014460 0.000000 0.000000 0.000000
# 4 0.000000 0.000000 0.000000 0.038440 0.000000 0.000000
# 5 0.000000 0.000000 0.000000 0.000000 0.041402 0.000000
# 6 0.000000 0.000000 0.000000 0.000000 0.000000 0.039302
#
#
# Mechanical properties :
#
#
# Convention : Reuss Voigt Hill
#
# Bulk Modulus (GPa) = 43.28258 43.36649 43.32454
# Shear Modulus (GPa) = 27.74086 28.42466 28.08276
#
# Velocity S-wave (km/s) = 3.65019 3.69491 3.67262
# Velocity P-wave (km/s) = 6.20917 6.24756 6.22840
#
# Compressibility (1/GPa) = 0.02310398
#
# Stress axis : x y z
#
# Youngs Moduli (GPa) = 83.48076 84.67258 69.15515
#
# Poissons Ratio (x) = 0.12894 0.21056
# Poissons Ratio (y) = 0.12713 0.20782
# Poissons Ratio (z) = 0.25418 0.25445
#
# Static dielectric constant tensor:
#      x y z
#    x 1.720330 0.000000 0.000000 
#    y 0.000000 1.824540 0.000000 
#    z 0.000000 0.000000 1.744510 
# 
# From -- ./inp_files/17597.got.cif
#   From: 2010.05.17/outbox.cif.g08.bks.cpg/sg57_9_cif.got.tgz:17597.got - 2010.06.03 13:58:18.
