data_PCOD9438946
_publ_section_title
;
Structure prediction by ZEFSAII (Michael W. Deem and Ramdas Pophale) SiO2 
 PCOD9438946
Probable space group: P B C M
;
_chemical_formula_sum "Si O2"
_cell_formula_units_Z 48
_cell_length_a 31.646275
_cell_length_b 7.642313
_cell_length_c 9.739735
_cell_angle_alpha 90.000000
_cell_angle_beta 90.000000
_cell_angle_gamma 90.000000
_cell_volume 2355.562106
_symmetry_space_group_name_H-M "P B C M"
_symmetry_group_IT_number 57
_symmetry_cell_setting 'orthorhombic'
loop_
_space_group_symop_operation_xyz
x,y,z
-x,-y,1/2+z
x,1/2-y,-z
-x,1/2+y,1/2-z
-x,-y,-z
x,y,1/2-z
-x,1/2+y,z
x,1/2-y,1/2+z
loop_
_atom_site_type_symbol
_atom_site_label
_atom_site_fract_x
_atom_site_fract_y
_atom_site_fract_z
Si Si1 0.633713 0.929431 0.910989
Si Si2 0.539036 0.575764 0.086208
Si Si3 0.197254 0.062201 0.250000
Si Si4 0.825356 0.556910 0.750000
Si Si5 0.306913 0.750000 0.500000
Si Si6 0.752280 0.274807 0.750000
Si Si7 0.868943 0.039090 0.519761
Si Si8 0.039015 0.924694 0.413268
O O1 0.639337 0.884005 0.750000
O O2 0.585721 0.007543 0.922685
O O3 0.638774 0.750000 0.000000
O O4 0.665008 0.085183 0.952850
O O5 0.529049 0.595931 0.250000
O O6 0.546666 0.750000 0.000000
O O7 0.500000 0.500000 0.000000
O O8 0.236545 0.931807 0.250000
O O9 0.168030 0.012952 0.378016
O O10 0.203396 0.269868 0.250000
O O11 0.795139 0.387363 0.750000
O O12 0.856431 0.550333 0.621414
O O13 0.276002 0.685723 0.380663
O O14 0.867193 0.250000 0.500000
O O15 0.915244 0.983405 0.573424
O O16 0.046650 0.750000 0.500000
O O17 0.029575 0.902627 0.250000
O O18 0.000000 0.000000 0.500000
#
# Coordination Sequence:
#
# PCOD9438946 Si02
#       8
#     8   8   4   4   4   4   8   8
#     4  10  24  45  70 101 139 184 239 287 350 423
#     4  10  21  39  62  98 137 178 227 289 345 409
#     4  12  24  46  69 103 135 173 227 284 347 416
#     4  12  26  42  75 103 131 183 223 290 349 412
#     4  12  26  46  72  98 138 190 230 286 358 430
#     4  12  26  46  70 104 140 174 236 296 352 418
#     4  11  22  44  71  97 140 181 225 279 351 405
#     4  11  25  43  68  99 140 186 228 280 337 407
#
# _framework density 20.377302
#
# number of rings (size 3 to 8) (size 9 to 14) (size 15 to 20)
#    0.000    1.000    3.333    2.500    7.000    3.333 
#    0.000    0.000    0.000    0.000    0.000    0.000 
#    0.000    0.000    0.000    0.000    0.000    0.000 
#
# Total GULP energy -267674.912754 kJ/mol
# GULP energy per Si atom -5576.560682 kJ/mol
# Density = 2.033092 g / cm^3
# Si number density = 20.377302 Si / 1000 Ang^3
#
#
#
# Elastic Constant Matrix: (Units=GPa)
#
#
# Indices 1 2 3 4 5 6 
#
# 1 89.5060 12.7234 49.5722 0.0000 0.0000 0.0000
# 2 12.7234 65.2696 11.3746 0.0000 0.0000 0.0000
# 3 49.5722 11.3746 180.5117 0.0000 0.0000 0.0000
# 4 0.0000 0.0000 0.0000 33.6369 0.0000 0.0000
# 5 0.0000 0.0000 0.0000 0.0000 42.7189 0.0000
# 6 0.0000 0.0000 0.0000 0.0000 0.0000 14.8683
#
#
#
# Elastic Compliance Matrix: (Units=1/GPa)
#
#
# Indices 1 2 3 4 5 6 
#
# 1 0.013429 -0.001997 -0.003562 0.000000 0.000000 0.000000
# 2 -0.001997 0.015788 -0.000446 0.000000 0.000000 0.000000
# 3 -0.003562 -0.000446 0.006546 0.000000 0.000000 0.000000
# 4 0.000000 0.000000 0.000000 0.029729 0.000000 0.000000
# 5 0.000000 0.000000 0.000000 0.000000 0.023409 0.000000
# 6 0.000000 0.000000 0.000000 0.000000 0.000000 0.067257
#
#
# Mechanical properties :
#
#
# Convention : Reuss Voigt Hill
#
# Bulk Modulus (GPa) = 42.10112 53.62532 47.86322
# Shear Modulus (GPa) = 28.39502 35.68596 32.04049
#
# Velocity S-wave (km/s) = 3.73696 4.18935 3.96960
# Velocity P-wave (km/s) = 6.27100 7.05508 6.67457
#
# Compressibility (1/GPa) = 0.02375234
#
# Stress axis : x y z
#
# Youngs Moduli (GPa) = 74.46488 63.33854 152.76136
#
# Poissons Ratio (x) = 0.12649 0.54415
# Poissons Ratio (y) = 0.14871 0.06820
# Poissons Ratio (z) = 0.26525 0.02828
#
# Static dielectric constant tensor:
#      x y z
#    x 1.829150 0.000000 0.000000 
#    y 0.000000 1.720900 0.000000 
#    z 0.000000 0.000000 1.325610 
# 
# From -- ./inp_files/10225.got.cif
#   From: 2010.05.17/outbox.cif.g08.bks.cpg/sg57_6_cif.got.tgz:10225.got - 2010.06.03 13:58:18.
