data_PCOD9438247
_publ_section_title
;
Structure prediction by ZEFSAII (Michael W. Deem and Ramdas Pophale) SiO2 
 PCOD9438247
Probable space group: P B C M
;
_chemical_formula_sum "Si O2"
_cell_formula_units_Z 40
_cell_length_a 8.387726
_cell_length_b 8.862335
_cell_length_c 26.247399
_cell_angle_alpha 90.000000
_cell_angle_beta 90.000000
_cell_angle_gamma 90.000000
_cell_volume 1951.096145
_symmetry_space_group_name_H-M "P B C M"
_symmetry_group_IT_number 57
_symmetry_cell_setting 'orthorhombic'
loop_
_space_group_symop_operation_xyz
x,y,z
-x,-y,1/2+z
x,1/2-y,-z
-x,1/2+y,1/2-z
-x,-y,-z
x,y,1/2-z
-x,1/2+y,z
x,1/2-y,1/2+z
loop_
_atom_site_type_symbol
_atom_site_label
_atom_site_fract_x
_atom_site_fract_y
_atom_site_fract_z
Si Si1 0.714091 0.768324 0.192922
Si Si2 0.590467 0.047580 0.844042
Si Si3 0.187283 0.743431 0.097358
Si Si4 0.116704 0.407265 0.098737
Si Si5 0.411381 0.974581 0.551971
O O1 0.774553 0.791191 0.250000
O O2 0.658875 0.596257 0.184898
O O3 0.837544 0.814299 0.148936
O O4 0.558368 0.873242 0.183418
O O5 0.525173 0.990449 0.898983
O O6 0.725282 0.170256 0.857056
O O7 0.109968 0.583815 0.113308
O O8 0.323234 0.686912 0.058368
O O9 0.047939 0.848344 0.076191
O O10 0.267664 0.405172 0.060705
O O11 0.500000 0.000000 0.500000
#
# Coordination Sequence:
#
# PCOD9438247 Si02
#       5
#     8   8   8   8   8
#     4  11  21  38  62  95 131 175 226 272 332 399
#     4  11  20  39  63  93 133 171 220 281 321 389
#     4  10  20  40  67  91 134 170 213 279 337 384
#     4   9  21  40  64  94 133 170 214 284 330 391
#     4   9  21  39  67  96 126 178 220 268 332 406
#
# _framework density 20.501296
#
# number of rings (size 3 to 8) (size 9 to 14) (size 15 to 20)
#    1.200    0.800    2.000    1.800    0.000    0.800 
#    0.000    7.000    4.400    0.000    0.000    0.000 
#    0.000    0.000    0.000    0.000    0.000    0.000 
#
# Total GULP energy -223133.817665 kJ/mol
# GULP energy per Si atom -5578.345442 kJ/mol
# Density = 2.045463 g / cm^3
# Si number density = 20.501296 Si / 1000 Ang^3
#
#
#
# Elastic Constant Matrix: (Units=GPa)
#
#
# Indices 1 2 3 4 5 6 
#
# 1 64.8298 23.7609 25.4971 0.0000 0.0000 0.0000
# 2 23.7609 95.6409 20.1573 0.0000 0.0000 0.0000
# 3 25.4971 20.1573 94.6522 0.0000 0.0000 0.0000
# 4 0.0000 0.0000 0.0000 18.5488 0.0000 0.0000
# 5 0.0000 0.0000 0.0000 0.0000 5.3967 0.0000
# 6 0.0000 0.0000 0.0000 0.0000 0.0000 48.1290
#
#
#
# Elastic Compliance Matrix: (Units=1/GPa)
#
#
# Indices 1 2 3 4 5 6 
#
# 1 0.018422 -0.003697 -0.004175 0.000000 0.000000 0.000000
# 2 -0.003697 0.011689 -0.001493 0.000000 0.000000 0.000000
# 3 -0.004175 -0.001493 0.012008 0.000000 0.000000 0.000000
# 4 0.000000 0.000000 0.000000 0.053912 0.000000 0.000000
# 5 0.000000 0.000000 0.000000 0.000000 0.185300 0.000000
# 6 0.000000 0.000000 0.000000 0.000000 0.000000 0.020778
#
#
# Mechanical properties :
#
#
# Convention : Reuss Voigt Hill
#
# Bulk Modulus (GPa) = 42.75729 43.77262 43.26495
# Shear Modulus (GPa) = 15.21446 26.79539 21.00493
#
# Velocity S-wave (km/s) = 2.72715 3.61918 3.20436
# Velocity P-wave (km/s) = 5.55136 6.23395 5.90253
#
# Compressibility (1/GPa) = 0.02338783
#
# Stress axis : x y z
#
# Youngs Moduli (GPa) = 54.28297 85.55079 83.27960
#
# Poissons Ratio (x) = 0.31626 0.34771
# Poissons Ratio (y) = 0.20067 0.12438
# Poissons Ratio (z) = 0.22664 0.12777
#
# Static dielectric constant tensor:
#      x y z
#    x 1.768810 0.000000 0.000000 
#    y 0.000000 1.762070 0.000000 
#    z 0.000000 0.000000 1.909240 
# 
# From -- ./inp_files/28247.got.cif
#   From: 2010.05.17/outbox.cif.g08.bks.cpg/sg57_15_cif.got.tgz:28247.got - 2010.06.03 13:58:18.
