data_PCOD9438198
_publ_section_title
;
Structure prediction by ZEFSAII (Michael W. Deem and Ramdas Pophale) SiO2 
 PCOD9438198
Probable space group: P B C M
;
_chemical_formula_sum "Si O2"
_cell_formula_units_Z 44
_cell_length_a 18.116526
_cell_length_b 9.668376
_cell_length_c 14.393953
_cell_angle_alpha 90.000000
_cell_angle_beta 90.000000
_cell_angle_gamma 90.000000
_cell_volume 2521.207170
_symmetry_space_group_name_H-M "P B C M"
_symmetry_group_IT_number 57
_symmetry_cell_setting 'orthorhombic'
loop_
_space_group_symop_operation_xyz
x,y,z
-x,-y,1/2+z
x,1/2-y,-z
-x,1/2+y,1/2-z
-x,-y,-z
x,y,1/2-z
-x,1/2+y,z
x,1/2-y,1/2+z
loop_
_atom_site_type_symbol
_atom_site_label
_atom_site_fract_x
_atom_site_fract_y
_atom_site_fract_z
Si Si1 0.198751 0.165354 0.594906
Si Si2 0.928274 0.151875 0.250000
Si Si3 0.604032 0.016407 0.750000
Si Si4 0.077366 0.323994 0.250000
Si Si5 0.679022 0.781677 0.250000
Si Si6 0.355656 0.753965 0.611081
Si Si7 0.569819 0.038566 0.250000
Si Si8 0.809767 0.337600 0.907927
O O1 0.200490 0.250000 0.500000
O O2 0.128350 0.201876 0.659537
O O3 0.269480 0.194145 0.659956
O O4 0.195609 0.001663 0.574383
O O5 0.876520 0.185741 0.162424
O O6 0.004252 0.233588 0.250000
O O7 0.941448 0.987004 0.250000
O O8 0.625227 0.109682 0.839230
O O9 0.646669 0.871941 0.750000
O O10 0.516855 0.988442 0.750000
O O11 0.614668 0.895612 0.250000
O O12 0.365473 0.750000 0.500000
O O13 0.405093 0.870150 0.661287
O O14 0.270029 0.790966 0.630567
O O15 0.822388 0.250000 0.000000
#
# Coordination Sequence:
#
# PCOD9438198 Si02
#       8
#     8   4   4   4   4   8   4   8
#     4  10  22  40  60  87 121 153 197 247 291 345
#     4  10  20  40  58  87 121 155 192 240 296 346
#     4  11  25  37  61  92 116 157 200 242 300 364
#     4   9  22  39  59  85 122 157 190 239 297 343
#     4  11  22  37  61  88 117 157 196 242 304 345
#     4  10  22  41  62  87 119 156 204 245 288 351
#     4  11  21  43  61  84 126 156 192 251 301 350
#     4  10  21  38  64  86 113 160 201 238 290 349
#
# _framework density 17.451958000000001
#
# number of rings (size 3 to 8) (size 9 to 14) (size 15 to 20)
#    0.000    1.818    1.818    2.727    5.091    2.909 
#    3.273    5.455    0.000    0.000    0.000    0.000 
#    0.000    0.000    0.000    0.000    0.000    0.000 
#
# Total GULP energy -245703.748825 kJ/mol
# GULP energy per Si atom -5584.176110 kJ/mol
# Density = 1.741224 g / cm^3
# Si number density = 17.451958 Si / 1000 Ang^3
#
#
#
# Elastic Constant Matrix: (Units=GPa)
#
#
# Indices 1 2 3 4 5 6 
#
# 1 125.4723 75.8219 58.3136 0.0000 0.0000 0.0000
# 2 75.8219 136.4126 80.0856 0.0000 0.0000 0.0000
# 3 58.3136 80.0856 139.1642 0.0000 0.0000 0.0000
# 4 0.0000 0.0000 0.0000 30.9909 0.0000 0.0000
# 5 0.0000 0.0000 0.0000 0.0000 17.4716 0.0000
# 6 0.0000 0.0000 0.0000 0.0000 0.0000 31.6277
#
#
#
# Elastic Compliance Matrix: (Units=1/GPa)
#
#
# Indices 1 2 3 4 5 6 
#
# 1 0.012306 -0.005758 -0.001843 0.000000 0.000000 0.000000
# 2 -0.005758 0.013765 -0.005509 0.000000 0.000000 0.000000
# 3 -0.001843 -0.005509 0.011128 0.000000 0.000000 0.000000
# 4 0.000000 0.000000 0.000000 0.032268 0.000000 0.000000
# 5 0.000000 0.000000 0.000000 0.000000 0.057236 0.000000
# 6 0.000000 0.000000 0.000000 0.000000 0.000000 0.031618
#
#
# Mechanical properties :
#
#
# Convention : Reuss Voigt Hill
#
# Bulk Modulus (GPa) = 91.07572 92.16570 91.62071
# Shear Modulus (GPa) = 26.56746 28.47323 27.52035
#
# Velocity S-wave (km/s) = 3.90592 4.04359 3.97535
# Velocity P-wave (km/s) = 8.52300 8.64445 8.58394
#
# Compressibility (1/GPa) = 0.01097987
#
# Stress axis : x y z
#
# Youngs Moduli (GPa) = 81.26180 72.64635 89.86189
#
# Poissons Ratio (x) = 0.41830 0.16561
# Poissons Ratio (y) = 0.46791 0.49503
# Poissons Ratio (z) = 0.14976 0.40020
#
# Static dielectric constant tensor:
#      x y z
#    x 1.569600 0.000000 0.000000 
#    y 0.000000 1.572730 0.000000 
#    z 0.000000 0.000000 1.570290 
# 
# From -- ./inp_files/18914.got.cif
#   From: 2010.05.17/outbox.cif.g08.bks.cpg/sg57_10_cif.got.tgz:18914.got - 2010.06.03 13:58:18.
