data_PCOD9438234
_publ_section_title
;
Structure prediction by ZEFSAII (Michael W. Deem and Ramdas Pophale) SiO2 
 PCOD9438234
Probable space group: P B C M
;
_chemical_formula_sum "Si O2"
_cell_formula_units_Z 56
_cell_length_a 16.242411
_cell_length_b 12.000603
_cell_length_c 14.521573
_cell_angle_alpha 90.000000
_cell_angle_beta 90.000000
_cell_angle_gamma 90.000000
_cell_volume 2830.526511
_symmetry_space_group_name_H-M "P B C M"
_symmetry_group_IT_number 57
_symmetry_cell_setting 'orthorhombic'
loop_
_space_group_symop_operation_xyz
x,y,z
-x,-y,1/2+z
x,1/2-y,-z
-x,1/2+y,1/2-z
-x,-y,-z
x,y,1/2-z
-x,1/2+y,z
x,1/2-y,1/2+z
loop_
_atom_site_type_symbol
_atom_site_label
_atom_site_fract_x
_atom_site_fract_y
_atom_site_fract_z
Si Si1 0.543777 0.345081 0.641897
Si Si2 0.750152 0.960508 0.957671
Si Si3 0.305619 0.696410 0.600183
Si Si4 0.874066 0.270906 0.645620
Si Si5 0.335067 0.461384 0.355925
Si Si6 0.364535 0.201210 0.357314
Si Si7 0.082882 0.566176 0.979313
O O1 0.529228 0.358971 0.750000
O O2 0.605937 0.240644 0.632675
O O3 0.594484 0.453107 0.611803
O O4 0.452978 0.334340 0.601295
O O5 0.709304 0.850777 0.915883
O O6 0.703606 0.064249 0.908476
O O7 0.734002 0.968847 0.066766
O O8 0.846473 0.981059 0.945806
O O9 0.296953 0.750000 0.500000
O O10 0.223895 0.742840 0.649334
O O11 0.902151 0.292301 0.750000
O O12 0.889089 0.370222 0.573003
O O13 0.918010 0.163472 0.598291
O O14 0.311724 0.490664 0.250000
O O15 0.364653 0.334593 0.356302
O O16 0.354998 0.165577 0.250000
O O17 0.000000 0.500000 0.000000
#
# Coordination Sequence:
#
# PCOD9438234 Si02
#       7
#     8   8   8   8   8   8   8
#     4  10  21  36  58  84 118 166 210 258 304 350
#     4  11  22  39  63  87 117 162 201 247 323 367
#     4  11  19  36  60  93 119 153 207 260 309 358
#     4  10  20  40  65  94 127 160 203 255 312 376
#     4  10  21  40  57  80 120 160 204 250 298 366
#     4  10  24  40  55  85 127 166 210 254 301 367
#     4  10  22  42  65  94 126 157 201 262 316 379
#
# _framework density 19.784303999999999
#
# number of rings (size 3 to 8) (size 9 to 14) (size 15 to 20)
#    0.000    1.714    4.286    0.857    2.000    6.857 
#    5.143    0.000    0.000    0.000    0.000    0.000 
#    0.000    0.000    0.000    0.000    0.000    0.000 
#
# Total GULP energy -312380.788106 kJ/mol
# GULP energy per Si atom -5578.228359 kJ/mol
# Density = 1.973927 g / cm^3
# Si number density = 19.784304 Si / 1000 Ang^3
#
#
#
# Elastic Constant Matrix: (Units=GPa)
#
#
# Indices 1 2 3 4 5 6 
#
# 1 94.5061 32.0948 6.4336 0.0000 0.0000 0.0000
# 2 32.0948 50.0519 4.5162 0.0000 0.0000 0.0000
# 3 6.4336 4.5162 62.9629 0.0000 0.0000 0.0000
# 4 0.0000 0.0000 0.0000 13.2524 0.0000 0.0000
# 5 0.0000 0.0000 0.0000 0.0000 11.1482 0.0000
# 6 0.0000 0.0000 0.0000 0.0000 0.0000 18.8609
#
#
#
# Elastic Compliance Matrix: (Units=1/GPa)
#
#
# Indices 1 2 3 4 5 6 
#
# 1 0.013564 -0.008628 -0.000767 0.000000 0.000000 0.000000
# 2 -0.008628 0.025598 -0.000954 0.000000 0.000000 0.000000
# 3 -0.000767 -0.000954 0.016029 0.000000 0.000000 0.000000
# 4 0.000000 0.000000 0.000000 0.075458 0.000000 0.000000
# 5 0.000000 0.000000 0.000000 0.000000 0.089700 0.000000
# 6 0.000000 0.000000 0.000000 0.000000 0.000000 0.053020
#
#
# Mechanical properties :
#
#
# Convention : Reuss Voigt Hill
#
# Bulk Modulus (GPa) = 28.99267 32.62335 30.80801
# Shear Modulus (GPa) = 16.36307 19.61740 17.99024
#
# Velocity S-wave (km/s) = 2.87901 3.15233 3.01876
# Velocity P-wave (km/s) = 5.07324 5.45663 5.26843
#
# Compressibility (1/GPa) = 0.03449148
#
# Stress axis : x y z
#
# Youngs Moduli (GPa) = 73.72585 39.06534 62.38615
#
# Poissons Ratio (x) = 0.33707 0.04785
# Poissons Ratio (y) = 0.63613 0.05954
# Poissons Ratio (z) = 0.05655 0.03729
#
# Static dielectric constant tensor:
#      x y z
#    x 1.705390 0.000000 0.000000 
#    y 0.000000 1.708960 0.000000 
#    z 0.000000 0.000000 1.729900 
# 
# From -- ./inp_files/18481.got.cif
#   From: 2010.05.17/outbox.cif.g08.bks.cpg/sg57_10_cif.got.tgz:18481.got - 2010.06.03 13:58:18.
