data_PCOD9438423
_publ_section_title
;
Structure prediction by ZEFSAII (Michael W. Deem and Ramdas Pophale) SiO2 
 PCOD9438423
Probable space group: P B C M
;
_chemical_formula_sum "Si O2"
_cell_formula_units_Z 48
_cell_length_a 9.972372
_cell_length_b 23.623749
_cell_length_c 9.397311
_cell_angle_alpha 90.000000
_cell_angle_beta 90.000000
_cell_angle_gamma 90.000000
_cell_volume 2213.863755
_symmetry_space_group_name_H-M "P B C M"
_symmetry_group_IT_number 57
_symmetry_cell_setting 'orthorhombic'
loop_
_space_group_symop_operation_xyz
x,y,z
-x,-y,1/2+z
x,1/2-y,-z
-x,1/2+y,1/2-z
-x,-y,-z
x,y,1/2-z
-x,1/2+y,z
x,1/2-y,1/2+z
loop_
_atom_site_type_symbol
_atom_site_label
_atom_site_fract_x
_atom_site_fract_y
_atom_site_fract_z
Si Si1 0.884631 0.838397 0.584389
Si Si2 0.464790 0.410152 0.589275
Si Si3 0.829821 0.536062 0.412212
Si Si4 0.621385 0.805191 0.080877
Si Si5 0.187620 0.695176 0.084633
Si Si6 0.760551 0.068377 0.415902
O O1 0.836441 0.835872 0.750000
O O2 0.903454 0.905162 0.550358
O O3 0.772769 0.814625 0.479051
O O4 0.025578 0.807215 0.578603
O O5 0.470711 0.385119 0.750000
O O6 0.327357 0.445113 0.582198
O O7 0.455375 0.360669 0.473914
O O8 0.601615 0.444655 0.573457
O O9 0.863426 0.521592 0.250000
O O10 0.842081 0.481054 0.508484
O O11 0.619590 0.799155 0.250000
O O12 0.568680 0.750000 0.000000
O O13 0.228882 0.699244 0.250000
O O14 0.227571 0.632841 0.029264
O O15 0.235290 0.750000 0.000000
O O16 0.799371 0.070260 0.250000
#
# Coordination Sequence:
#
# PCOD9438423 Si02
#       6
#     8   8   8   8   8   8
#     4   9  19  37  57  79 109 140 175 223 273 317
#     4   9  19  36  54  76 110 146 180 222 270 316
#     4   9  18  33  55  81 108 140 177 221 270 317
#     4  11  21  33  53  80 107 138 180 227 275 325
#     4  10  22  39  57  78 107 144 183 222 265 314
#     4  10  21  36  55  80 111 145 179 218 264 318
#
# _framework density 21.681552
#
# number of rings (size 3 to 8) (size 9 to 14) (size 15 to 20)
#    0.000    2.333    0.000    3.500    0.000    7.333 
#    0.000    1.667    0.000    0.000    0.000    0.000 
#    0.000    0.000    0.000    0.000    0.000    0.000 
#
# Total GULP energy -268127.661205 kJ/mol
# GULP energy per Si atom -5585.992942 kJ/mol
# Density = 2.163220 g / cm^3
# Si number density = 21.681552 Si / 1000 Ang^3
#
#
#
# Elastic Constant Matrix: (Units=GPa)
#
#
# Indices 1 2 3 4 5 6 
#
# 1 45.6782 -4.9985 8.7870 0.0000 0.0000 0.0000
# 2 -4.9985 128.7779 69.8879 0.0000 0.0000 0.0000
# 3 8.7870 69.8879 109.1426 0.0000 0.0000 0.0000
# 4 0.0000 0.0000 0.0000 40.7449 0.0000 0.0000
# 5 0.0000 0.0000 0.0000 0.0000 12.3560 0.0000
# 6 0.0000 0.0000 0.0000 0.0000 0.0000 11.9323
#
#
#
# Elastic Compliance Matrix: (Units=1/GPa)
#
#
# Indices 1 2 3 4 5 6 
#
# 1 0.022921 0.002898 -0.003701 0.000000 0.000000 0.000000
# 2 0.002898 0.012268 -0.008089 0.000000 0.000000 0.000000
# 3 -0.003701 -0.008089 0.014640 0.000000 0.000000 0.000000
# 4 0.000000 0.000000 0.000000 0.024543 0.000000 0.000000
# 5 0.000000 0.000000 0.000000 0.000000 0.080932 0.000000
# 6 0.000000 0.000000 0.000000 0.000000 0.000000 0.083806
#
#
# Mechanical properties :
#
#
# Convention : Reuss Voigt Hill
#
# Bulk Modulus (GPa) = 31.20560 47.88353 39.54456
# Shear Modulus (GPa) = 18.68636 27.00148 22.84392
#
# Velocity S-wave (km/s) = 2.93892 3.53280 3.24946
# Velocity P-wave (km/s) = 5.09316 6.22686 5.68833
#
# Compressibility (1/GPa) = 0.03204553
#
# Stress axis : x y z
#
# Youngs Moduli (GPa) = 43.62724 81.51577 68.30689
#
# Poissons Ratio (x) = -0.23627 0.25283
# Poissons Ratio (y) = -0.12645 0.55251
# Poissons Ratio (z) = 0.16148 0.65936
#
# Static dielectric constant tensor:
#      x y z
#    x 1.845220 0.000000 0.000000 
#    y 0.000000 1.804870 0.000000 
#    z 0.000000 0.000000 1.747540 
# 
# From -- ./inp_files/3148.got.cif
#   From: 2010.05.17/outbox.cif.g08.bks.cpg/sg57_2_cif.got.tgz:3148.got - 2010.06.03 13:58:18.
