data_PCOD9438806
_publ_section_title
;
Structure prediction by ZEFSAII (Michael W. Deem and Ramdas Pophale) SiO2 
 PCOD9438806
Probable space group: P B C M
;
_chemical_formula_sum "Si O2"
_cell_formula_units_Z 48
_cell_length_a 8.253621
_cell_length_b 33.756187
_cell_length_c 7.655131
_cell_angle_alpha 90.000000
_cell_angle_beta 90.000000
_cell_angle_gamma 90.000000
_cell_volume 2132.801972
_symmetry_space_group_name_H-M "P B C M"
_symmetry_group_IT_number 57
_symmetry_cell_setting 'orthorhombic'
loop_
_space_group_symop_operation_xyz
x,y,z
-x,-y,1/2+z
x,1/2-y,-z
-x,1/2+y,1/2-z
-x,-y,-z
x,y,1/2-z
-x,1/2+y,z
x,1/2-y,1/2+z
loop_
_atom_site_type_symbol
_atom_site_label
_atom_site_fract_x
_atom_site_fract_y
_atom_site_fract_z
Si Si1 0.505761 0.295765 0.459997
Si Si2 0.831705 0.671115 0.950073
Si Si3 0.812209 0.506131 0.958494
Si Si4 0.673049 0.423430 0.540186
Si Si5 0.820036 0.342928 0.460157
Si Si6 0.315351 0.408306 0.953167
O O1 0.533453 0.250000 0.500000
O O2 0.501365 0.301599 0.250000
O O3 0.328877 0.308835 0.529180
O O4 0.657498 0.321483 0.526955
O O5 0.842266 0.685481 0.750000
O O6 0.010956 0.674884 0.029260
O O7 0.791355 0.624324 0.951382
O O8 0.790964 0.508444 0.750000
O O9 0.718617 0.467074 0.024664
O O10 0.751152 0.547336 0.034841
O O11 0.000000 0.500000 0.000000
O O12 0.661010 0.426280 0.750000
O O13 0.802672 0.389565 0.498837
O O14 0.498146 0.409223 0.474366
O O15 0.823439 0.338773 0.250000
O O16 0.318911 0.396482 0.750000
#
# Coordination Sequence:
#
# PCOD9438806 Si02
#       6
#     8   8   8   8   8   8
#     4  10  22  40  61  88 120 152 190 238 290 351
#     4  10  21  39  62  88 118 155 198 240 290 350
#     4  11  23  38  55  81 117 156 200 248 294 344
#     4  10  22  38  57  83 116 154 198 244 290 345
#     4  10  21  38  62  88 116 154 195 238 290 347
#     4  11  22  37  58  85 116 154 199 244 294 347
#
# _framework density 22.505604000000002
#
# number of rings (size 3 to 8) (size 9 to 14) (size 15 to 20)
#    0.000    1.667    1.667    2.500    0.000    7.333 
#    0.000    0.000    0.000    0.000    0.000    0.000 
#    0.000    0.000    0.000    0.000    0.000    0.000 
#
# Total GULP energy -268303.797197 kJ/mol
# GULP energy per Si atom -5589.662442 kJ/mol
# Density = 2.245438 g / cm^3
# Si number density = 22.505604 Si / 1000 Ang^3
#
#
#
# Elastic Constant Matrix: (Units=GPa)
#
#
# Indices 1 2 3 4 5 6 
#
# 1 101.4008 3.7740 -8.1713 0.0000 0.0000 0.0000
# 2 3.7740 83.4696 -16.5627 0.0000 0.0000 0.0000
# 3 -8.1713 -16.5627 51.2760 0.0000 0.0000 0.0000
# 4 0.0000 0.0000 0.0000 26.0228 0.0000 0.0000
# 5 0.0000 0.0000 0.0000 0.0000 4.6960 0.0000
# 6 0.0000 0.0000 0.0000 0.0000 0.0000 18.7254
#
#
#
# Elastic Compliance Matrix: (Units=1/GPa)
#
#
# Indices 1 2 3 4 5 6 
#
# 1 0.009992 -0.000145 0.001545 0.000000 0.000000 0.000000
# 2 -0.000145 0.012803 0.004112 0.000000 0.000000 0.000000
# 3 0.001545 0.004112 0.021077 0.000000 0.000000 0.000000
# 4 0.000000 0.000000 0.000000 0.038428 0.000000 0.000000
# 5 0.000000 0.000000 0.000000 0.000000 0.212949 0.000000
# 6 0.000000 0.000000 0.000000 0.000000 0.000000 0.053403
#
#
# Mechanical properties :
#
#
# Convention : Reuss Voigt Hill
#
# Bulk Modulus (GPa) = 18.21591 21.58070 19.89830
# Shear Modulus (GPa) = 14.04788 27.02926 20.53857
#
# Velocity S-wave (km/s) = 2.50110 3.46931 3.02420
# Velocity P-wave (km/s) = 4.05613 5.06537 4.58858
#
# Compressibility (1/GPa) = 0.05489706
#
# Stress axis : x y z
#
# Youngs Moduli (GPa) = 100.08216 78.10677 47.44526
#
# Poissons Ratio (x) = 0.01133 -0.07332
# Poissons Ratio (y) = 0.01452 -0.19511
# Poissons Ratio (z) = -0.15467 -0.32120
#
# Static dielectric constant tensor:
#      x y z
#    x 1.855530 0.000000 0.000000 
#    y 0.000000 1.789740 0.000000 
#    z 0.000000 0.000000 1.834060 
# 
# From -- ./inp_files/2120.got.cif
#   From: 2010.05.17/outbox.cif.g08.bks.cpg/sg57_2_cif.got.tgz:2120.got - 2010.06.03 13:58:18.
