data_PCOD9438491
_publ_section_title
;
Structure prediction by ZEFSAII (Michael W. Deem and Ramdas Pophale) SiO2 
 PCOD9438491
Probable space group: P B C M
;
_chemical_formula_sum "Si O2"
_cell_formula_units_Z 56
_cell_length_a 20.090171
_cell_length_b 18.478772
_cell_length_c 8.638424
_cell_angle_alpha 90.000000
_cell_angle_beta 90.000000
_cell_angle_gamma 90.000000
_cell_volume 3206.943119
_symmetry_space_group_name_H-M "P B C M"
_symmetry_group_IT_number 57
_symmetry_cell_setting 'orthorhombic'
loop_
_space_group_symop_operation_xyz
x,y,z
-x,-y,1/2+z
x,1/2-y,-z
-x,1/2+y,1/2-z
-x,-y,-z
x,y,1/2-z
-x,1/2+y,z
x,1/2-y,1/2+z
loop_
_atom_site_type_symbol
_atom_site_label
_atom_site_fract_x
_atom_site_fract_y
_atom_site_fract_z
Si Si1 0.563970 0.457858 0.064594
Si Si2 0.653291 0.669969 0.934716
Si Si3 0.844619 0.030337 0.936301
Si Si4 0.954244 0.935339 0.064454
Si Si5 0.067496 0.669320 0.563194
Si Si6 0.296394 0.472151 0.936956
Si Si7 0.507711 0.829457 0.565376
O O1 0.561445 0.459655 0.250000
O O2 0.634621 0.489912 0.014924
O O3 0.500000 0.500000 0.000000
O O4 0.550714 0.378367 0.000908
O O5 0.648879 0.673509 0.750000
O O6 0.668507 0.750000 0.000000
O O7 0.703375 0.607609 0.989161
O O8 0.580793 0.648109 0.003035
O O9 0.850223 0.029639 0.750000
O O10 0.880213 0.105752 0.987257
O O11 0.767652 0.020016 0.979163
O O12 0.883290 0.959408 0.998738
O O13 0.952415 0.937773 0.250000
O O14 0.994115 0.862445 0.019719
O O15 0.000000 0.000000 0.000000
O O16 0.079072 0.750000 0.500000
O O17 0.070599 0.672530 0.750000
O O18 0.297089 0.464476 0.750000
O O19 0.498489 0.750000 0.500000
O O20 0.509586 0.831789 0.750000
#
# Coordination Sequence:
#
# PCOD9438491 Si02
#       7
#     8   8   8   8   8   8   8
#     4  11  21  34  54  79 106 139 182 231 279 331
#     4  11  21  34  54  77 103 132 173 222 275 334
#     4   9  19  36  55  78 109 145 181 221 268 322
#     4   9  17  31  52  78 105 135 174 217 258 306
#     4   9  18  32  53  81 110 140 177 216 259 307
#     4  10  21  37  56  77 108 147 183 221 277 333
#     4  11  21  35  54  76 103 134 174 225 283 336
#
# _framework density 17.462112000000001
#
# number of rings (size 3 to 8) (size 9 to 14) (size 15 to 20)
#    0.000    2.000    1.429    5.143    0.000    4.000 
#    0.000    1.429    0.000    3.429    0.000    0.000 
#    0.000    0.000    0.000    0.000    0.000    0.000 
#
# Total GULP energy -312108.697866 kJ/mol
# GULP energy per Si atom -5573.369605 kJ/mol
# Density = 1.742237 g / cm^3
# Si number density = 17.462112 Si / 1000 Ang^3
#
#
#
# Elastic Constant Matrix: (Units=GPa)
#
#
# Indices 1 2 3 4 5 6 
#
# 1 112.6520 63.6084 32.4566 0.0000 0.0000 0.0000
# 2 63.6084 117.3974 24.8950 0.0000 0.0000 0.0000
# 3 32.4566 24.8950 47.9606 0.0000 0.0000 0.0000
# 4 0.0000 0.0000 0.0000 31.0975 0.0000 0.0000
# 5 0.0000 0.0000 0.0000 0.0000 18.9165 0.0000
# 6 0.0000 0.0000 0.0000 0.0000 0.0000 25.0929
#
#
#
# Elastic Compliance Matrix: (Units=1/GPa)
#
#
# Indices 1 2 3 4 5 6 
#
# 1 0.014335 -0.006416 -0.006371 0.000000 0.000000 0.000000
# 2 -0.006416 0.012443 -0.002117 0.000000 0.000000 0.000000
# 3 -0.006371 -0.002117 0.026261 0.000000 0.000000 0.000000
# 4 0.000000 0.000000 0.000000 0.032157 0.000000 0.000000
# 5 0.000000 0.000000 0.000000 0.000000 0.052864 0.000000
# 6 0.000000 0.000000 0.000000 0.000000 0.000000 0.039852
#
#
# Mechanical properties :
#
#
# Convention : Reuss Voigt Hill
#
# Bulk Modulus (GPa) = 43.04491 57.76999 50.40745
# Shear Modulus (GPa) = 23.20578 25.49139 24.34858
#
# Velocity S-wave (km/s) = 3.64939 3.82489 3.73817
# Velocity P-wave (km/s) = 6.51624 7.25681 6.89647
#
# Compressibility (1/GPa) = 0.02323155
#
# Stress axis : x y z
#
# Youngs Moduli (GPa) = 69.75808 80.36369 38.07986
#
# Poissons Ratio (x) = 0.51563 0.24260
# Poissons Ratio (y) = 0.44758 0.08061
# Poissons Ratio (z) = 0.44441 0.17013
#
# Static dielectric constant tensor:
#      x y z
#    x 1.605700 0.000000 0.000000 
#    y 0.000000 1.609620 0.000000 
#    z 0.000000 0.000000 1.586790 
# 
# From -- ./inp_files/8289.got.cif
#   From: 2010.05.17/outbox.cif.g08.bks.cpg/sg57_5_cif.got.tgz:8289.got - 2010.06.03 13:58:18.
