data_PCOD9438742
_publ_section_title
;
Structure prediction by ZEFSAII (Michael W. Deem and Ramdas Pophale) SiO2 
 PCOD9438742
Probable space group: P B C M
;
_chemical_formula_sum "Si O2"
_cell_formula_units_Z 40
_cell_length_a 6.994724
_cell_length_b 19.675983
_cell_length_c 14.078062
_cell_angle_alpha 90.000000
_cell_angle_beta 90.000000
_cell_angle_gamma 90.000000
_cell_volume 1937.536510
_symmetry_space_group_name_H-M "P B C M"
_symmetry_group_IT_number 57
_symmetry_cell_setting 'orthorhombic'
loop_
_space_group_symop_operation_xyz
x,y,z
-x,-y,1/2+z
x,1/2-y,-z
-x,1/2+y,1/2-z
-x,-y,-z
x,y,1/2-z
-x,1/2+y,z
x,1/2-y,1/2+z
loop_
_atom_site_type_symbol
_atom_site_label
_atom_site_fract_x
_atom_site_fract_y
_atom_site_fract_z
Si Si1 0.453216 0.092866 0.638317
Si Si2 0.303608 0.827846 0.491509
Si Si3 0.917261 0.608184 0.980474
Si Si4 0.950157 0.984163 0.642384
Si Si5 0.397381 0.559507 0.357487
O O1 0.416520 0.093176 0.750000
O O2 0.625094 0.140785 0.607527
O O3 0.267054 0.120495 0.583224
O O4 0.488773 0.013184 0.612784
O O5 0.361934 0.750000 0.500000
O O6 0.073945 0.834620 0.499694
O O7 0.399580 0.877921 0.569886
O O8 0.038052 0.551200 0.921804
O O9 0.851676 0.574078 0.079653
O O10 0.881372 0.994622 0.750000
O O11 0.171657 0.960289 0.647543
O O12 0.459072 0.577036 0.250000
#
# Coordination Sequence:
#
# PCOD9438742 Si02
#       5
#     8   8   8   8   8
#     4  10  21  38  60  83 108 144 193 238 274 325
#     4  11  23  36  55  83 116 149 183 226 282 343
#     4   9  18  34  54  78 110 145 180 224 277 328
#     4   8  14  28  54  84 108 135 180 232 277 326
#     4   8  16  34  57  80 110 147 188 237 282 321
#
# _framework density 20.644772
#
# number of rings (size 3 to 8) (size 9 to 14) (size 15 to 20)
#    0.000    2.800    0.000    3.600    0.000    3.200 
#    0.000    3.000    0.000    4.800    0.000    0.000 
#    0.000    0.000    0.000    0.000    0.000    0.000 
#
# Total GULP energy -223190.143329 kJ/mol
# GULP energy per Si atom -5579.753583 kJ/mol
# Density = 2.059778 g / cm^3
# Si number density = 20.644772 Si / 1000 Ang^3
#
#
#
# Elastic Constant Matrix: (Units=GPa)
#
#
# Indices 1 2 3 4 5 6 
#
# 1 54.4103 16.6595 -2.5459 0.0000 0.0000 0.0000
# 2 16.6595 108.9713 31.0514 0.0000 0.0000 0.0000
# 3 -2.5459 31.0514 112.7722 0.0000 0.0000 0.0000
# 4 0.0000 0.0000 0.0000 8.6215 0.0000 0.0000
# 5 0.0000 0.0000 0.0000 0.0000 28.5216 0.0000
# 6 0.0000 0.0000 0.0000 0.0000 0.0000 20.4186
#
#
#
# Elastic Compliance Matrix: (Units=1/GPa)
#
#
# Indices 1 2 3 4 5 6 
#
# 1 0.019474 -0.003367 0.001367 0.000000 0.000000 0.000000
# 2 -0.003367 0.010540 -0.002978 0.000000 0.000000 0.000000
# 3 0.001367 -0.002978 0.009718 0.000000 0.000000 0.000000
# 4 0.000000 0.000000 0.000000 0.115989 0.000000 0.000000
# 5 0.000000 0.000000 0.000000 0.000000 0.035061 0.000000
# 6 0.000000 0.000000 0.000000 0.000000 0.000000 0.048975
#
#
# Mechanical properties :
#
#
# Convention : Reuss Voigt Hill
#
# Bulk Modulus (GPa) = 33.58436 40.72039 37.15238
# Shear Modulus (GPa) = 19.25753 26.91160 23.08456
#
# Velocity S-wave (km/s) = 3.05750 3.61439 3.34755
# Velocity P-wave (km/s) = 5.36353 6.09800 5.74252
#
# Compressibility (1/GPa) = 0.02977576
#
# Stress axis : x y z
#
# Youngs Moduli (GPa) = 51.35158 94.87639 102.89854
#
# Poissons Ratio (x) = 0.31940 -0.14062
# Poissons Ratio (y) = 0.17288 0.30645
# Poissons Ratio (z) = -0.07018 0.28256
#
# Static dielectric constant tensor:
#      x y z
#    x 1.798340 0.000000 0.000000 
#    y 0.000000 1.720000 0.000000 
#    z 0.000000 0.000000 1.755840 
# 
# From -- ./inp_files/16118.got.cif
#   From: 2010.05.17/outbox.cif.g08.bks.cpg/sg57_9_cif.got.tgz:16118.got - 2010.06.03 13:58:18.
