data_PCOD9438863
_publ_section_title
;
Structure prediction by ZEFSAII (Michael W. Deem and Ramdas Pophale) SiO2 
 PCOD9438863
Probable space group: P B C M
;
_chemical_formula_sum "Si O2"
_cell_formula_units_Z 48
_cell_length_a 19.442807
_cell_length_b 8.943755
_cell_length_c 14.228931
_cell_angle_alpha 90.000000
_cell_angle_beta 90.000000
_cell_angle_gamma 90.000000
_cell_volume 2474.293034
_symmetry_space_group_name_H-M "P B C M"
_symmetry_group_IT_number 57
_symmetry_cell_setting 'orthorhombic'
loop_
_space_group_symop_operation_xyz
x,y,z
-x,-y,1/2+z
x,1/2-y,-z
-x,1/2+y,1/2-z
-x,-y,-z
x,y,1/2-z
-x,1/2+y,z
x,1/2-y,1/2+z
loop_
_atom_site_type_symbol
_atom_site_label
_atom_site_fract_x
_atom_site_fract_y
_atom_site_fract_z
Si Si1 0.541530 0.493157 0.750000
Si Si2 0.599044 0.154358 0.750000
Si Si3 0.835954 0.074438 0.978100
Si Si4 0.567056 0.915196 0.039892
Si Si5 0.091310 0.064740 0.638655
Si Si6 0.950519 0.594618 0.361951
Si Si7 0.682896 0.099472 0.939196
O O1 0.562169 0.317685 0.750000
O O2 0.460043 0.527755 0.750000
O O3 0.567984 0.566552 0.847258
O O4 0.646077 0.135206 0.841299
O O5 0.844806 0.984737 0.075728
O O6 0.843673 0.250000 0.000000
O O7 0.761681 0.047862 0.931824
O O8 0.896475 0.011933 0.912976
O O9 0.560357 0.750000 0.000000
O O10 0.500000 0.000000 0.000000
O O11 0.635234 0.985491 0.995678
O O12 0.104818 0.055140 0.750000
O O13 0.066435 0.232887 0.616573
O O14 0.028089 0.953939 0.614348
O O15 0.944017 0.574954 0.250000
O O16 0.684382 0.250000 0.000000
#
# Coordination Sequence:
#
# PCOD9438863 Si02
#       7
#     4   4   8   8   8   8   8
#     4  12  24  40  74 100 124 173 211 276 336 382
#     4  12  24  42  74  98 134 163 227 264 340 390
#     4  11  24  40  62  88 127 173 214 257 329 384
#     4  12  24  42  66  96 134 162 217 268 323 397
#     4  10  21  40  64  94 127 165 219 276 320 382
#     4  10  21  38  66  95 126 165 218 276 326 379
#     4  11  25  45  63  95 130 178 213 272 322 400
#
# _framework density 19.399480000000001
#
# number of rings (size 3 to 8) (size 9 to 14) (size 15 to 20)
#    0.000    1.000    3.333    3.500    1.167    3.333 
#    6.000    0.000    0.000    0.000    0.000    0.000 
#    0.000    0.000    0.000    0.000    0.000    0.000 
#
# Total GULP energy -268362.016240 kJ/mol
# GULP energy per Si atom -5590.875338 kJ/mol
# Density = 1.935533 g / cm^3
# Si number density = 19.399480 Si / 1000 Ang^3
#
#
#
# Elastic Constant Matrix: (Units=GPa)
#
#
# Indices 1 2 3 4 5 6 
#
# 1 85.7296 36.2587 43.3274 0.0000 0.0000 0.0000
# 2 36.2587 100.7243 33.3368 0.0000 0.0000 0.0000
# 3 43.3274 33.3368 138.2653 0.0000 0.0000 0.0000
# 4 0.0000 0.0000 0.0000 31.8587 0.0000 0.0000
# 5 0.0000 0.0000 0.0000 0.0000 20.1936 0.0000
# 6 0.0000 0.0000 0.0000 0.0000 0.0000 24.5167
#
#
#
# Elastic Compliance Matrix: (Units=1/GPa)
#
#
# Indices 1 2 3 4 5 6 
#
# 1 0.015393 -0.004287 -0.003790 0.000000 0.000000 0.000000
# 2 -0.004287 0.011983 -0.001546 0.000000 0.000000 0.000000
# 3 -0.003790 -0.001546 0.008793 0.000000 0.000000 0.000000
# 4 0.000000 0.000000 0.000000 0.031389 0.000000 0.000000
# 5 0.000000 0.000000 0.000000 0.000000 0.049521 0.000000
# 6 0.000000 0.000000 0.000000 0.000000 0.000000 0.040789
#
#
# Mechanical properties :
#
#
# Convention : Reuss Voigt Hill
#
# Bulk Modulus (GPa) = 59.08964 61.17390 60.13177
# Shear Modulus (GPa) = 27.35927 29.43354 28.39641
#
# Velocity S-wave (km/s) = 3.75948 3.89939 3.83008
# Velocity P-wave (km/s) = 7.02641 7.20249 7.11500
#
# Compressibility (1/GPa) = 0.01692344
#
# Stress axis : x y z
#
# Youngs Moduli (GPa) = 64.96399 83.45241 113.72863
#
# Poissons Ratio (x) = 0.35775 0.43104
# Poissons Ratio (y) = 0.27849 0.17580
# Poissons Ratio (z) = 0.24622 0.12900
#
# Static dielectric constant tensor:
#      x y z
#    x 1.666120 0.000000 0.000000 
#    y 0.000000 1.645310 0.000000 
#    z 0.000000 0.000000 1.709760 
# 
# From -- ./inp_files/18984.got.cif
#   From: 2010.05.17/outbox.cif.g08.bks.cpg/sg57_10_cif.got.tgz:18984.got - 2010.06.03 13:58:18.
