data_PCOD9438313
_publ_section_title
;
Structure prediction by ZEFSAII (Michael W. Deem and Ramdas Pophale) SiO2 
 PCOD9438313
Probable space group: P B C M
;
_chemical_formula_sum "Si O2"
_cell_formula_units_Z 52
_cell_length_a 13.297184
_cell_length_b 22.565064
_cell_length_c 10.265383
_cell_angle_alpha 90.000000
_cell_angle_beta 90.000000
_cell_angle_gamma 90.000000
_cell_volume 3080.146729
_symmetry_space_group_name_H-M "P B C M"
_symmetry_group_IT_number 57
_symmetry_cell_setting 'orthorhombic'
loop_
_space_group_symop_operation_xyz
x,y,z
-x,-y,1/2+z
x,1/2-y,-z
-x,1/2+y,1/2-z
-x,-y,-z
x,y,1/2-z
-x,1/2+y,z
x,1/2-y,1/2+z
loop_
_atom_site_type_symbol
_atom_site_label
_atom_site_fract_x
_atom_site_fract_y
_atom_site_fract_z
Si Si1 0.173955 0.119673 0.250000
Si Si2 0.048272 0.918117 0.750000
Si Si3 0.751384 0.821429 0.487092
Si Si4 0.542300 0.804209 0.100686
Si Si5 0.683930 0.193142 0.596303
Si Si6 0.881446 0.010204 0.750000
Si Si7 0.038186 0.198133 0.893832
Si Si8 0.135296 0.893106 0.029776
O O1 0.051449 0.124679 0.250000
O O2 0.222120 0.149677 0.375485
O O3 0.187157 0.048679 0.250000
O O4 0.111644 0.908496 0.619679
O O5 0.993978 0.982428 0.750000
O O6 0.745266 0.750000 0.500000
O O7 0.642949 0.840678 0.432947
O O8 0.850935 0.830558 0.401711
O O9 0.553437 0.783037 0.250000
O O10 0.430776 0.831123 0.089293
O O11 0.539416 0.750000 0.000000
O O12 0.692824 0.250000 0.500000
O O13 0.701985 0.208704 0.750000
O O14 0.763801 0.144460 0.551574
O O15 0.864289 0.049793 0.622836
O O16 0.022608 0.223277 0.750000
O O17 0.955461 0.148936 0.922464
O O18 0.031069 0.250000 0.000000
#
# Coordination Sequence:
#
# PCOD9438313 Si02
#       8
#     4   4   8   8   8   4   8   8
#     4  10  22  40  56  86 114 154 187 238 286 349
#     4  10  24  36  58  83 113 143 197 241 287 337
#     4  10  21  32  56  82 117 146 186 229 295 345
#     4   9  19  34  55  84 117 157 188 233 281 349
#     4  10  21  37  57  88 125 157 196 235 290 344
#     4  10  22  42  62  77 113 157 202 243 279 344
#     4  11  22  31  51  81 119 147 187 232 291 349
#     4  12  21  38  58  86 111 156 195 238 291 340
#
# _framework density 16.882314000000001
#
# number of rings (size 3 to 8) (size 9 to 14) (size 15 to 20)
#    0.462    1.231    3.077    1.385   10.769    0.000 
#    0.000    0.000    1.692    0.923    0.000    0.000 
#    0.000    0.000    0.000    0.000    0.000    0.000 
#
# Total GULP energy -289702.350903 kJ/mol
# GULP energy per Si atom -5571.199056 kJ/mol
# Density = 1.684389 g / cm^3
# Si number density = 16.882314 Si / 1000 Ang^3
#
#
#
# Elastic Constant Matrix: (Units=GPa)
#
#
# Indices 1 2 3 4 5 6 
#
# 1 124.0411 48.3423 52.3746 0.0000 0.0000 0.0000
# 2 48.3423 84.2638 59.8239 0.0000 0.0000 0.0000
# 3 52.3746 59.8239 174.0547 0.0000 0.0000 0.0000
# 4 0.0000 0.0000 0.0000 27.8203 0.0000 0.0000
# 5 0.0000 0.0000 0.0000 0.0000 25.7215 0.0000
# 6 0.0000 0.0000 0.0000 0.0000 0.0000 -0.2620
#
#
#
# Elastic Compliance Matrix: (Units=1/GPa)
#
#
# Indices 1 2 3 4 5 6 
#
# 1 0.010658 -0.005076 -0.001462 0.000000 0.000000 0.000000
# 2 -0.005076 0.018116 -0.004699 0.000000 0.000000 0.000000
# 3 -0.001462 -0.004699 0.007800 0.000000 0.000000 0.000000
# 4 0.000000 0.000000 0.000000 0.035945 0.000000 0.000000
# 5 0.000000 0.000000 0.000000 0.000000 0.038878 0.000000
# 6 0.000000 0.000000 0.000000 0.000000 0.000000 -3.816152
#
#
# Mechanical properties :
#
#
# Convention : Reuss Voigt Hill
#
# Bulk Modulus (GPa) = 70.92755 78.16014 74.54384
# Shear Modulus (GPa) = -1.35959 25.44388 12.04214
#
# Velocity S-wave (km/s) = -0.89838 3.88639 2.67366
# Velocity P-wave (km/s) = 6.40531 8.15698 7.33363
#
# Compressibility (1/GPa) = 0.01409889
#
# Stress axis : x y z
#
# Youngs Moduli (GPa) = 93.83007 55.20033 128.19783
#
# Poissons Ratio (x) = 0.28020 0.18746
# Poissons Ratio (y) = 0.47629 0.60241
# Poissons Ratio (z) = 0.13720 0.25939
#
# Static dielectric constant tensor:
#      x y z
#    x 1.613420 0.000000 0.000000 
#    y 0.000000 1.547810 0.000000 
#    z 0.000000 0.000000 1.594960 
# 
# From -- ./inp_files/5086.got.cif
#   From: 2010.05.17/outbox.cif.g08.bks.cpg/sg57_3_cif.got.tgz:5086.got - 2010.06.03 13:58:18.
