data_PCOD9438767
_publ_section_title
;
Structure prediction by ZEFSAII (Michael W. Deem and Ramdas Pophale) SiO2 
 PCOD9438767
Probable space group: P B C M
;
_chemical_formula_sum "Si O2"
_cell_formula_units_Z 40
_cell_length_a 16.866830
_cell_length_b 9.447171
_cell_length_c 10.827894
_cell_angle_alpha 90.000000
_cell_angle_beta 90.000000
_cell_angle_gamma 90.000000
_cell_volume 1725.358071
_symmetry_space_group_name_H-M "P B C M"
_symmetry_group_IT_number 57
_symmetry_cell_setting 'orthorhombic'
loop_
_space_group_symop_operation_xyz
x,y,z
-x,-y,1/2+z
x,1/2-y,-z
-x,1/2+y,1/2-z
-x,-y,-z
x,y,1/2-z
-x,1/2+y,z
x,1/2-y,1/2+z
loop_
_atom_site_type_symbol
_atom_site_label
_atom_site_fract_x
_atom_site_fract_y
_atom_site_fract_z
Si Si1 0.456816 0.147697 0.883415
Si Si2 0.877405 0.913175 0.461053
Si Si3 0.950894 0.359550 0.114230
Si Si4 0.706734 0.915236 0.463625
Si Si5 0.365783 0.861776 0.112210
O O1 0.455099 0.223478 0.750000
O O2 0.375298 0.060236 0.890171
O O3 0.543628 0.077702 0.889284
O O4 0.456090 0.250000 0.000000
O O5 0.873230 0.750000 0.500000
O O6 0.791809 0.949838 0.404856
O O7 0.959441 0.921887 0.386649
O O8 0.892718 0.012754 0.579087
O O9 0.934850 0.299062 0.250000
O O10 0.945052 0.250000 0.000000
O O11 0.707641 0.750000 0.500000
O O12 0.694346 0.012084 0.583568
O O13 0.353330 0.802369 0.250000
O O14 0.358303 0.750000 0.000000
#
# Coordination Sequence:
#
# PCOD9438767 Si02
#       5
#     8   8   8   8   8
#     4   9  19  36  59  88 123 165 211 258 310 370
#     4   9  21  39  61  89 123 162 205 254 308 367
#     4  10  22  42  67  95 127 165 208 255 311 378
#     4  10  21  38  60  89 122 161 208 258 311 364
#     4  10  22  41  64  90 125 169 214 260 312 372
#
# _framework density 23.183592999999998
#
# number of rings (size 3 to 8) (size 9 to 14) (size 15 to 20)
#    0.000    2.400    0.000    0.600    0.000   13.600 
#    0.000   16.000    0.000    0.000    0.000    0.000 
#    0.000    0.000    0.000    0.000    0.000    0.000 
#
# Total GULP energy -222897.301011 kJ/mol
# GULP energy per Si atom -5572.432525 kJ/mol
# Density = 2.313083 g / cm^3
# Si number density = 23.183593 Si / 1000 Ang^3
#
#
#
# Elastic Constant Matrix: (Units=GPa)
#
#
# Indices 1 2 3 4 5 6 
#
# 1 130.5635 46.4798 27.2996 0.0000 0.0000 0.0000
# 2 46.4798 78.9671 51.1493 0.0000 0.0000 0.0000
# 3 27.2996 51.1493 178.1292 0.0000 0.0000 0.0000
# 4 0.0000 0.0000 0.0000 23.8636 0.0000 0.0000
# 5 0.0000 0.0000 0.0000 0.0000 -5.7331 0.0000
# 6 0.0000 0.0000 0.0000 0.0000 0.0000 45.5624
#
#
#
# Elastic Compliance Matrix: (Units=1/GPa)
#
#
# Indices 1 2 3 4 5 6 
#
# 1 0.009694 -0.005828 0.000188 0.000000 0.000000 0.000000
# 2 -0.005828 0.019060 -0.004580 0.000000 0.000000 0.000000
# 3 0.000188 -0.004580 0.006900 0.000000 0.000000 0.000000
# 4 0.000000 0.000000 0.000000 0.041905 0.000000 0.000000
# 5 0.000000 0.000000 0.000000 0.000000 -0.174425 0.000000
# 6 0.000000 0.000000 0.000000 0.000000 0.000000 0.021948
#
#
# Mechanical properties :
#
#
# Convention : Reuss Voigt Hill
#
# Bulk Modulus (GPa) = 65.72462 70.83524 68.27993
# Shear Modulus (GPa) = -101.20391 30.25397 -35.47497
#
# Velocity S-wave (km/s) = -6.61423 3.61636 -3.91599
# Velocity P-wave (km/s) = 5.46987 6.93237 3.01150
#
# Compressibility (1/GPa) = 0.01521500
#
# Stress axis : x y z
#
# Youngs Moduli (GPa) = 103.15130 52.46525 144.92208
#
# Poissons Ratio (x) = 0.30575 -0.02720
# Poissons Ratio (y) = 0.60113 0.66374
# Poissons Ratio (z) = -0.01936 0.24029
#
# Static dielectric constant tensor:
#      x y z
#    x 1.917100 0.000000 0.000000 
#    y 0.000000 1.877060 0.000000 
#    z 0.000000 0.000000 1.898830 
# 
# From -- ./inp_files/14025.got.cif
#   From: 2010.05.17/outbox.cif.g08.bks.cpg/sg57_8_cif.got.tgz:14025.got - 2010.06.03 13:58:18.
