data_PCOD9438001
_publ_section_title
;
Structure prediction by ZEFSAII (Michael W. Deem and Ramdas Pophale) SiO2 
 PCOD9438001
Probable space group: P B C M
;
_chemical_formula_sum "Si O2"
_cell_formula_units_Z 56
_cell_length_a 15.404947
_cell_length_b 21.281023
_cell_length_c 8.572471
_cell_angle_alpha 90.000000
_cell_angle_beta 90.000000
_cell_angle_gamma 90.000000
_cell_volume 2810.339155
_symmetry_space_group_name_H-M "P B C M"
_symmetry_group_IT_number 57
_symmetry_cell_setting 'orthorhombic'
loop_
_space_group_symop_operation_xyz
x,y,z
-x,-y,1/2+z
x,1/2-y,-z
-x,1/2+y,1/2-z
-x,-y,-z
x,y,1/2-z
-x,1/2+y,z
x,1/2-y,1/2+z
loop_
_atom_site_type_symbol
_atom_site_label
_atom_site_fract_x
_atom_site_fract_y
_atom_site_fract_z
Si Si1 0.730385 0.515676 0.430930
Si Si2 0.060802 0.317869 0.561461
Si Si3 0.137227 0.686346 0.064478
Si Si4 0.548944 0.184009 0.564155
Si Si5 0.702193 0.110865 0.065696
Si Si6 0.917350 0.541789 0.563880
Si Si7 0.558152 0.942043 0.435505
O O1 0.746632 0.527399 0.250000
O O2 0.683986 0.448736 0.459805
O O3 0.822622 0.514481 0.518758
O O4 0.655855 0.560823 0.497234
O O5 0.096447 0.250000 0.500000
O O6 0.065880 0.317250 0.750000
O O7 0.090205 0.386367 0.501335
O O8 0.960228 0.318923 0.505822
O O9 0.132939 0.690527 0.250000
O O10 0.199849 0.630071 0.026051
O O11 0.176538 0.750000 0.000000
O O12 0.514820 0.250000 0.500000
O O13 0.562226 0.187843 0.750000
O O14 0.638559 0.167152 0.477549
O O15 0.488440 0.124052 0.530703
O O16 0.695132 0.096292 0.250000
O O17 0.926930 0.543214 0.750000
O O18 0.000000 0.500000 0.500000
O O19 0.563763 0.950725 0.250000
O O20 0.500000 0.000000 0.500000
#
# Coordination Sequence:
#
# PCOD9438001 Si02
#       7
#     8   8   8   8   8   8   8
#     4  12  25  41  64  94 125 165 215 265 325 392
#     4  10  20  38  61  87 122 166 216 268 327 389
#     4   9  19  32  50  78 113 155 199 247 305 373
#     4  11  24  40  61  91 127 167 212 263 323 385
#     4  11  21  35  57  86 123 163 206 259 318 383
#     4  12  25  43  66  96 132 171 219 277 334 390
#     4  11  23  42  67  94 126 167 215 264 317 379
#
# _framework density 19.926418999999999
#
# number of rings (size 3 to 8) (size 9 to 14) (size 15 to 20)
#    0.000    1.143    1.429    5.571    0.000    5.714 
#    0.000    0.714    0.000    1.714    0.000    0.000 
#    0.000    0.000    0.000    0.000    0.000    0.000 
#
# Total GULP energy -312438.819741 kJ/mol
# GULP energy per Si atom -5579.264638 kJ/mol
# Density = 1.988107 g / cm^3
# Si number density = 19.926419 Si / 1000 Ang^3
#
#
#
# Elastic Constant Matrix: (Units=GPa)
#
#
# Indices 1 2 3 4 5 6 
#
# 1 76.9584 29.5290 21.7062 0.0000 0.0000 0.0000
# 2 29.5290 127.5833 42.8753 0.0000 0.0000 0.0000
# 3 21.7062 42.8753 74.6079 0.0000 0.0000 0.0000
# 4 0.0000 0.0000 0.0000 35.3415 0.0000 0.0000
# 5 0.0000 0.0000 0.0000 0.0000 25.0418 0.0000
# 6 0.0000 0.0000 0.0000 0.0000 0.0000 32.3372
#
#
#
# Elastic Compliance Matrix: (Units=1/GPa)
#
#
# Indices 1 2 3 4 5 6 
#
# 1 0.014745 -0.002443 -0.002886 0.000000 0.000000 0.000000
# 2 -0.002443 0.010119 -0.005104 0.000000 0.000000 0.000000
# 3 -0.002886 -0.005104 0.017176 0.000000 0.000000 0.000000
# 4 0.000000 0.000000 0.000000 0.028295 0.000000 0.000000
# 5 0.000000 0.000000 0.000000 0.000000 0.039933 0.000000
# 6 0.000000 0.000000 0.000000 0.000000 0.000000 0.030924
#
#
# Mechanical properties :
#
#
# Convention : Reuss Voigt Hill
#
# Bulk Modulus (GPa) = 47.22779 51.93008 49.57894
# Shear Modulus (GPa) = 29.56518 30.88003 30.22261
#
# Velocity S-wave (km/s) = 3.85608 3.94090 3.89872
# Velocity P-wave (km/s) = 6.60139 6.84288 6.72322
#
# Compressibility (1/GPa) = 0.02117397
#
# Stress axis : x y z
#
# Youngs Moduli (GPa) = 67.81775 98.82642 58.21953
#
# Poissons Ratio (x) = 0.24142 0.16803
# Poissons Ratio (y) = 0.16567 0.29717
# Poissons Ratio (z) = 0.19573 0.50444
#
# Static dielectric constant tensor:
#      x y z
#    x 1.735200 0.000000 0.000000 
#    y 0.000000 1.789340 0.000000 
#    z 0.000000 0.000000 1.674460 
# 
# From -- ./inp_files/5270.got.cif
#   From: 2010.05.17/outbox.cif.g08.bks.cpg/sg57_3_cif.got.tgz:5270.got - 2010.06.03 13:58:18.
