data_PCOD9438021
_publ_section_title
;
Structure prediction by ZEFSAII (Michael W. Deem and Ramdas Pophale) SiO2 
 PCOD9438021
Probable space group: P B C M
;
_chemical_formula_sum "Si O2"
_cell_formula_units_Z 48
_cell_length_a 10.222646
_cell_length_b 29.297394
_cell_length_c 8.684992
_cell_angle_alpha 90.000000
_cell_angle_beta 90.000000
_cell_angle_gamma 90.000000
_cell_volume 2601.128073
_symmetry_space_group_name_H-M "P B C M"
_symmetry_group_IT_number 57
_symmetry_cell_setting 'orthorhombic'
loop_
_space_group_symop_operation_xyz
x,y,z
-x,-y,1/2+z
x,1/2-y,-z
-x,1/2+y,1/2-z
-x,-y,-z
x,y,1/2-z
-x,1/2+y,z
x,1/2-y,1/2+z
loop_
_atom_site_type_symbol
_atom_site_label
_atom_site_fract_x
_atom_site_fract_y
_atom_site_fract_z
Si Si1 0.771736 0.800452 0.566930
Si Si2 0.491188 0.698916 0.935396
Si Si3 0.117819 0.029668 0.933169
Si Si4 0.283550 0.878149 0.437416
Si Si5 0.981748 0.631520 0.565532
Si Si6 0.366456 0.979964 0.434440
O O1 0.792471 0.750000 0.500000
O O2 0.758500 0.798462 0.750000
O O3 0.633659 0.816721 0.495057
O O4 0.892578 0.831570 0.517805
O O5 0.493942 0.701163 0.750000
O O6 0.380400 0.662711 0.983846
O O7 0.468052 0.750000 0.000000
O O8 0.127131 0.023028 0.750000
O O9 0.082834 0.082226 0.961722
O O10 0.249336 0.012449 0.011750
O O11 0.000000 0.000000 0.000000
O O12 0.282566 0.878978 0.250000
O O13 0.334534 0.928052 0.487433
O O14 0.133348 0.870033 0.485402
O O15 0.979908 0.640051 0.750000
O O16 0.372639 0.979121 0.250000
O O17 0.500000 0.000000 0.500000
#
# Coordination Sequence:
#
# PCOD9438021 Si02
#       6
#     8   8   8   8   8   8
#     4  11  23  40  61  89 119 152 195 243 293 351
#     4  10  20  38  62  86 115 153 193 238 294 353
#     4  11  22  39  63  88 121 163 201 247 301 355
#     4   9  20  39  61  84 117 157 195 237 296 355
#     4  10  21  40  62  86 118 159 197 239 297 356
#     4  11  23  41  60  88 122 160 205 250 300 357
#
# _framework density 18.453534000000001
#
# number of rings (size 3 to 8) (size 9 to 14) (size 15 to 20)
#    0.000    1.667    1.667    4.000    2.333    2.000 
#    0.000    5.833    0.000    0.000    0.000    0.000 
#    0.000    0.000    0.000    0.000    0.000    0.000 
#
# Total GULP energy -268154.009130 kJ/mol
# GULP energy per Si atom -5586.541857 kJ/mol
# Density = 1.841153 g / cm^3
# Si number density = 18.453534 Si / 1000 Ang^3
#
#
#
# Elastic Constant Matrix: (Units=GPa)
#
#
# Indices 1 2 3 4 5 6 
#
# 1 198.2654 95.7181 59.5354 0.0000 0.0000 0.0000
# 2 95.7181 93.3095 56.8876 0.0000 0.0000 0.0000
# 3 59.5354 56.8876 65.9881 0.0000 0.0000 0.0000
# 4 0.0000 0.0000 0.0000 30.8362 0.0000 0.0000
# 5 0.0000 0.0000 0.0000 0.0000 34.2571 0.0000
# 6 0.0000 0.0000 0.0000 0.0000 0.0000 39.7346
#
#
#
# Elastic Compliance Matrix: (Units=1/GPa)
#
#
# Indices 1 2 3 4 5 6 
#
# 1 0.009997 -0.010025 -0.000377 0.000000 0.000000 0.000000
# 2 -0.010025 0.032644 -0.019097 0.000000 0.000000 0.000000
# 3 -0.000377 -0.019097 0.031957 0.000000 0.000000 0.000000
# 4 0.000000 0.000000 0.000000 0.032429 0.000000 0.000000
# 5 0.000000 0.000000 0.000000 0.000000 0.029191 0.000000
# 6 0.000000 0.000000 0.000000 0.000000 0.000000 0.025167
#
#
# Mechanical properties :
#
#
# Convention : Reuss Voigt Hill
#
# Bulk Modulus (GPa) = 64.10131 86.87170 75.48651
# Shear Modulus (GPa) = 22.16478 30.66036 26.41257
#
# Velocity S-wave (km/s) = 3.46947 4.08056 3.78736
# Velocity P-wave (km/s) = 7.13173 8.32943 7.75374
#
# Compressibility (1/GPa) = 0.01560030
#
# Stress axis : x y z
#
# Youngs Moduli (GPa) = 100.03216 30.63366 31.29175
#
# Poissons Ratio (x) = 0.30711 0.01178
# Poissons Ratio (y) = 1.00285 0.59758
# Poissons Ratio (z) = 0.03767 0.58501
#
# Static dielectric constant tensor:
#      x y z
#    x 1.605570 0.000000 0.000000 
#    y 0.000000 1.623720 0.000000 
#    z 0.000000 0.000000 1.626010 
# 
# From -- ./inp_files/2124.got.cif
#   From: 2010.05.17/outbox.cif.g08.bks.cpg/sg57_2_cif.got.tgz:2124.got - 2010.06.03 13:58:18.
