data_PCOD9438053
_publ_section_title
;
Structure prediction by ZEFSAII (Michael W. Deem and Ramdas Pophale) SiO2 
 PCOD9438053
Probable space group: P B C M
;
_chemical_formula_sum "Si O2"
_cell_formula_units_Z 64
_cell_length_a 15.352742
_cell_length_b 23.887522
_cell_length_c 7.980307
_cell_angle_alpha 90.000000
_cell_angle_beta 90.000000
_cell_angle_gamma 90.000000
_cell_volume 2926.689508
_symmetry_space_group_name_H-M "P B C M"
_symmetry_group_IT_number 57
_symmetry_cell_setting 'orthorhombic'
loop_
_space_group_symop_operation_xyz
x,y,z
-x,-y,1/2+z
x,1/2-y,-z
-x,1/2+y,1/2-z
-x,-y,-z
x,y,1/2-z
-x,1/2+y,z
x,1/2-y,1/2+z
loop_
_atom_site_type_symbol
_atom_site_label
_atom_site_fract_x
_atom_site_fract_y
_atom_site_fract_z
Si Si1 0.085603 0.365625 0.050615
Si Si2 0.406595 0.397605 0.051799
Si Si3 0.664029 0.489574 0.950791
Si Si4 0.261281 0.313211 0.555583
Si Si5 0.293605 0.868953 0.951379
Si Si6 0.456903 0.689490 0.551257
Si Si7 0.901880 0.388075 0.953079
Si Si8 0.868562 0.511727 0.549899
O O1 0.099888 0.365679 0.250000
O O2 0.100568 0.428892 0.981425
O O3 0.159441 0.326300 0.974401
O O4 0.984828 0.353593 0.013937
O O5 0.422676 0.404810 0.250000
O O6 0.393561 0.459783 0.979063
O O7 0.483402 0.359898 0.977478
O O8 0.319131 0.360285 0.035687
O O9 0.648608 0.486502 0.750000
O O10 0.661839 0.426483 0.018225
O O11 0.764733 0.507572 0.972404
O O12 0.280983 0.250000 0.500000
O O13 0.281666 0.318642 0.750000
O O14 0.289846 0.873529 0.750000
O O15 0.193351 0.866488 0.008068
O O16 0.357595 0.819355 0.997332
O O17 0.490533 0.750000 0.500000
O O18 0.461296 0.686297 0.750000
O O19 0.902799 0.388926 0.750000
O O20 0.907468 0.453093 0.014582
O O21 0.885169 0.512296 0.750000
#
# Coordination Sequence:
#
# PCOD9438053 Si02
#       8
#     8   8   8   8   8   8   8   8
#     4  11  20  33  55  82 114 154 192 234 283 335
#     4  10  20  38  63  89 118 151 188 232 287 350
#     4   8  14  30  57  86 118 156 188 221 280 348
#     4  12  25  40  58  82 114 153 195 243 290 345
#     4   9  19  37  61  85 117 157 193 236 288 344
#     4  11  24  40  61  86 113 148 194 246 292 344
#     4   9  18  33  54  83 115 151 193 234 280 335
#     4   8  14  27  51  80 114 153 188 223 270 331
#
# _framework density 21.867712000000001
#
# number of rings (size 3 to 8) (size 9 to 14) (size 15 to 20)
#    0.000    2.250    1.250    4.125    0.000    3.000 
#    0.000    1.875    0.000    3.000    0.000    0.000 
#    0.000    0.000    0.000    0.000    0.000    0.000 
#
# Total GULP energy -357295.106879 kJ/mol
# GULP energy per Si atom -5582.736045 kJ/mol
# Density = 2.181794 g / cm^3
# Si number density = 21.867712 Si / 1000 Ang^3
#
#
#
# Elastic Constant Matrix: (Units=GPa)
#
#
# Indices 1 2 3 4 5 6 
#
# 1 63.3329 26.9340 -4.6169 0.0000 0.0000 0.0000
# 2 26.9340 34.2126 -7.3549 0.0000 0.0000 0.0000
# 3 -4.6169 -7.3549 24.8070 0.0000 0.0000 0.0000
# 4 0.0000 0.0000 0.0000 10.6981 0.0000 0.0000
# 5 0.0000 0.0000 0.0000 0.0000 16.5290 0.0000
# 6 0.0000 0.0000 0.0000 0.0000 0.0000 25.0726
#
#
#
# Elastic Compliance Matrix: (Units=1/GPa)
#
#
# Indices 1 2 3 4 5 6 
#
# 1 0.023770 -0.018971 -0.001201 0.000000 0.000000 0.000000
# 2 -0.018971 0.046360 0.010214 0.000000 0.000000 0.000000
# 3 -0.001201 0.010214 0.043116 0.000000 0.000000 0.000000
# 4 0.000000 0.000000 0.000000 0.093475 0.000000 0.000000
# 5 0.000000 0.000000 0.000000 0.000000 0.060500 0.000000
# 6 0.000000 0.000000 0.000000 0.000000 0.000000 0.039884
#
#
# Mechanical properties :
#
#
# Convention : Reuss Voigt Hill
#
# Bulk Modulus (GPa) = 10.71460 16.91966 13.81713
# Shear Modulus (GPa) = 13.96139 17.61927 15.79033
#
# Velocity S-wave (km/s) = 2.52949 2.84160 2.69008
# Velocity P-wave (km/s) = 3.66626 4.30353 3.99761
#
# Compressibility (1/GPa) = 0.09333057
#
# Stress axis : x y z
#
# Youngs Moduli (GPa) = 42.06972 21.57035 23.19320
#
# Poissons Ratio (x) = 0.40922 0.02785
# Poissons Ratio (y) = 0.79811 -0.23690
# Poissons Ratio (z) = 0.05051 -0.22032
#
# Static dielectric constant tensor:
#      x y z
#    x 1.819190 0.000000 0.000000 
#    y 0.000000 1.807710 0.000000 
#    z 0.000000 0.000000 1.797700 
# 
# From -- ./inp_files/5675.got.cif
#   From: 2010.05.17/outbox.cif.g08.bks.cpg/sg57_3_cif.got.tgz:5675.got - 2010.06.03 13:58:18.
