data_PCOD9438553
_publ_section_title
;
Structure prediction by ZEFSAII (Michael W. Deem and Ramdas Pophale) SiO2 
 PCOD9438553
Probable space group: P B C M
;
_chemical_formula_sum "Si O2"
_cell_formula_units_Z 48
_cell_length_a 31.402018
_cell_length_b 9.202526
_cell_length_c 8.868536
_cell_angle_alpha 90.000000
_cell_angle_beta 90.000000
_cell_angle_gamma 90.000000
_cell_volume 2562.810795
_symmetry_space_group_name_H-M "P B C M"
_symmetry_group_IT_number 57
_symmetry_cell_setting 'orthorhombic'
loop_
_space_group_symop_operation_xyz
x,y,z
-x,-y,1/2+z
x,1/2-y,-z
-x,1/2+y,1/2-z
-x,-y,-z
x,y,1/2-z
-x,1/2+y,z
x,1/2-y,1/2+z
loop_
_atom_site_type_symbol
_atom_site_label
_atom_site_fract_x
_atom_site_fract_y
_atom_site_fract_z
Si Si1 0.711219 0.408909 0.930245
Si Si2 0.796721 0.589481 0.930419
Si Si3 0.874686 0.089768 0.930254
Si Si4 0.538192 0.909549 0.570086
Si Si5 0.634345 0.588482 0.430579
Si Si6 0.039051 0.410557 0.569775
O O1 0.706944 0.397627 0.750000
O O2 0.752152 0.509247 0.963457
O O3 0.717399 0.250000 0.000000
O O4 0.669620 0.484360 0.999470
O O5 0.801689 0.598683 0.750000
O O6 0.797041 0.750000 0.000000
O O7 0.834818 0.494831 0.999373
O O8 0.869519 0.100894 0.750000
O O9 0.917398 0.997796 0.961356
O O10 0.878066 0.250000 0.000000
O O11 0.536195 0.750000 0.500000
O O12 0.533610 0.902865 0.750000
O O13 0.586126 0.965014 0.536944
O O14 0.500000 0.000000 0.500000
O O15 0.638825 0.750000 0.500000
O O16 0.639372 0.597584 0.250000
O O17 0.040875 0.250000 0.500000
O O18 0.033810 0.399797 0.750000
O O19 0.000000 0.500000 0.500000
#
# Coordination Sequence:
#
# PCOD9438553 Si02
#       6
#     8   8   8   8   8   8
#     4  11  24  40  60  87 118 153 193 239 290 344
#     4  11  24  41  63  90 120 156 197 241 291 348
#     4  11  24  41  63  91 123 159 199 245 296 350
#     4  10  21  37  58  84 114 150 191 236 287 343
#     4  10  21  38  60  85 114 150 192 237 287 344
#     4  11  24  41  63  91 123 160 202 248 298 353
#
# _framework density 18.729434000000001
#
# number of rings (size 3 to 8) (size 9 to 14) (size 15 to 20)
#    0.000    1.333    0.000    5.000    0.000   13.333 
#    0.000    0.000    0.000    0.000    0.000    0.000 
#    0.000    0.000    0.000    0.000    0.000    0.000 
#
# Total GULP energy -268464.691886 kJ/mol
# GULP energy per Si atom -5593.014414 kJ/mol
# Density = 1.868681 g / cm^3
# Si number density = 18.729434 Si / 1000 Ang^3
#
#
#
# Elastic Constant Matrix: (Units=GPa)
#
#
# Indices 1 2 3 4 5 6 
#
# 1 188.9760 112.6196 110.4148 0.0000 0.0000 0.0000
# 2 112.6196 175.9847 86.2017 0.0000 0.0000 0.0000
# 3 110.4148 86.2017 100.7625 0.0000 0.0000 0.0000
# 4 0.0000 0.0000 0.0000 42.1125 0.0000 0.0000
# 5 0.0000 0.0000 0.0000 0.0000 32.7187 0.0000
# 6 0.0000 0.0000 0.0000 0.0000 0.0000 39.2518
#
#
#
# Elastic Compliance Matrix: (Units=1/GPa)
#
#
# Indices 1 2 3 4 5 6 
#
# 1 0.015442 -0.002743 -0.014575 0.000000 0.000000 0.000000
# 2 -0.002743 0.010268 -0.005779 0.000000 0.000000 0.000000
# 3 -0.014575 -0.005779 0.030839 0.000000 0.000000 0.000000
# 4 0.000000 0.000000 0.000000 0.023746 0.000000 0.000000
# 5 0.000000 0.000000 0.000000 0.000000 0.030564 0.000000
# 6 0.000000 0.000000 0.000000 0.000000 0.000000 0.025477
#
#
# Mechanical properties :
#
#
# Convention : Reuss Voigt Hill
#
# Bulk Modulus (GPa) = 96.55875 120.46616 108.51246
# Shear Modulus (GPa) = 26.88466 33.24908 30.06687
#
# Velocity S-wave (km/s) = 3.79281 4.21792 4.01100
# Velocity P-wave (km/s) = 8.41707 9.39042 8.91703
#
# Compressibility (1/GPa) = 0.01035639
#
# Stress axis : x y z
#
# Youngs Moduli (GPa) = 64.75843 97.38854 32.42666
#
# Poissons Ratio (x) = 0.26713 0.47261
# Poissons Ratio (y) = 0.17763 0.18738
# Poissons Ratio (z) = 0.94384 0.56278
#
# Static dielectric constant tensor:
#      x y z
#    x 1.634320 0.000000 0.000000 
#    y 0.000000 1.600490 0.000000 
#    z 0.000000 0.000000 1.623500 
# 
# From -- ./inp_files/9998.got.cif
#   From: 2010.05.17/outbox.cif.g08.bks.cpg/sg57_5_cif.got.tgz:9998.got - 2010.06.03 13:58:18.
