data_PCOD9438345
_publ_section_title
;
Structure prediction by ZEFSAII (Michael W. Deem and Ramdas Pophale) SiO2 
 PCOD9438345
Probable space group: P B C M
;
_chemical_formula_sum "Si O2"
_cell_formula_units_Z 64
_cell_length_a 22.361070
_cell_length_b 20.077402
_cell_length_c 8.791613
_cell_angle_alpha 90.000000
_cell_angle_beta 90.000000
_cell_angle_gamma 90.000000
_cell_volume 3947.013924
_symmetry_space_group_name_H-M "P B C M"
_symmetry_group_IT_number 57
_symmetry_cell_setting 'orthorhombic'
loop_
_space_group_symop_operation_xyz
x,y,z
-x,-y,1/2+z
x,1/2-y,-z
-x,1/2+y,1/2-z
-x,-y,-z
x,y,1/2-z
-x,1/2+y,z
x,1/2-y,1/2+z
loop_
_atom_site_type_symbol
_atom_site_label
_atom_site_fract_x
_atom_site_fract_y
_atom_site_fract_z
Si Si1 0.671199 0.540411 0.932596
Si Si2 0.976027 0.595065 0.432712
Si Si3 0.135220 0.321655 0.568453
Si Si4 0.199884 0.460063 0.568532
Si Si5 0.441429 0.963558 0.433120
Si Si6 0.379796 0.318679 0.432380
Si Si7 0.092177 0.529819 0.071206
Si Si8 0.518854 0.180908 0.567532
O O1 0.668527 0.536013 0.750000
O O2 0.656392 0.616499 0.978747
O O3 0.736913 0.525151 0.992437
O O4 0.618635 0.495857 0.002518
O O5 0.968973 0.919204 0.750000
O O6 0.046939 0.590945 0.463961
O O7 0.934309 0.658637 0.464509
O O8 0.946523 0.535801 0.529595
O O9 0.151092 0.250000 0.500000
O O10 0.141636 0.317172 0.750000
O O11 0.173913 0.386853 0.519151
O O12 0.205450 0.458033 0.750000
O O13 0.152198 0.516648 0.521808
O O14 0.443092 0.968814 0.250000
O O15 0.446642 0.885785 0.476128
O O16 0.500000 0.000000 0.500000
O O17 0.356389 0.250000 0.500000
O O18 0.379233 0.314490 0.250000
O O19 0.449218 0.326744 0.481064
O O20 0.105787 0.531075 0.250000
O O21 0.541774 0.250000 0.500000
O O22 0.519082 0.185495 0.750000
#
# Coordination Sequence:
#
# PCOD9438345 Si02
#       8
#     8   8   8   8   8   8   8   8
#     4  11  22  36  51  72  99 130 173 215 256 309
#     4   8  15  27  43  66  94 121 152 193 237 278
#     4   9  18  31  46  66  97 133 168 202 236 281
#     4  10  21  35  47  65  95 130 166 204 248 294
#     4  11  21  35  54  77 104 132 165 209 261 310
#     4   9  18  32  47  67  95 126 163 204 243 295
#     4   9  15  26  46  68  89 117 153 194 239 281
#     4   9  18  33  51  74 100 126 158 197 245 301
#
# _framework density 16.214790000000001
#
# number of rings (size 3 to 8) (size 9 to 14) (size 15 to 20)
#    0.000    2.500    1.250    2.250    0.000    5.500 
#    0.000    2.500    0.000    0.000    0.000    0.875 
#    0.000    4.000    0.000    0.000    0.000    0.000 
#
# Total GULP energy -356477.513576 kJ/mol
# GULP energy per Si atom -5569.961150 kJ/mol
# Density = 1.617788 g / cm^3
# Si number density = 16.214790 Si / 1000 Ang^3
#
#
#
# Elastic Constant Matrix: (Units=GPa)
#
#
# Indices 1 2 3 4 5 6 
#
# 1 105.0316 42.2810 30.8616 0.0000 0.0000 0.0000
# 2 42.2810 57.4981 22.6812 0.0000 0.0000 0.0000
# 3 30.8616 22.6812 31.8774 0.0000 0.0000 0.0000
# 4 0.0000 0.0000 0.0000 23.2617 0.0000 0.0000
# 5 0.0000 0.0000 0.0000 0.0000 23.5395 0.0000
# 6 0.0000 0.0000 0.0000 0.0000 0.0000 16.1523
#
#
#
# Elastic Compliance Matrix: (Units=1/GPa)
#
#
# Indices 1 2 3 4 5 6 
#
# 1 0.015345 -0.007540 -0.009491 0.000000 0.000000 0.000000
# 2 -0.007540 0.027883 -0.012539 0.000000 0.000000 0.000000
# 3 -0.009491 -0.012539 0.049481 0.000000 0.000000 0.000000
# 4 0.000000 0.000000 0.000000 0.042989 0.000000 0.000000
# 5 0.000000 0.000000 0.000000 0.000000 0.042482 0.000000
# 6 0.000000 0.000000 0.000000 0.000000 0.000000 0.061911
#
#
# Mechanical properties :
#
#
# Convention : Reuss Voigt Hill
#
# Bulk Modulus (GPa) = 29.79058 42.89495 36.34277
# Shear Modulus (GPa) = 16.10719 19.16291 17.63505
#
# Velocity S-wave (km/s) = 3.15519 3.44149 3.30144
# Velocity P-wave (km/s) = 5.62903 6.50411 6.08233
#
# Compressibility (1/GPa) = 0.03356765
#
# Stress axis : x y z
#
# Youngs Moduli (GPa) = 65.16787 35.86457 20.20982
#
# Poissons Ratio (x) = 0.27041 0.19182
# Poissons Ratio (y) = 0.49136 0.25342
# Poissons Ratio (z) = 0.61853 0.44972
#
# Static dielectric constant tensor:
#      x y z
#    x 1.566740 0.000000 0.000000 
#    y 0.000000 1.541080 0.000000 
#    z 0.000000 0.000000 1.545670 
# 
# From -- ./inp_files/7179.got.cif
#   From: 2010.05.17/outbox.cif.g08.bks.cpg/sg57_4_cif.got.tgz:7179.got - 2010.06.03 13:58:18.
