data_PCOD9438916
_publ_section_title
;
Structure prediction by ZEFSAII (Michael W. Deem and Ramdas Pophale) SiO2 
 PCOD9438916
Probable space group: P B C M
;
_chemical_formula_sum "Si O2"
_cell_formula_units_Z 48
_cell_length_a 5.183816
_cell_length_b 23.620539
_cell_length_c 17.313804
_cell_angle_alpha 90.000000
_cell_angle_beta 90.000000
_cell_angle_gamma 90.000000
_cell_volume 2119.980559
_symmetry_space_group_name_H-M "P B C M"
_symmetry_group_IT_number 57
_symmetry_cell_setting 'orthorhombic'
loop_
_space_group_symop_operation_xyz
x,y,z
-x,-y,1/2+z
x,1/2-y,-z
-x,1/2+y,1/2-z
-x,-y,-z
x,y,1/2-z
-x,1/2+y,z
x,1/2-y,1/2+z
loop_
_atom_site_type_symbol
_atom_site_label
_atom_site_fract_x
_atom_site_fract_y
_atom_site_fract_z
Si Si1 0.198413 0.008221 0.929913
Si Si2 0.460505 0.088360 0.045539
Si Si3 0.108230 0.139626 0.163514
Si Si4 0.037002 0.387776 0.340746
Si Si5 0.613738 0.282244 0.837799
Si Si6 0.460811 0.833672 0.416498
O O1 0.080181 0.046373 0.862803
O O2 0.332957 0.949209 0.908382
O O3 0.406725 0.050206 0.969837
O O4 0.000000 0.000000 0.000000
O O5 0.208316 0.097365 0.097493
O O6 0.542137 0.147168 0.005925
O O7 0.092245 0.114361 0.250000
O O8 0.343941 0.184584 0.164216
O O9 0.846625 0.173823 0.148702
O O10 0.052100 0.379208 0.250000
O O11 0.259988 0.350388 0.381748
O O12 0.763118 0.368606 0.373760
O O13 0.656086 0.258857 0.750000
O O14 0.598596 0.231195 0.897655
#
# Coordination Sequence:
#
# PCOD9438916 Si02
#       6
#     8   8   8   8   8   8
#     4  10  21  41  61  85 125 166 201 264 315 363
#     4  10  23  40  63  89 124 165 210 253 317 372
#     4  10  23  41  63  92 126 163 204 249 304 373
#     4  11  22  37  62  94 122 160 215 260 312 377
#     4  10  21  39  61  88 124 161 201 254 309 361
#     4  11  22  39  63  90 125 166 204 261 313 371
#
# _framework density 22.641715999999999
#
# number of rings (size 3 to 8) (size 9 to 14) (size 15 to 20)
#    0.000    1.667    1.667    2.500    2.333    2.667 
#    0.000    2.500    0.000    0.000    0.000    0.000 
#    0.000    0.000    0.000    0.000    0.000    0.000 
#
# Total GULP energy -268289.428405 kJ/mol
# GULP energy per Si atom -5589.363092 kJ/mol
# Density = 2.259018 g / cm^3
# Si number density = 22.641716 Si / 1000 Ang^3
#
#
#
# Elastic Constant Matrix: (Units=GPa)
#
#
# Indices 1 2 3 4 5 6 
#
# 1 78.2913 20.2159 3.6227 0.0000 0.0000 0.0000
# 2 20.2159 75.3534 26.6186 0.0000 0.0000 0.0000
# 3 3.6227 26.6186 82.8837 0.0000 0.0000 0.0000
# 4 0.0000 0.0000 0.0000 35.5149 0.0000 0.0000
# 5 0.0000 0.0000 0.0000 0.0000 32.4403 0.0000
# 6 0.0000 0.0000 0.0000 0.0000 0.0000 29.8314
#
#
#
# Elastic Compliance Matrix: (Units=1/GPa)
#
#
# Indices 1 2 3 4 5 6 
#
# 1 0.013755 -0.003923 0.000659 0.000000 0.000000 0.000000
# 2 -0.003923 0.016088 -0.004995 0.000000 0.000000 0.000000
# 3 0.000659 -0.004995 0.013641 0.000000 0.000000 0.000000
# 4 0.000000 0.000000 0.000000 0.028157 0.000000 0.000000
# 5 0.000000 0.000000 0.000000 0.000000 0.030826 0.000000
# 6 0.000000 0.000000 0.000000 0.000000 0.000000 0.033522
#
#
# Mechanical properties :
#
#
# Convention : Reuss Voigt Hill
#
# Bulk Modulus (GPa) = 37.08565 37.49366 37.28966
# Shear Modulus (GPa) = 30.96056 31.96206 31.46131
#
# Velocity S-wave (km/s) = 3.70187 3.76126 3.73168
# Velocity P-wave (km/s) = 5.88954 5.95469 5.92220
#
# Compressibility (1/GPa) = 0.02696460
#
# Stress axis : x y z
#
# Youngs Moduli (GPa) = 72.69926 62.15874 73.31071
#
# Poissons Ratio (x) = 0.24385 -0.04829
# Poissons Ratio (y) = 0.28520 0.36621
# Poissons Ratio (z) = -0.04788 0.31050
#
# Static dielectric constant tensor:
#      x y z
#    x 1.834710 0.000000 0.000000 
#    y 0.000000 1.935450 0.000000 
#    z 0.000000 0.000000 1.834410 
# 
# From -- ./inp_files/20199.got.cif
#   From: 2010.05.17/outbox.cif.g08.bks.cpg/sg57_11_cif.got.tgz:20199.got - 2010.06.03 13:58:18.
