data_PCOD9438917
_publ_section_title
;
Structure prediction by ZEFSAII (Michael W. Deem and Ramdas Pophale) SiO2 
 PCOD9438917
Probable space group: P B C M
;
_chemical_formula_sum "Si O2"
_cell_formula_units_Z 64
_cell_length_a 26.408463
_cell_length_b 15.059745
_cell_length_c 8.635754
_cell_angle_alpha 90.000000
_cell_angle_beta 90.000000
_cell_angle_gamma 90.000000
_cell_volume 3434.480115
_symmetry_space_group_name_H-M "P B C M"
_symmetry_group_IT_number 57
_symmetry_cell_setting 'orthorhombic'
loop_
_space_group_symop_operation_xyz
x,y,z
-x,-y,1/2+z
x,1/2-y,-z
-x,1/2+y,1/2-z
-x,-y,-z
x,y,1/2-z
-x,1/2+y,z
x,1/2-y,1/2+z
loop_
_atom_site_type_symbol
_atom_site_label
_atom_site_fract_x
_atom_site_fract_y
_atom_site_fract_z
Si Si1 0.636822 0.649151 0.436564
Si Si2 0.111504 0.344254 0.065158
Si Si3 0.710034 0.000395 0.434455
Si Si4 0.891132 0.156820 0.065809
Si Si5 0.997317 0.099318 0.564828
Si Si6 0.822158 0.001576 0.933044
Si Si7 0.363606 0.850753 0.436523
Si Si8 0.556392 0.500236 0.063873
O O1 0.636276 0.750000 0.500000
O O2 0.638778 0.652788 0.250000
O O3 0.683086 0.587869 0.496752
O O4 0.587992 0.588629 0.482747
O O5 0.117998 0.351588 0.250000
O O6 0.051812 0.357972 0.031888
O O7 0.127103 0.250000 0.000000
O O8 0.145060 0.416720 0.980486
O O9 0.703999 0.000079 0.250000
O O10 0.768524 0.001287 0.481427
O O11 0.682676 0.088309 0.502781
O O12 0.887574 0.151825 0.250000
O O13 0.873281 0.250000 0.000000
O O14 0.856846 0.082390 0.988678
O O15 0.949513 0.144346 0.015841
O O16 0.989487 0.099206 0.750000
O O17 0.000000 0.000000 0.500000
O O18 0.813787 0.004962 0.750000
O O19 0.364335 0.750000 0.500000
O O20 0.361549 0.847156 0.250000
O O21 0.412306 0.911530 0.482469
O O22 0.554843 0.500427 0.250000
O O23 0.500000 0.500000 0.000000
#
# Coordination Sequence:
#
# PCOD9438917 Si02
#       8
#     8   8   8   8   8   8   8   8
#     4  10  21  39  61  89 121 159 205 251 299 354
#     4  11  24  41  62  90 121 156 197 242 292 353
#     4  11  23  41  64  89 118 154 196 247 303 358
#     4  12  25  42  63  90 122 156 199 244 294 357
#     4  11  22  38  63  90 121 158 197 240 292 352
#     4  12  25  43  65  89 120 155 195 246 302 357
#     4  10  21  39  61  89 121 159 205 250 298 353
#     4   9  20  36  56  85 125 164 204 251 297 350
#
# _framework density 18.634553
#
# number of rings (size 3 to 8) (size 9 to 14) (size 15 to 20)
#    0.000    1.250    1.250    6.000    0.000    7.000 
#    0.000    7.500    0.000    0.000    0.000    0.000 
#    0.000    0.000    0.000    0.000    0.000    0.000 
#
# Total GULP energy -357663.789944 kJ/mol
# GULP energy per Si atom -5588.496718 kJ/mol
# Density = 1.859214 g / cm^3
# Si number density = 18.634553 Si / 1000 Ang^3
#
#
#
# Elastic Constant Matrix: (Units=GPa)
#
#
# Indices 1 2 3 4 5 6 
#
# 1 103.7553 54.5993 29.8949 0.0000 0.0000 0.0000
# 2 54.5993 185.9133 47.6695 0.0000 0.0000 0.0000
# 3 29.8949 47.6695 80.8079 0.0000 0.0000 0.0000
# 4 0.0000 0.0000 0.0000 31.9171 0.0000 0.0000
# 5 0.0000 0.0000 0.0000 0.0000 38.8254 0.0000
# 6 0.0000 0.0000 0.0000 0.0000 0.0000 23.6403
#
#
#
# Elastic Compliance Matrix: (Units=1/GPa)
#
#
# Indices 1 2 3 4 5 6 
#
# 1 0.011900 -0.002788 -0.002758 0.000000 0.000000 0.000000
# 2 -0.002788 0.006990 -0.003092 0.000000 0.000000 0.000000
# 3 -0.002758 -0.003092 0.015220 0.000000 0.000000 0.000000
# 4 0.000000 0.000000 0.000000 0.031331 0.000000 0.000000
# 5 0.000000 0.000000 0.000000 0.000000 0.025756 0.000000
# 6 0.000000 0.000000 0.000000 0.000000 0.000000 0.042301
#
#
# Mechanical properties :
#
#
# Convention : Reuss Voigt Hill
#
# Bulk Modulus (GPa) = 59.40416 70.53377 64.96897
# Shear Modulus (GPa) = 31.97241 34.76407 33.36824
#
# Velocity S-wave (km/s) = 4.14667 4.32391 4.23622
# Velocity P-wave (km/s) = 7.40771 7.92852 7.67254
#
# Compressibility (1/GPa) = 0.01683384
#
# Stress axis : x y z
#
# Youngs Moduli (GPa) = 84.03659 143.05259 65.70483
#
# Poissons Ratio (x) = 0.39877 0.18120
# Poissons Ratio (y) = 0.23426 0.20319
# Poissons Ratio (z) = 0.23176 0.44239
#
# Static dielectric constant tensor:
#      x y z
#    x 1.629840 0.000000 0.000000 
#    y 0.000000 1.611540 0.000000 
#    z 0.000000 0.000000 1.627030 
# 
# From -- ./inp_files/9420.got.cif
#   From: 2010.05.17/outbox.cif.g08.bks.cpg/sg57_5_cif.got.tgz:9420.got - 2010.06.03 13:58:18.
