data_PCOD9438293
_publ_section_title
;
Structure prediction by ZEFSAII (Michael W. Deem and Ramdas Pophale) SiO2 
 PCOD9438293
Probable space group: P B C M
;
_chemical_formula_sum "Si O2"
_cell_formula_units_Z 40
_cell_length_a 16.172455
_cell_length_b 8.002939
_cell_length_c 13.593383
_cell_angle_alpha 90.000000
_cell_angle_beta 90.000000
_cell_angle_gamma 90.000000
_cell_volume 1759.353104
_symmetry_space_group_name_H-M "P B C M"
_symmetry_group_IT_number 57
_symmetry_cell_setting 'orthorhombic'
loop_
_space_group_symop_operation_xyz
x,y,z
-x,-y,1/2+z
x,1/2-y,-z
-x,1/2+y,1/2-z
-x,-y,-z
x,y,1/2-z
-x,1/2+y,z
x,1/2-y,1/2+z
loop_
_atom_site_type_symbol
_atom_site_label
_atom_site_fract_x
_atom_site_fract_y
_atom_site_fract_z
Si Si1 0.719563 0.933511 0.025076
Si Si2 0.435686 0.517312 0.365471
Si Si3 0.614970 0.098646 0.634702
Si Si4 0.109284 0.999200 0.932585
Si Si5 0.052518 0.361233 0.863130
O O1 0.793320 0.029460 0.079693
O O2 0.635738 0.907297 0.086611
O O3 0.752781 0.750000 0.000000
O O4 0.690020 0.033359 0.929644
O O5 0.437260 0.479049 0.250000
O O6 0.530098 0.493150 0.397350
O O7 0.405061 0.706412 0.380495
O O8 0.628858 0.069008 0.750000
O O9 0.084996 0.174157 0.880681
O O10 0.092006 0.026154 0.049607
O O11 0.045394 0.868033 0.887695
O O12 0.067190 0.412097 0.750000
#
# Coordination Sequence:
#
# PCOD9438293 Si02
#       5
#     8   8   8   8   8
#     4  12  23  40  61  95 131 170 204 266 316 374
#     4  10  22  41  65  93 128 169 219 263 310 378
#     4  10  22  42  65  93 127 172 215 260 317 374
#     4  10  23  42  62  96 124 159 218 259 316 392
#     4  10  20  42  67  87 121 163 204 261 322 380
#
# _framework density 22.735627999999998
#
# number of rings (size 3 to 8) (size 9 to 14) (size 15 to 20)
#    0.000    1.600    2.000    3.000    0.000    4.800 
#   14.400    0.000    0.000    0.000    0.000    0.000 
#    0.000    0.000    0.000    0.000    0.000    0.000 
#
# Total GULP energy -223710.891368 kJ/mol
# GULP energy per Si atom -5592.772284 kJ/mol
# Density = 2.268388 g / cm^3
# Si number density = 22.735628 Si / 1000 Ang^3
#
#
#
# Elastic Constant Matrix: (Units=GPa)
#
#
# Indices 1 2 3 4 5 6 
#
# 1 124.6555 15.0534 0.9203 0.0000 0.0000 0.0000
# 2 15.0534 28.4326 1.8931 0.0000 0.0000 0.0000
# 3 0.9203 1.8931 91.1492 0.0000 0.0000 0.0000
# 4 0.0000 0.0000 0.0000 20.1934 0.0000 0.0000
# 5 0.0000 0.0000 0.0000 0.0000 6.9579 0.0000
# 6 0.0000 0.0000 0.0000 0.0000 0.0000 16.5649
#
#
#
# Elastic Compliance Matrix: (Units=1/GPa)
#
#
# Indices 1 2 3 4 5 6 
#
# 1 0.008570 -0.004538 0.000008 0.000000 0.000000 0.000000
# 2 -0.004538 0.037622 -0.000736 0.000000 0.000000 0.000000
# 3 0.000008 -0.000736 0.010986 0.000000 0.000000 0.000000
# 4 0.000000 0.000000 0.000000 0.049521 0.000000 0.000000
# 5 0.000000 0.000000 0.000000 0.000000 0.143721 0.000000
# 6 0.000000 0.000000 0.000000 0.000000 0.000000 0.060369
#
#
# Mechanical properties :
#
#
# Convention : Reuss Voigt Hill
#
# Bulk Modulus (GPa) = 21.43750 31.10788 26.27269
# Shear Modulus (GPa) = 14.84253 23.83461 19.33857
#
# Velocity S-wave (km/s) = 2.55783 3.24132 2.91964
# Velocity P-wave (km/s) = 4.26296 5.26501 4.79026
#
# Compressibility (1/GPa) = 0.04664722
#
# Stress axis : x y z
#
# Youngs Moduli (GPa) = 116.68558 26.57993 91.02312
#
# Poissons Ratio (x) = 0.12062 -0.00070
# Poissons Ratio (y) = 0.52950 0.06696
# Poissons Ratio (z) = -0.00090 0.01955
#
# Static dielectric constant tensor:
#      x y z
#    x 1.861110 0.000000 0.000000 
#    y 0.000000 1.698570 0.000000 
#    z 0.000000 0.000000 1.858980 
# 
# From -- ./inp_files/18217.got.cif
#   From: 2010.05.17/outbox.cif.g08.bks.cpg/sg57_10_cif.got.tgz:18217.got - 2010.06.03 13:58:18.
