data_PCOD9438903
_publ_section_title
;
Structure prediction by ZEFSAII (Michael W. Deem and Ramdas Pophale) SiO2 
 PCOD9438903
Probable space group: P B C M
;
_chemical_formula_sum "Si O2"
_cell_formula_units_Z 56
_cell_length_a 15.885141
_cell_length_b 20.526743
_cell_length_c 8.399311
_cell_angle_alpha 90.000000
_cell_angle_beta 90.000000
_cell_angle_gamma 90.000000
_cell_volume 2738.765075
_symmetry_space_group_name_H-M "P B C M"
_symmetry_group_IT_number 57
_symmetry_cell_setting 'orthorhombic'
loop_
_space_group_symop_operation_xyz
x,y,z
-x,-y,1/2+z
x,1/2-y,-z
-x,1/2+y,1/2-z
-x,-y,-z
x,y,1/2-z
-x,1/2+y,z
x,1/2-y,1/2+z
loop_
_atom_site_type_symbol
_atom_site_label
_atom_site_fract_x
_atom_site_fract_y
_atom_site_fract_z
Si Si1 0.660016 0.582358 0.555480
Si Si2 0.517100 0.820517 0.057560
Si Si3 0.922765 0.456461 0.058696
Si Si4 0.258461 0.545910 0.439307
Si Si5 0.001513 0.678825 0.558340
Si Si6 0.676343 0.180626 0.560715
Si Si7 0.191658 0.321747 0.057922
O O1 0.659158 0.581889 0.750000
O O2 0.576890 0.620818 0.502869
O O3 0.674605 0.508243 0.502807
O O4 0.740935 0.624974 0.505068
O O5 0.517309 0.820228 0.250000
O O6 0.420508 0.826727 0.001663
O O7 0.548965 0.750000 0.000000
O O8 0.918151 0.458831 0.250000
O O9 0.941972 0.381908 0.007913
O O10 0.834507 0.477975 0.985462
O O11 0.000000 0.500000 0.000000
O O12 0.264639 0.550361 0.250000
O O13 0.273655 0.616966 0.509860
O O14 0.028226 0.750000 0.500000
O O15 0.000958 0.679815 0.750000
O O16 0.904694 0.667070 0.503905
O O17 0.709544 0.250000 0.500000
O O18 0.674512 0.183549 0.750000
O O19 0.191206 0.322181 0.250000
O O20 0.216677 0.250000 0.000000
#
# Coordination Sequence:
#
# PCOD9438903 Si02
#       7
#     8   8   8   8   8   8   8
#     4   9  18  33  53  78 112 150 184 222 274 335
#     4   9  18  34  57  84 114 149 188 230 277 331
#     4  11  23  40  60  83 113 149 191 237 286 342
#     4  11  23  39  59  83 112 149 189 231 286 343
#     4   9  19  34  53  77 105 138 178 226 277 331
#     4  10  21  39  61  85 113 146 188 237 286 337
#     4   9  16  29  49  74 105 140 177 216 264 322
#
# _framework density 20.447171000000001
#
# number of rings (size 3 to 8) (size 9 to 14) (size 15 to 20)
#    0.000    2.286    0.000    2.571    0.000    5.143 
#    0.000    7.143    0.000    0.000    0.000    0.000 
#    0.000    0.000    0.000    0.000    0.000    0.000 
#
# Total GULP energy -312725.581193 kJ/mol
# GULP energy per Si atom -5584.385378 kJ/mol
# Density = 2.040063 g / cm^3
# Si number density = 20.447171 Si / 1000 Ang^3
#
#
#
# Elastic Constant Matrix: (Units=GPa)
#
#
# Indices 1 2 3 4 5 6 
#
# 1 45.6717 27.7412 0.9029 0.0000 0.0000 0.0000
# 2 27.7412 100.7991 8.6784 0.0000 0.0000 0.0000
# 3 0.9029 8.6784 15.3228 0.0000 0.0000 0.0000
# 4 0.0000 0.0000 0.0000 29.7407 0.0000 0.0000
# 5 0.0000 0.0000 0.0000 0.0000 20.1809 0.0000
# 6 0.0000 0.0000 0.0000 0.0000 0.0000 35.4132
#
#
#
# Elastic Compliance Matrix: (Units=1/GPa)
#
#
# Indices 1 2 3 4 5 6 
#
# 1 0.026395 -0.007496 0.002690 0.000000 0.000000 0.000000
# 2 -0.007496 0.012558 -0.006671 0.000000 0.000000 0.000000
# 3 0.002690 -0.006671 0.068882 0.000000 0.000000 0.000000
# 4 0.000000 0.000000 0.000000 0.033624 0.000000 0.000000
# 5 0.000000 0.000000 0.000000 0.000000 0.049552 0.000000
# 6 0.000000 0.000000 0.000000 0.000000 0.000000 0.028238
#
#
# Mechanical properties :
#
#
# Convention : Reuss Voigt Hill
#
# Bulk Modulus (GPa) = 11.78105 26.27097 19.02601
# Shear Modulus (GPa) = 18.48451 25.36501 21.92476
#
# Velocity S-wave (km/s) = 3.00994 3.52591 3.27810
# Velocity P-wave (km/s) = 4.22539 5.42699 4.86344
#
# Compressibility (1/GPa) = 0.08488208
#
# Stress axis : x y z
#
# Youngs Moduli (GPa) = 37.88552 79.63029 14.51756
#
# Poissons Ratio (x) = 0.59690 -0.03905
# Poissons Ratio (y) = 0.28399 0.09684
# Poissons Ratio (z) = -0.10192 0.53120
#
# Static dielectric constant tensor:
#      x y z
#    x 1.737310 0.000000 0.000000 
#    y 0.000000 1.720460 0.000000 
#    z 0.000000 0.000000 1.703000 
# 
# From -- ./inp_files/5188.got.cif
#   From: 2010.05.17/outbox.cif.g08.bks.cpg/sg57_3_cif.got.tgz:5188.got - 2010.06.03 13:58:18.
