data_PCOD9438471
_publ_section_title
;
Structure prediction by ZEFSAII (Michael W. Deem and Ramdas Pophale) SiO2 
 PCOD9438471
Probable space group: P B C M
;
_chemical_formula_sum "Si O2"
_cell_formula_units_Z 56
_cell_length_a 5.535406
_cell_length_b 31.860608
_cell_length_c 13.339223
_cell_angle_alpha 90.000000
_cell_angle_beta 90.000000
_cell_angle_gamma 90.000000
_cell_volume 2352.524052
_symmetry_space_group_name_H-M "P B C M"
_symmetry_group_IT_number 57
_symmetry_cell_setting 'orthorhombic'
loop_
_space_group_symop_operation_xyz
x,y,z
-x,-y,1/2+z
x,1/2-y,-z
-x,1/2+y,1/2-z
-x,-y,-z
x,y,1/2-z
-x,1/2+y,z
x,1/2-y,1/2+z
loop_
_atom_site_type_symbol
_atom_site_label
_atom_site_fract_x
_atom_site_fract_y
_atom_site_fract_z
Si Si1 0.760358 0.638904 0.365793
Si Si2 0.130203 0.725347 0.871550
Si Si3 0.316378 0.085654 0.637365
Si Si4 0.693569 0.468909 0.048717
Si Si5 0.629779 0.684567 0.870347
Si Si6 0.910373 0.946686 0.565338
Si Si7 0.744393 0.178155 0.372527
O O1 0.766379 0.651995 0.250000
O O2 0.775389 0.588605 0.372730
O O3 0.514429 0.659493 0.406610
O O4 0.017354 0.653724 0.409859
O O5 0.117285 0.722141 0.750000
O O6 0.361401 0.697836 0.904499
O O7 0.202471 0.773176 0.894333
O O8 0.863867 0.710794 0.907620
O O9 0.226686 0.078961 0.750000
O O10 0.577992 0.064086 0.623730
O O11 0.325829 0.135113 0.616781
O O12 0.165509 0.064052 0.549627
O O13 0.860769 0.505415 0.096118
O O14 0.500000 0.500000 0.000000
O O15 0.803725 0.444767 0.952225
O O16 0.623534 0.691843 0.750000
O O17 0.738147 0.174216 0.250000
#
# Coordination Sequence:
#
# PCOD9438471 Si02
#       7
#     8   8   8   8   8   8   8
#     4  10  21  36  61  93 123 161 213 264 317 378
#     4   9  16  30  52  81 121 161 204 254 301 364
#     4  10  22  38  61  92 125 162 209 256 307 376
#     4   9  21  41  61  85 115 161 204 253 317 383
#     4   9  18  30  52  84 118 161 206 249 302 360
#     4  10  22  40  64  87 124 161 207 257 322 381
#     4   9  18  33  56  88 122 162 211 260 315 374
#
# _framework density 23.804217000000001
#
# number of rings (size 3 to 8) (size 9 to 14) (size 15 to 20)
#    0.000    2.571    0.000    0.857    6.000    4.571 
#    0.000    5.714    0.000    5.143    0.000    0.000 
#    0.000    0.000    0.000    0.000    0.000    0.000 
#
# Total GULP energy -312386.132606 kJ/mol
# GULP energy per Si atom -5578.323797 kJ/mol
# Density = 2.375004 g / cm^3
# Si number density = 23.804217 Si / 1000 Ang^3
#
#
#
# Elastic Constant Matrix: (Units=GPa)
#
#
# Indices 1 2 3 4 5 6 
#
# 1 138.9373 63.8471 4.8797 0.0000 0.0000 0.0000
# 2 63.8471 84.8060 -16.4230 0.0000 0.0000 0.0000
# 3 4.8797 -16.4230 51.6043 0.0000 0.0000 0.0000
# 4 0.0000 0.0000 0.0000 29.9288 0.0000 0.0000
# 5 0.0000 0.0000 0.0000 0.0000 16.8914 0.0000
# 6 0.0000 0.0000 0.0000 0.0000 0.0000 40.7746
#
#
#
# Elastic Compliance Matrix: (Units=1/GPa)
#
#
# Indices 1 2 3 4 5 6 
#
# 1 0.011802 -0.009699 -0.004203 0.000000 0.000000 0.000000
# 2 -0.009699 0.020537 0.007453 0.000000 0.000000 0.000000
# 3 -0.004203 0.007453 0.022148 0.000000 0.000000 0.000000
# 4 0.000000 0.000000 0.000000 0.033413 0.000000 0.000000
# 5 0.000000 0.000000 0.000000 0.000000 0.059202 0.000000
# 6 0.000000 0.000000 0.000000 0.000000 0.000000 0.024525
#
#
# Mechanical properties :
#
#
# Convention : Reuss Voigt Hill
#
# Bulk Modulus (GPa) = 24.04486 42.21724 33.13105
# Shear Modulus (GPa) = 25.20314 32.38855 28.79584
#
# Velocity S-wave (km/s) = 3.25740 3.69266 3.48184
# Velocity P-wave (km/s) = 4.92652 5.99622 5.48750
#
# Compressibility (1/GPa) = 0.04158893
#
# Stress axis : x y z
#
# Youngs Moduli (GPa) = 84.72871 48.69191 45.15159
#
# Poissons Ratio (x) = 0.47228 0.18977
# Poissons Ratio (y) = 0.82182 -0.33652
# Poissons Ratio (z) = 0.35610 -0.36291
#
# Static dielectric constant tensor:
#      x y z
#    x 2.196260 0.000000 0.000000 
#    y 0.000000 1.896430 0.000000 
#    z 0.000000 0.000000 1.967450 
# 
# From -- ./inp_files/15276.got.cif
#   From: 2010.05.17/outbox.cif.g08.bks.cpg/sg57_8_cif.got.tgz:15276.got - 2010.06.03 13:58:18.
