data_PCOD9438404
_publ_section_title
;
Structure prediction by ZEFSAII (Michael W. Deem and Ramdas Pophale) SiO2 
 PCOD9438404
Probable space group: P B C M
;
_chemical_formula_sum "Si O2"
_cell_formula_units_Z 48
_cell_length_a 10.965752
_cell_length_b 7.360887
_cell_length_c 29.310786
_cell_angle_alpha 90.000000
_cell_angle_beta 90.000000
_cell_angle_gamma 90.000000
_cell_volume 2365.898098
_symmetry_space_group_name_H-M "P B C M"
_symmetry_group_IT_number 57
_symmetry_cell_setting 'orthorhombic'
loop_
_space_group_symop_operation_xyz
x,y,z
-x,-y,1/2+z
x,1/2-y,-z
-x,1/2+y,1/2-z
-x,-y,-z
x,y,1/2-z
-x,1/2+y,z
x,1/2-y,1/2+z
loop_
_atom_site_type_symbol
_atom_site_label
_atom_site_fract_x
_atom_site_fract_y
_atom_site_fract_z
Si Si1 0.425771 0.553088 0.699203
Si Si2 0.857908 0.960981 0.511553
Si Si3 0.203181 0.277425 0.801555
Si Si4 0.822876 0.074646 0.418826
Si Si5 0.904225 0.834469 0.896079
Si Si6 0.333057 0.574424 0.164878
O O1 0.481908 0.551547 0.750000
O O2 0.328667 0.391618 0.696523
O O3 0.535633 0.524127 0.664190
O O4 0.356345 0.741535 0.692336
O O5 0.833947 0.750000 0.500000
O O6 0.793094 0.079445 0.472561
O O7 0.844976 0.971513 0.566327
O O8 0.000000 0.000000 0.500000
O O9 0.153836 0.293392 0.750000
O O10 0.121696 0.359298 0.842581
O O11 0.239086 0.068600 0.812554
O O12 0.849875 0.862548 0.407573
O O13 0.717629 0.129309 0.384420
O O14 0.952042 0.166806 0.406700
#
# Coordination Sequence:
#
# PCOD9438404 Si02
#       6
#     8   8   8   8   8   8
#     4  11  21  35  56  76 101 141 188 229 262 307
#     4   8  14  29  51  77 102 135 173 213 258 313
#     4  10  21  36  53  78 107 142 181 220 266 319
#     4   9  19  32  54  82 108 138 173 222 271 325
#     4   9  18  33  53  78 111 142 172 216 268 328
#     4  11  21  35  57  80 106 136 182 232 268 308
#
# _framework density 20.28828
#
# number of rings (size 3 to 8) (size 9 to 14) (size 15 to 20)
#    0.000    2.333    1.667    1.500    2.333    0.000 
#    0.000    5.000    0.000    1.000    4.333    0.000 
#    0.000    0.000    0.000    0.000    0.000    0.000 
#
# Total GULP energy -267551.927306 kJ/mol
# GULP energy per Si atom -5573.998486 kJ/mol
# Density = 2.024210 g / cm^3
# Si number density = 20.288280 Si / 1000 Ang^3
#
#
#
# Elastic Constant Matrix: (Units=GPa)
#
#
# Indices 1 2 3 4 5 6 
#
# 1 29.5681 11.5235 33.9062 0.0000 0.0000 0.0000
# 2 11.5235 37.9403 36.0105 0.0000 0.0000 0.0000
# 3 33.9062 36.0105 172.7903 0.0000 0.0000 0.0000
# 4 0.0000 0.0000 0.0000 22.1225 0.0000 0.0000
# 5 0.0000 0.0000 0.0000 0.0000 20.8684 0.0000
# 6 0.0000 0.0000 0.0000 0.0000 0.0000 16.8959
#
#
#
# Elastic Compliance Matrix: (Units=1/GPa)
#
#
# Indices 1 2 3 4 5 6 
#
# 1 0.044920 -0.006578 -0.007443 0.000000 0.000000 0.000000
# 2 -0.006578 0.033820 -0.005757 0.000000 0.000000 0.000000
# 3 -0.007443 -0.005757 0.008448 0.000000 0.000000 0.000000
# 4 0.000000 0.000000 0.000000 0.045203 0.000000 0.000000
# 5 0.000000 0.000000 0.000000 0.000000 0.047919 0.000000
# 6 0.000000 0.000000 0.000000 0.000000 0.000000 0.059186
#
#
# Mechanical properties :
#
#
# Convention : Reuss Voigt Hill
#
# Bulk Modulus (GPa) = 20.99578 44.79768 32.89673
# Shear Modulus (GPa) = 16.95317 22.56793 19.76055
#
# Velocity S-wave (km/s) = 2.89383 3.33883 3.12426
# Velocity P-wave (km/s) = 4.64079 6.08212 5.40967
#
# Compressibility (1/GPa) = 0.04762863
#
# Stress axis : x y z
#
# Youngs Moduli (GPa) = 22.26203 29.56846 118.37346
#
# Poissons Ratio (x) = 0.19451 0.88111
# Poissons Ratio (y) = 0.14645 0.68152
# Poissons Ratio (z) = 0.16571 0.17024
#
# Static dielectric constant tensor:
#      x y z
#    x 1.684590 0.000000 0.000000 
#    y 0.000000 1.774920 0.000000 
#    z 0.000000 0.000000 1.814270 
# 
# From -- ./inp_files/28513.got.cif
#   From: 2010.05.17/outbox.cif.g08.bks.cpg/sg57_15_cif.got.tgz:28513.got - 2010.06.03 13:58:18.
