data_PCOD9438869
_publ_section_title
;
Structure prediction by ZEFSAII (Michael W. Deem and Ramdas Pophale) SiO2 
 PCOD9438869
Probable space group: P B C M
;
_chemical_formula_sum "Si O2"
_cell_formula_units_Z 60
_cell_length_a 19.398168
_cell_length_b 5.520762
_cell_length_c 26.838859
_cell_angle_alpha 90.000000
_cell_angle_beta 90.000000
_cell_angle_gamma 90.000000
_cell_volume 2874.245037
_symmetry_space_group_name_H-M "P B C M"
_symmetry_group_IT_number 57
_symmetry_cell_setting 'orthorhombic'
loop_
_space_group_symop_operation_xyz
x,y,z
-x,-y,1/2+z
x,1/2-y,-z
-x,1/2+y,1/2-z
-x,-y,-z
x,y,1/2-z
-x,1/2+y,z
x,1/2-y,1/2+z
loop_
_atom_site_type_symbol
_atom_site_label
_atom_site_fract_x
_atom_site_fract_y
_atom_site_fract_z
Si Si1 0.782397 0.408181 0.125912
Si Si2 0.959905 0.603471 0.567356
Si Si3 0.111578 0.265893 0.337237
Si Si4 0.755933 0.472181 0.805474
Si Si5 0.693053 0.787258 0.405629
Si Si6 0.187181 0.947365 0.543046
Si Si7 0.537729 0.734964 0.560175
Si Si8 0.039574 0.000831 0.250000
O O1 0.837479 0.619668 0.126584
O O2 0.761318 0.309972 0.179711
O O3 0.714909 0.506851 0.098895
O O4 0.816897 0.197125 0.095040
O O5 0.944160 0.609854 0.627275
O O6 0.886076 0.578273 0.540382
O O7 0.003038 0.359349 0.556062
O O8 0.164877 0.435950 0.308124
O O9 0.081074 0.071311 0.299336
O O10 0.728981 0.514434 0.750000
O O11 0.713508 0.595892 0.851321
O O12 0.614059 0.810362 0.418908
O O13 0.744091 0.896714 0.447738
O O14 0.194686 0.750000 0.500000
O O15 0.541342 0.750000 0.500000
O O16 0.492413 0.499028 0.575085
O O17 0.982377 0.220124 0.250000
#
# Coordination Sequence:
#
# PCOD9438869 Si02
#       8
#     8   8   8   8   8   8   8   4
#     4  10  21  39  64  91 126 170 221 282 337 397
#     4  12  25  43  62  83 126 174 223 288 351 408
#     4  11  22  40  59  85 122 167 218 283 352 416
#     4  10  21  38  67  95 128 170 230 286 342 401
#     4  10  23  42  68 100 136 181 223 280 338 408
#     4  11  25  41  64  94 125 174 237 289 339 407
#     4  10  24  43  71 111 151 186 220 266 334 409
#     4  12  28  38  58  92 118 164 218 272 358 434
#
# _framework density 20.875046000000001
#
# number of rings (size 3 to 8) (size 9 to 14) (size 15 to 20)
#    0.000    1.333    4.667    1.600    8.400    1.600 
#    0.000    0.000    0.000    0.800    0.000    0.000 
#    0.000    0.000    0.000    0.000    0.000    0.000 
#
# Total GULP energy -334961.986057 kJ/mol
# GULP energy per Si atom -5582.699768 kJ/mol
# Density = 2.082753 g / cm^3
# Si number density = 20.875046 Si / 1000 Ang^3
#
#
#
# Elastic Constant Matrix: (Units=GPa)
#
#
# Indices 1 2 3 4 5 6 
#
# 1 138.6756 58.5680 36.7899 0.0000 0.0000 0.0000
# 2 58.5680 105.1566 26.6868 0.0000 0.0000 0.0000
# 3 36.7899 26.6868 85.8067 0.0000 0.0000 0.0000
# 4 0.0000 0.0000 0.0000 23.3638 0.0000 0.0000
# 5 0.0000 0.0000 0.0000 0.0000 23.3150 0.0000
# 6 0.0000 0.0000 0.0000 0.0000 0.0000 28.6892
#
#
#
# Elastic Compliance Matrix: (Units=1/GPa)
#
#
# Indices 1 2 3 4 5 6 
#
# 1 0.010003 -0.004867 -0.002775 0.000000 0.000000 0.000000
# 2 -0.004867 0.012693 -0.001861 0.000000 0.000000 0.000000
# 3 -0.002775 -0.001861 0.013423 0.000000 0.000000 0.000000
# 4 0.000000 0.000000 0.000000 0.042801 0.000000 0.000000
# 5 0.000000 0.000000 0.000000 0.000000 0.042891 0.000000
# 6 0.000000 0.000000 0.000000 0.000000 0.000000 0.034856
#
#
# Mechanical properties :
#
#
# Convention : Reuss Voigt Hill
#
# Bulk Modulus (GPa) = 58.43711 63.74759 61.09235
# Shear Modulus (GPa) = 27.56704 28.91321 28.24013
#
# Velocity S-wave (km/s) = 3.63791 3.72568 3.68206
# Velocity P-wave (km/s) = 6.76021 7.00796 6.88520
#
# Compressibility (1/GPa) = 0.01711241
#
# Stress axis : x y z
#
# Youngs Moduli (GPa) = 99.97244 78.78657 74.50090
#
# Poissons Ratio (x) = 0.38344 0.20675
# Poissons Ratio (y) = 0.48655 0.13863
# Poissons Ratio (z) = 0.27743 0.14661
#
# Static dielectric constant tensor:
#      x y z
#    x 1.740610 0.000000 0.000000 
#    y 0.000000 1.858000 0.000000 
#    z 0.000000 0.000000 1.815250 
# 
# From -- ./inp_files/28862.got.cif
#   From: 2010.05.17/outbox.cif.g08.bks.cpg/sg57_15_cif.got.tgz:28862.got - 2010.06.03 13:58:18.
