data_PCOD9438288
_publ_section_title
;
Structure prediction by ZEFSAII (Michael W. Deem and Ramdas Pophale) SiO2 
 PCOD9438288
Probable space group: P B C M
;
_chemical_formula_sum "Si O2"
_cell_formula_units_Z 48
_cell_length_a 31.702848
_cell_length_b 7.494776
_cell_length_c 9.482322
_cell_angle_alpha 90.000000
_cell_angle_beta 90.000000
_cell_angle_gamma 90.000000
_cell_volume 2253.054177
_symmetry_space_group_name_H-M "P B C M"
_symmetry_group_IT_number 57
_symmetry_cell_setting 'orthorhombic'
loop_
_space_group_symop_operation_xyz
x,y,z
-x,-y,1/2+z
x,1/2-y,-z
-x,1/2+y,1/2-z
-x,-y,-z
x,y,1/2-z
-x,1/2+y,z
x,1/2-y,1/2+z
loop_
_atom_site_type_symbol
_atom_site_label
_atom_site_fract_x
_atom_site_fract_y
_atom_site_fract_z
Si Si1 0.758954 0.747609 0.750000
Si Si2 0.632195 0.035679 0.023122
Si Si3 0.876537 0.414151 0.580870
Si Si4 0.298800 0.922517 0.750000
Si Si5 0.820155 0.750000 0.000000
Si Si6 0.321368 0.495815 0.750000
Si Si7 0.540474 0.430729 0.584218
Si Si8 0.043386 0.060881 0.424820
O O1 0.744690 0.536540 0.750000
O O2 0.788163 0.803139 0.878837
O O3 0.717046 0.862283 0.750000
O O4 0.672421 0.012450 0.121722
O O5 0.586128 0.972747 0.073171
O O6 0.630234 0.250000 0.000000
O O7 0.647514 0.959109 0.878115
O O8 0.854397 0.250000 0.500000
O O9 0.883964 0.387220 0.750000
O O10 0.849221 0.591786 0.558776
O O11 0.918896 0.441432 0.486683
O O12 0.302441 0.702815 0.750000
O O13 0.548011 0.250000 0.500000
O O14 0.500000 0.500000 0.500000
O O15 0.530968 0.407553 0.750000
O O16 0.051931 0.250000 0.500000
O O17 0.041589 0.064732 0.250000
O O18 0.000000 0.000000 0.500000
#
# Coordination Sequence:
#
# PCOD9438288 Si02
#       8
#     4   8   8   4   4   4   8   8
#     4  12  26  44  72 104 138 184 238 300 368 432
#     4   9  19  37  64  89 124 171 218 277 352 413
#     4  12  27  48  77 108 147 200 256 302 372 446
#     4  10  20  42  65  95 132 170 225 292 351 429
#     4  12  28  48  72 104 152 192 238 308 372 436
#     4  10  22  40  67  97 130 174 229 288 361 429
#     4  11  23  40  62  91 131 175 224 274 335 410
#     4  12  25  44  73 110 156 199 251 313 370 433
#
# _framework density 21.304413
#
# number of rings (size 3 to 8) (size 9 to 14) (size 15 to 20)
#    0.000    1.000    2.500    4.000    7.000    1.333 
#    3.000    0.000    0.000    0.000    0.000    0.000 
#    0.000    0.000    0.000    0.000    0.000    0.000 
#
# Total GULP energy -267478.443969 kJ/mol
# GULP energy per Si atom -5572.467583 kJ/mol
# Density = 2.125592 g / cm^3
# Si number density = 21.304413 Si / 1000 Ang^3
#
#
#
# Elastic Constant Matrix: (Units=GPa)
#
#
# Indices 1 2 3 4 5 6 
#
# 1 93.4794 8.9687 41.1642 0.0000 0.0000 0.0000
# 2 8.9687 71.4987 18.3471 0.0000 0.0000 0.0000
# 3 41.1642 18.3471 218.3258 0.0000 0.0000 0.0000
# 4 0.0000 0.0000 0.0000 20.7283 0.0000 0.0000
# 5 0.0000 0.0000 0.0000 0.0000 54.5596 0.0000
# 6 0.0000 0.0000 0.0000 0.0000 0.0000 427.3649
#
#
#
# Elastic Compliance Matrix: (Units=1/GPa)
#
#
# Indices 1 2 3 4 5 6 
#
# 1 0.011725 -0.000923 -0.002133 0.000000 0.000000 0.000000
# 2 -0.000923 0.014367 -0.001033 0.000000 0.000000 0.000000
# 3 -0.002133 -0.001033 0.005069 0.000000 0.000000 0.000000
# 4 0.000000 0.000000 0.000000 0.048243 0.000000 0.000000
# 5 0.000000 0.000000 0.000000 0.000000 0.018329 0.000000
# 6 0.000000 0.000000 0.000000 0.000000 0.000000 0.002340
#
#
# Mechanical properties :
#
#
# Convention : Reuss Voigt Hill
#
# Bulk Modulus (GPa) = 43.51165 57.80710 50.65937
# Shear Modulus (GPa) = 43.13528 121.51882 82.32705
#
# Velocity S-wave (km/s) = 4.50456 7.56063 6.22311
# Velocity P-wave (km/s) = 6.89368 10.16908 8.68715
#
# Compressibility (1/GPa) = 0.02298235
#
# Stress axis : x y z
#
# Youngs Moduli (GPa) = 85.28423 69.60277 197.26435
#
# Poissons Ratio (x) = 0.06427 0.42080
# Poissons Ratio (y) = 0.07875 0.20382
# Poissons Ratio (z) = 0.18193 0.07192
#
# Static dielectric constant tensor:
#      x y z
#    x 1.834700 0.000000 0.000000 
#    y 0.000000 1.858410 0.000000 
#    z 0.000000 0.000000 1.595030 
# 
# From -- ./inp_files/10204.got.cif
#   From: 2010.05.17/outbox.cif.g08.bks.cpg/sg57_6_cif.got.tgz:10204.got - 2010.06.03 13:58:18.
