data_PCOD9438771
_publ_section_title
;
Structure prediction by ZEFSAII (Michael W. Deem and Ramdas Pophale) SiO2 
 PCOD9438771
Probable space group: P B C M
;
_chemical_formula_sum "Si O2"
_cell_formula_units_Z 56
_cell_length_a 9.737699
_cell_length_b 15.582559
_cell_length_c 19.897156
_cell_angle_alpha 90.000000
_cell_angle_beta 90.000000
_cell_angle_gamma 90.000000
_cell_volume 3019.160013
_symmetry_space_group_name_H-M "P B C M"
_symmetry_group_IT_number 57
_symmetry_cell_setting 'orthorhombic'
loop_
_space_group_symop_operation_xyz
x,y,z
-x,-y,1/2+z
x,1/2-y,-z
-x,1/2+y,1/2-z
-x,-y,-z
x,y,1/2-z
-x,1/2+y,z
x,1/2-y,1/2+z
loop_
_atom_site_type_symbol
_atom_site_label
_atom_site_fract_x
_atom_site_fract_y
_atom_site_fract_z
Si Si1 0.222783 0.847897 0.602379
Si Si2 0.278492 0.313648 0.330256
Si Si3 0.521541 0.224758 0.925038
Si Si4 0.413908 0.523687 0.933881
Si Si5 0.127015 0.946006 0.471448
Si Si6 0.629040 0.009901 0.173968
Si Si7 0.983722 0.778426 0.421937
O O1 0.349594 0.784501 0.590850
O O2 0.201599 0.902432 0.534819
O O3 0.086358 0.791854 0.609047
O O4 0.261886 0.915764 0.658999
O O5 0.268923 0.296051 0.250000
O O6 0.407003 0.268919 0.367436
O O7 0.304434 0.416279 0.338399
O O8 0.146555 0.288957 0.374291
O O9 0.572605 0.126391 0.925694
O O10 0.469961 0.250000 0.000000
O O11 0.252188 0.502150 0.937442
O O12 0.498522 0.480171 0.874257
O O13 0.500000 0.500000 0.000000
O O14 0.064216 0.868987 0.427555
O O15 0.000000 0.000000 0.500000
O O16 0.582420 0.012434 0.250000
O O17 0.953222 0.750000 0.500000
#
# Coordination Sequence:
#
# PCOD9438771 Si02
#       7
#     8   8   8   8   8   8   8
#     4  11  20  39  60  88 119 156 196 252 302 350
#     4  10  23  40  58  85 119 159 200 243 300 368
#     4  11  19  36  63  87 117 149 199 252 297 345
#     4  11  20  36  62  91 118 155 203 247 295 357
#     4  11  21  35  60  93 122 152 198 246 301 357
#     4  10  22  39  61  86 119 160 205 250 297 356
#     4  10  21  38  60  91 124 156 199 251 301 362
#
# _framework density 18.548206
#
# number of rings (size 3 to 8) (size 9 to 14) (size 15 to 20)
#    0.000    1.429    4.286    1.714    2.000    1.143 
#    5.143    0.714    0.000    0.857    0.000    0.000 
#    0.000    0.000    0.000    0.000    0.000    0.000 
#
# Total GULP energy -312592.226944 kJ/mol
# GULP energy per Si atom -5582.004053 kJ/mol
# Density = 1.850599 g / cm^3
# Si number density = 18.548206 Si / 1000 Ang^3
#
#
#
# Elastic Constant Matrix: (Units=GPa)
#
#
# Indices 1 2 3 4 5 6 
#
# 1 154.4919 35.3388 79.7628 0.0000 0.0000 0.0000
# 2 35.3388 49.0376 26.5472 0.0000 0.0000 0.0000
# 3 79.7628 26.5472 103.3995 0.0000 0.0000 0.0000
# 4 0.0000 0.0000 0.0000 22.1770 0.0000 0.0000
# 5 0.0000 0.0000 0.0000 0.0000 23.7101 0.0000
# 6 0.0000 0.0000 0.0000 0.0000 0.0000 18.7132
#
#
#
# Elastic Compliance Matrix: (Units=1/GPa)
#
#
# Indices 1 2 3 4 5 6 
#
# 1 0.011398 -0.004012 -0.007763 0.000000 0.000000 0.000000
# 2 -0.004012 0.025096 -0.003349 0.000000 0.000000 0.000000
# 3 -0.007763 -0.003349 0.016519 0.000000 0.000000 0.000000
# 4 0.000000 0.000000 0.000000 0.045092 0.000000 0.000000
# 5 0.000000 0.000000 0.000000 0.000000 0.042176 0.000000
# 6 0.000000 0.000000 0.000000 0.000000 0.000000 0.053438
#
#
# Mechanical properties :
#
#
# Convention : Reuss Voigt Hill
#
# Bulk Modulus (GPa) = 43.92196 65.58073 54.75135
# Shear Modulus (GPa) = 21.59310 23.93874 22.76592
#
# Velocity S-wave (km/s) = 3.41568 3.59642 3.50722
# Velocity P-wave (km/s) = 6.26795 7.25805 6.78109
#
# Compressibility (1/GPa) = 0.02276765
#
# Stress axis : x y z
#
# Youngs Moduli (GPa) = 87.73241 39.84632 60.53573
#
# Poissons Ratio (x) = 0.15985 0.46992
# Poissons Ratio (y) = 0.35196 0.20272
# Poissons Ratio (z) = 0.68104 0.13343
#
# Static dielectric constant tensor:
#      x y z
#    x 1.652010 0.000000 0.000000 
#    y 0.000000 1.672180 0.000000 
#    z 0.000000 0.000000 1.630970 
# 
# From -- ./inp_files/24407.got.cif
#   From: 2010.05.17/outbox.cif.g08.bks.cpg/sg57_13_cif.got.tgz:24407.got - 2010.06.03 13:58:18.
