data_PCOD9438282
_publ_section_title
;
Structure prediction by ZEFSAII (Michael W. Deem and Ramdas Pophale) SiO2 
 PCOD9438282
Probable space group: P B C M
;
_chemical_formula_sum "Si O2"
_cell_formula_units_Z 40
_cell_length_a 13.516553
_cell_length_b 8.077009
_cell_length_c 16.047663
_cell_angle_alpha 90.000000
_cell_angle_beta 90.000000
_cell_angle_gamma 90.000000
_cell_volume 1751.976652
_symmetry_space_group_name_H-M "P B C M"
_symmetry_group_IT_number 57
_symmetry_cell_setting 'orthorhombic'
loop_
_space_group_symop_operation_xyz
x,y,z
-x,-y,1/2+z
x,1/2-y,-z
-x,1/2+y,1/2-z
-x,-y,-z
x,y,1/2-z
-x,1/2+y,z
x,1/2-y,1/2+z
loop_
_atom_site_type_symbol
_atom_site_label
_atom_site_fract_x
_atom_site_fract_y
_atom_site_fract_z
Si Si1 0.047070 0.608927 0.250000
Si Si2 0.848139 0.750283 0.250000
Si Si3 0.474392 0.269855 0.596011
Si Si4 0.167333 0.774576 0.907548
Si Si5 0.707319 0.931954 0.345803
Si Si6 0.350634 0.583296 0.653663
O O1 0.089064 0.422668 0.250000
O O2 0.089347 0.698744 0.167116
O O3 0.928775 0.609815 0.250000
O O4 0.776726 0.769943 0.329580
O O5 0.500811 0.250000 0.500000
O O6 0.396866 0.127096 0.621482
O O7 0.413506 0.436918 0.611908
O O8 0.574834 0.240904 0.646693
O O9 0.246663 0.631380 0.886883
O O10 0.234778 0.940530 0.902845
O O11 0.125346 0.750000 0.000000
O O12 0.700627 0.998532 0.250000
O O13 0.335258 0.542419 0.750000
#
# Coordination Sequence:
#
# PCOD9438282 Si02
#       6
#     4   4   8   8   8   8
#     4  10  20  42  59  92 113 160 191 246 304 354
#     4   8  20  36  65  78 119 150 197 238 300 352
#     4  12  24  38  57  88 123 156 201 247 293 348
#     4  11  21  39  63  89 121 156 201 247 295 351
#     4   9  19  40  59  81 116 162 193 238 295 348
#     4  12  23  37  57  87 116 163 205 238 294 352
#
# _framework density 22.831354999999999
#
# number of rings (size 3 to 8) (size 9 to 14) (size 15 to 20)
#    0.600    0.800    2.000    5.400    0.000    1.600 
#    0.000    5.000    0.000    0.000    0.000    0.000 
#    0.000    0.000    0.000    0.000    0.000    0.000 
#
# Total GULP energy -223636.044857 kJ/mol
# GULP energy per Si atom -5590.901121 kJ/mol
# Density = 2.277939 g / cm^3
# Si number density = 22.831355 Si / 1000 Ang^3
#
#
#
# Elastic Constant Matrix: (Units=GPa)
#
#
# Indices 1 2 3 4 5 6 
#
# 1 58.4808 -5.5701 18.7424 0.0000 0.0000 0.0000
# 2 -5.5701 54.0465 -8.4121 0.0000 0.0000 0.0000
# 3 18.7424 -8.4121 102.5194 0.0000 0.0000 0.0000
# 4 0.0000 0.0000 0.0000 29.4774 0.0000 0.0000
# 5 0.0000 0.0000 0.0000 0.0000 8.8831 0.0000
# 6 0.0000 0.0000 0.0000 0.0000 0.0000 40.5434
#
#
#
# Elastic Compliance Matrix: (Units=1/GPa)
#
#
# Indices 1 2 3 4 5 6 
#
# 1 0.018265 0.001380 -0.003226 0.000000 0.000000 0.000000
# 2 0.001380 0.018846 0.001294 0.000000 0.000000 0.000000
# 3 -0.003226 0.001294 0.010450 0.000000 0.000000 0.000000
# 4 0.000000 0.000000 0.000000 0.033924 0.000000 0.000000
# 5 0.000000 0.000000 0.000000 0.000000 0.112574 0.000000
# 6 0.000000 0.000000 0.000000 0.000000 0.000000 0.024665
#
#
# Mechanical properties :
#
#
# Convention : Reuss Voigt Hill
#
# Bulk Modulus (GPa) = 21.52465 24.95189 23.23827
# Shear Modulus (GPa) = 21.24826 29.79987 25.52407
#
# Velocity S-wave (km/s) = 3.05398 3.61670 3.34719
# Velocity P-wave (km/s) = 4.67802 5.32853 5.01383
#
# Compressibility (1/GPa) = 0.04645836
#
# Stress axis : x y z
#
# Youngs Moduli (GPa) = 54.74958 53.06096 95.69208
#
# Poissons Ratio (x) = -0.07324 0.30869
# Poissons Ratio (y) = -0.07557 -0.12383
# Poissons Ratio (z) = 0.17662 -0.06866
#
# Static dielectric constant tensor:
#      x y z
#    x 1.818660 0.000000 0.000000 
#    y 0.000000 1.978450 0.000000 
#    z 0.000000 0.000000 1.802420 
# 
# From -- ./inp_files/18276.got.cif
#   From: 2010.05.17/outbox.cif.g08.bks.cpg/sg57_10_cif.got.tgz:18276.got - 2010.06.03 13:58:18.
