data_PCOD9438048
_publ_section_title
;
Structure prediction by ZEFSAII (Michael W. Deem and Ramdas Pophale) SiO2 
 PCOD9438048
Probable space group: P B C M
;
_chemical_formula_sum "Si O2"
_cell_formula_units_Z 40
_cell_length_a 8.775605
_cell_length_b 23.030769
_cell_length_c 9.949600
_cell_angle_alpha 90.000000
_cell_angle_beta 90.000000
_cell_angle_gamma 90.000000
_cell_volume 2010.903026
_symmetry_space_group_name_H-M "P B C M"
_symmetry_group_IT_number 57
_symmetry_cell_setting 'orthorhombic'
loop_
_space_group_symop_operation_xyz
x,y,z
-x,-y,1/2+z
x,1/2-y,-z
-x,1/2+y,1/2-z
-x,-y,-z
x,y,1/2-z
-x,1/2+y,z
x,1/2-y,1/2+z
loop_
_atom_site_type_symbol
_atom_site_label
_atom_site_fract_x
_atom_site_fract_y
_atom_site_fract_z
Si Si1 0.298867 0.004378 0.250000
Si Si2 0.492580 0.847862 0.750000
Si Si3 0.645634 0.190335 0.528071
Si Si4 0.829906 0.974872 0.030488
Si Si5 0.384791 0.525437 0.250000
Si Si6 0.399831 0.273689 0.250000
Si Si7 0.186120 0.621319 0.750000
Si Si8 0.153148 0.126036 0.750000
O O1 0.189506 0.947646 0.250000
O O2 0.252849 0.035108 0.388743
O O3 0.473674 0.980144 0.250000
O O4 0.401980 0.834513 0.614041
O O5 0.492333 0.917549 0.750000
O O6 0.621979 0.796711 0.750000
O O7 0.736263 0.250000 0.500000
O O8 0.502710 0.210514 0.620012
O O9 0.731427 0.144136 0.617695
O O10 0.830211 0.916601 0.120871
O O11 0.724414 0.018016 0.121138
O O12 0.000000 0.000000 0.000000
O O13 0.262266 0.318726 0.250000
O O14 0.018914 0.646706 0.750000
#
# Coordination Sequence:
#
# PCOD9438048 Si02
#       8
#     4   4   8   8   4   4   4   4
#     4  12  23  39  63 100 130 174 234 275 326 408
#     4  10  20  38  62  96 123 159 221 284 327 377
#     4   9  20  38  64  88 118 162 216 276 327 384
#     4  11  23  43  61  96 142 182 217 273 348 417
#     4  11  25  36  66  99 132 176 227 278 339 400
#     4   9  21  40  64  86 124 169 221 274 340 392
#     4  11  21  39  66  90 132 177 217 265 337 417
#     4  11  24  40  65  91 133 187 218 264 351 408
#
# _framework density 19.891559999999998
#
# number of rings (size 3 to 8) (size 9 to 14) (size 15 to 20)
#    0.000    1.600    2.000    3.000    8.400    0.000 
#    0.000    3.000    0.000    0.000    0.000    0.000 
#    0.000    0.000    0.000    0.000    0.000    0.000 
#
# Total GULP energy -222868.905283 kJ/mol
# GULP energy per Si atom -5571.722632 kJ/mol
# Density = 1.984629 g / cm^3
# Si number density = 19.891560 Si / 1000 Ang^3
#
#
#
# Elastic Constant Matrix: (Units=GPa)
#
#
# Indices 1 2 3 4 5 6 
#
# 1 109.7834 21.4005 44.7238 0.0000 0.0000 0.0000
# 2 21.4005 58.4810 16.0317 0.0000 0.0000 0.0000
# 3 44.7238 16.0317 177.0135 0.0000 0.0000 0.0000
# 4 0.0000 0.0000 0.0000 23.9822 0.0000 0.0000
# 5 0.0000 0.0000 0.0000 0.0000 -9.7067 0.0000
# 6 0.0000 0.0000 0.0000 0.0000 0.0000 19.6542
#
#
#
# Elastic Compliance Matrix: (Units=1/GPa)
#
#
# Indices 1 2 3 4 5 6 
#
# 1 0.010729 -0.003264 -0.002415 0.000000 0.000000 0.000000
# 2 -0.003264 0.018528 -0.000853 0.000000 0.000000 0.000000
# 3 -0.002415 -0.000853 0.006337 0.000000 0.000000 0.000000
# 4 0.000000 0.000000 0.000000 0.041698 0.000000 0.000000
# 5 0.000000 0.000000 0.000000 0.000000 -0.103022 0.000000
# 6 0.000000 0.000000 0.000000 0.000000 0.000000 0.050880
#
#
# Mechanical properties :
#
#
# Convention : Reuss Voigt Hill
#
# Bulk Modulus (GPa) = 44.38801 56.62110 50.50455
# Shear Modulus (GPa) = 109.35226 24.32741 66.83983
#
# Velocity S-wave (km/s) = 7.42250 3.50094 5.80302
# Velocity P-wave (km/s) = 9.78885 6.69842 8.38720
#
# Compressibility (1/GPa) = 0.02252861
#
# Stress axis : x y z
#
# Youngs Moduli (GPa) = 93.20520 53.97247 157.80898
#
# Poissons Ratio (x) = 0.17617 0.38113
# Poissons Ratio (y) = 0.30423 0.13466
# Poissons Ratio (z) = 0.22510 0.04606
#
# Static dielectric constant tensor:
#      x y z
#    x 1.719880 0.000000 0.000000 
#    y 0.000000 1.864910 0.000000 
#    z 0.000000 0.000000 1.704380 
# 
# From -- ./inp_files/1610.got.cif
#   From: 2010.05.17/outbox.cif.g08.bks.cpg/sg57_1_cif.got.tgz:1610.got - 2010.06.03 13:58:18.
