data_PCOD9438697
_publ_section_title
;
Structure prediction by ZEFSAII (Michael W. Deem and Ramdas Pophale) SiO2 
 PCOD9438697
Probable space group: P B C M
;
_chemical_formula_sum "Si O2"
_cell_formula_units_Z 56
_cell_length_a 15.575566
_cell_length_b 21.287889
_cell_length_c 8.712405
_cell_angle_alpha 90.000000
_cell_angle_beta 90.000000
_cell_angle_gamma 90.000000
_cell_volume 2888.780142
_symmetry_space_group_name_H-M "P B C M"
_symmetry_group_IT_number 57
_symmetry_cell_setting 'orthorhombic'
loop_
_space_group_symop_operation_xyz
x,y,z
-x,-y,1/2+z
x,1/2-y,-z
-x,1/2+y,1/2-z
-x,-y,-z
x,y,1/2-z
-x,1/2+y,z
x,1/2-y,1/2+z
loop_
_atom_site_type_symbol
_atom_site_label
_atom_site_fract_x
_atom_site_fract_y
_atom_site_fract_z
Si Si1 0.364660 0.187983 0.570529
Si Si2 0.954474 0.683815 0.933874
Si Si3 0.418578 0.959966 0.934137
Si Si4 0.784949 0.872007 0.574288
Si Si5 0.056657 0.942375 0.435629
Si Si6 0.552800 0.316604 0.567558
Si Si7 0.764775 0.485002 0.427292
O O1 0.321482 0.250000 0.500000
O O2 0.381588 0.193965 0.750000
O O3 0.298672 0.134162 0.530854
O O4 0.452841 0.181286 0.479740
O O5 0.946685 0.687535 0.750000
O O6 0.013757 0.624254 0.973524
O O7 0.985839 0.750000 0.000000
O O8 0.862187 0.668148 0.007177
O O9 0.426993 0.961808 0.750000
O O10 0.416547 0.885943 0.983308
O O11 0.325494 0.984954 0.985444
O O12 0.500000 0.000000 0.000000
O O13 0.765191 0.853478 0.750000
O O14 0.805673 0.945452 0.573958
O O15 0.057937 0.948524 0.250000
O O16 0.156040 0.943954 0.489124
O O17 0.000000 0.000000 0.500000
O O18 0.586833 0.250000 0.500000
O O19 0.561976 0.312867 0.750000
O O20 0.745852 0.467839 0.250000
#
# Coordination Sequence:
#
# PCOD9438697 Si02
#       7
#     8   8   8   8   8   8   8
#     4  11  21  33  51  77 110 149 193 239 295 360
#     4  11  23  38  59  87 121 158 200 248 302 360
#     4  11  24  40  61  91 125 160 203 254 306 363
#     4  11  21  35  55  81 116 153 193 242 299 360
#     4  10  21  40  64  90 118 156 201 247 298 356
#     4  10  21  38  58  82 112 152 201 249 303 361
#     4  10  22  39  61  88 118 156 199 246 303 363
#
# _framework density 19.385345999999998
#
# number of rings (size 3 to 8) (size 9 to 14) (size 15 to 20)
#    0.000    1.429    1.429    5.143    0.000    8.000 
#    0.000    0.714    0.000    3.429    0.000    0.000 
#    0.000    0.000    0.000    0.000    0.000    0.000 
#
# Total GULP energy -312409.190616 kJ/mol
# GULP energy per Si atom -5578.735547 kJ/mol
# Density = 1.934122 g / cm^3
# Si number density = 19.385346 Si / 1000 Ang^3
#
#
#
# Elastic Constant Matrix: (Units=GPa)
#
#
# Indices 1 2 3 4 5 6 
#
# 1 86.9858 40.3291 13.7423 0.0000 0.0000 0.0000
# 2 40.3291 131.7867 33.8483 0.0000 0.0000 0.0000
# 3 13.7423 33.8483 35.3142 0.0000 0.0000 0.0000
# 4 0.0000 0.0000 0.0000 29.3329 0.0000 0.0000
# 5 0.0000 0.0000 0.0000 0.0000 20.9615 0.0000
# 6 0.0000 0.0000 0.0000 0.0000 0.0000 26.6527
#
#
#
# Elastic Compliance Matrix: (Units=1/GPa)
#
#
# Indices 1 2 3 4 5 6 
#
# 1 0.013475 -0.003683 -0.001713 0.000000 0.000000 0.000000
# 2 -0.003683 0.011073 -0.009180 0.000000 0.000000 0.000000
# 3 -0.001713 -0.009180 0.037783 0.000000 0.000000 0.000000
# 4 0.000000 0.000000 0.000000 0.034091 0.000000 0.000000
# 5 0.000000 0.000000 0.000000 0.000000 0.047707 0.000000
# 6 0.000000 0.000000 0.000000 0.000000 0.000000 0.037520
#
#
# Mechanical properties :
#
#
# Convention : Reuss Voigt Hill
#
# Bulk Modulus (GPa) = 30.14093 47.76956 38.95525
# Shear Modulus (GPa) = 22.53673 26.46720 24.50196
#
# Velocity S-wave (km/s) = 3.41334 3.69903 3.55905
# Velocity P-wave (km/s) = 5.57822 6.55281 6.08506
#
# Compressibility (1/GPa) = 0.03317748
#
# Stress axis : x y z
#
# Youngs Moduli (GPa) = 74.21418 90.30942 26.46707
#
# Poissons Ratio (x) = 0.33265 0.04534
# Poissons Ratio (y) = 0.27337 0.24297
# Poissons Ratio (z) = 0.12712 0.82904
#
# Static dielectric constant tensor:
#      x y z
#    x 1.663240 0.000000 0.000000 
#    y 0.000000 1.857690 0.000000 
#    z 0.000000 0.000000 1.681030 
# 
# From -- ./inp_files/5109.got.cif
#   From: 2010.05.17/outbox.cif.g08.bks.cpg/sg57_3_cif.got.tgz:5109.got - 2010.06.03 13:58:18.
