data_PCOD9438316
_publ_section_title
;
Structure prediction by ZEFSAII (Michael W. Deem and Ramdas Pophale) SiO2 
 PCOD9438316
Probable space group: P B C M
;
_chemical_formula_sum "Si O2"
_cell_formula_units_Z 48
_cell_length_a 18.286859
_cell_length_b 16.165920
_cell_length_c 7.764298
_cell_angle_alpha 90.000000
_cell_angle_beta 90.000000
_cell_angle_gamma 90.000000
_cell_volume 2295.312053
_symmetry_space_group_name_H-M "P B C M"
_symmetry_group_IT_number 57
_symmetry_cell_setting 'orthorhombic'
loop_
_space_group_symop_operation_xyz
x,y,z
-x,-y,1/2+z
x,1/2-y,-z
-x,1/2+y,1/2-z
-x,-y,-z
x,y,1/2-z
-x,1/2+y,z
x,1/2-y,1/2+z
loop_
_atom_site_type_symbol
_atom_site_label
_atom_site_fract_x
_atom_site_fract_y
_atom_site_fract_z
Si Si1 0.999510 0.095014 0.543399
Si Si2 0.315854 0.152131 0.958183
Si Si3 0.155828 0.345750 0.043910
Si Si4 0.315572 0.847038 0.045727
Si Si5 0.415047 0.498149 0.453866
Si Si6 0.843007 0.154062 0.543542
O O1 0.999565 0.110617 0.750000
O O2 0.921718 0.126563 0.473391
O O3 0.077153 0.127006 0.473312
O O4 0.000000 0.000000 0.500000
O O5 0.314881 0.149944 0.750000
O O6 0.234751 0.122555 0.019173
O O7 0.374163 0.084519 0.023576
O O8 0.328221 0.250000 0.000000
O O9 0.154021 0.359699 0.250000
O O10 0.160195 0.250000 0.000000
O O11 0.308994 0.846167 0.250000
O O12 0.235698 0.877162 0.976114
O O13 0.330089 0.750000 0.000000
O O14 0.375554 0.915597 0.001115
O O15 0.500000 0.500000 0.500000
O O16 0.409761 0.491618 0.250000
O O17 0.838812 0.250000 0.500000
O O18 0.845152 0.139704 0.750000
#
# Coordination Sequence:
#
# PCOD9438316 Si02
#       6
#     8   8   8   8   8   8
#     4  10  21  33  48  76 112 147 186 229 274 326
#     4   9  20  38  60  86 115 150 191 235 285 343
#     4   9  18  34  54  77 106 142 184 228 273 325
#     4  10  21  39  62  88 119 155 197 243 293 349
#     4  11  24  41  62  89 120 153 192 238 295 356
#     4   9  19  35  54  79 109 145 189 234 280 332
#
# _framework density 20.912189000000001
#
# number of rings (size 3 to 8) (size 9 to 14) (size 15 to 20)
#    0.000    2.333    0.000    1.500    2.333    4.000 
#    0.000    1.667    0.000    0.000    0.000    0.000 
#    0.000    0.000    0.000    0.000    0.000    0.000 
#
# Total GULP energy -267330.129784 kJ/mol
# GULP energy per Si atom -5569.377704 kJ/mol
# Density = 2.086459 g / cm^3
# Si number density = 20.912189 Si / 1000 Ang^3
#
#
#
# Elastic Constant Matrix: (Units=GPa)
#
#
# Indices 1 2 3 4 5 6 
#
# 1 242.2949 106.0841 13.0928 0.0000 0.0000 0.0000
# 2 106.0841 93.9866 -0.8650 0.0000 0.0000 0.0000
# 3 13.0928 -0.8650 36.6828 0.0000 0.0000 0.0000
# 4 0.0000 0.0000 0.0000 26.6067 0.0000 0.0000
# 5 0.0000 0.0000 0.0000 0.0000 -144.4058 0.0000
# 6 0.0000 0.0000 0.0000 0.0000 0.0000 47.0566
#
#
#
# Elastic Compliance Matrix: (Units=1/GPa)
#
#
# Indices 1 2 3 4 5 6 
#
# 1 0.008535 -0.009664 -0.003274 0.000000 0.000000 0.000000
# 2 -0.009664 0.021584 0.003958 0.000000 0.000000 0.000000
# 3 -0.003274 0.003958 0.028523 0.000000 0.000000 0.000000
# 4 0.000000 0.000000 0.000000 0.037585 0.000000 0.000000
# 5 0.000000 0.000000 0.000000 0.000000 -0.006925 0.000000
# 6 0.000000 0.000000 0.000000 0.000000 0.000000 0.021251
#
#
# Mechanical properties :
#
#
# Convention : Reuss Voigt Hill
#
# Bulk Modulus (GPa) = 24.58086 67.73204 46.15645
# Shear Modulus (GPa) = 35.19285 2.82831 19.01058
#
# Velocity S-wave (km/s) = 4.10675 1.16422 3.01834
# Velocity P-wave (km/s) = 5.85381 5.85374 5.85377
#
# Compressibility (1/GPa) = 0.04068205
#
# Stress axis : x y z
#
# Youngs Moduli (GPa) = 117.15889 46.32983 35.05974
#
# Poissons Ratio (x) = 0.44774 0.11480
# Poissons Ratio (y) = 1.13225 -0.13878
# Poissons Ratio (z) = 0.38362 -0.18339
#
# Static dielectric constant tensor:
#      x y z
#    x 1.960790 0.000000 0.000000 
#    y 0.000000 1.699110 0.000000 
#    z 0.000000 0.000000 1.786180 
# 
# From -- ./inp_files/6516.got.cif
#   From: 2010.05.17/outbox.cif.g08.bks.cpg/sg57_4_cif.got.tgz:6516.got - 2010.06.03 13:58:18.
