data_PCOD9438477
_publ_section_title
;
Structure prediction by ZEFSAII (Michael W. Deem and Ramdas Pophale) SiO2 
 PCOD9438477
Probable space group: P B C M
;
_chemical_formula_sum "Si O2"
_cell_formula_units_Z 48
_cell_length_a 16.110109
_cell_length_b 8.540762
_cell_length_c 17.781496
_cell_angle_alpha 90.000000
_cell_angle_beta 90.000000
_cell_angle_gamma 90.000000
_cell_volume 2446.602387
_symmetry_space_group_name_H-M "P B C M"
_symmetry_group_IT_number 57
_symmetry_cell_setting 'orthorhombic'
loop_
_space_group_symop_operation_xyz
x,y,z
-x,-y,1/2+z
x,1/2-y,-z
-x,1/2+y,1/2-z
-x,-y,-z
x,y,1/2-z
-x,1/2+y,z
x,1/2-y,1/2+z
loop_
_atom_site_type_symbol
_atom_site_label
_atom_site_fract_x
_atom_site_fract_y
_atom_site_fract_z
Si Si1 0.036346 0.377877 0.058323
Si Si2 0.344329 0.379846 0.164181
Si Si3 0.852357 0.163541 0.581508
Si Si4 0.270659 0.381798 0.938390
Si Si5 0.166501 0.958126 0.832883
Si Si6 0.411896 0.931941 0.525123
O O1 0.104840 0.453603 0.110566
O O2 0.951083 0.331767 0.100392
O O3 0.068537 0.250000 0.000000
O O4 0.000000 0.500000 0.000000
O O5 0.376829 0.366336 0.250000
O O6 0.323208 0.212007 0.125264
O O7 0.252635 0.452363 0.168334
O O8 0.395786 0.498154 0.109690
O O9 0.844015 0.250000 0.500000
O O10 0.813254 0.283685 0.639877
O O11 0.807031 0.994882 0.583085
O O12 0.247610 0.250000 0.000000
O O13 0.335727 0.494317 0.979329
O O14 0.128883 0.956846 0.750000
O O15 0.412097 0.750000 0.500000
O O16 0.500000 0.000000 0.500000
#
# Coordination Sequence:
#
# PCOD9438477 Si02
#       6
#     8   8   8   8   8   8
#     4  11  23  37  59  85 117 162 221 263 312 366
#     4  10  23  41  63  92 130 163 200 252 313 370
#     4  11  21  37  60  86 119 164 217 266 310 372
#     4  10  21  36  64  90 123 162 210 254 301 371
#     4  11  24  41  58  87 124 162 206 263 320 369
#     4  11  22  41  68  97 125 160 206 248 300 363
#
# _framework density 19.619045
#
# number of rings (size 3 to 8) (size 9 to 14) (size 15 to 20)
#    0.000    1.333    3.333    5.000    2.333    1.333 
#    0.000    4.167    0.000    0.000    0.000    0.000 
#    0.000    0.000    0.000    0.000    0.000    0.000 
#
# Total GULP energy -267528.748745 kJ/mol
# GULP energy per Si atom -5573.515599 kJ/mol
# Density = 1.957439 g / cm^3
# Si number density = 19.619045 Si / 1000 Ang^3
#
#
#
# Elastic Constant Matrix: (Units=GPa)
#
#
# Indices 1 2 3 4 5 6 
#
# 1 82.4035 34.0776 28.8990 0.0000 0.0000 0.0000
# 2 34.0776 149.2187 55.6666 0.0000 0.0000 0.0000
# 3 28.8990 55.6666 135.7751 0.0000 0.0000 0.0000
# 4 0.0000 0.0000 0.0000 17.6041 0.0000 0.0000
# 5 0.0000 0.0000 0.0000 0.0000 23.0661 0.0000
# 6 0.0000 0.0000 0.0000 0.0000 0.0000 31.8251
#
#
#
# Elastic Compliance Matrix: (Units=1/GPa)
#
#
# Indices 1 2 3 4 5 6 
#
# 1 0.013823 -0.002431 -0.001945 0.000000 0.000000 0.000000
# 2 -0.002431 0.008339 -0.002902 0.000000 0.000000 0.000000
# 3 -0.001945 -0.002902 0.008969 0.000000 0.000000 0.000000
# 4 0.000000 0.000000 0.000000 0.056805 0.000000 0.000000
# 5 0.000000 0.000000 0.000000 0.000000 0.043354 0.000000
# 6 0.000000 0.000000 0.000000 0.000000 0.000000 0.031422
#
#
# Mechanical properties :
#
#
# Convention : Reuss Voigt Hill
#
# Bulk Modulus (GPa) = 60.33212 67.18707 63.75959
# Shear Modulus (GPa) = 27.35341 31.08266 29.21803
#
# Velocity S-wave (km/s) = 3.73799 3.98466 3.86329
# Velocity P-wave (km/s) = 7.03197 7.44917 7.24358
#
# Compressibility (1/GPa) = 0.01657492
#
# Stress axis : x y z
#
# Youngs Moduli (GPa) = 72.34299 119.91562 111.49753
#
# Poissons Ratio (x) = 0.29152 0.21691
# Poissons Ratio (y) = 0.17587 0.32352
# Poissons Ratio (z) = 0.14074 0.34794
#
# Static dielectric constant tensor:
#      x y z
#    x 1.636730 0.000000 0.000000 
#    y 0.000000 1.466620 0.000000 
#    z 0.000000 0.000000 1.740450 
# 
# From -- ./inp_files/22486.got.cif
#   From: 2010.05.17/outbox.cif.g08.bks.cpg/sg57_12_cif.got.tgz:22486.got - 2010.06.03 13:58:18.
