data_PCOD9438898
_publ_section_title
;
Structure prediction by ZEFSAII (Michael W. Deem and Ramdas Pophale) SiO2 
 PCOD9438898
Probable space group: P B C M
;
_chemical_formula_sum "Si O2"
_cell_formula_units_Z 48
_cell_length_a 6.229063
_cell_length_b 13.608505
_cell_length_c 27.630841
_cell_angle_alpha 90.000000
_cell_angle_beta 90.000000
_cell_angle_gamma 90.000000
_cell_volume 2342.217623
_symmetry_space_group_name_H-M "P B C M"
_symmetry_group_IT_number 57
_symmetry_cell_setting 'orthorhombic'
loop_
_space_group_symop_operation_xyz
x,y,z
-x,-y,1/2+z
x,1/2-y,-z
-x,1/2+y,1/2-z
-x,-y,-z
x,y,1/2-z
-x,1/2+y,z
x,1/2-y,1/2+z
loop_
_atom_site_type_symbol
_atom_site_label
_atom_site_fract_x
_atom_site_fract_y
_atom_site_fract_z
Si Si1 0.934539 0.345566 0.368916
Si Si2 0.063123 0.347653 0.022189
Si Si3 0.387526 0.470891 0.878641
Si Si4 0.255552 0.946935 0.545784
Si Si5 0.981887 0.130714 0.358034
Si Si6 0.761840 0.525996 0.805384
O O1 0.025653 0.326681 0.421994
O O2 0.116644 0.386187 0.333009
O O3 0.757683 0.430309 0.376966
O O4 0.874131 0.236498 0.352226
O O5 0.201029 0.447170 0.022818
O O6 0.164528 0.250000 0.000000
O O7 0.839504 0.370850 0.993606
O O8 0.510095 0.452664 0.929572
O O9 0.558924 0.491317 0.836577
O O10 0.236271 0.378124 0.866581
O O11 0.111754 0.922591 0.593573
O O12 0.926011 0.064485 0.312011
O O13 0.713527 0.547734 0.750000
#
# Coordination Sequence:
#
# PCOD9438898 Si02
#       6
#     8   8   8   8   8   8
#     4  11  22  41  63  92 127 165 205 263 307 374
#     4  11  20  38  63  92 136 169 208 250 301 364
#     4  10  21  41  63  88 125 164 209 254 317 370
#     4  10  21  39  60  90 130 171 206 252 296 368
#     4  10  21  41  64  89 126 160 204 261 313 368
#     4  10  23  43  64  89 121 160 209 264 323 379
#
# _framework density 20.493400000000001
#
# number of rings (size 3 to 8) (size 9 to 14) (size 15 to 20)
#    0.000    1.667    6.667    0.000    0.000    6.667 
#    0.000    2.500    0.000    0.000    0.000    0.000 
#    0.000    0.000    0.000    0.000    0.000    0.000 
#
# Total GULP energy -267475.013114 kJ/mol
# GULP energy per Si atom -5572.396107 kJ/mol
# Density = 2.044676 g / cm^3
# Si number density = 20.493400 Si / 1000 Ang^3
#
#
#
# Elastic Constant Matrix: (Units=GPa)
#
#
# Indices 1 2 3 4 5 6 
#
# 1 57.6571 -5.7620 3.8883 0.0000 0.0000 0.0000
# 2 -5.7620 66.9433 -0.5500 0.0000 0.0000 0.0000
# 3 3.8883 -0.5500 98.0318 0.0000 0.0000 0.0000
# 4 0.0000 0.0000 0.0000 12.1399 0.0000 0.0000
# 5 0.0000 0.0000 0.0000 0.0000 17.9070 0.0000
# 6 0.0000 0.0000 0.0000 0.0000 0.0000 10.6708
#
#
#
# Elastic Compliance Matrix: (Units=1/GPa)
#
#
# Indices 1 2 3 4 5 6 
#
# 1 0.017541 0.001504 -0.000687 0.000000 0.000000 0.000000
# 2 0.001504 0.015068 0.000025 0.000000 0.000000 0.000000
# 3 -0.000687 0.000025 0.010228 0.000000 0.000000 0.000000
# 4 0.000000 0.000000 0.000000 0.082373 0.000000 0.000000
# 5 0.000000 0.000000 0.000000 0.000000 0.055844 0.000000
# 6 0.000000 0.000000 0.000000 0.000000 0.000000 0.093714
#
#
# Mechanical properties :
#
#
# Convention : Reuss Voigt Hill
#
# Bulk Modulus (GPa) = 22.46187 24.19831 23.33009
# Shear Modulus (GPa) = 17.36567 23.14724 20.25646
#
# Velocity S-wave (km/s) = 2.91413 3.36445 3.14735
# Velocity P-wave (km/s) = 4.72305 5.18904 4.96152
#
# Compressibility (1/GPa) = 0.04451988
#
# Stress axis : x y z
#
# Youngs Moduli (GPa) = 57.01061 66.36717 97.76921
#
# Poissons Ratio (x) = -0.09982 0.06719
# Poissons Ratio (y) = -0.08575 -0.00243
# Poissons Ratio (z) = 0.03918 -0.00165
#
# Static dielectric constant tensor:
#      x y z
#    x 1.800590 0.000000 0.000000 
#    y 0.000000 1.834050 0.000000 
#    z 0.000000 0.000000 1.722160 
# 
# From -- ./inp_files/29113.got.cif
#   From: 2010.05.17/outbox.cif.g08.bks.cpg/sg57_15_cif.got.tgz:29113.got - 2010.06.03 13:58:18.
