data_PCOD9438661
_publ_section_title
;
Structure prediction by ZEFSAII (Michael W. Deem and Ramdas Pophale) SiO2 
 PCOD9438661
Probable space group: P B C M
;
_chemical_formula_sum "Si O2"
_cell_formula_units_Z 64
_cell_length_a 24.211258
_cell_length_b 15.768734
_cell_length_c 8.680626
_cell_angle_alpha 90.000000
_cell_angle_beta 90.000000
_cell_angle_gamma 90.000000
_cell_volume 3314.097096
_symmetry_space_group_name_H-M "P B C M"
_symmetry_group_IT_number 57
_symmetry_cell_setting 'orthorhombic'
loop_
_space_group_symop_operation_xyz
x,y,z
-x,-y,1/2+z
x,1/2-y,-z
-x,1/2+y,1/2-z
-x,-y,-z
x,y,1/2-z
-x,1/2+y,z
x,1/2-y,1/2+z
loop_
_atom_site_type_symbol
_atom_site_label
_atom_site_fract_x
_atom_site_fract_y
_atom_site_fract_z
Si Si1 0.371084 0.158316 0.065904
Si Si2 0.252052 0.415927 0.934377
Si Si3 0.867525 0.657613 0.434326
Si Si4 0.371274 0.659742 0.933301
Si Si5 0.744238 0.104015 0.066090
Si Si6 0.438339 0.999756 0.565906
Si Si7 0.938391 0.996994 0.435283
Si Si8 0.866661 0.159917 0.435366
O O1 0.378139 0.157003 0.250000
O O2 0.306818 0.137743 0.031308
O O3 0.385873 0.250000 0.000000
O O4 0.406851 0.083515 0.992158
O O5 0.251762 0.433532 0.750000
O O6 0.195748 0.367329 0.973584
O O7 0.254694 0.504705 0.023352
O O8 0.880472 0.750000 0.500000
O O9 0.872722 0.658114 0.250000
O O10 0.906642 0.585458 0.503550
O O11 0.376224 0.658814 0.750000
O O12 0.389975 0.750000 0.000000
O O13 0.307555 0.645654 0.981481
O O14 0.405660 0.582155 0.003785
O O15 0.737705 0.114285 0.250000
O O16 0.803178 0.142526 0.017703
O O17 0.439190 0.997994 0.750000
O O18 0.500000 0.000000 0.500000
O O19 0.939421 0.995276 0.250000
O O20 0.904292 0.080805 0.484770
O O21 0.000000 0.000000 0.500000
O O22 0.885448 0.250000 0.500000
O O23 0.867713 0.162670 0.250000
#
# Coordination Sequence:
#
# PCOD9438661 Si02
#       8
#     8   8   8   8   8   8   8   8
#     4  11  23  41  65  97 132 170 212 260 312 375
#     4  10  21  37  62  94 130 168 208 254 313 376
#     4  11  23  40  64  95 127 168 210 258 316 375
#     4  12  25  43  66  97 132 169 212 261 315 379
#     4  11  21  37  63  95 129 168 206 254 316 377
#     4  12  26  46  69  95 126 168 215 267 320 375
#     4  11  24  44  64  89 122 163 212 267 317 374
#     4  10  23  40  62  92 125 161 204 253 310 372
#
# _framework density 19.311444000000002
#
# number of rings (size 3 to 8) (size 9 to 14) (size 15 to 20)
#    0.000    1.000    2.500    4.500    0.000    5.000 
#    0.000    3.750    0.000    0.000    0.000    0.000 
#    0.000    0.000    0.000    0.000    0.000    0.000 
#
# Total GULP energy -358120.904750 kJ/mol
# GULP energy per Si atom -5595.639137 kJ/mol
# Density = 1.926749 g / cm^3
# Si number density = 19.311444 Si / 1000 Ang^3
#
#
#
# Elastic Constant Matrix: (Units=GPa)
#
#
# Indices 1 2 3 4 5 6 
#
# 1 155.0664 87.2149 64.9339 0.0000 0.0000 0.0000
# 2 87.2149 200.3840 74.5772 0.0000 0.0000 0.0000
# 3 64.9339 74.5772 100.9086 0.0000 0.0000 0.0000
# 4 0.0000 0.0000 0.0000 38.9793 0.0000 0.0000
# 5 0.0000 0.0000 0.0000 0.0000 29.0940 0.0000
# 6 0.0000 0.0000 0.0000 0.0000 0.0000 -5.8736
#
#
#
# Elastic Compliance Matrix: (Units=1/GPa)
#
#
# Indices 1 2 3 4 5 6 
#
# 1 0.009738 -0.002629 -0.004323 0.000000 0.000000 0.000000
# 2 -0.002629 0.007594 -0.003920 0.000000 0.000000 0.000000
# 3 -0.004323 -0.003920 0.015589 0.000000 0.000000 0.000000
# 4 0.000000 0.000000 0.000000 0.025655 0.000000 0.000000
# 5 0.000000 0.000000 0.000000 0.000000 0.034371 0.000000
# 6 0.000000 0.000000 0.000000 0.000000 0.000000 -0.170253
#
#
# Mechanical properties :
#
#
# Convention : Reuss Voigt Hill
#
# Bulk Modulus (GPa) = 89.48156 101.09012 95.28584
# Shear Modulus (GPa) = -96.45940 27.74879 -34.35530
#
# Velocity S-wave (km/s) = -7.07515 3.79477 -4.22241
# Velocity P-wave (km/s) = 4.50634 8.46530 5.06726
#
# Compressibility (1/GPa) = 0.01117549
#
# Stress axis : x y z
#
# Youngs Moduli (GPa) = 102.69029 131.68505 64.14739
#
# Poissons Ratio (x) = 0.34626 0.27731
# Poissons Ratio (y) = 0.27002 0.25148
# Poissons Ratio (z) = 0.44393 0.51624
#
# Static dielectric constant tensor:
#      x y z
#    x 1.656830 0.000000 0.000000 
#    y 0.000000 1.652330 0.000000 
#    z 0.000000 0.000000 1.648050 
# 
# From -- ./inp_files/9384.got.cif
#   From: 2010.05.17/outbox.cif.g08.bks.cpg/sg57_5_cif.got.tgz:9384.got - 2010.06.03 13:58:18.
