data_PCOD9438203
_publ_section_title
;
Structure prediction by ZEFSAII (Michael W. Deem and Ramdas Pophale) SiO2 
 PCOD9438203
Probable space group: P B C M
;
_chemical_formula_sum "Si O2"
_cell_formula_units_Z 64
_cell_length_a 20.490366
_cell_length_b 9.064776
_cell_length_c 16.158910
_cell_angle_alpha 90.000000
_cell_angle_beta 90.000000
_cell_angle_gamma 90.000000
_cell_volume 3001.365282
_symmetry_space_group_name_H-M "P B C M"
_symmetry_group_IT_number 57
_symmetry_cell_setting 'orthorhombic'
loop_
_space_group_symop_operation_xyz
x,y,z
-x,-y,1/2+z
x,1/2-y,-z
-x,1/2+y,1/2-z
-x,-y,-z
x,y,1/2-z
-x,1/2+y,z
x,1/2-y,1/2+z
loop_
_atom_site_type_symbol
_atom_site_label
_atom_site_fract_x
_atom_site_fract_y
_atom_site_fract_z
Si Si1 0.610721 0.093793 0.981712
Si Si2 0.807061 0.062126 0.337976
Si Si3 0.950312 0.553795 0.657903
Si Si4 0.588547 0.534038 0.843910
Si Si5 0.248742 0.670296 0.916045
Si Si6 0.191712 0.086229 0.492122
Si Si7 0.450036 0.379373 0.843819
Si Si8 0.048389 0.348917 0.567488
O O1 0.624789 0.017146 0.071298
O O2 0.573894 0.250000 0.000000
O O3 0.674976 0.149295 0.932374
O O4 0.577897 0.976887 0.919657
O O5 0.788055 0.994277 0.250000
O O6 0.885648 0.047921 0.342534
O O7 0.776773 0.224539 0.344853
O O8 0.786650 0.980451 0.420649
O O9 0.977264 0.556614 0.750000
O O10 0.933040 0.722328 0.633926
O O11 0.004283 0.476952 0.601963
O O12 0.618471 0.523185 0.750000
O O13 0.525987 0.425212 0.842291
O O14 0.564618 0.704601 0.854096
O O15 0.219575 0.507897 0.917248
O O16 0.222239 0.750000 0.000000
O O17 0.216191 0.250000 0.500000
O O18 0.113736 0.092143 0.476844
O O19 0.425146 0.418879 0.750000
O O20 0.010720 0.250000 0.500000
#
# Coordination Sequence:
#
# PCOD9438203 Si02
#       8
#     8   8   8   8   8   8   8   8
#     4  11  22  38  60  91 124 168 219 270 320 382
#     4  10  21  40  61  86 119 157 203 256 308 370
#     4  11  23  38  58  89 123 153 195 252 309 375
#     4  10  21  38  61  94 130 172 216 267 327 382
#     4   9  22  40  62  83 113 161 211 253 308 373
#     4  10  20  40  61  84 114 157 199 250 309 371
#     4  10  21  37  61  92 134 176 217 267 325 386
#     4  11  22  37  58  88 118 156 195 241 310 382
#
# _framework density 21.323629
#
# number of rings (size 3 to 8) (size 9 to 14) (size 15 to 20)
#    0.000    1.750    2.500    2.250    1.750    3.500 
#    0.000    6.250    0.000    0.000    0.000    0.000 
#    0.000    0.000    0.000    0.000    0.000    0.000 
#
# Total GULP energy -356429.970779 kJ/mol
# GULP energy per Si atom -5569.218293 kJ/mol
# Density = 2.127510 g / cm^3
# Si number density = 21.323629 Si / 1000 Ang^3
#
#
#
# Elastic Constant Matrix: (Units=GPa)
#
#
# Indices 1 2 3 4 5 6 
#
# 1 42.0071 21.1045 16.5839 0.0000 0.0000 0.0000
# 2 21.1045 104.0391 46.2510 0.0000 0.0000 0.0000
# 3 16.5839 46.2510 132.4653 0.0000 0.0000 0.0000
# 4 0.0000 0.0000 0.0000 25.8056 0.0000 0.0000
# 5 0.0000 0.0000 0.0000 0.0000 -24.4619 0.0000
# 6 0.0000 0.0000 0.0000 0.0000 0.0000 18.8876
#
#
#
# Elastic Compliance Matrix: (Units=1/GPa)
#
#
# Indices 1 2 3 4 5 6 
#
# 1 0.026837 -0.004676 -0.001727 0.000000 0.000000 0.000000
# 2 -0.004676 0.012193 -0.003672 0.000000 0.000000 0.000000
# 3 -0.001727 -0.003672 0.009047 0.000000 0.000000 0.000000
# 4 0.000000 0.000000 0.000000 0.038751 0.000000 0.000000
# 5 0.000000 0.000000 0.000000 0.000000 -0.040880 0.000000
# 6 0.000000 0.000000 0.000000 0.000000 0.000000 0.052945
#
#
# Mechanical properties :
#
#
# Convention : Reuss Voigt Hill
#
# Bulk Modulus (GPa) = 35.80786 49.59893 42.70340
# Shear Modulus (GPa) = 38.95556 17.01773 27.98665
#
# Velocity S-wave (km/s) = 4.27883 2.82808 3.62673
# Velocity P-wave (km/s) = 6.42185 5.82877 6.13249
#
# Compressibility (1/GPa) = 0.02792683
#
# Stress axis : x y z
#
# Youngs Moduli (GPa) = 37.26255 82.01710 110.52945
#
# Poissons Ratio (x) = 0.38352 0.19090
# Poissons Ratio (y) = 0.17424 0.40583
# Poissons Ratio (z) = 0.06436 0.30114
#
# Static dielectric constant tensor:
#      x y z
#    x 1.791200 0.000000 0.000000 
#    y 0.000000 1.817760 0.000000 
#    z 0.000000 0.000000 1.813220 
# 
# From -- ./inp_files/19504.got.cif
#   From: 2010.05.17/outbox.cif.g08.bks.cpg/sg57_10_cif.got.tgz:19504.got - 2010.06.03 13:58:18.
