data_PCOD9438856
_publ_section_title
;
Structure prediction by ZEFSAII (Michael W. Deem and Ramdas Pophale) SiO2 
 PCOD9438856
Probable space group: P B C M
;
_chemical_formula_sum "Si O2"
_cell_formula_units_Z 64
_cell_length_a 20.644682
_cell_length_b 8.210593
_cell_length_c 17.675119
_cell_angle_alpha 90.000000
_cell_angle_beta 90.000000
_cell_angle_gamma 90.000000
_cell_volume 2996.022487
_symmetry_space_group_name_H-M "P B C M"
_symmetry_group_IT_number 57
_symmetry_cell_setting 'orthorhombic'
loop_
_space_group_symop_operation_xyz
x,y,z
-x,-y,1/2+z
x,1/2-y,-z
-x,1/2+y,1/2-z
-x,-y,-z
x,y,1/2-z
-x,1/2+y,z
x,1/2-y,1/2+z
loop_
_atom_site_type_symbol
_atom_site_label
_atom_site_fract_x
_atom_site_fract_y
_atom_site_fract_z
Si Si1 0.147044 0.082312 0.333641
Si Si2 0.181928 0.941097 0.008458
Si Si3 0.950331 0.041106 0.067062
Si Si4 0.989739 0.767287 0.165305
Si Si5 0.652528 0.328631 0.340582
Si Si6 0.713366 0.678359 0.164349
Si Si7 0.566403 0.429124 0.467222
Si Si8 0.683575 0.512575 0.932269
O O1 0.150143 0.003409 0.250000
O O2 0.077248 0.165930 0.340552
O O3 0.208831 0.203038 0.336508
O O4 0.160863 0.974423 0.406035
O O5 0.188889 0.750000 0.000000
O O6 0.248701 0.013595 0.977679
O O7 0.121266 0.999934 0.958691
O O8 0.967955 0.947634 0.143933
O O9 0.961691 0.222223 0.097333
O O10 0.000000 0.000000 0.000000
O O11 0.015581 0.758819 0.250000
O O12 0.647870 0.299815 0.250000
O O13 0.699611 0.486269 0.353104
O O14 0.586065 0.397928 0.379480
O O15 0.674863 0.159628 0.383758
O O16 0.689751 0.697865 0.250000
O O17 0.682178 0.822571 0.116397
O O18 0.568419 0.250000 0.500000
O O19 0.500000 0.500000 0.500000
O O20 0.625822 0.519666 0.507443
#
# Coordination Sequence:
#
# PCOD9438856 Si02
#       8
#     8   8   8   8   8   8   8   8
#     4  10  22  40  62  89 127 167 212 271 331 391
#     4  12  24  41  65  99 127 168 224 267 331 398
#     4  12  24  41  64  90 123 165 217 277 327 399
#     4  11  24  43  61  86 124 167 211 267 338 402
#     4  10  22  43  65  94 135 173 217 275 330 389
#     4  10  21  38  65  97 127 172 221 265 326 390
#     4  10  23  41  65  96 131 173 219 268 330 393
#     4  11  23  41  67  96 135 171 220 275 329 394
#
# _framework density 21.361656
#
# number of rings (size 3 to 8) (size 9 to 14) (size 15 to 20)
#    0.000    1.250    1.250    5.250    1.750    2.500 
#    0.000    6.250    0.000    0.000    0.000    0.000 
#    0.000    0.000    0.000    0.000    0.000    0.000 
#
# Total GULP energy -356984.542451 kJ/mol
# GULP energy per Si atom -5577.883476 kJ/mol
# Density = 2.131304 g / cm^3
# Si number density = 21.361656 Si / 1000 Ang^3
#
#
#
# Elastic Constant Matrix: (Units=GPa)
#
#
# Indices 1 2 3 4 5 6 
#
# 1 116.6910 -4.1423 23.4375 0.0000 0.0000 0.0000
# 2 -4.1423 66.1831 26.5257 0.0000 0.0000 0.0000
# 3 23.4375 26.5257 116.3693 0.0000 0.0000 0.0000
# 4 0.0000 0.0000 0.0000 37.4349 0.0000 0.0000
# 5 0.0000 0.0000 0.0000 0.0000 22.3438 0.0000
# 6 0.0000 0.0000 0.0000 0.0000 0.0000 27.4420
#
#
#
# Elastic Compliance Matrix: (Units=1/GPa)
#
#
# Indices 1 2 3 4 5 6 
#
# 1 0.009052 0.001428 -0.002149 0.000000 0.000000 0.000000
# 2 0.001428 0.016854 -0.004129 0.000000 0.000000 0.000000
# 3 -0.002149 -0.004129 0.009967 0.000000 0.000000 0.000000
# 4 0.000000 0.000000 0.000000 0.026713 0.000000 0.000000
# 5 0.000000 0.000000 0.000000 0.000000 0.044755 0.000000
# 6 0.000000 0.000000 0.000000 0.000000 0.000000 0.036440
#
#
# Mechanical properties :
#
#
# Convention : Reuss Voigt Hill
#
# Bulk Modulus (GPa) = 38.20765 43.43168 40.81967
# Shear Modulus (GPa) = 30.82496 34.33900 32.58198
#
# Velocity S-wave (km/s) = 3.80281 4.01372 3.90969
# Velocity P-wave (km/s) = 6.09973 6.46960 6.28739
#
# Compressibility (1/GPa) = 0.02617277
#
# Stress axis : x y z
#
# Youngs Moduli (GPa) = 110.47459 59.33336 100.32806
#
# Poissons Ratio (x) = -0.08471 0.21556
# Poissons Ratio (y) = -0.15772 0.41428
# Poissons Ratio (z) = 0.23736 0.24500
#
# Static dielectric constant tensor:
#      x y z
#    x 1.771920 0.000000 0.000000 
#    y 0.000000 1.523200 0.000000 
#    z 0.000000 0.000000 1.826300 
# 
# From -- ./inp_files/23041.got.cif
#   From: 2010.05.17/outbox.cif.g08.bks.cpg/sg57_12_cif.got.tgz:23041.got - 2010.06.03 13:58:18.
