data_PCOD9438245
_publ_section_title
;
Structure prediction by ZEFSAII (Michael W. Deem and Ramdas Pophale) SiO2 
 PCOD9438245
Probable space group: P B C M
;
_chemical_formula_sum "Si O2"
_cell_formula_units_Z 56
_cell_length_a 9.754501
_cell_length_b 15.369768
_cell_length_c 14.390622
_cell_angle_alpha 90.000000
_cell_angle_beta 90.000000
_cell_angle_gamma 90.000000
_cell_volume 2157.505618
_symmetry_space_group_name_H-M "P B C M"
_symmetry_group_IT_number 57
_symmetry_cell_setting 'orthorhombic'
loop_
_space_group_symop_operation_xyz
x,y,z
-x,-y,1/2+z
x,1/2-y,-z
-x,1/2+y,1/2-z
-x,-y,-z
x,y,1/2-z
-x,1/2+y,z
x,1/2-y,1/2+z
loop_
_atom_site_type_symbol
_atom_site_label
_atom_site_fract_x
_atom_site_fract_y
_atom_site_fract_z
Si Si1 0.915841 0.432646 0.888918
Si Si2 0.770737 0.750000 0.000000
Si Si3 0.492971 0.544150 0.639669
Si Si4 0.789712 0.408562 0.420222
Si Si5 0.561431 0.660962 0.359500
Si Si6 0.880008 0.968877 0.750000
Si Si7 0.732432 0.268529 0.644698
Si Si8 0.203632 0.116417 0.645784
O O1 0.802848 0.361738 0.860661
O O2 0.883257 0.528214 0.848769
O O3 0.052705 0.407759 0.834087
O O4 0.885535 0.440527 0.997413
O O5 0.676844 0.693745 0.070766
O O6 0.846905 0.817598 0.067393
O O7 0.469738 0.563840 0.750000
O O8 0.375111 0.580397 0.572396
O O9 0.481509 0.439885 0.630458
O O10 0.642292 0.584283 0.620109
O O11 0.821104 0.465448 0.330608
O O12 0.807465 0.305650 0.412120
O O13 0.602762 0.669437 0.250000
O O14 0.427013 0.718713 0.377295
O O15 0.738757 0.236920 0.750000
O O16 0.205290 0.154318 0.750000
#
# Coordination Sequence:
#
# PCOD9438245 Si02
#       8
#     8   4   8   8   8   4   8   8
#     4  12  25  45  78 101 137 191 240 295 356 429
#     4  12  24  34  60  98 144 188 224 276 336 434
#     4  10  20  40  67 104 146 183 224 283 360 428
#     4  12  25  42  75 108 141 182 243 304 352 412
#     4  10  22  36  60  99 147 180 224 275 347 426
#     4  12  26  50  68  98 134 186 238 308 358 410
#     4  11  21  42  69 107 142 184 232 297 352 410
#     4  11  23  43  69 102 145 191 226 281 362 434
#
# _framework density 25.955901000000001
#
# number of rings (size 3 to 8) (size 9 to 14) (size 15 to 20)
#    0.000    0.857    4.286    3.000    4.000    3.429 
#    0.000    0.000   15.714    0.000    0.000    0.000 
#    0.000    0.000    0.000    0.000    0.000    0.000 
#
# Total GULP energy -312783.998301 kJ/mol
# GULP energy per Si atom -5585.428541 kJ/mol
# Density = 2.589682 g / cm^3
# Si number density = 25.955901 Si / 1000 Ang^3
#
#
#
# Elastic Constant Matrix: (Units=GPa)
#
#
# Indices 1 2 3 4 5 6 
#
# 1 68.0397 7.1611 11.3057 0.0000 0.0000 0.0000
# 2 7.1611 71.6933 17.1924 0.0000 0.0000 0.0000
# 3 11.3057 17.1924 148.2321 0.0000 0.0000 0.0000
# 4 0.0000 0.0000 0.0000 45.6905 0.0000 0.0000
# 5 0.0000 0.0000 0.0000 0.0000 19.4218 0.0000
# 6 0.0000 0.0000 0.0000 0.0000 0.0000 -15.3932
#
#
#
# Elastic Compliance Matrix: (Units=1/GPa)
#
#
# Indices 1 2 3 4 5 6 
#
# 1 0.014996 -0.001259 -0.000998 0.000000 0.000000 0.000000
# 2 -0.001259 0.014453 -0.001580 0.000000 0.000000 0.000000
# 3 -0.000998 -0.001580 0.007006 0.000000 0.000000 0.000000
# 4 0.000000 0.000000 0.000000 0.021886 0.000000 0.000000
# 5 0.000000 0.000000 0.000000 0.000000 0.051489 0.000000
# 6 0.000000 0.000000 0.000000 0.000000 0.000000 -0.064964
#
#
# Mechanical properties :
#
#
# Convention : Reuss Voigt Hill
#
# Bulk Modulus (GPa) = 34.74528 39.92037 37.33283
# Shear Modulus (GPa) = 80.47391 26.76423 53.61907
#
# Velocity S-wave (km/s) = 5.57417 3.21462 4.55001
# Velocity P-wave (km/s) = 7.40566 5.40295 6.48212
#
# Compressibility (1/GPa) = 0.02878088
#
# Stress axis : x y z
#
# Youngs Moduli (GPa) = 66.68640 69.18983 142.74372
#
# Poissons Ratio (x) = 0.08708 0.14242
# Poissons Ratio (y) = 0.08393 0.22558
# Poissons Ratio (z) = 0.06654 0.10934
#
# Static dielectric constant tensor:
#      x y z
#    x 2.096380 0.000000 0.000000 
#    y 0.000000 2.019700 0.000000 
#    z 0.000000 0.000000 2.116880 
# 
# From -- ./inp_files/17800.got.cif
#   From: 2010.05.17/outbox.cif.g08.bks.cpg/sg57_9_cif.got.tgz:17800.got - 2010.06.03 13:58:18.
