data_PCOD9438890
_publ_section_title
;
Structure prediction by ZEFSAII (Michael W. Deem and Ramdas Pophale) SiO2 
 PCOD9438890
Probable space group: P B C M
;
_chemical_formula_sum "Si O2"
_cell_formula_units_Z 48
_cell_length_a 15.846148
_cell_length_b 18.268487
_cell_length_c 8.619446
_cell_angle_alpha 90.000000
_cell_angle_beta 90.000000
_cell_angle_gamma 90.000000
_cell_volume 2495.201607
_symmetry_space_group_name_H-M "P B C M"
_symmetry_group_IT_number 57
_symmetry_cell_setting 'orthorhombic'
loop_
_space_group_symop_operation_xyz
x,y,z
-x,-y,1/2+z
x,1/2-y,-z
-x,1/2+y,1/2-z
-x,-y,-z
x,y,1/2-z
-x,1/2+y,z
x,1/2-y,1/2+z
loop_
_atom_site_type_symbol
_atom_site_label
_atom_site_fract_x
_atom_site_fract_y
_atom_site_fract_z
Si Si1 0.168489 0.423228 0.061986
Si Si2 0.334620 0.832149 0.935294
Si Si3 0.496410 0.917780 0.436723
Si Si4 0.665955 0.832079 0.063001
Si Si5 0.996742 0.832037 0.436999
Si Si6 0.830490 0.087565 0.563625
O O1 0.168769 0.429411 0.250000
O O2 0.251858 0.378274 0.014832
O O3 0.085025 0.378610 0.014472
O O4 0.168547 0.503825 0.991130
O O5 0.337339 0.830730 0.750000
O O6 0.337299 0.750000 0.000000
O O7 0.414373 0.876928 0.999164
O O8 0.249265 0.871195 0.991320
O O9 0.493367 0.919294 0.250000
O O10 0.580556 0.873679 0.484890
O O11 0.500000 0.000000 0.500000
O O12 0.666441 0.828842 0.250000
O O13 0.668492 0.750000 0.000000
O O14 0.993387 0.750000 0.500000
O O15 0.996074 0.828968 0.250000
O O16 0.082842 0.872455 0.485064
O O17 0.824553 0.090672 0.750000
#
# Coordination Sequence:
#
# PCOD9438890 Si02
#       6
#     8   8   8   8   8   8
#     4  10  21  39  60  87 121 156 194 241 293 352
#     4  12  25  42  63  88 119 158 201 252 307 360
#     4  11  23  40  62  91 123 159 201 245 296 358
#     4  10  22  38  59  86 117 152 193 237 288 346
#     4  10  22  38  59  87 120 156 198 244 295 353
#     4  11  23  39  60  89 119 155 201 247 298 359
#
# _framework density 19.236923000000001
#
# number of rings (size 3 to 8) (size 9 to 14) (size 15 to 20)
#    0.000    1.333    0.000    5.500    0.000    8.000 
#    0.000    0.000    0.000    0.000    0.000    0.000 
#    0.000    0.000    0.000    0.000    0.000    0.000 
#
# Total GULP energy -268547.459684 kJ/mol
# GULP energy per Si atom -5594.738743 kJ/mol
# Density = 1.919314 g / cm^3
# Si number density = 19.236923 Si / 1000 Ang^3
#
#
#
# Elastic Constant Matrix: (Units=GPa)
#
#
# Indices 1 2 3 4 5 6 
#
# 1 201.4359 107.8220 57.3908 0.0000 0.0000 0.0000
# 2 107.8220 202.8219 53.2306 0.0000 0.0000 0.0000
# 3 57.3908 53.2306 60.6305 0.0000 0.0000 0.0000
# 4 0.0000 0.0000 0.0000 44.4466 0.0000 0.0000
# 5 0.0000 0.0000 0.0000 0.0000 3.7823 0.0000
# 6 0.0000 0.0000 0.0000 0.0000 0.0000 46.4973
#
#
#
# Elastic Compliance Matrix: (Units=1/GPa)
#
#
# Indices 1 2 3 4 5 6 
#
# 1 0.007938 -0.002921 -0.004949 0.000000 0.000000 0.000000
# 2 -0.002921 0.007481 -0.003803 0.000000 0.000000 0.000000
# 3 -0.004949 -0.003803 0.024518 0.000000 0.000000 0.000000
# 4 0.000000 0.000000 0.000000 0.022499 0.000000 0.000000
# 5 0.000000 0.000000 0.000000 0.000000 0.264393 0.000000
# 6 0.000000 0.000000 0.000000 0.000000 0.000000 0.021507
#
#
# Mechanical properties :
#
#
# Convention : Reuss Voigt Hill
#
# Bulk Modulus (GPa) = 60.27962 100.19723 80.23843
# Shear Modulus (GPa) = 13.25512 35.37488 24.31500
#
# Velocity S-wave (km/s) = 2.62782 4.29290 3.55910
# Velocity P-wave (km/s) = 6.37265 8.76190 7.66099
#
# Compressibility (1/GPa) = 0.01658935
#
# Stress axis : x y z
#
# Youngs Moduli (GPa) = 125.97711 133.66379 40.78717
#
# Poissons Ratio (x) = 0.39042 0.20187
# Poissons Ratio (y) = 0.36797 0.15513
# Poissons Ratio (z) = 0.62351 0.50839
#
# Static dielectric constant tensor:
#      x y z
#    x 1.653960 0.000000 0.000000 
#    y 0.000000 1.612190 0.000000 
#    z 0.000000 0.000000 1.650540 
# 
# From -- ./inp_files/4575.got.cif
#   From: 2010.05.17/outbox.cif.g08.bks.cpg/sg57_3_cif.got.tgz:4575.got - 2010.06.03 13:58:18.
