data_PCOD9438434
_publ_section_title
;
Structure prediction by ZEFSAII (Michael W. Deem and Ramdas Pophale) SiO2 
 PCOD9438434
Probable space group: P B C M
;
_chemical_formula_sum "Si O2"
_cell_formula_units_Z 64
_cell_length_a 9.242387
_cell_length_b 20.371685
_cell_length_c 17.238509
_cell_angle_alpha 90.000000
_cell_angle_beta 90.000000
_cell_angle_gamma 90.000000
_cell_volume 3245.718132
_symmetry_space_group_name_H-M "P B C M"
_symmetry_group_IT_number 57
_symmetry_cell_setting 'orthorhombic'
loop_
_space_group_symop_operation_xyz
x,y,z
-x,-y,1/2+z
x,1/2-y,-z
-x,1/2+y,1/2-z
-x,-y,-z
x,y,1/2-z
-x,1/2+y,z
x,1/2-y,1/2+z
loop_
_atom_site_type_symbol
_atom_site_label
_atom_site_fract_x
_atom_site_fract_y
_atom_site_fract_z
Si Si1 0.894920 0.613763 0.071781
Si Si2 0.104274 0.364228 0.113047
Si Si3 0.084709 0.738807 0.407221
Si Si4 0.947991 0.005503 0.338396
Si Si5 0.561964 0.624650 0.888847
Si Si6 0.597252 0.250958 0.160943
Si Si7 0.392482 0.977750 0.842133
Si Si8 0.562390 0.861716 0.925951
O O1 0.001797 0.670205 0.102834
O O2 0.949033 0.544582 0.103909
O O3 0.730310 0.628446 0.094675
O O4 0.899402 0.617806 0.978497
O O5 0.038407 0.427113 0.155604
O O6 0.273032 0.356895 0.134770
O O7 0.015385 0.297891 0.123440
O O8 0.103926 0.750000 0.500000
O O9 0.239090 0.740221 0.366544
O O10 0.974791 0.026767 0.250000
O O11 0.779915 0.020506 0.358277
O O12 0.450596 0.673680 0.848763
O O13 0.545029 0.548402 0.867463
O O14 0.548614 0.634205 0.981241
O O15 0.580539 0.230307 0.250000
O O16 0.495278 0.206997 0.106390
O O17 0.411001 0.969688 0.750000
O O18 0.468278 0.919261 0.887657
#
# Coordination Sequence:
#
# PCOD9438434 Si02
#       8
#     8   8   8   8   8   8   8   8
#     4  10  21  37  60  86 112 145 190 237 280 331
#     4   9  20  39  62  85 111 145 189 236 283 334
#     4  10  21  39  61  84 111 146 187 235 285 339
#     4  10  21  36  56  82 116 153 186 225 281 340
#     4  10  21  40  63  86 113 151 194 236 284 340
#     4  12  25  39  57  85 118 152 189 236 288 340
#     4  10  21  38  58  85 119 153 188 232 286 341
#     4  11  22  38  61  87 114 151 195 237 281 337
#
# _framework density 19.718287
#
# number of rings (size 3 to 8) (size 9 to 14) (size 15 to 20)
#    0.000    1.750    0.000    4.125    0.000    7.500 
#    0.000    1.250    0.000    0.000    0.000    0.000 
#    0.000    0.000    0.000    0.000    0.000    0.000 
#
# Total GULP energy -357836.685119 kJ/mol
# GULP energy per Si atom -5591.198205 kJ/mol
# Density = 1.967341 g / cm^3
# Si number density = 19.718287 Si / 1000 Ang^3
#
#
#
# Elastic Constant Matrix: (Units=GPa)
#
#
# Indices 1 2 3 4 5 6 
#
# 1 31.4337 -2.0343 8.2630 0.0000 0.0000 0.0000
# 2 -2.0343 43.1932 1.1681 0.0000 0.0000 0.0000
# 3 8.2630 1.1681 30.1184 0.0000 0.0000 0.0000
# 4 0.0000 0.0000 0.0000 18.5666 0.0000 0.0000
# 5 0.0000 0.0000 0.0000 0.0000 13.8153 0.0000
# 6 0.0000 0.0000 0.0000 0.0000 0.0000 38.4137
#
#
#
# Elastic Compliance Matrix: (Units=1/GPa)
#
#
# Indices 1 2 3 4 5 6 
#
# 1 0.034437 0.001879 -0.009521 0.000000 0.000000 0.000000
# 2 0.001879 0.023279 -0.001418 0.000000 0.000000 0.000000
# 3 -0.009521 -0.001418 0.035869 0.000000 0.000000 0.000000
# 4 0.000000 0.000000 0.000000 0.053860 0.000000 0.000000
# 5 0.000000 0.000000 0.000000 0.000000 0.072384 0.000000
# 6 0.000000 0.000000 0.000000 0.000000 0.000000 0.026032
#
#
# Mechanical properties :
#
#
# Convention : Reuss Voigt Hill
#
# Bulk Modulus (GPa) = 13.25104 13.28208 13.26656
# Shear Modulus (GPa) = 17.29287 20.64901 18.97094
#
# Velocity S-wave (km/s) = 2.96463 3.23956 3.10514
# Velocity P-wave (km/s) = 4.29575 4.55451 4.42702
#
# Compressibility (1/GPa) = 0.07546577
#
# Stress axis : x y z
#
# Youngs Moduli (GPa) = 29.03819 42.95777 27.87893
#
# Poissons Ratio (x) = -0.08073 0.26543
# Poissons Ratio (y) = -0.05457 0.03954
# Poissons Ratio (z) = 0.27647 0.06093
#
# Static dielectric constant tensor:
#      x y z
#    x 1.660320 0.000000 0.000000 
#    y 0.000000 1.661230 0.000000 
#    z 0.000000 0.000000 1.684460 
# 
# From -- ./inp_files/21433.got.cif
#   From: 2010.05.17/outbox.cif.g08.bks.cpg/sg57_11_cif.got.tgz:21433.got - 2010.06.03 13:58:18.
