data_PCOD9438368
_publ_section_title
;
Structure prediction by ZEFSAII (Michael W. Deem and Ramdas Pophale) SiO2 
 PCOD9438368
Probable space group: P B C M
;
_chemical_formula_sum "Si O2"
_cell_formula_units_Z 56
_cell_length_a 15.370767
_cell_length_b 19.230371
_cell_length_c 10.275658
_cell_angle_alpha 90.000000
_cell_angle_beta 90.000000
_cell_angle_gamma 90.000000
_cell_volume 3037.336042
_symmetry_space_group_name_H-M "P B C M"
_symmetry_group_IT_number 57
_symmetry_cell_setting 'orthorhombic'
loop_
_space_group_symop_operation_xyz
x,y,z
-x,-y,1/2+z
x,1/2-y,-z
-x,1/2+y,1/2-z
-x,-y,-z
x,y,1/2-z
-x,1/2+y,z
x,1/2-y,1/2+z
loop_
_atom_site_type_symbol
_atom_site_label
_atom_site_fract_x
_atom_site_fract_y
_atom_site_fract_z
Si Si1 0.607547 0.689545 0.895067
Si Si2 0.837313 0.962562 0.899334
Si Si3 0.721437 0.090976 0.593016
Si Si4 0.878608 0.185954 0.905305
Si Si5 0.802449 0.670219 0.965576
Si Si6 0.038118 0.082369 0.606696
Si Si7 0.524758 0.436765 0.094464
O O1 0.588478 0.716147 0.750000
O O2 0.708309 0.666225 0.900264
O O3 0.545282 0.624458 0.920495
O O4 0.595976 0.750000 0.000000
O O5 0.857139 0.977185 0.750000
O O6 0.767678 0.018907 0.947734
O O7 0.922078 0.963684 0.990461
O O8 0.800361 0.884398 0.914607
O O9 0.722893 0.091326 0.750000
O O10 0.784854 0.154003 0.554977
O O11 0.620789 0.090843 0.555923
O O12 0.878110 0.204184 0.750000
O O13 0.949250 0.123882 0.919249
O O14 0.900151 0.250000 0.000000
O O15 0.885288 0.641218 0.888845
O O16 0.817155 0.750000 0.000000
O O17 0.034921 0.049322 0.750000
O O18 0.526795 0.455863 0.250000
O O19 0.500000 0.500000 0.000000
#
# Coordination Sequence:
#
# PCOD9438368 Si02
#       7
#     8   8   8   8   8   8   8
#     4  10  21  35  53  78 110 142 180 225 278 329
#     4   9  19  33  53  78 105 142 183 219 260 323
#     4   9  19  38  59  79 109 144 180 222 276 324
#     4  10  21  38  58  81 109 146 186 226 269 321
#     4   9  18  31  50  75 106 143 176 221 265 321
#     4   9  19  33  51  75 109 144 175 219 268 311
#     4  10  21  38  60  84 110 145 183 229 277 331
#
# _framework density 18.437207999999998
#
# number of rings (size 3 to 8) (size 9 to 14) (size 15 to 20)
#    0.857    1.714    0.000    1.714    0.000    5.143 
#    0.000    1.429    0.000    0.000    0.000    0.000 
#    0.000    0.000    0.000    0.000    0.000    0.000 
#
# Total GULP energy -311775.162755 kJ/mol
# GULP energy per Si atom -5567.413621 kJ/mol
# Density = 1.839524 g / cm^3
# Si number density = 18.437208 Si / 1000 Ang^3
#
#
#
# Elastic Constant Matrix: (Units=GPa)
#
#
# Indices 1 2 3 4 5 6 
#
# 1 101.9137 21.1504 29.6986 0.0000 0.0000 0.0000
# 2 21.1504 51.1566 24.9139 0.0000 0.0000 0.0000
# 3 29.6986 24.9139 76.7900 0.0000 0.0000 0.0000
# 4 0.0000 0.0000 0.0000 7.9193 0.0000 0.0000
# 5 0.0000 0.0000 0.0000 0.0000 18.1663 0.0000
# 6 0.0000 0.0000 0.0000 0.0000 0.0000 25.4604
#
#
#
# Elastic Compliance Matrix: (Units=1/GPa)
#
#
# Indices 1 2 3 4 5 6 
#
# 1 0.011448 -0.003060 -0.003435 0.000000 0.000000 0.000000
# 2 -0.003060 0.024034 -0.006614 0.000000 0.000000 0.000000
# 3 -0.003435 -0.006614 0.016497 0.000000 0.000000 0.000000
# 4 0.000000 0.000000 0.000000 0.126273 0.000000 0.000000
# 5 0.000000 0.000000 0.000000 0.000000 0.055047 0.000000
# 6 0.000000 0.000000 0.000000 0.000000 0.000000 0.039277
#
#
# Mechanical properties :
#
#
# Convention : Reuss Voigt Hill
#
# Bulk Modulus (GPa) = 38.81861 42.37624 40.59742
# Shear Modulus (GPa) = 16.26644 20.58238 18.42441
#
# Velocity S-wave (km/s) = 2.97351 3.34481 3.16461
# Velocity P-wave (km/s) = 5.73491 6.16044 5.95148
#
# Compressibility (1/GPa) = 0.02576084
#
# Stress axis : x y z
#
# Youngs Moduli (GPa) = 87.34943 41.60718 60.61787
#
# Poissons Ratio (x) = 0.12734 0.20820
# Poissons Ratio (y) = 0.26733 0.40093
# Poissons Ratio (z) = 0.30002 0.27519
#
# Static dielectric constant tensor:
#      x y z
#    x 1.650510 0.000000 0.000000 
#    y 0.000000 1.580350 0.000000 
#    z 0.000000 0.000000 1.643350 
# 
# From -- ./inp_files/13774.got.cif
#   From: 2010.05.17/outbox.cif.g08.bks.cpg/sg57_7_cif.got.tgz:13774.got - 2010.06.03 13:58:18.
