data_PCOD9438712
_publ_section_title
;
Structure prediction by ZEFSAII (Michael W. Deem and Ramdas Pophale) SiO2 
 PCOD9438712
Probable space group: P B C M
;
_chemical_formula_sum "Si O2"
_cell_formula_units_Z 48
_cell_length_a 24.841743
_cell_length_b 5.320994
_cell_length_c 16.745880
_cell_angle_alpha 90.000000
_cell_angle_beta 90.000000
_cell_angle_gamma 90.000000
_cell_volume 2213.516728
_symmetry_space_group_name_H-M "P B C M"
_symmetry_group_IT_number 57
_symmetry_cell_setting 'orthorhombic'
loop_
_space_group_symop_operation_xyz
x,y,z
-x,-y,1/2+z
x,1/2-y,-z
-x,1/2+y,1/2-z
-x,-y,-z
x,y,1/2-z
-x,1/2+y,z
x,1/2-y,1/2+z
loop_
_atom_site_type_symbol
_atom_site_label
_atom_site_fract_x
_atom_site_fract_y
_atom_site_fract_z
Si Si1 0.373308 0.333300 0.155748
Si Si2 0.021335 0.030588 0.591549
Si Si3 0.439235 0.497048 0.032838
Si Si4 0.690367 0.329303 0.346668
Si Si5 0.134746 0.308849 0.155077
Si Si6 0.190648 0.699398 0.593720
O O1 0.375337 0.334531 0.250000
O O2 0.431239 0.436241 0.124839
O O3 0.333362 0.557553 0.129978
O O4 0.350421 0.058295 0.134865
O O5 0.014141 0.754805 0.628293
O O6 0.081865 0.121509 0.603674
O O7 0.000000 0.000000 0.500000
O O8 0.410556 0.250000 0.000000
O O9 0.500000 0.500000 0.000000
O O10 0.414798 0.750000 0.000000
O O11 0.698373 0.330451 0.250000
O O12 0.747226 0.364301 0.389067
O O13 0.123090 0.295116 0.250000
O O14 0.175084 0.542416 0.139252
O O15 0.157239 0.041287 0.124959
O O16 0.181104 0.750000 0.500000
#
# Coordination Sequence:
#
# PCOD9438712 Si02
#       6
#     8   8   8   8   8   8
#     4  10  21  38  64  91 124 170 217 265 324 387
#     4  10  23  40  67  96 128 170 219 274 335 390
#     4  10  21  38  58  88 124 166 209 261 323 373
#     4  10  21  40  64  94 129 167 216 273 324 388
#     4  12  26  45  70  99 137 181 224 278 340 410
#     4  12  27  43  69 100 136 177 225 277 345 410
#
# _framework density 21.684949
#
# number of rings (size 3 to 8) (size 9 to 14) (size 15 to 20)
#    0.000    1.333    0.000    5.000    7.000    4.000 
#    0.000    3.333    0.000    0.000    0.000    0.000 
#    0.000    0.000    0.000    0.000    0.000    0.000 
#
# Total GULP energy -267684.672022 kJ/mol
# GULP energy per Si atom -5576.764000 kJ/mol
# Density = 2.163559 g / cm^3
# Si number density = 21.684949 Si / 1000 Ang^3
#
#
#
# Elastic Constant Matrix: (Units=GPa)
#
#
# Indices 1 2 3 4 5 6 
#
# 1 59.4272 9.9445 31.0180 0.0000 0.0000 0.0000
# 2 9.9445 183.8720 33.2021 0.0000 0.0000 0.0000
# 3 31.0180 33.2021 72.6721 0.0000 0.0000 0.0000
# 4 0.0000 0.0000 0.0000 25.7367 0.0000 0.0000
# 5 0.0000 0.0000 0.0000 0.0000 32.0108 0.0000
# 6 0.0000 0.0000 0.0000 0.0000 0.0000 25.9122
#
#
#
# Elastic Compliance Matrix: (Units=1/GPa)
#
#
# Indices 1 2 3 4 5 6 
#
# 1 0.021700 0.000544 -0.009511 0.000000 0.000000 0.000000
# 2 0.000544 0.005941 -0.002946 0.000000 0.000000 0.000000
# 3 -0.009511 -0.002946 0.019166 0.000000 0.000000 0.000000
# 4 0.000000 0.000000 0.000000 0.038855 0.000000 0.000000
# 5 0.000000 0.000000 0.000000 0.000000 0.031239 0.000000
# 6 0.000000 0.000000 0.000000 0.000000 0.000000 0.038592
#
#
# Mechanical properties :
#
#
# Convention : Reuss Voigt Hill
#
# Bulk Modulus (GPa) = 43.51452 51.58894 47.55173
# Shear Modulus (GPa) = 26.74071 32.85238 29.79655
#
# Velocity S-wave (km/s) = 3.51543 3.89650 3.71086
# Velocity P-wave (km/s) = 6.04879 6.63969 6.35112
#
# Compressibility (1/GPa) = 0.02298083
#
# Stress axis : x y z
#
# Youngs Moduli (GPa) = 46.08218 168.31596 52.17597
#
# Poissons Ratio (x) = -0.09151 0.49622
# Poissons Ratio (y) = -0.02506 0.15373
# Poissons Ratio (z) = 0.43827 0.49594
#
# Static dielectric constant tensor:
#      x y z
#    x 1.818130 0.000000 0.000000 
#    y 0.000000 1.837530 0.000000 
#    z 0.000000 0.000000 1.952860 
# 
# From -- ./inp_files/19571.got.cif
#   From: 2010.05.17/outbox.cif.g08.bks.cpg/sg57_10_cif.got.tgz:19571.got - 2010.06.03 13:58:18.
