data_PCOD9438181
_publ_section_title
;
Structure prediction by ZEFSAII (Michael W. Deem and Ramdas Pophale) SiO2 
 PCOD9438181
Probable space group: P B C M
;
_chemical_formula_sum "Si O2"
_cell_formula_units_Z 48
_cell_length_a 16.393394
_cell_length_b 9.556331
_cell_length_c 14.577026
_cell_angle_alpha 90.000000
_cell_angle_beta 90.000000
_cell_angle_gamma 90.000000
_cell_volume 2283.647087
_symmetry_space_group_name_H-M "P B C M"
_symmetry_group_IT_number 57
_symmetry_cell_setting 'orthorhombic'
loop_
_space_group_symop_operation_xyz
x,y,z
-x,-y,1/2+z
x,1/2-y,-z
-x,1/2+y,1/2-z
-x,-y,-z
x,y,1/2-z
-x,1/2+y,z
x,1/2-y,1/2+z
loop_
_atom_site_type_symbol
_atom_site_label
_atom_site_fract_x
_atom_site_fract_y
_atom_site_fract_z
Si Si1 0.526514 0.031917 0.647722
Si Si2 0.404433 0.681155 0.400558
Si Si3 0.759754 0.384764 0.562538
Si Si4 0.323680 0.373515 0.561008
Si Si5 0.154267 0.305405 0.859123
Si Si6 0.091358 0.458513 0.473764
O O1 0.502633 0.991404 0.750000
O O2 0.454012 0.962527 0.589950
O O3 0.610191 0.955131 0.620245
O O4 0.542454 0.197432 0.645919
O O5 0.393502 0.750000 0.500000
O O6 0.312275 0.654050 0.365806
O O7 0.771127 0.250000 0.500000
O O8 0.718750 0.512967 0.505884
O O9 0.851727 0.432719 0.582046
O O10 0.361966 0.250000 0.500000
O O11 0.251615 0.300245 0.620433
O O12 0.139523 0.313009 0.750000
O O13 0.105957 0.179212 0.910351
O O14 0.127972 0.434819 0.923582
O O15 0.000000 0.500000 0.500000
#
# Coordination Sequence:
#
# PCOD9438181 Si02
#       6
#     8   8   8   8   8   8
#     4  12  25  39  59  93 129 166 218 280 327 375
#     4  11  23  41  61  85 120 171 218 262 318 392
#     4  10  20  39  66  88 119 165 217 261 322 387
#     4  11  20  40  65  92 121 168 219 262 318 388
#     4  10  21  40  63  94 129 166 214 266 324 396
#     4  10  22  40  67  97 127 168 214 267 329 402
#
# _framework density 21.019007999999999
#
# number of rings (size 3 to 8) (size 9 to 14) (size 15 to 20)
#    0.000    1.333    6.667    2.000    4.667    0.667 
#    0.000    1.667    0.000    0.000    0.000    0.000 
#    0.000    0.000    0.000    0.000    0.000    0.000 
#
# Total GULP energy -267218.711160 kJ/mol
# GULP energy per Si atom -5567.056482 kJ/mol
# Density = 2.097117 g / cm^3
# Si number density = 21.019008 Si / 1000 Ang^3
#
#
#
# Elastic Constant Matrix: (Units=GPa)
#
#
# Indices 1 2 3 4 5 6 
#
# 1 138.4366 26.2833 4.1211 0.0000 0.0000 0.0000
# 2 26.2833 95.2482 2.4270 0.0000 0.0000 0.0000
# 3 4.1211 2.4270 87.0368 0.0000 0.0000 0.0000
# 4 0.0000 0.0000 0.0000 16.9433 0.0000 0.0000
# 5 0.0000 0.0000 0.0000 0.0000 6.5310 0.0000
# 6 0.0000 0.0000 0.0000 0.0000 0.0000 33.4261
#
#
#
# Elastic Compliance Matrix: (Units=1/GPa)
#
#
# Indices 1 2 3 4 5 6 
#
# 1 0.007631 -0.002098 -0.000303 0.000000 0.000000 0.000000
# 2 -0.002098 0.011083 -0.000210 0.000000 0.000000 0.000000
# 3 -0.000303 -0.000210 0.011510 0.000000 0.000000 0.000000
# 4 0.000000 0.000000 0.000000 0.059020 0.000000 0.000000
# 5 0.000000 0.000000 0.000000 0.000000 0.153116 0.000000
# 6 0.000000 0.000000 0.000000 0.000000 0.000000 0.029917
#
#
# Mechanical properties :
#
#
# Convention : Reuss Voigt Hill
#
# Bulk Modulus (GPa) = 39.99590 42.93162 41.46376
# Shear Modulus (GPa) = 17.49278 30.57277 24.03278
#
# Velocity S-wave (km/s) = 2.88798 3.81797 3.38506
# Velocity P-wave (km/s) = 5.49457 6.31707 5.92012
#
# Compressibility (1/GPa) = 0.02500256
#
# Stress axis : x y z
#
# Youngs Moduli (GPa) = 131.04694 90.22703 86.88417
#
# Poissons Ratio (x) = 0.18929 0.02631
# Poissons Ratio (y) = 0.27493 0.01822
# Poissons Ratio (z) = 0.03968 0.01892
#
# Static dielectric constant tensor:
#      x y z
#    x 1.821800 0.000000 0.000000 
#    y 0.000000 1.822510 0.000000 
#    z 0.000000 0.000000 1.803490 
# 
# From -- ./inp_files/18939.got.cif
#   From: 2010.05.17/outbox.cif.g08.bks.cpg/sg57_10_cif.got.tgz:18939.got - 2010.06.03 13:58:18.
