data_PCOD9438189
_publ_section_title
;
Structure prediction by ZEFSAII (Michael W. Deem and Ramdas Pophale) SiO2 
 PCOD9438189
Probable space group: P B C M
;
_chemical_formula_sum "Si O2"
_cell_formula_units_Z 56
_cell_length_a 5.411101
_cell_length_b 15.625013
_cell_length_c 30.125224
_cell_angle_alpha 90.000000
_cell_angle_beta 90.000000
_cell_angle_gamma 90.000000
_cell_volume 2547.043208
_symmetry_space_group_name_H-M "P B C M"
_symmetry_group_IT_number 57
_symmetry_cell_setting 'orthorhombic'
loop_
_space_group_symop_operation_xyz
x,y,z
-x,-y,1/2+z
x,1/2-y,-z
-x,1/2+y,1/2-z
-x,-y,-z
x,y,1/2-z
-x,1/2+y,z
x,1/2-y,1/2+z
loop_
_atom_site_type_symbol
_atom_site_label
_atom_site_fract_x
_atom_site_fract_y
_atom_site_fract_z
Si Si1 0.361583 0.533929 0.542293
Si Si2 0.743040 0.899868 0.394518
Si Si3 0.526513 0.236307 0.376458
Si Si4 0.097709 0.796548 0.447940
Si Si5 0.119313 0.367989 0.571455
Si Si6 0.996548 0.963179 0.842659
Si Si7 0.512676 0.097487 0.198249
O O1 0.500000 0.500000 0.500000
O O2 0.535829 0.536396 0.586156
O O3 0.283442 0.632004 0.533892
O O4 0.156686 0.460950 0.550161
O O5 0.955258 0.948143 0.367955
O O6 0.625853 0.822813 0.367194
O O7 0.858092 0.852630 0.437171
O O8 0.770785 0.270072 0.401014
O O9 0.373900 0.177813 0.412392
O O10 0.540568 0.181722 0.332070
O O11 0.012004 0.700652 0.461176
O O12 0.988024 0.391864 0.618064
O O13 0.231106 0.952183 0.810630
O O14 0.731927 0.951541 0.819626
O O15 0.482363 0.115662 0.250000
#
# Coordination Sequence:
#
# PCOD9438189 Si02
#       7
#     8   8   8   8   8   8   8
#     4  11  24  41  64  99 142 177 231 306 361 401
#     4  10  21  39  66  93 122 180 238 276 338 433
#     4   9  20  37  64  94 125 174 229 274 335 427
#     4  10  20  40  66  96 121 175 244 273 340 430
#     4  10  20  39  67  90 127 183 232 276 336 417
#     4  11  21  40  70  92 127 182 229 274 339 428
#     4  11  23  40  64 100 136 173 224 290 357 410
#
# _framework density 21.986277000000001
#
# number of rings (size 3 to 8) (size 9 to 14) (size 15 to 20)
#    0.000    1.714    2.857    2.143    2.000    0.571 
#    0.000    9.286    3.143    0.000    0.000    0.000 
#    0.000    0.000    0.000    0.000    0.000    0.000 
#
# Total GULP energy -312466.634552 kJ/mol
# GULP energy per Si atom -5579.761331 kJ/mol
# Density = 2.193623 g / cm^3
# Si number density = 21.986277 Si / 1000 Ang^3
#
#
#
# Elastic Constant Matrix: (Units=GPa)
#
#
# Indices 1 2 3 4 5 6 
#
# 1 83.5219 35.7381 13.8586 0.0000 0.0000 0.0000
# 2 35.7381 108.9273 34.6675 0.0000 0.0000 0.0000
# 3 13.8586 34.6675 63.3973 0.0000 0.0000 0.0000
# 4 0.0000 0.0000 0.0000 26.3321 0.0000 0.0000
# 5 0.0000 0.0000 0.0000 0.0000 29.7685 0.0000
# 6 0.0000 0.0000 0.0000 0.0000 0.0000 41.9175
#
#
#
# Elastic Compliance Matrix: (Units=1/GPa)
#
#
# Indices 1 2 3 4 5 6 
#
# 1 0.013951 -0.004367 -0.000662 0.000000 0.000000 0.000000
# 2 -0.004367 0.012482 -0.005871 0.000000 0.000000 0.000000
# 3 -0.000662 -0.005871 0.019129 0.000000 0.000000 0.000000
# 4 0.000000 0.000000 0.000000 0.037976 0.000000 0.000000
# 5 0.000000 0.000000 0.000000 0.000000 0.033593 0.000000
# 6 0.000000 0.000000 0.000000 0.000000 0.000000 0.023856
#
#
# Mechanical properties :
#
#
# Convention : Reuss Voigt Hill
#
# Bulk Modulus (GPa) = 42.08276 47.15275 44.61776
# Shear Modulus (GPa) = 29.29013 31.04244 30.16629
#
# Velocity S-wave (km/s) = 3.65389 3.76160 3.70814
# Velocity P-wave (km/s) = 6.08139 6.35289 6.21862
#
# Compressibility (1/GPa) = 0.02376270
#
# Stress axis : x y z
#
# Youngs Moduli (GPa) = 71.67872 80.11856 52.27797
#
# Poissons Ratio (x) = 0.34984 0.03460
# Poissons Ratio (y) = 0.31299 0.30691
# Poissons Ratio (z) = 0.04745 0.47035
#
# Static dielectric constant tensor:
#      x y z
#    x 1.879000 0.000000 0.000000 
#    y 0.000000 1.836670 0.000000 
#    z 0.000000 0.000000 1.847360 
# 
# From -- ./inp_files/29155.got.cif
#   From: 2010.05.17/outbox.cif.g08.bks.cpg/sg57_15_cif.got.tgz:29155.got - 2010.06.03 13:58:18.
