data_PCOD9438784
_publ_section_title
;
Structure prediction by ZEFSAII (Michael W. Deem and Ramdas Pophale) SiO2 
 PCOD9438784
Probable space group: P B C M
;
_chemical_formula_sum "Si O2"
_cell_formula_units_Z 40
_cell_length_a 12.791547
_cell_length_b 18.836038
_cell_length_c 8.778748
_cell_angle_alpha 90.000000
_cell_angle_beta 90.000000
_cell_angle_gamma 90.000000
_cell_volume 2115.169674
_symmetry_space_group_name_H-M "P B C M"
_symmetry_group_IT_number 57
_symmetry_cell_setting 'orthorhombic'
loop_
_space_group_symop_operation_xyz
x,y,z
-x,-y,1/2+z
x,1/2-y,-z
-x,1/2+y,1/2-z
-x,-y,-z
x,y,1/2-z
-x,1/2+y,z
x,1/2-y,1/2+z
loop_
_atom_site_type_symbol
_atom_site_label
_atom_site_fract_x
_atom_site_fract_y
_atom_site_fract_z
Si Si1 0.167179 0.420497 0.066348
Si Si2 0.214226 0.581537 0.433788
Si Si3 0.032864 0.672415 0.567697
Si Si4 0.455195 0.926926 0.933499
Si Si5 0.355396 0.328176 0.932432
O O1 0.177053 0.416985 0.250000
O O2 0.172349 0.503163 0.023071
O O3 0.060113 0.381443 0.022065
O O4 0.263787 0.378638 0.993912
O O5 0.209144 0.587786 0.250000
O O6 0.141269 0.640633 0.507352
O O7 0.335614 0.585681 0.480918
O O8 0.012771 0.750000 0.500000
O O9 0.034449 0.676747 0.750000
O O10 0.455556 0.933027 0.750000
O O11 0.534153 0.863951 0.976459
O O12 0.500000 0.000000 0.000000
O O13 0.349520 0.324848 0.750000
O O14 0.344318 0.250000 0.000000
#
# Coordination Sequence:
#
# PCOD9438784 Si02
#       5
#     8   8   8   8   8
#     4  10  21  39  63  89 119 155 195 246 300 353
#     4  10  21  39  63  89 120 155 196 245 297 354
#     4  11  24  40  59  86 119 158 201 245 299 353
#     4  10  21  38  61  88 119 155 195 241 293 349
#     4  11  23  37  58  89 121 157 199 243 296 352
#
# _framework density 18.911010999999998
#
# number of rings (size 3 to 8) (size 9 to 14) (size 15 to 20)
#    0.000    1.600    2.000    2.400    0.000    6.400 
#    0.000    2.000    0.000    0.000    0.000    0.000 
#    0.000    0.000    0.000    0.000    0.000    0.000 
#
# Total GULP energy -223574.580792 kJ/mol
# GULP energy per Si atom -5589.364520 kJ/mol
# Density = 1.886797 g / cm^3
# Si number density = 18.911011 Si / 1000 Ang^3
#
#
#
# Elastic Constant Matrix: (Units=GPa)
#
#
# Indices 1 2 3 4 5 6 
#
# 1 101.3088 -10.6086 12.9965 0.0000 0.0000 0.0000
# 2 -10.6086 27.0855 2.4878 0.0000 0.0000 0.0000
# 3 12.9965 2.4878 7.6832 0.0000 0.0000 0.0000
# 4 0.0000 0.0000 0.0000 26.6432 0.0000 0.0000
# 5 0.0000 0.0000 0.0000 0.0000 16.2515 0.0000
# 6 0.0000 0.0000 0.0000 0.0000 0.0000 26.0044
#
#
#
# Elastic Compliance Matrix: (Units=1/GPa)
#
#
# Indices 1 2 3 4 5 6 
#
# 1 0.014090 0.007944 -0.026407 0.000000 0.000000 0.000000
# 2 0.007944 0.042531 -0.027210 0.000000 0.000000 0.000000
# 3 -0.026407 -0.027210 0.183633 0.000000 0.000000 0.000000
# 4 0.000000 0.000000 0.000000 0.037533 0.000000 0.000000
# 5 0.000000 0.000000 0.000000 0.000000 0.061533 0.000000
# 6 0.000000 0.000000 0.000000 0.000000 0.000000 0.038455
#
#
# Mechanical properties :
#
#
# Convention : Reuss Voigt Hill
#
# Bulk Modulus (GPa) = 6.71547 16.20321 11.45934
# Shear Modulus (GPa) = 9.63843 22.52661 16.08252
#
# Velocity S-wave (km/s) = 2.26004 3.45511 2.91938
# Velocity P-wave (km/s) = 3.22012 4.95013 4.17570
#
# Compressibility (1/GPa) = 0.14890990
#
# Stress axis : x y z
#
# Youngs Moduli (GPa) = 70.97061 23.51228 5.44564
#
# Poissons Ratio (x) = -0.18679 0.14380
# Poissons Ratio (y) = -0.56381 0.14817
# Poissons Ratio (z) = 1.87411 0.63976
#
# Static dielectric constant tensor:
#      x y z
#    x 1.646980 0.000000 0.000000 
#    y 0.000000 1.619390 0.000000 
#    z 0.000000 0.000000 1.623910 
# 
# From -- ./inp_files/2621.got.cif
#   From: 2010.05.17/outbox.cif.g08.bks.cpg/sg57_2_cif.got.tgz:2621.got - 2010.06.03 13:58:18.
