data_PCOD9438848
_publ_section_title
;
Structure prediction by ZEFSAII (Michael W. Deem and Ramdas Pophale) SiO2 
 PCOD9438848
Probable space group: P B C M
;
_chemical_formula_sum "Si O2"
_cell_formula_units_Z 56
_cell_length_a 14.881842
_cell_length_b 22.888826
_cell_length_c 8.652481
_cell_angle_alpha 90.000000
_cell_angle_beta 90.000000
_cell_angle_gamma 90.000000
_cell_volume 2947.276364
_symmetry_space_group_name_H-M "P B C M"
_symmetry_group_IT_number 57
_symmetry_cell_setting 'orthorhombic'
loop_
_space_group_symop_operation_xyz
x,y,z
-x,-y,1/2+z
x,1/2-y,-z
-x,1/2+y,1/2-z
-x,-y,-z
x,y,1/2-z
-x,1/2+y,z
x,1/2-y,1/2+z
loop_
_atom_site_type_symbol
_atom_site_label
_atom_site_fract_x
_atom_site_fract_y
_atom_site_fract_z
Si Si1 0.201658 0.581488 0.567216
Si Si2 0.094173 0.476659 0.067032
Si Si3 0.411182 0.425257 0.934531
Si Si4 0.069633 0.811102 0.065611
Si Si5 0.310310 0.187958 0.933887
Si Si6 0.121816 0.349270 0.933525
Si Si7 0.380730 0.552358 0.433541
O O1 0.193248 0.569074 0.750000
O O2 0.165566 0.526714 0.470254
O O3 0.138420 0.636522 0.531345
O O4 0.304989 0.589021 0.521209
O O5 0.086034 0.466017 0.250000
O O6 0.120454 0.417164 0.982097
O O7 0.000000 0.500000 0.000000
O O8 0.397565 0.428553 0.750000
O O9 0.518220 0.425775 0.966074
O O10 0.363748 0.367638 0.999081
O O11 0.375045 0.485061 0.010162
O O12 0.058271 0.807997 0.250000
O O13 0.104097 0.750000 0.000000
O O14 0.973109 0.823779 0.989694
O O15 0.316604 0.187984 0.750000
O O16 0.343146 0.250000 0.000000
O O17 0.206689 0.180157 0.984846
O O18 0.130431 0.342995 0.750000
O O19 0.366257 0.554755 0.250000
#
# Coordination Sequence:
#
# PCOD9438848 Si02
#       7
#     8   8   8   8   8   8   8
#     4  11  23  39  60  87 121 158 198 245 295 354
#     4  12  23  37  58  87 121 157 198 246 300 352
#     4  10  21  40  64  92 124 157 197 245 301 363
#     4  11  24  41  60  82 114 155 202 247 292 347
#     4  12  25  42  63  89 123 161 205 253 303 365
#     4  12  24  40  62  87 120 160 201 246 298 358
#     4  10  21  38  64  94 123 156 196 246 302 361
#
# _framework density 19.000594
#
# number of rings (size 3 to 8) (size 9 to 14) (size 15 to 20)
#    0.000    0.857    1.429    6.857    0.000    3.429 
#    0.000    0.714    0.000    1.714    0.000    0.000 
#    0.000    0.000    0.000    0.000    0.000    0.000 
#
# Total GULP energy -313379.265288 kJ/mol
# GULP energy per Si atom -5596.058309 kJ/mol
# Density = 1.895735 g / cm^3
# Si number density = 19.000594 Si / 1000 Ang^3
#
#
#
# Elastic Constant Matrix: (Units=GPa)
#
#
# Indices 1 2 3 4 5 6 
#
# 1 84.7035 28.7040 24.7004 0.0000 0.0000 0.0000
# 2 28.7040 86.4188 14.4224 0.0000 0.0000 0.0000
# 3 24.7004 14.4224 66.9946 0.0000 0.0000 0.0000
# 4 0.0000 0.0000 0.0000 31.0571 0.0000 0.0000
# 5 0.0000 0.0000 0.0000 0.0000 33.9486 0.0000
# 6 0.0000 0.0000 0.0000 0.0000 0.0000 15.1794
#
#
#
# Elastic Compliance Matrix: (Units=1/GPa)
#
#
# Indices 1 2 3 4 5 6 
#
# 1 0.014486 -0.004066 -0.004466 0.000000 0.000000 0.000000
# 2 -0.004066 0.013144 -0.001330 0.000000 0.000000 0.000000
# 3 -0.004466 -0.001330 0.016859 0.000000 0.000000 0.000000
# 4 0.000000 0.000000 0.000000 0.032199 0.000000 0.000000
# 5 0.000000 0.000000 0.000000 0.000000 0.029456 0.000000
# 6 0.000000 0.000000 0.000000 0.000000 0.000000 0.065879
#
#
# Mechanical properties :
#
#
# Convention : Reuss Voigt Hill
#
# Bulk Modulus (GPa) = 40.37930 41.53005 40.95468
# Shear Modulus (GPa) = 24.99964 27.38970 26.19467
#
# Velocity S-wave (km/s) = 3.63123 3.80085 3.71701
# Velocity P-wave (km/s) = 6.23529 6.41612 6.32635
#
# Compressibility (1/GPa) = 0.02476516
#
# Stress axis : x y z
#
# Youngs Moduli (GPa) = 69.03193 76.07909 59.31408
#
# Poissons Ratio (x) = 0.30936 0.26487
# Poissons Ratio (y) = 0.28070 0.07891
# Poissons Ratio (z) = 0.30826 0.10122
#
# Static dielectric constant tensor:
#      x y z
#    x 1.674800 0.000000 0.000000 
#    y 0.000000 1.648480 0.000000 
#    z 0.000000 0.000000 1.619000 
# 
# From -- ./inp_files/5278.got.cif
#   From: 2010.05.17/outbox.cif.g08.bks.cpg/sg57_3_cif.got.tgz:5278.got - 2010.06.03 13:58:18.
