data_PCOD9438843
_publ_section_title
;
Structure prediction by ZEFSAII (Michael W. Deem and Ramdas Pophale) SiO2 
 PCOD9438843
Probable space group: P B C M
;
_chemical_formula_sum "Si O2"
_cell_formula_units_Z 40
_cell_length_a 10.659030
_cell_length_b 9.409120
_cell_length_c 18.888521
_cell_angle_alpha 90.000000
_cell_angle_beta 90.000000
_cell_angle_gamma 90.000000
_cell_volume 1894.369293
_symmetry_space_group_name_H-M "P B C M"
_symmetry_group_IT_number 57
_symmetry_cell_setting 'orthorhombic'
loop_
_space_group_symop_operation_xyz
x,y,z
-x,-y,1/2+z
x,1/2-y,-z
-x,1/2+y,1/2-z
-x,-y,-z
x,y,1/2-z
-x,1/2+y,z
x,1/2-y,1/2+z
loop_
_atom_site_type_symbol
_atom_site_label
_atom_site_fract_x
_atom_site_fract_y
_atom_site_fract_z
Si Si1 0.722360 0.440434 0.673133
Si Si2 0.311021 0.699653 0.572969
Si Si3 0.579217 0.956060 0.832598
Si Si4 0.762767 0.721852 0.604411
Si Si5 0.864828 0.547082 0.475052
O O1 0.758980 0.385315 0.750000
O O2 0.753884 0.331313 0.611727
O O3 0.570562 0.443535 0.668285
O O4 0.771460 0.600076 0.662955
O O5 0.377897 0.750000 0.500000
O O6 0.390877 0.604374 0.627686
O O7 0.204341 0.592169 0.549710
O O8 0.621659 0.956345 0.750000
O O9 0.645791 0.825268 0.874845
O O10 0.774401 0.622425 0.533862
O O11 0.870523 0.837194 0.588247
O O12 0.000000 0.500000 0.500000
#
# Coordination Sequence:
#
# PCOD9438843 Si02
#       5
#     8   8   8   8   8
#     4  11  22  39  63  91 130 172 201 240 310 384
#     4  11  22  38  59  96 119 158 209 262 303 361
#     4  10  22  41  61  88 133 177 199 237 313 385
#     4  10  21  38  63  95 116 162 219 255 295 378
#     4  10  23  42  63  88 121 162 205 262 333 366
#
# _framework density 21.115207999999999
#
# number of rings (size 3 to 8) (size 9 to 14) (size 15 to 20)
#    0.000    1.600    2.000    2.400    2.800    4.000 
#   10.800    0.000    0.000   21.600    0.000    0.000 
#    0.000    0.000    0.000    0.000    0.000    0.000 
#
# Total GULP energy -222850.095643 kJ/mol
# GULP energy per Si atom -5571.252391 kJ/mol
# Density = 2.106715 g / cm^3
# Si number density = 21.115208 Si / 1000 Ang^3
#
#
#
# Elastic Constant Matrix: (Units=GPa)
#
#
# Indices 1 2 3 4 5 6 
#
# 1 46.0400 24.8543 29.0925 0.0000 0.0000 0.0000
# 2 24.8543 154.2395 64.6222 0.0000 0.0000 0.0000
# 3 29.0925 64.6222 121.9773 0.0000 0.0000 0.0000
# 4 0.0000 0.0000 0.0000 38.7788 0.0000 0.0000
# 5 0.0000 0.0000 0.0000 0.0000 16.9635 0.0000
# 6 0.0000 0.0000 0.0000 0.0000 0.0000 7.9712
#
#
#
# Elastic Compliance Matrix: (Units=1/GPa)
#
#
# Indices 1 2 3 4 5 6 
#
# 1 0.026070 -0.002051 -0.005131 0.000000 0.000000 0.000000
# 2 -0.002051 0.008494 -0.004011 0.000000 0.000000 0.000000
# 3 -0.005131 -0.004011 0.011547 0.000000 0.000000 0.000000
# 4 0.000000 0.000000 0.000000 0.025787 0.000000 0.000000
# 5 0.000000 0.000000 0.000000 0.000000 0.058950 0.000000
# 6 0.000000 0.000000 0.000000 0.000000 0.000000 0.125452
#
#
# Mechanical properties :
#
#
# Convention : Reuss Voigt Hill
#
# Bulk Modulus (GPa) = 42.15015 62.15497 52.15256
# Shear Modulus (GPa) = 17.44617 26.32190 21.88403
#
# Velocity S-wave (km/s) = 2.87755 3.53453 3.22283
# Velocity P-wave (km/s) = 5.57187 6.79391 6.21301
#
# Compressibility (1/GPa) = 0.02372471
#
# Stress axis : x y z
#
# Youngs Moduli (GPa) = 38.35845 117.72370 86.60188
#
# Poissons Ratio (x) = 0.24146 0.44437
# Poissons Ratio (y) = 0.07868 0.34737
# Poissons Ratio (z) = 0.19683 0.47220
#
# Static dielectric constant tensor:
#      x y z
#    x 1.864830 0.000000 0.000000 
#    y 0.000000 1.806880 0.000000 
#    z 0.000000 0.000000 1.873930 
# 
# From -- ./inp_files/21588.got.cif
#   From: 2010.05.17/outbox.cif.g08.bks.cpg/sg57_11_cif.got.tgz:21588.got - 2010.06.03 13:58:18.
