data_PCOD9438729
_publ_section_title
;
Structure prediction by ZEFSAII (Michael W. Deem and Ramdas Pophale) SiO2 
 PCOD9438729
Probable space group: P B C M
;
_chemical_formula_sum "Si O2"
_cell_formula_units_Z 48
_cell_length_a 11.788343
_cell_length_b 13.688266
_cell_length_c 14.959577
_cell_angle_alpha 90.000000
_cell_angle_beta 90.000000
_cell_angle_gamma 90.000000
_cell_volume 2413.906885
_symmetry_space_group_name_H-M "P B C M"
_symmetry_group_IT_number 57
_symmetry_cell_setting 'orthorhombic'
loop_
_space_group_symop_operation_xyz
x,y,z
-x,-y,1/2+z
x,1/2-y,-z
-x,1/2+y,1/2-z
-x,-y,-z
x,y,1/2-z
-x,1/2+y,z
x,1/2-y,1/2+z
loop_
_atom_site_type_symbol
_atom_site_label
_atom_site_fract_x
_atom_site_fract_y
_atom_site_fract_z
Si Si1 0.306463 0.090646 0.849567
Si Si2 0.766027 0.284541 0.858305
Si Si3 0.659577 0.794770 0.906313
Si Si4 0.122538 0.618149 0.979360
Si Si5 0.451042 0.908078 0.855931
Si Si6 0.135591 0.105339 0.011970
O O1 0.270475 0.058939 0.750000
O O2 0.353047 0.201090 0.843606
O O3 0.394783 0.009961 0.886177
O O4 0.206003 0.099327 0.920170
O O5 0.786709 0.284139 0.750000
O O6 0.808616 0.186200 0.909197
O O7 0.635226 0.317470 0.873022
O O8 0.830510 0.365031 0.919666
O O9 0.576184 0.883499 0.887950
O O10 0.788825 0.830487 0.920369
O O11 0.622302 0.750000 0.000000
O O12 0.129322 0.505282 0.952625
O O13 0.989409 0.641766 0.988239
O O14 0.458755 0.917380 0.750000
#
# Coordination Sequence:
#
# PCOD9438729 Si02
#       6
#     8   8   8   8   8   8
#     4  10  21  38  59  85 120 161 202 250 306 367
#     4  10  22  39  63  92 119 160 209 248 305 368
#     4  10  23  36  59  88 121 154 208 246 311 368
#     4  10  22  40  65  86 129 162 205 260 303 361
#     4  10  21  39  59  87 122 160 205 254 306 370
#     4  10  22  41  58  90 121 163 204 253 313 368
#
# _framework density 19.884777
#
# number of rings (size 3 to 8) (size 9 to 14) (size 15 to 20)
#    0.000    2.000    1.667    0.500    9.333    4.667 
#    0.000    6.667    0.000    0.000    0.000    0.000 
#    0.000    0.000    0.000    0.000    0.000    0.000 
#
# Total GULP energy -267250.678335 kJ/mol
# GULP energy per Si atom -5567.722465 kJ/mol
# Density = 1.983952 g / cm^3
# Si number density = 19.884777 Si / 1000 Ang^3
#
#
#
# Elastic Constant Matrix: (Units=GPa)
#
#
# Indices 1 2 3 4 5 6 
#
# 1 86.8372 21.8857 20.9620 0.0000 0.0000 0.0000
# 2 21.8857 119.1348 15.8292 0.0000 0.0000 0.0000
# 3 20.9620 15.8292 70.7619 0.0000 0.0000 0.0000
# 4 0.0000 0.0000 0.0000 23.7981 0.0000 0.0000
# 5 0.0000 0.0000 0.0000 0.0000 2.5670 0.0000
# 6 0.0000 0.0000 0.0000 0.0000 0.0000 24.6326
#
#
#
# Elastic Compliance Matrix: (Units=1/GPa)
#
#
# Indices 1 2 3 4 5 6 
#
# 1 0.012809 -0.001906 -0.003368 0.000000 0.000000 0.000000
# 2 -0.001906 0.008934 -0.001434 0.000000 0.000000 0.000000
# 3 -0.003368 -0.001434 0.015450 0.000000 0.000000 0.000000
# 4 0.000000 0.000000 0.000000 0.042020 0.000000 0.000000
# 5 0.000000 0.000000 0.000000 0.000000 0.389553 0.000000
# 6 0.000000 0.000000 0.000000 0.000000 0.000000 0.040597
#
#
# Mechanical properties :
#
#
# Convention : Reuss Voigt Hill
#
# Bulk Modulus (GPa) = 42.05523 43.78753 42.92138
# Shear Modulus (GPa) = 9.42141 24.73668 17.07905
#
# Velocity S-wave (km/s) = 2.17906 3.53087 2.93388
# Velocity P-wave (km/s) = 5.24656 6.22022 5.75402
#
# Compressibility (1/GPa) = 0.02377825
#
# Stress axis : x y z
#
# Youngs Moduli (GPa) = 78.06931 111.92614 64.72289
#
# Poissons Ratio (x) = 0.21328 0.21800
# Poissons Ratio (y) = 0.14877 0.09282
# Poissons Ratio (z) = 0.26295 0.16052
#
# Static dielectric constant tensor:
#      x y z
#    x 1.708680 0.000000 0.000000 
#    y 0.000000 1.818720 0.000000 
#    z 0.000000 0.000000 1.755080 
# 
# From -- ./inp_files/17598.got.cif
#   From: 2010.05.17/outbox.cif.g08.bks.cpg/sg57_9_cif.got.tgz:17598.got - 2010.06.03 13:58:18.
