data_PCOD9438817
_publ_section_title
;
Structure prediction by ZEFSAII (Michael W. Deem and Ramdas Pophale) SiO2 
 PCOD9438817
Probable space group: P B C M
;
_chemical_formula_sum "Si O2"
_cell_formula_units_Z 64
_cell_length_a 10.691198
_cell_length_b 18.214315
_cell_length_c 15.693833
_cell_angle_alpha 90.000000
_cell_angle_beta 90.000000
_cell_angle_gamma 90.000000
_cell_volume 3056.104798
_symmetry_space_group_name_H-M "P B C M"
_symmetry_group_IT_number 57
_symmetry_cell_setting 'orthorhombic'
loop_
_space_group_symop_operation_xyz
x,y,z
-x,-y,1/2+z
x,1/2-y,-z
-x,1/2+y,1/2-z
-x,-y,-z
x,y,1/2-z
-x,1/2+y,z
x,1/2-y,1/2+z
loop_
_atom_site_type_symbol
_atom_site_label
_atom_site_fract_x
_atom_site_fract_y
_atom_site_fract_z
Si Si1 0.421567 0.469291 0.077997
Si Si2 0.055471 0.174372 0.978130
Si Si3 0.291985 0.609283 0.351542
Si Si4 0.998995 0.393002 0.651165
Si Si5 0.668817 0.695238 0.574077
Si Si6 0.656798 0.404332 0.151227
Si Si7 0.928680 0.060923 0.649712
Si Si8 0.566753 0.248163 0.650904
O O1 0.326221 0.531739 0.106431
O O2 0.360370 0.390464 0.060205
O O3 0.531830 0.451685 0.144523
O O4 0.500000 0.500000 0.000000
O O5 0.181716 0.198251 0.928236
O O6 0.988104 0.118147 0.915584
O O7 0.984545 0.250000 0.000000
O O8 0.077415 0.138788 0.071686
O O9 0.310180 0.599330 0.250000
O O10 0.146100 0.628327 0.363657
O O11 0.383533 0.674323 0.384150
O O12 0.033282 0.372943 0.750000
O O13 0.010051 0.480999 0.644873
O O14 0.625233 0.750000 0.500000
O O15 0.580302 0.727013 0.647970
O O16 0.677923 0.390374 0.250000
O O17 0.782762 0.443830 0.122559
O O18 0.632794 0.324035 0.110738
O O19 0.940239 0.083789 0.750000
O O20 0.602614 0.252754 0.750000
#
# Coordination Sequence:
#
# PCOD9438817 Si02
#       8
#     8   8   8   8   8   8   8   8
#     4  11  22  33  58  89 115 160 202 253 319 378
#     4  11  25  40  63  91 129 170 212 268 321 384
#     4  10  21  38  62  91 122 158 210 269 322 386
#     4  10  23  42  65  92 126 171 220 272 328 386
#     4  10  22  41  55  82 124 159 201 258 307 378
#     4   9  20  37  58  85 121 158 206 260 311 380
#     4  10  22  41  65  93 127 173 217 266 324 389
#     4   9  19  38  62  86 118 159 200 259 321 376
#
# _framework density 20.941690000000001
#
# number of rings (size 3 to 8) (size 9 to 14) (size 15 to 20)
#    0.000    2.000    0.000    2.250    5.250    1.500 
#    0.000    1.875    0.000    0.000    0.000    0.000 
#    0.000    0.000    0.000    0.000    0.000    0.000 
#
# Total GULP energy -356490.692604 kJ/mol
# GULP energy per Si atom -5570.167072 kJ/mol
# Density = 2.089403 g / cm^3
# Si number density = 20.941690 Si / 1000 Ang^3
#
#
#
# Elastic Constant Matrix: (Units=GPa)
#
#
# Indices 1 2 3 4 5 6 
#
# 1 57.4702 7.0868 3.4776 0.0000 0.0000 0.0000
# 2 7.0868 84.3920 23.7607 0.0000 0.0000 0.0000
# 3 3.4776 23.7607 60.5822 0.0000 0.0000 0.0000
# 4 0.0000 0.0000 0.0000 25.0119 0.0000 0.0000
# 5 0.0000 0.0000 0.0000 0.0000 20.2273 0.0000
# 6 0.0000 0.0000 0.0000 0.0000 0.0000 20.9790
#
#
#
# Elastic Compliance Matrix: (Units=1/GPa)
#
#
# Indices 1 2 3 4 5 6 
#
# 1 0.017595 -0.001341 -0.000484 0.000000 0.000000 0.000000
# 2 -0.001341 0.013423 -0.005187 0.000000 0.000000 0.000000
# 3 -0.000484 -0.005187 0.018569 0.000000 0.000000 0.000000
# 4 0.000000 0.000000 0.000000 0.039981 0.000000 0.000000
# 5 0.000000 0.000000 0.000000 0.000000 0.049438 0.000000
# 6 0.000000 0.000000 0.000000 0.000000 0.000000 0.047667
#
#
# Mechanical properties :
#
#
# Convention : Reuss Voigt Hill
#
# Bulk Modulus (GPa) = 28.12060 30.12163 29.12112
# Shear Modulus (GPa) = 23.52372 24.45158 23.98765
#
# Velocity S-wave (km/s) = 3.35520 3.42073 3.38812
# Velocity P-wave (km/s) = 5.33545 5.47874 5.40757
#
# Compressibility (1/GPa) = 0.03556111
#
# Stress axis : x y z
#
# Youngs Moduli (GPa) = 56.83427 74.50101 53.85369
#
# Poissons Ratio (x) = 0.09993 0.02606
# Poissons Ratio (y) = 0.07623 0.27936
# Poissons Ratio (z) = 0.02750 0.38647
#
# Static dielectric constant tensor:
#      x y z
#    x 1.851900 0.000000 0.000000 
#    y 0.000000 1.761410 0.000000 
#    z 0.000000 0.000000 1.807370 
# 
# From -- ./inp_files/17988.got.cif
#   From: 2010.05.17/outbox.cif.g08.bks.cpg/sg57_9_cif.got.tgz:17988.got - 2010.06.03 13:58:18.
