data_PCOD9438375
_publ_section_title
;
Structure prediction by ZEFSAII (Michael W. Deem and Ramdas Pophale) SiO2 
 PCOD9438375
Probable space group: P B C M
;
_chemical_formula_sum "Si O2"
_cell_formula_units_Z 56
_cell_length_a 14.070586
_cell_length_b 21.111781
_cell_length_c 9.795720
_cell_angle_alpha 90.000000
_cell_angle_beta 90.000000
_cell_angle_gamma 90.000000
_cell_volume 2909.868880
_symmetry_space_group_name_H-M "P B C M"
_symmetry_group_IT_number 57
_symmetry_cell_setting 'orthorhombic'
loop_
_space_group_symop_operation_xyz
x,y,z
-x,-y,1/2+z
x,1/2-y,-z
-x,1/2+y,1/2-z
-x,-y,-z
x,y,1/2-z
-x,1/2+y,z
x,1/2-y,1/2+z
loop_
_atom_site_type_symbol
_atom_site_label
_atom_site_fract_x
_atom_site_fract_y
_atom_site_fract_z
Si Si1 0.134510 0.514541 0.604099
Si Si2 0.590906 0.682806 0.917974
Si Si3 0.969510 0.896829 0.996456
Si Si4 0.265839 0.579537 0.407661
Si Si5 0.186712 0.193452 0.901341
Si Si6 0.131216 0.809125 0.595864
Si Si7 0.509539 0.066689 0.415895
O O1 0.179018 0.526770 0.750000
O O2 0.088128 0.446097 0.594339
O O3 0.214118 0.524815 0.491143
O O4 0.046890 0.562627 0.580499
O O5 0.569750 0.685501 0.750000
O O6 0.704961 0.672494 0.929522
O O7 0.570638 0.750000 0.000000
O O8 0.541884 0.623980 0.999664
O O9 0.034110 0.848652 0.912271
O O10 0.891402 0.860675 0.084266
O O11 0.239018 0.571255 0.250000
O O12 0.215786 0.644663 0.452438
O O13 0.377969 0.581012 0.419252
O O14 0.186376 0.219927 0.750000
O O15 0.160387 0.250000 0.000000
O O16 0.122541 0.750000 0.500000
O O17 0.150735 0.789349 0.750000
O O18 0.483520 0.062959 0.250000
O O19 0.500000 0.000000 0.500000
#
# Coordination Sequence:
#
# PCOD9438375 Si02
#       7
#     8   8   8   8   8   8   8
#     4  10  21  36  57  85 114 152 202 245 288 349
#     4  10  22  42  65  92 125 165 208 256 311 376
#     4  10  21  35  55  83 118 157 194 241 294 349
#     4   9  22  42  60  82 118 155 190 238 305 362
#     4  10  22  38  58  84 116 155 197 241 295 352
#     4  10  21  38  58  83 116 153 193 240 288 346
#     4  11  24  43  66  95 126 162 205 260 321 381
#
# _framework density 19.244854
#
# number of rings (size 3 to 8) (size 9 to 14) (size 15 to 20)
#    0.000    2.000    0.000    2.143    2.000   11.429 
#    0.000    1.429    0.000    0.000    0.000    0.000 
#    0.000    0.000    0.000    0.000    0.000    0.000 
#
# Total GULP energy -312100.321930 kJ/mol
# GULP energy per Si atom -5573.220034 kJ/mol
# Density = 1.920105 g / cm^3
# Si number density = 19.244854 Si / 1000 Ang^3
#
#
#
# Elastic Constant Matrix: (Units=GPa)
#
#
# Indices 1 2 3 4 5 6 
#
# 1 62.6371 32.2385 28.7099 0.0000 0.0000 0.0000
# 2 32.2385 91.5360 52.6572 0.0000 0.0000 0.0000
# 3 28.7099 52.6572 88.3963 0.0000 0.0000 0.0000
# 4 0.0000 0.0000 0.0000 4.7619 0.0000 0.0000
# 5 0.0000 0.0000 0.0000 0.0000 15.5224 0.0000
# 6 0.0000 0.0000 0.0000 0.0000 0.0000 14.6519
#
#
#
# Elastic Compliance Matrix: (Units=1/GPa)
#
#
# Indices 1 2 3 4 5 6 
#
# 1 0.020200 -0.005082 -0.003534 0.000000 0.000000 0.000000
# 2 -0.005082 0.017898 -0.009012 0.000000 0.000000 0.000000
# 3 -0.003534 -0.009012 0.017828 0.000000 0.000000 0.000000
# 4 0.000000 0.000000 0.000000 0.210002 0.000000 0.000000
# 5 0.000000 0.000000 0.000000 0.000000 0.064423 0.000000
# 6 0.000000 0.000000 0.000000 0.000000 0.000000 0.068250
#
#
# Mechanical properties :
#
#
# Convention : Reuss Voigt Hill
#
# Bulk Modulus (GPa) = 48.37132 52.19786 50.28459
# Shear Modulus (GPa) = 11.34437 15.58481 13.46459
#
# Velocity S-wave (km/s) = 2.43055 2.84882 2.64795
# Velocity P-wave (km/s) = 5.75030 6.16465 5.96108
#
# Compressibility (1/GPa) = 0.02067341
#
# Stress axis : x y z
#
# Youngs Moduli (GPa) = 49.50478 55.87096 56.09000
#
# Poissons Ratio (x) = 0.28391 0.19820
# Poissons Ratio (y) = 0.25156 0.50546
# Poissons Ratio (z) = 0.17493 0.50348
#
# Static dielectric constant tensor:
#      x y z
#    x 1.649380 0.000000 0.000000 
#    y 0.000000 1.688440 0.000000 
#    z 0.000000 0.000000 1.704010 
# 
# From -- ./inp_files/5103.got.cif
#   From: 2010.05.17/outbox.cif.g08.bks.cpg/sg57_3_cif.got.tgz:5103.got - 2010.06.03 13:58:18.
