data_PCOD9438335
_publ_section_title
;
Structure prediction by ZEFSAII (Michael W. Deem and Ramdas Pophale) SiO2 
 PCOD9438335
Probable space group: P B C M
;
_chemical_formula_sum "Si O2"
_cell_formula_units_Z 56
_cell_length_a 15.761268
_cell_length_b 12.542629
_cell_length_c 14.443494
_cell_angle_alpha 90.000000
_cell_angle_beta 90.000000
_cell_angle_gamma 90.000000
_cell_volume 2855.301645
_symmetry_space_group_name_H-M "P B C M"
_symmetry_group_IT_number 57
_symmetry_cell_setting 'orthorhombic'
loop_
_space_group_symop_operation_xyz
x,y,z
-x,-y,1/2+z
x,1/2-y,-z
-x,1/2+y,1/2-z
-x,-y,-z
x,y,1/2-z
-x,1/2+y,z
x,1/2-y,1/2+z
loop_
_atom_site_type_symbol
_atom_site_label
_atom_site_fract_x
_atom_site_fract_y
_atom_site_fract_z
Si Si1 0.538015 0.368470 0.640495
Si Si2 0.737300 0.986931 0.951873
Si Si3 0.316578 0.698521 0.641462
Si Si4 0.879006 0.268452 0.641926
Si Si5 0.342825 0.441576 0.351826
Si Si6 0.357423 0.206116 0.401813
Si Si7 0.080635 0.572743 0.980475
O O1 0.519932 0.354119 0.750000
O O2 0.612146 0.284698 0.615591
O O3 0.573353 0.487826 0.629470
O O4 0.450930 0.343469 0.589802
O O5 0.705884 0.891557 0.884907
O O6 0.687063 0.092639 0.919810
O O7 0.715361 0.964419 0.059503
O O8 0.837254 0.006890 0.947344
O O9 0.329610 0.671042 0.750000
O O10 0.222232 0.747604 0.633351
O O11 0.899313 0.281289 0.750000
O O12 0.898502 0.368045 0.576864
O O13 0.926819 0.167044 0.595922
O O14 0.310419 0.478179 0.250000
O O15 0.360163 0.315537 0.345705
O O16 0.328558 0.250000 0.500000
O O17 0.000000 0.500000 0.000000
#
# Coordination Sequence:
#
# PCOD9438335 Si02
#       7
#     8   8   8   8   8   8   8
#     4  10  21  34  55  83 113 155 202 246 290 336
#     4  10  22  39  61  85 114 155 195 241 306 357
#     4   9  19  35  60  89 116 150 198 249 292 342
#     4   9  19  39  62  92 124 154 197 247 301 358
#     4  10  22  39  55  80 117 155 197 241 289 351
#     4  10  23  37  52  78 115 156 196 243 288 350
#     4  10  21  39  64  92 122 156 194 252 306 366
#
# _framework density 19.612639000000001
#
# number of rings (size 3 to 8) (size 9 to 14) (size 15 to 20)
#    0.000    2.286    0.000    1.286    4.000    5.714 
#    7.714    0.000    0.000    0.000    0.000    0.000 
#    0.000    0.000    0.000    0.000    0.000    0.000 
#
# Total GULP energy -312313.925555 kJ/mol
# GULP energy per Si atom -5577.034385 kJ/mol
# Density = 1.956800 g / cm^3
# Si number density = 19.612639 Si / 1000 Ang^3
#
#
#
# Elastic Constant Matrix: (Units=GPa)
#
#
# Indices 1 2 3 4 5 6 
#
# 1 70.1282 62.6611 6.4872 0.0000 0.0000 0.0000
# 2 62.6611 135.1294 40.0867 0.0000 0.0000 0.0000
# 3 6.4872 40.0867 74.4572 0.0000 0.0000 0.0000
# 4 0.0000 0.0000 0.0000 21.1500 0.0000 0.0000
# 5 0.0000 0.0000 0.0000 0.0000 13.5418 0.0000
# 6 0.0000 0.0000 0.0000 0.0000 0.0000 28.1826
#
#
#
# Elastic Compliance Matrix: (Units=1/GPa)
#
#
# Indices 1 2 3 4 5 6 
#
# 1 0.025819 -0.013454 0.004994 0.000000 0.000000 0.000000
# 2 -0.013454 0.015818 -0.007344 0.000000 0.000000 0.000000
# 3 0.004994 -0.007344 0.016949 0.000000 0.000000 0.000000
# 4 0.000000 0.000000 0.000000 0.047281 0.000000 0.000000
# 5 0.000000 0.000000 0.000000 0.000000 0.073845 0.000000
# 6 0.000000 0.000000 0.000000 0.000000 0.000000 0.035483
#
#
# Mechanical properties :
#
#
# Convention : Reuss Voigt Hill
#
# Bulk Modulus (GPa) = 37.06695 55.35386 46.21040
# Shear Modulus (GPa) = 19.54679 23.94021 21.74350
#
# Velocity S-wave (km/s) = 3.16039 3.49757 3.33325
# Velocity P-wave (km/s) = 5.67961 6.67799 6.19893
#
# Compressibility (1/GPa) = 0.02697821
#
# Stress axis : x y z
#
# Youngs Moduli (GPa) = 38.73084 63.22008 58.99962
#
# Poissons Ratio (x) = 0.85057 -0.29464
# Poissons Ratio (y) = 0.52109 0.43328
# Poissons Ratio (z) = -0.19342 0.46428
#
# Static dielectric constant tensor:
#      x y z
#    x 1.653660 0.000000 0.000000 
#    y 0.000000 1.732580 0.000000 
#    z 0.000000 0.000000 1.731400 
# 
# From -- ./inp_files/18494.got.cif
#   From: 2010.05.17/outbox.cif.g08.bks.cpg/sg57_10_cif.got.tgz:18494.got - 2010.06.03 13:58:18.
