data_PCOD9438974
_publ_section_title
;
Structure prediction by ZEFSAII (Michael W. Deem and Ramdas Pophale) SiO2 
 PCOD9438974
Probable space group: P B C M
;
_chemical_formula_sum "Si O2"
_cell_formula_units_Z 64
_cell_length_a 8.094355
_cell_length_b 24.812707
_cell_length_c 14.986320
_cell_angle_alpha 90.000000
_cell_angle_beta 90.000000
_cell_angle_gamma 90.000000
_cell_volume 3009.895354
_symmetry_space_group_name_H-M "P B C M"
_symmetry_group_IT_number 57
_symmetry_cell_setting 'orthorhombic'
loop_
_space_group_symop_operation_xyz
x,y,z
-x,-y,1/2+z
x,1/2-y,-z
-x,1/2+y,1/2-z
-x,-y,-z
x,y,1/2-z
-x,1/2+y,z
x,1/2-y,1/2+z
loop_
_atom_site_type_symbol
_atom_site_label
_atom_site_fract_x
_atom_site_fract_y
_atom_site_fract_z
Si Si1 0.365476 0.912161 0.643013
Si Si2 0.995795 0.889974 0.856360
Si Si3 0.912813 0.232662 0.398272
Si Si4 0.688045 0.595039 0.853918
Si Si5 0.458847 0.795473 0.855275
Si Si6 0.593055 0.015673 0.647991
Si Si7 0.741658 0.716028 0.854992
Si Si8 0.833592 0.530876 0.016029
O O1 0.362266 0.905261 0.750000
O O2 0.173105 0.916229 0.619351
O O3 0.439732 0.856067 0.605569
O O4 0.468078 0.965999 0.628297
O O5 0.966310 0.894057 0.750000
O O6 0.019397 0.827631 0.881554
O O7 0.858843 0.920371 0.913165
O O8 0.895897 0.250000 0.500000
O O9 0.723779 0.232112 0.361823
O O10 0.065218 0.268915 0.363405
O O11 0.746503 0.590664 0.750000
O O12 0.502531 0.572098 0.853480
O O13 0.707177 0.655786 0.887943
O O14 0.778020 0.556101 0.923006
O O15 0.493818 0.802242 0.750000
O O16 0.610888 0.759964 0.892231
O O17 0.657146 0.007915 0.750000
O O18 0.718152 0.011031 0.567570
O O19 0.704375 0.713007 0.750000
O O20 0.000000 0.500000 0.000000
#
# Coordination Sequence:
#
# PCOD9438974 Si02
#       8
#     8   8   8   8   8   8   8   8
#     4   8  16  34  61  90 121 159 205 264 325 379
#     4  10  21  39  63  93 130 166 211 275 334 390
#     4  11  22  38  59  94 135 167 212 267 329 394
#     4  10  23  44  62  86 125 172 215 262 325 394
#     4   9  19  37  61  90 121 164 215 262 321 384
#     4  10  21  40  66  92 122 165 216 266 324 399
#     4  10  21  40  64  86 120 170 218 261 315 386
#     4  12  25  40  62  96 126 163 211 269 334 391
#
# _framework density 21.263199
#
# number of rings (size 3 to 8) (size 9 to 14) (size 15 to 20)
#    0.000    2.000    0.000    4.125    1.750    2.500 
#    9.000    0.000    0.000    0.000    0.000    0.000 
#    0.000    0.000    0.000    0.000    0.000    0.000 
#
# Total GULP energy -357082.716645 kJ/mol
# GULP energy per Si atom -5579.417448 kJ/mol
# Density = 2.121480 g / cm^3
# Si number density = 21.263199 Si / 1000 Ang^3
#
#
#
# Elastic Constant Matrix: (Units=GPa)
#
#
# Indices 1 2 3 4 5 6 
#
# 1 38.2301 13.8168 -9.5029 0.0000 0.0000 0.0000
# 2 13.8168 53.1615 2.9057 0.0000 0.0000 0.0000
# 3 -9.5029 2.9057 62.7190 0.0000 0.0000 0.0000
# 4 0.0000 0.0000 0.0000 22.7433 0.0000 0.0000
# 5 0.0000 0.0000 0.0000 0.0000 35.2977 0.0000
# 6 0.0000 0.0000 0.0000 0.0000 0.0000 -11.9970
#
#
#
# Elastic Compliance Matrix: (Units=1/GPa)
#
#
# Indices 1 2 3 4 5 6 
#
# 1 0.030343 -0.008158 0.004975 0.000000 0.000000 0.000000
# 2 -0.008158 0.021052 -0.002211 0.000000 0.000000 0.000000
# 3 0.004975 -0.002211 0.016800 0.000000 0.000000 0.000000
# 4 0.000000 0.000000 0.000000 0.043969 0.000000 0.000000
# 5 0.000000 0.000000 0.000000 0.000000 0.028330 0.000000
# 6 0.000000 0.000000 0.000000 0.000000 0.000000 -0.083354
#
#
# Mechanical properties :
#
#
# Convention : Reuss Voigt Hill
#
# Bulk Modulus (GPa) = 17.41962 18.72775 18.07369
# Shear Modulus (GPa) = 57.42905 19.00154 38.21530
#
# Velocity S-wave (km/s) = 5.20262 2.99262 4.24400
# Velocity P-wave (km/s) = 6.65582 4.55716 5.70384
#
# Compressibility (1/GPa) = 0.05740654
#
# Stress axis : x y z
#
# Youngs Moduli (GPa) = 32.95702 47.50195 59.52233
#
# Poissons Ratio (x) = 0.38752 -0.29614
# Poissons Ratio (y) = 0.26887 0.13163
# Poissons Ratio (z) = -0.16397 0.10504
#
# Static dielectric constant tensor:
#      x y z
#    x 1.800280 0.000000 0.000000 
#    y 0.000000 1.758630 0.000000 
#    z 0.000000 0.000000 1.811550 
# 
# From -- ./inp_files/16955.got.cif
#   From: 2010.05.17/outbox.cif.g08.bks.cpg/sg57_9_cif.got.tgz:16955.got - 2010.06.03 13:58:18.
