data_PCOD9438526
_publ_section_title
;
Structure prediction by ZEFSAII (Michael W. Deem and Ramdas Pophale) SiO2 
 PCOD9438526
Probable space group: P B C M
;
_chemical_formula_sum "Si O2"
_cell_formula_units_Z 48
_cell_length_a 9.294806
_cell_length_b 19.957677
_cell_length_c 14.793153
_cell_angle_alpha 90.000000
_cell_angle_beta 90.000000
_cell_angle_gamma 90.000000
_cell_volume 2744.170354
_symmetry_space_group_name_H-M "P B C M"
_symmetry_group_IT_number 57
_symmetry_cell_setting 'orthorhombic'
loop_
_space_group_symop_operation_xyz
x,y,z
-x,-y,1/2+z
x,1/2-y,-z
-x,1/2+y,1/2-z
-x,-y,-z
x,y,1/2-z
-x,1/2+y,z
x,1/2-y,1/2+z
loop_
_atom_site_type_symbol
_atom_site_label
_atom_site_fract_x
_atom_site_fract_y
_atom_site_fract_z
Si Si1 0.854460 0.682281 0.953335
Si Si2 0.357511 0.086055 0.437480
Si Si3 0.184708 0.695531 0.566270
Si Si4 0.376596 0.935764 0.067858
Si Si5 0.766371 0.698230 0.750000
Si Si6 0.578678 0.665425 0.250000
Si Si7 0.501220 0.391898 0.250000
Si Si8 0.700425 0.258414 0.250000
O O1 0.844964 0.690469 0.845361
O O2 0.025311 0.678995 0.969879
O O3 0.799155 0.750000 0.000000
O O4 0.754931 0.625865 0.998795
O O5 0.511855 0.078696 0.487178
O O6 0.384394 0.122703 0.340886
O O7 0.306292 0.008899 0.432730
O O8 0.255588 0.750000 0.500000
O O9 0.267097 0.625649 0.570129
O O10 0.199115 0.732784 0.662547
O O11 0.466190 0.932760 0.160564
O O12 0.680753 0.768701 0.750000
O O13 0.656784 0.636529 0.750000
O O14 0.414016 0.696278 0.250000
O O15 0.600185 0.325044 0.250000
#
# Coordination Sequence:
#
# PCOD9438526 Si02
#       8
#     8   8   8   8   4   4   4   4
#     4  11  22  36  57  84 114 148 193 237 291 343
#     4  11  22  36  57  85 115 153 189 243 289 343
#     4  10  21  37  58  83 113 151 190 237 285 351
#     4  10  21  37  57  84 117 149 195 235 291 347
#     4  11  19  34  57  83 109 142 185 242 279 334
#     4  11  21  34  59  86 115 149 191 242 289 341
#     4   9  17  32  56  80 105 142 184 233 281 337
#     4   9  19  34  56  83 107 145 186 235 287 328
#
# _framework density 17.491624999999999
#
# number of rings (size 3 to 8) (size 9 to 14) (size 15 to 20)
#    0.000    1.667    3.333    2.000    0.000    1.333 
#    0.000    0.000    0.000    0.000    0.000    0.000 
#    0.000    0.000    0.000    0.000    0.000    0.000 
#
# Total GULP energy -267299.927189 kJ/mol
# GULP energy per Si atom -5568.748483 kJ/mol
# Density = 1.745181 g / cm^3
# Si number density = 17.491625 Si / 1000 Ang^3
#
#
#
# Elastic Constant Matrix: (Units=GPa)
#
#
# Indices 1 2 3 4 5 6 
#
# 1 38.6471 31.9543 4.0131 0.0000 0.0000 0.0000
# 2 31.9543 128.8271 47.1340 0.0000 0.0000 0.0000
# 3 4.0131 47.1340 118.4358 0.0000 0.0000 0.0000
# 4 0.0000 0.0000 0.0000 36.3886 0.0000 0.0000
# 5 0.0000 0.0000 0.0000 0.0000 21.0602 0.0000
# 6 0.0000 0.0000 0.0000 0.0000 0.0000 17.0068
#
#
#
# Elastic Compliance Matrix: (Units=1/GPa)
#
#
# Indices 1 2 3 4 5 6 
#
# 1 0.033180 -0.009151 0.002518 0.000000 0.000000 0.000000
# 2 -0.009151 0.011609 -0.004310 0.000000 0.000000 0.000000
# 3 0.002518 -0.004310 0.010073 0.000000 0.000000 0.000000
# 4 0.000000 0.000000 0.000000 0.027481 0.000000 0.000000
# 5 0.000000 0.000000 0.000000 0.000000 0.047483 0.000000
# 6 0.000000 0.000000 0.000000 0.000000 0.000000 0.058800
#
#
# Mechanical properties :
#
#
# Convention : Reuss Voigt Hill
#
# Bulk Modulus (GPa) = 30.32554 50.23474 40.28014
# Shear Modulus (GPa) = 22.57283 28.41171 25.49227
#
# Velocity S-wave (km/s) = 3.59624 4.03464 3.82173
# Velocity P-wave (km/s) = 5.88377 7.10535 6.52322
#
# Compressibility (1/GPa) = 0.03297550
#
# Stress axis : x y z
#
# Youngs Moduli (GPa) = 30.13854 86.13938 99.27194
#
# Poissons Ratio (x) = 0.78827 -0.24993
# Poissons Ratio (y) = 0.27580 0.42786
# Poissons Ratio (z) = -0.07588 0.37126
#
# Static dielectric constant tensor:
#      x y z
#    x 1.593350 0.000000 0.000000 
#    y 0.000000 1.594950 0.000000 
#    z 0.000000 0.000000 1.725550 
# 
# From -- ./inp_files/16432.got.cif
#   From: 2010.05.17/outbox.cif.g08.bks.cpg/sg57_9_cif.got.tgz:16432.got - 2010.06.03 13:58:18.
