data_PCOD9438013
_publ_section_title
;
Structure prediction by ZEFSAII (Michael W. Deem and Ramdas Pophale) SiO2 
 PCOD9438013
Probable space group: P B C M
;
_chemical_formula_sum "Si O2"
_cell_formula_units_Z 64
_cell_length_a 8.654303
_cell_length_b 15.054340
_cell_length_c 22.987189
_cell_angle_alpha 90.000000
_cell_angle_beta 90.000000
_cell_angle_gamma 90.000000
_cell_volume 2994.881777
_symmetry_space_group_name_H-M "P B C M"
_symmetry_group_IT_number 57
_symmetry_cell_setting 'orthorhombic'
loop_
_space_group_symop_operation_xyz
x,y,z
-x,-y,1/2+z
x,1/2-y,-z
-x,1/2+y,1/2-z
-x,-y,-z
x,y,1/2-z
-x,1/2+y,z
x,1/2-y,1/2+z
loop_
_atom_site_type_symbol
_atom_site_label
_atom_site_fract_x
_atom_site_fract_y
_atom_site_fract_z
Si Si1 0.891832 0.971994 0.180510
Si Si2 0.600144 0.708288 0.131113
Si Si3 0.165034 0.336175 0.425279
Si Si4 0.361884 0.024701 0.958974
Si Si5 0.271520 0.618357 0.385197
Si Si6 0.227208 0.460975 0.683264
Si Si7 0.820220 0.285455 0.061920
Si Si8 0.567935 0.114661 0.636717
O O1 0.891108 0.949722 0.250000
O O2 0.852636 0.890867 0.136518
O O3 0.775750 0.054485 0.167643
O O4 0.060661 0.007224 0.159986
O O5 0.719620 0.754516 0.086749
O O6 0.446388 0.655102 0.112011
O O7 0.699704 0.630355 0.160410
O O8 0.519602 0.796970 0.160975
O O9 0.249993 0.395460 0.474104
O O10 0.992411 0.319365 0.445384
O O11 0.445180 0.058865 0.900285
O O12 0.256286 0.942015 0.942446
O O13 0.500000 0.000000 0.000000
O O14 0.167245 0.704320 0.392103
O O15 0.195744 0.444291 0.750000
O O16 0.345275 0.543922 0.676883
O O17 0.696961 0.351066 0.090889
O O18 0.760128 0.250000 0.000000
#
# Coordination Sequence:
#
# PCOD9438013 Si02
#       8
#     8   8   8   8   8   8   8   8
#     4  10  22  42  64  86 122 168 209 260 323 381
#     4  10  22  39  63  90 126 164 204 263 317 377
#     4  10  22  40  61  93 130 163 215 269 319 383
#     4  10  20  38  61  90 122 168 209 255 324 375
#     4  10  21  39  60  88 123 160 210 260 307 382
#     4  11  22  40  65  91 122 168 212 261 327 383
#     4  11  22  39  61  90 126 168 209 262 320 384
#     4  10  21  41  62  90 132 164 210 271 315 382
#
# _framework density 21.369792
#
# number of rings (size 3 to 8) (size 9 to 14) (size 15 to 20)
#    0.000    1.750    2.500    1.500    0.000    2.500 
#    2.250    5.625    0.000    0.000    0.000    0.000 
#    0.000    0.000    0.000    0.000    0.000    0.000 
#
# Total GULP energy -356453.502465 kJ/mol
# GULP energy per Si atom -5569.585976 kJ/mol
# Density = 2.132115 g / cm^3
# Si number density = 21.369792 Si / 1000 Ang^3
#
#
#
# Elastic Constant Matrix: (Units=GPa)
#
#
# Indices 1 2 3 4 5 6 
#
# 1 116.2484 29.0304 1.8339 0.0000 0.0000 0.0000
# 2 29.0304 96.3459 12.9100 0.0000 0.0000 0.0000
# 3 1.8339 12.9100 34.6675 0.0000 0.0000 0.0000
# 4 0.0000 0.0000 0.0000 20.3537 0.0000 0.0000
# 5 0.0000 0.0000 0.0000 0.0000 26.3917 0.0000
# 6 0.0000 0.0000 0.0000 0.0000 0.0000 46.2245
#
#
#
# Elastic Compliance Matrix: (Units=1/GPa)
#
#
# Indices 1 2 3 4 5 6 
#
# 1 0.009313 -0.002884 0.000581 0.000000 0.000000 0.000000
# 2 -0.002884 0.011818 -0.004248 0.000000 0.000000 0.000000
# 3 0.000581 -0.004248 0.030397 0.000000 0.000000 0.000000
# 4 0.000000 0.000000 0.000000 0.049131 0.000000 0.000000
# 5 0.000000 0.000000 0.000000 0.000000 0.037891 0.000000
# 6 0.000000 0.000000 0.000000 0.000000 0.000000 0.021634
#
#
# Mechanical properties :
#
#
# Convention : Reuss Voigt Hill
#
# Bulk Modulus (GPa) = 26.02430 37.20115 31.61273
# Shear Modulus (GPa) = 26.86820 32.15980 29.51400
#
# Velocity S-wave (km/s) = 3.54969 3.88354 3.72036
# Velocity P-wave (km/s) = 5.38562 6.12823 5.76889
#
# Compressibility (1/GPa) = 0.03842562
#
# Stress axis : x y z
#
# Youngs Moduli (GPa) = 107.37282 84.61994 32.89829
#
# Poissons Ratio (x) = 0.24406 -0.01913
# Poissons Ratio (y) = 0.30968 0.13976
# Poissons Ratio (z) = -0.06242 0.35948
#
# Static dielectric constant tensor:
#      x y z
#    x 1.803050 0.000000 0.000000 
#    y 0.000000 1.869490 0.000000 
#    z 0.000000 0.000000 1.771040 
# 
# From -- ./inp_files/26877.got.cif
#   From: 2010.05.17/outbox.cif.g08.bks.cpg/sg57_14_cif.got.tgz:26877.got - 2010.06.03 13:58:18.
