data_PCOD9438655
_publ_section_title
;
Structure prediction by ZEFSAII (Michael W. Deem and Ramdas Pophale) SiO2 
 PCOD9438655
Probable space group: P B C M
;
_chemical_formula_sum "Si O2"
_cell_formula_units_Z 56
_cell_length_a 11.889703
_cell_length_b 14.718530
_cell_length_c 15.703381
_cell_angle_alpha 90.000000
_cell_angle_beta 90.000000
_cell_angle_gamma 90.000000
_cell_volume 2748.075191
_symmetry_space_group_name_H-M "P B C M"
_symmetry_group_IT_number 57
_symmetry_cell_setting 'orthorhombic'
loop_
_space_group_symop_operation_xyz
x,y,z
-x,-y,1/2+z
x,1/2-y,-z
-x,1/2+y,1/2-z
-x,-y,-z
x,y,1/2-z
-x,1/2+y,z
x,1/2-y,1/2+z
loop_
_atom_site_type_symbol
_atom_site_label
_atom_site_fract_x
_atom_site_fract_y
_atom_site_fract_z
Si Si1 0.173219 0.457592 0.498706
Si Si2 0.606914 0.143826 0.653866
Si Si3 0.842273 0.667844 0.154670
Si Si4 0.418703 0.041262 0.431303
Si Si5 0.404395 0.232519 0.100196
Si Si6 0.827590 0.339856 0.448878
Si Si7 0.042698 0.359741 0.153714
O O1 0.126439 0.406409 0.583323
O O2 0.304959 0.439045 0.515500
O O3 0.164079 0.566469 0.497963
O O4 0.116141 0.413365 0.416505
O O5 0.640599 0.164850 0.750000
O O6 0.602223 0.035441 0.638846
O O7 0.485960 0.190279 0.636494
O O8 0.701851 0.174853 0.586969
O O9 0.844613 0.628615 0.250000
O O10 0.718148 0.713117 0.140030
O O11 0.922722 0.754164 0.148928
O O12 0.500000 0.000000 0.500000
O O13 0.463827 0.134336 0.392466
O O14 0.390052 0.250000 0.000000
O O15 0.862220 0.250000 0.500000
O O16 0.912568 0.361054 0.372009
O O17 0.062696 0.392058 0.250000
#
# Coordination Sequence:
#
# PCOD9438655 Si02
#       7
#     8   8   8   8   8   8   8
#     4  10  22  40  65  89 122 163 208 254 308 370
#     4  11  24  39  59  89 125 164 209 259 313 376
#     4  10  21  37  63  94 121 155 205 260 311 369
#     4  10  21  37  62  88 120 162 206 248 311 368
#     4  11  20  36  62  85 121 162 205 252 310 376
#     4  11  24  42  64  86 123 168 213 252 313 377
#     4  11  23  41  65  95 125 156 203 262 317 369
#
# _framework density 20.3779
#
# number of rings (size 3 to 8) (size 9 to 14) (size 15 to 20)
#    0.000    1.429    1.429    4.714    2.000    6.286 
#    0.000    2.857    0.000    0.000    0.000    0.000 
#    0.000    0.000    0.000    0.000    0.000    0.000 
#
# Total GULP energy -312525.992909 kJ/mol
# GULP energy per Si atom -5580.821302 kJ/mol
# Density = 2.033152 g / cm^3
# Si number density = 20.377900 Si / 1000 Ang^3
#
#
#
# Elastic Constant Matrix: (Units=GPa)
#
#
# Indices 1 2 3 4 5 6 
#
# 1 27.7813 15.0735 5.3784 0.0000 0.0000 0.0000
# 2 15.0735 99.8063 38.0284 0.0000 0.0000 0.0000
# 3 5.3784 38.0284 123.1453 0.0000 0.0000 0.0000
# 4 0.0000 0.0000 0.0000 11.5930 0.0000 0.0000
# 5 0.0000 0.0000 0.0000 0.0000 19.6126 0.0000
# 6 0.0000 0.0000 0.0000 0.0000 0.0000 13.7891
#
#
#
# Elastic Compliance Matrix: (Units=1/GPa)
#
#
# Indices 1 2 3 4 5 6 
#
# 1 0.039210 -0.005972 0.000132 0.000000 0.000000 0.000000
# 2 -0.005972 0.012265 -0.003527 0.000000 0.000000 0.000000
# 3 0.000132 -0.003527 0.009204 0.000000 0.000000 0.000000
# 4 0.000000 0.000000 0.000000 0.086259 0.000000 0.000000
# 5 0.000000 0.000000 0.000000 0.000000 0.050988 0.000000
# 6 0.000000 0.000000 0.000000 0.000000 0.000000 0.072521
#
#
# Mechanical properties :
#
#
# Convention : Reuss Voigt Hill
#
# Bulk Modulus (GPa) = 23.84073 40.85484 32.34778
# Shear Modulus (GPa) = 16.49281 21.81578 19.15430
#
# Velocity S-wave (km/s) = 2.84799 3.27549 3.06919
# Velocity P-wave (km/s) = 4.74757 5.86492 5.33557
#
# Compressibility (1/GPa) = 0.04194502
#
# Stress axis : x y z
#
# Youngs Moduli (GPa) = 25.50356 81.53202 108.65045
#
# Poissons Ratio (x) = 0.48691 -0.01431
# Poissons Ratio (y) = 0.15231 0.38318
# Poissons Ratio (z) = -0.00336 0.28754
#
# Static dielectric constant tensor:
#      x y z
#    x 1.720290 0.000000 0.000000 
#    y 0.000000 1.756360 0.000000 
#    z 0.000000 0.000000 1.725960 
# 
# From -- ./inp_files/17776.got.cif
#   From: 2010.05.17/outbox.cif.g08.bks.cpg/sg57_9_cif.got.tgz:17776.got - 2010.06.03 13:58:18.
