data_PCOD9438008
_publ_section_title
;
Structure prediction by ZEFSAII (Michael W. Deem and Ramdas Pophale) SiO2 
 PCOD9438008
Probable space group: P B C M
;
_chemical_formula_sum "Si O2"
_cell_formula_units_Z 48
_cell_length_a 31.079289
_cell_length_b 9.614398
_cell_length_c 8.589504
_cell_angle_alpha 90.000000
_cell_angle_beta 90.000000
_cell_angle_gamma 90.000000
_cell_volume 2566.618129
_symmetry_space_group_name_H-M "P B C M"
_symmetry_group_IT_number 57
_symmetry_cell_setting 'orthorhombic'
loop_
_space_group_symop_operation_xyz
x,y,z
-x,-y,1/2+z
x,1/2-y,-z
-x,1/2+y,1/2-z
-x,-y,-z
x,y,1/2-z
-x,1/2+y,z
x,1/2-y,1/2+z
loop_
_atom_site_type_symbol
_atom_site_label
_atom_site_fract_x
_atom_site_fract_y
_atom_site_fract_z
Si Si1 0.713104 0.401560 0.062865
Si Si2 0.538973 0.593574 0.935988
Si Si3 0.038417 0.593857 0.936497
Si Si4 0.613899 0.096325 0.562485
Si Si5 0.791389 0.594130 0.437475
Si Si6 0.868560 0.406353 0.563611
O O1 0.713640 0.395426 0.250000
O O2 0.663690 0.428956 0.015783
O O3 0.747314 0.516812 0.013136
O O4 0.725708 0.250000 0.000000
O O5 0.537293 0.596453 0.750000
O O6 0.536034 0.750000 0.000000
O O7 0.500000 0.500000 0.000000
O O8 0.582494 0.518663 0.992839
O O9 0.038882 0.594639 0.750000
O O10 0.032539 0.750000 0.000000
O O11 0.084963 0.546365 0.999560
O O12 0.000000 0.500000 0.000000
O O13 0.601996 0.250000 0.500000
O O14 0.610846 0.095999 0.750000
O O15 0.792523 0.750000 0.500000
O O16 0.793397 0.594320 0.250000
O O17 0.831114 0.505982 0.503503
O O18 0.861349 0.250000 0.500000
O O19 0.869536 0.402512 0.750000
#
# Coordination Sequence:
#
# PCOD9438008 Si02
#       6
#     8   8   8   8   8   8
#     4   9  20  37  60  86 116 152 194 236 284 342
#     4  12  25  42  62  87 117 154 194 239 289 344
#     4  11  22  39  61  88 118 152 191 236 285 341
#     4  10  20  38  61  89 120 154 193 238 286 341
#     4  11  23  39  57  84 117 153 193 240 291 342
#     4  11  22  39  61  86 114 151 193 237 285 342
#
# _framework density 18.701651999999999
#
# number of rings (size 3 to 8) (size 9 to 14) (size 15 to 20)
#    0.000    1.333    0.000    7.500    0.000    4.667 
#    0.000    5.000    0.000    0.000    0.000    0.000 
#    0.000    0.000    0.000    0.000    0.000    0.000 
#
# Total GULP energy -268426.058328 kJ/mol
# GULP energy per Si atom -5592.209549 kJ/mol
# Density = 1.865909 g / cm^3
# Si number density = 18.701652 Si / 1000 Ang^3
#
#
#
# Elastic Constant Matrix: (Units=GPa)
#
#
# Indices 1 2 3 4 5 6 
#
# 1 137.1013 113.6152 61.0713 0.0000 0.0000 0.0000
# 2 113.6152 151.9401 63.5438 0.0000 0.0000 0.0000
# 3 61.0713 63.5438 145.3490 0.0000 0.0000 0.0000
# 4 0.0000 0.0000 0.0000 37.6417 0.0000 0.0000
# 5 0.0000 0.0000 0.0000 0.0000 26.1356 0.0000
# 6 0.0000 0.0000 0.0000 0.0000 0.0000 40.7120
#
#
#
# Elastic Compliance Matrix: (Units=1/GPa)
#
#
# Indices 1 2 3 4 5 6 
#
# 1 0.019764 -0.013835 -0.002256 0.000000 0.000000 0.000000
# 2 -0.013835 0.017739 -0.001942 0.000000 0.000000 0.000000
# 3 -0.002256 -0.001942 0.008677 0.000000 0.000000 0.000000
# 4 0.000000 0.000000 0.000000 0.026566 0.000000 0.000000
# 5 0.000000 0.000000 0.000000 0.000000 0.038262 0.000000
# 6 0.000000 0.000000 0.000000 0.000000 0.000000 0.024563
#
#
# Mechanical properties :
#
#
# Convention : Reuss Voigt Hill
#
# Bulk Modulus (GPa) = 98.87450 101.20564 100.04007
# Shear Modulus (GPa) = 28.56996 33.97520 31.27258
#
# Velocity S-wave (km/s) = 3.91278 4.26689 4.09367
# Velocity P-wave (km/s) = 8.56722 8.86050 8.71510
#
# Compressibility (1/GPa) = 0.01011383
#
# Stress axis : x y z
#
# Youngs Moduli (GPa) = 50.59695 56.37167 115.24998
#
# Poissons Ratio (x) = 0.77993 0.25996
# Poissons Ratio (y) = 0.70003 0.22383
# Poissons Ratio (z) = 0.11413 0.10948
#
# Static dielectric constant tensor:
#      x y z
#    x 1.647390 0.000000 0.000000 
#    y 0.000000 1.582850 0.000000 
#    z 0.000000 0.000000 1.626500 
# 
# From -- ./inp_files/10062.got.cif
#   From: 2010.05.17/outbox.cif.g08.bks.cpg/sg57_6_cif.got.tgz:10062.got - 2010.06.03 13:58:18.
