data_PCOD9438310
_publ_section_title
;
Structure prediction by ZEFSAII (Michael W. Deem and Ramdas Pophale) SiO2 
 PCOD9438310
Probable space group: P B C M
;
_chemical_formula_sum "Si O2"
_cell_formula_units_Z 48
_cell_length_a 12.414927
_cell_length_b 8.721532
_cell_length_c 19.957862
_cell_angle_alpha 90.000000
_cell_angle_beta 90.000000
_cell_angle_gamma 90.000000
_cell_volume 2160.981078
_symmetry_space_group_name_H-M "P B C M"
_symmetry_group_IT_number 57
_symmetry_cell_setting 'orthorhombic'
loop_
_space_group_symop_operation_xyz
x,y,z
-x,-y,1/2+z
x,1/2-y,-z
-x,1/2+y,1/2-z
-x,-y,-z
x,y,1/2-z
-x,1/2+y,z
x,1/2-y,1/2+z
loop_
_atom_site_type_symbol
_atom_site_label
_atom_site_fract_x
_atom_site_fract_y
_atom_site_fract_z
Si Si1 0.262203 0.557359 0.890068
Si Si2 0.474501 0.634091 0.550403
Si Si3 0.389903 0.881931 0.750000
Si Si4 0.708022 0.777432 0.395712
Si Si5 0.849911 0.482436 0.250000
Si Si6 0.377722 0.266289 0.250000
Si Si7 0.948962 0.337612 0.750000
Si Si8 0.784158 0.385936 0.633004
O O1 0.390871 0.578447 0.894773
O O2 0.243488 0.385789 0.922940
O O3 0.219792 0.540662 0.815313
O O4 0.212042 0.725994 0.909596
O O5 0.415957 0.750000 0.500000
O O6 0.500000 0.500000 0.500000
O O7 0.586224 0.701245 0.576946
O O8 0.508046 0.814750 0.750000
O O9 0.317173 0.855608 0.816218
O O10 0.410414 0.059493 0.750000
O O11 0.691835 0.746767 0.316689
O O12 0.763992 0.946799 0.401388
O O13 0.934588 0.343613 0.250000
O O14 0.925697 0.628020 0.250000
O O15 0.886265 0.396726 0.683465
#
# Coordination Sequence:
#
# PCOD9438310 Si02
#       8
#     8   8   4   8   4   4   4   8
#     4  11  23  39  60  88 123 161 210 249 309 380
#     4  12  24  41  58  84 124 172 221 258 297 351
#     4   9  18  28  41  68 115 150 183 213 269 347
#     4  11  23  36  59  86 121 165 204 251 304 369
#     4  10  23  40  65  98 126 164 198 258 328 393
#     4  10  21  28  48  80 109 154 184 229 299 358
#     4   9  20  38  62  90 134 158 191 252 328 392
#     4   9  20  36  52  85 119 154 193 243 297 371
#
# _framework density 22.212135
#
# number of rings (size 3 to 8) (size 9 to 14) (size 15 to 20)
#    0.000    1.667    1.667    3.500    9.333    0.667 
#    0.000    0.000    0.000    0.000    0.000   11.667 
#    0.000    0.167    0.000    0.000    0.000    0.000 
#
# Total GULP energy -267452.226999 kJ/mol
# GULP energy per Si atom -5571.921396 kJ/mol
# Density = 2.216158 g / cm^3
# Si number density = 22.212135 Si / 1000 Ang^3
#
#
#
# Elastic Constant Matrix: (Units=GPa)
#
#
# Indices 1 2 3 4 5 6 
#
# 1 62.9587 31.5233 31.3877 0.0000 0.0000 0.0000
# 2 31.5233 174.6921 26.6317 0.0000 0.0000 0.0000
# 3 31.3877 26.6317 48.5301 0.0000 0.0000 0.0000
# 4 0.0000 0.0000 0.0000 21.7904 0.0000 0.0000
# 5 0.0000 0.0000 0.0000 0.0000 13.4551 0.0000
# 6 0.0000 0.0000 0.0000 0.0000 0.0000 42.4492
#
#
#
# Elastic Compliance Matrix: (Units=1/GPa)
#
#
# Indices 1 2 3 4 5 6 
#
# 1 0.024166 -0.002159 -0.014445 0.000000 0.000000 0.000000
# 2 -0.002159 0.006440 -0.002138 0.000000 0.000000 0.000000
# 3 -0.014445 -0.002138 0.031122 0.000000 0.000000 0.000000
# 4 0.000000 0.000000 0.000000 0.045892 0.000000 0.000000
# 5 0.000000 0.000000 0.000000 0.000000 0.074321 0.000000
# 6 0.000000 0.000000 0.000000 0.000000 0.000000 0.023558
#
#
# Mechanical properties :
#
#
# Convention : Reuss Voigt Hill
#
# Bulk Modulus (GPa) = 41.24712 51.69624 46.47168
# Shear Modulus (GPa) = 19.91539 28.64814 24.28177
#
# Velocity S-wave (km/s) = 2.99758 3.59521 3.30991
# Velocity P-wave (km/s) = 5.53087 6.36855 5.96444
#
# Compressibility (1/GPa) = 0.02424412
#
# Stress axis : x y z
#
# Youngs Moduli (GPa) = 41.38090 155.28457 32.13207
#
# Poissons Ratio (x) = 0.33520 0.46415
# Poissons Ratio (y) = 0.08932 0.06869
# Poissons Ratio (z) = 0.59775 0.33197
#
# Static dielectric constant tensor:
#      x y z
#    x 1.898260 0.000000 0.000000 
#    y 0.000000 1.959120 0.000000 
#    z 0.000000 0.000000 1.867240 
# 
# From -- ./inp_files/27173.got.cif
#   From: 2010.05.17/outbox.cif.g08.bks.cpg/sg57_14_cif.got.tgz:27173.got - 2010.06.03 13:58:18.
