data_PCOD9438481
_publ_section_title
;
Structure prediction by ZEFSAII (Michael W. Deem and Ramdas Pophale) SiO2 
 PCOD9438481
Probable space group: P B C M
;
_chemical_formula_sum "Si O2"
_cell_formula_units_Z 56
_cell_length_a 14.361336
_cell_length_b 22.135591
_cell_length_c 10.039503
_cell_angle_alpha 90.000000
_cell_angle_beta 90.000000
_cell_angle_gamma 90.000000
_cell_volume 3191.524471
_symmetry_space_group_name_H-M "P B C M"
_symmetry_group_IT_number 57
_symmetry_cell_setting 'orthorhombic'
loop_
_space_group_symop_operation_xyz
x,y,z
-x,-y,1/2+z
x,1/2-y,-z
-x,1/2+y,1/2-z
-x,-y,-z
x,y,1/2-z
-x,1/2+y,z
x,1/2-y,1/2+z
loop_
_atom_site_type_symbol
_atom_site_label
_atom_site_fract_x
_atom_site_fract_y
_atom_site_fract_z
Si Si1 0.299440 0.697056 0.093835
Si Si2 0.388830 0.570587 0.474467
Si Si3 0.083118 0.195552 0.905996
Si Si4 0.130816 0.839394 0.404384
Si Si5 0.208016 0.420779 0.409542
Si Si6 0.201823 0.529657 0.898370
Si Si7 0.588172 0.934198 0.101223
O O1 0.289948 0.713691 0.250000
O O2 0.354020 0.633052 0.089170
O O3 0.342877 0.750000 0.000000
O O4 0.201787 0.684380 0.016502
O O5 0.307700 0.554460 0.581411
O O6 0.395455 0.507003 0.396032
O O7 0.493492 0.579231 0.525297
O O8 0.096973 0.210112 0.750000
O O9 0.140769 0.135011 0.935235
O O10 0.973439 0.183027 0.926111
O O11 0.112627 0.250000 0.000000
O O12 0.157995 0.824167 0.250000
O O13 0.136762 0.911972 0.411699
O O14 0.209177 0.432421 0.250000
O O15 0.180461 0.480290 0.490498
O O16 0.314942 0.407789 0.452289
O O17 0.193162 0.504166 0.750000
O O18 0.575418 0.911572 0.250000
#
# Coordination Sequence:
#
# PCOD9438481 Si02
#       7
#     8   8   8   8   8   8   8
#     4  11  22  35  52  76 107 139 170 205 249 305
#     4   9  18  31  50  76 105 134 167 206 252 302
#     4  10  21  37  54  72  98 134 175 216 255 298
#     4   9  19  35  54  77 104 133 167 208 254 303
#     4   9  19  34  51  74 104 135 169 211 257 301
#     4   9  17  30  50  77 106 132 162 205 255 306
#     4   9  16  30  53  76  99 131 169 208 252 300
#
# _framework density 17.546474
#
# number of rings (size 3 to 8) (size 9 to 14) (size 15 to 20)
#    0.000    2.571    0.000    1.714    0.000    8.000 
#    0.000    1.429    0.000    1.714    0.000    0.000 
#    0.000    0.000    0.000    0.000    0.000    0.000 
#
# Total GULP energy -311786.093761 kJ/mol
# GULP energy per Si atom -5567.608817 kJ/mol
# Density = 1.750654 g / cm^3
# Si number density = 17.546474 Si / 1000 Ang^3
#
#
#
# Elastic Constant Matrix: (Units=GPa)
#
#
# Indices 1 2 3 4 5 6 
#
# 1 54.2952 45.6946 28.9141 0.0000 0.0000 0.0000
# 2 45.6946 97.8658 52.1208 0.0000 0.0000 0.0000
# 3 28.9141 52.1208 85.2995 0.0000 0.0000 0.0000
# 4 0.0000 0.0000 0.0000 24.0897 0.0000 0.0000
# 5 0.0000 0.0000 0.0000 0.0000 6.4519 0.0000
# 6 0.0000 0.0000 0.0000 0.0000 0.0000 20.2607
#
#
#
# Elastic Compliance Matrix: (Units=1/GPa)
#
#
# Indices 1 2 3 4 5 6 
#
# 1 0.030679 -0.013024 -0.002441 0.000000 0.000000 0.000000
# 2 -0.013024 0.020677 -0.008219 0.000000 0.000000 0.000000
# 3 -0.002441 -0.008219 0.017573 0.000000 0.000000 0.000000
# 4 0.000000 0.000000 0.000000 0.041512 0.000000 0.000000
# 5 0.000000 0.000000 0.000000 0.000000 0.154994 0.000000
# 6 0.000000 0.000000 0.000000 0.000000 0.000000 0.049357
#
#
# Mechanical properties :
#
#
# Convention : Reuss Voigt Hill
#
# Bulk Modulus (GPa) = 46.38320 54.54663 50.46491
# Shear Modulus (GPa) = 13.53742 17.54252 15.53997
#
# Velocity S-wave (km/s) = 2.78063 3.16535 2.97921
# Velocity P-wave (km/s) = 6.06639 6.67186 6.37632
#
# Compressibility (1/GPa) = 0.02155953
#
# Stress axis : x y z
#
# Youngs Moduli (GPa) = 32.59564 48.36376 56.90537
#
# Poissons Ratio (x) = 0.62991 0.13890
# Poissons Ratio (y) = 0.42454 0.46772
# Poissons Ratio (z) = 0.07956 0.39751
#
# Static dielectric constant tensor:
#      x y z
#    x 1.602320 0.000000 0.000000 
#    y 0.000000 1.595670 0.000000 
#    z 0.000000 0.000000 1.600840 
# 
# From -- ./inp_files/5205.got.cif
#   From: 2010.05.17/outbox.cif.g08.bks.cpg/sg57_3_cif.got.tgz:5205.got - 2010.06.03 13:58:18.
