data_PCOD9438257
_publ_section_title
;
Structure prediction by ZEFSAII (Michael W. Deem and Ramdas Pophale) SiO2 
 PCOD9438257
Probable space group: P B C M
;
_chemical_formula_sum "Si O2"
_cell_formula_units_Z 48
_cell_length_a 9.453796
_cell_length_b 12.994980
_cell_length_c 17.283054
_cell_angle_alpha 90.000000
_cell_angle_beta 90.000000
_cell_angle_gamma 90.000000
_cell_volume 2123.255848
_symmetry_space_group_name_H-M "P B C M"
_symmetry_group_IT_number 57
_symmetry_cell_setting 'orthorhombic'
loop_
_space_group_symop_operation_xyz
x,y,z
-x,-y,1/2+z
x,1/2-y,-z
-x,1/2+y,1/2-z
-x,-y,-z
x,y,1/2-z
-x,1/2+y,z
x,1/2-y,1/2+z
loop_
_atom_site_type_symbol
_atom_site_label
_atom_site_fract_x
_atom_site_fract_y
_atom_site_fract_z
Si Si1 0.414392 0.079052 0.250000
Si Si2 0.776263 0.700742 0.131563
Si Si3 0.945216 0.658578 0.750000
Si Si4 0.284537 0.844642 0.250000
Si Si5 0.369827 0.392157 0.419323
Si Si6 0.321713 0.675832 0.924776
Si Si7 0.688475 0.975056 0.250000
Si Si8 0.152415 0.011460 0.034176
O O1 0.345851 0.141895 0.320449
O O2 0.352827 0.961035 0.250000
O O3 0.585072 0.074087 0.250000
O O4 0.884933 0.771803 0.179456
O O5 0.695965 0.779354 0.077103
O O6 0.853964 0.609361 0.089255
O O7 0.858062 0.549272 0.750000
O O8 0.113088 0.648111 0.750000
O O9 0.328494 0.791716 0.166975
O O10 0.532194 0.384203 0.441565
O O11 0.359933 0.421727 0.329241
O O12 0.271577 0.465705 0.469646
O O13 0.197057 0.592646 0.924156
O O14 0.300988 0.750000 0.000000
O O15 0.000000 0.000000 0.000000
#
# Coordination Sequence:
#
# PCOD9438257 Si02
#       8
#     4   8   4   4   8   8   4   8
#     4  11  20  43  74  98 136 184 245 291 362 436
#     4  10  22  42  71  98 136 190 234 289 375 435
#     4   9  24  38  71  96 138 187 240 297 375 438
#     4  12  24  47  74 100 152 191 241 313 360 440
#     4  11  23  46  71 103 142 189 242 305 365 439
#     4  12  27  46  75 107 145 195 250 307 375 431
#     4  10  20  40  69 102 132 184 238 293 361 434
#     4  12  27  42  68 100 143 189 240 302 369 441
#
# _framework density 22.606788999999999
#
# number of rings (size 3 to 8) (size 9 to 14) (size 15 to 20)
#    0.000    1.000    3.333    2.500    7.000    1.333 
#    0.000    1.667    7.333    0.000    0.000    0.000 
#    0.000    0.000    0.000    0.000    0.000    0.000 
#
# Total GULP energy -267885.418287 kJ/mol
# GULP energy per Si atom -5580.946214 kJ/mol
# Density = 2.255533 g / cm^3
# Si number density = 22.606789 Si / 1000 Ang^3
#
#
#
# Elastic Constant Matrix: (Units=GPa)
#
#
# Indices 1 2 3 4 5 6 
#
# 1 137.4258 16.8710 30.4877 0.0000 0.0000 0.0000
# 2 16.8710 58.5173 51.8678 0.0000 0.0000 0.0000
# 3 30.4877 51.8678 135.3198 0.0000 0.0000 0.0000
# 4 0.0000 0.0000 0.0000 41.5489 0.0000 0.0000
# 5 0.0000 0.0000 0.0000 0.0000 -11.7290 0.0000
# 6 0.0000 0.0000 0.0000 0.0000 0.0000 -5.4391
#
#
#
# Elastic Compliance Matrix: (Units=1/GPa)
#
#
# Indices 1 2 3 4 5 6 
#
# 1 0.007701 -0.001033 -0.001339 0.000000 0.000000 0.000000
# 2 -0.001033 0.026021 -0.009741 0.000000 0.000000 0.000000
# 3 -0.001339 -0.009741 0.011425 0.000000 0.000000 0.000000
# 4 0.000000 0.000000 0.000000 0.024068 0.000000 0.000000
# 5 0.000000 0.000000 0.000000 0.000000 -0.085258 0.000000
# 6 0.000000 0.000000 0.000000 0.000000 0.000000 -0.183854
#
#
# Mechanical properties :
#
#
# Convention : Reuss Voigt Hill
#
# Bulk Modulus (GPa) = 47.80046 58.85733 53.32889
# Shear Modulus (GPa) = -29.63883 20.34523 -4.64680
#
# Velocity S-wave (km/s) = -3.62478 3.00319 -1.43525
# Velocity P-wave (km/s) = 1.91611 6.17392 4.57104
#
# Compressibility (1/GPa) = 0.02092030
#
# Stress axis : x y z
#
# Youngs Moduli (GPa) = 129.86097 38.43061 87.52570
#
# Poissons Ratio (x) = 0.03972 0.11718
# Poissons Ratio (y) = 0.13420 0.85258
# Poissons Ratio (z) = 0.17386 0.37435
#
# Static dielectric constant tensor:
#      x y z
#    x 1.861900 0.000000 0.000000 
#    y 0.000000 1.897190 0.000000 
#    z 0.000000 0.000000 1.891480 
# 
# From -- ./inp_files/21043.got.cif
#   From: 2010.05.17/outbox.cif.g08.bks.cpg/sg57_11_cif.got.tgz:21043.got - 2010.06.03 13:58:18.
