data_PCOD9438710
_publ_section_title
;
Structure prediction by ZEFSAII (Michael W. Deem and Ramdas Pophale) SiO2 
 PCOD9438710
Probable space group: P B C M
;
_chemical_formula_sum "Si O2"
_cell_formula_units_Z 32
_cell_length_a 9.776477
_cell_length_b 8.431172
_cell_length_c 14.598419
_cell_angle_alpha 90.000000
_cell_angle_beta 90.000000
_cell_angle_gamma 90.000000
_cell_volume 1203.306206
_symmetry_space_group_name_H-M "P B C M"
_symmetry_group_IT_number 57
_symmetry_cell_setting 'orthorhombic'
loop_
_space_group_symop_operation_xyz
x,y,z
-x,-y,1/2+z
x,1/2-y,-z
-x,1/2+y,1/2-z
-x,-y,-z
x,y,1/2-z
-x,1/2+y,z
x,1/2-y,1/2+z
loop_
_atom_site_type_symbol
_atom_site_label
_atom_site_fract_x
_atom_site_fract_y
_atom_site_fract_z
Si Si1 0.548286 0.050746 0.144491
Si Si2 0.956648 0.946310 0.899014
Si Si3 0.703317 0.759397 0.638382
Si Si4 0.798115 0.251667 0.611206
O O1 0.523866 0.009731 0.250000
O O2 0.402146 0.103025 0.106770
O O3 0.646527 0.204688 0.141202
O O4 0.635630 0.905035 0.105835
O O5 0.853594 0.797402 0.897435
O O6 0.098358 0.889367 0.855787
O O7 0.867359 0.088417 0.857647
O O8 0.000000 0.000000 0.000000
O O9 0.710146 0.758623 0.750000
O O10 0.795826 0.250000 0.500000
#
# Coordination Sequence:
#
# PCOD9438710 Si02
#       4
#     8   8   8   8
#     4  10  21  39  64  94 127 162 206 261 318 378
#     4  10  21  38  59  86 123 164 207 255 305 365
#     4  10  21  39  64  93 125 161 203 256 316 376
#     4  10  21  38  58  87 122 163 208 252 307 369
#
# _framework density 26.593399000000002
#
# number of rings (size 3 to 8) (size 9 to 14) (size 15 to 20)
#    0.000    2.000    0.000    3.000    0.000    6.000 
#    0.000   15.000    0.000    0.000    0.000    0.000 
#    0.000    0.000    0.000    0.000    0.000    0.000 
#
# Total GULP energy -179219.731878 kJ/mol
# GULP energy per Si atom -5600.616621 kJ/mol
# Density = 2.653287 g / cm^3
# Si number density = 26.593399 Si / 1000 Ang^3
#
#
#
# Elastic Constant Matrix: (Units=GPa)
#
#
# Indices 1 2 3 4 5 6 
#
# 1 151.5802 6.1374 13.1864 0.0000 0.0000 0.0000
# 2 6.1374 82.2551 13.2028 0.0000 0.0000 0.0000
# 3 13.1864 13.2028 128.3169 0.0000 0.0000 0.0000
# 4 0.0000 0.0000 0.0000 17.0878 0.0000 0.0000
# 5 0.0000 0.0000 0.0000 0.0000 24.5333 0.0000
# 6 0.0000 0.0000 0.0000 0.0000 0.0000 41.7418
#
#
#
# Elastic Compliance Matrix: (Units=1/GPa)
#
#
# Indices 1 2 3 4 5 6 
#
# 1 0.006669 -0.000394 -0.000645 0.000000 0.000000 0.000000
# 2 -0.000394 0.012385 -0.001234 0.000000 0.000000 0.000000
# 3 -0.000645 -0.001234 0.007986 0.000000 0.000000 0.000000
# 4 0.000000 0.000000 0.000000 0.058521 0.000000 0.000000
# 5 0.000000 0.000000 0.000000 0.000000 0.040761 0.000000
# 6 0.000000 0.000000 0.000000 0.000000 0.000000 0.023957
#
#
# Mechanical properties :
#
#
# Convention : Reuss Voigt Hill
#
# Bulk Modulus (GPa) = 44.45443 47.46726 45.96085
# Shear Modulus (GPa) = 30.80274 38.64761 34.72518
#
# Velocity S-wave (km/s) = 3.40705 3.81632 3.61748
# Velocity P-wave (km/s) = 5.67714 6.10796 5.89649
#
# Compressibility (1/GPa) = 0.02249495
#
# Stress axis : x y z
#
# Youngs Moduli (GPa) = 149.94258 80.74448 125.21258
#
# Poissons Ratio (x) = 0.03182 0.08074
# Poissons Ratio (y) = 0.05910 0.15449
# Poissons Ratio (z) = 0.09668 0.09962
#
# Static dielectric constant tensor:
#      x y z
#    x 1.970110 0.000000 0.000000 
#    y 0.000000 2.162590 0.000000 
#    z 0.000000 0.000000 2.029250 
# 
# From -- ./inp_files/23938.got.cif
#   From: 2010.05.17/outbox.cif.g08.bks.cpg/sg57_12_cif.got.tgz:23938.got - 2010.06.03 13:58:18.
