data_PCOD9438066
_publ_section_title
;
Structure prediction by ZEFSAII (Michael W. Deem and Ramdas Pophale) SiO2 
 PCOD9438066
Probable space group: P B C M
;
_chemical_formula_sum "Si O2"
_cell_formula_units_Z 64
_cell_length_a 9.107988
_cell_length_b 15.474738
_cell_length_c 22.385671
_cell_angle_alpha 90.000000
_cell_angle_beta 90.000000
_cell_angle_gamma 90.000000
_cell_volume 3155.119925
_symmetry_space_group_name_H-M "P B C M"
_symmetry_group_IT_number 57
_symmetry_cell_setting 'orthorhombic'
loop_
_space_group_symop_operation_xyz
x,y,z
-x,-y,1/2+z
x,1/2-y,-z
-x,1/2+y,1/2-z
-x,-y,-z
x,y,1/2-z
-x,1/2+y,z
x,1/2-y,1/2+z
loop_
_atom_site_type_symbol
_atom_site_label
_atom_site_fract_x
_atom_site_fract_y
_atom_site_fract_z
Si Si1 0.830045 0.815025 0.640070
Si Si2 0.851284 0.885299 0.989236
Si Si3 0.690845 0.854749 0.386316
Si Si4 0.839596 0.293536 0.681878
Si Si5 0.644197 0.971751 0.680563
Si Si6 0.340814 0.851365 0.387475
Si Si7 0.193506 0.587945 0.495686
Si Si8 0.676514 0.447652 0.866091
O O1 0.801838 0.838572 0.570764
O O2 0.754689 0.723295 0.652309
O O3 0.762129 0.895280 0.675668
O O4 0.001628 0.804212 0.652290
O O5 0.027627 0.876639 0.992931
O O6 0.769831 0.854054 0.048886
O O7 0.818826 0.987644 0.984244
O O8 0.516220 0.842775 0.390132
O O9 0.717852 0.951304 0.361591
O O10 0.855679 0.264343 0.750000
O O11 0.738873 0.226901 0.645585
O O12 0.761358 0.386288 0.678947
O O13 0.609513 0.988627 0.750000
O O14 0.496663 0.942061 0.646181
O O15 0.693847 0.060129 0.648642
O O16 0.281673 0.860984 0.454410
O O17 0.274276 0.584773 0.431883
#
# Coordination Sequence:
#
# PCOD9438066 Si02
#       8
#     8   8   8   8   8   8   8   8
#     4  12  23  42  63  96 130 175 219 272 323 400
#     4  10  20  38  63  97 136 170 204 270 330 401
#     4  10  24  39  66  98 133 168 211 263 338 391
#     4  12  26  45  66  92 129 176 226 270 323 387
#     4  11  24  43  67  93 128 175 222 274 332 390
#     4  11  24  43  67  97 132 170 219 277 326 403
#     4  10  20  39  68  98 130 168 212 267 341 392
#     4  10  23  43  66  94 128 169 214 272 328 393
#
# _framework density 20.284490000000002
#
# number of rings (size 3 to 8) (size 9 to 14) (size 15 to 20)
#    0.000    1.250    2.500    3.000    1.750    3.000 
#    2.250    8.125    0.000    0.000    0.000    0.000 
#    0.000    0.000    0.000    0.000    0.000    0.000 
#
# Total GULP energy -357841.078135 kJ/mol
# GULP energy per Si atom -5591.266846 kJ/mol
# Density = 2.023832 g / cm^3
# Si number density = 20.284490 Si / 1000 Ang^3
#
#
#
# Elastic Constant Matrix: (Units=GPa)
#
#
# Indices 1 2 3 4 5 6 
#
# 1 74.7374 43.4184 26.0198 0.0000 0.0000 0.0000
# 2 43.4184 72.3524 40.1283 0.0000 0.0000 0.0000
# 3 26.0198 40.1283 63.8697 0.0000 0.0000 0.0000
# 4 0.0000 0.0000 0.0000 9.0872 0.0000 0.0000
# 5 0.0000 0.0000 0.0000 0.0000 -4.1349 0.0000
# 6 0.0000 0.0000 0.0000 0.0000 0.0000 31.5814
#
#
#
# Elastic Compliance Matrix: (Units=1/GPa)
#
#
# Indices 1 2 3 4 5 6 
#
# 1 0.020580 -0.011818 -0.000959 0.000000 0.000000 0.000000
# 2 -0.011818 0.028000 -0.012777 0.000000 0.000000 0.000000
# 3 -0.000959 -0.012777 0.024075 0.000000 0.000000 0.000000
# 4 0.000000 0.000000 0.000000 0.110045 0.000000 0.000000
# 5 0.000000 0.000000 0.000000 0.000000 -0.241842 0.000000
# 6 0.000000 0.000000 0.000000 0.000000 0.000000 0.031664
#
#
# Mechanical properties :
#
#
# Convention : Reuss Voigt Hill
#
# Bulk Modulus (GPa) = 46.41146 47.78807 47.09976
# Shear Modulus (GPa) = 162.27176 14.06626 88.16901
#
# Velocity S-wave (km/s) = 8.95386 2.63620 6.60004
# Velocity P-wave (km/s) = 11.39410 5.73377 9.01947
#
# Compressibility (1/GPa) = 0.02154640
#
# Stress axis : x y z
#
# Youngs Moduli (GPa) = 48.59178 35.71465 41.53636
#
# Poissons Ratio (x) = 0.42207 0.03983
# Poissons Ratio (y) = 0.57425 0.53072
# Poissons Ratio (z) = 0.04659 0.45634
#
# Static dielectric constant tensor:
#      x y z
#    x 1.688270 0.000000 0.000000 
#    y 0.000000 1.725930 0.000000 
#    z 0.000000 0.000000 1.698080 
# 
# From -- ./inp_files/26865.got.cif
#   From: 2010.05.17/outbox.cif.g08.bks.cpg/sg57_14_cif.got.tgz:26865.got - 2010.06.03 13:58:18.
