data_PCOD9438482
_publ_section_title
;
Structure prediction by ZEFSAII (Michael W. Deem and Ramdas Pophale) SiO2 
 PCOD9438482
Probable space group: P B C M
;
_chemical_formula_sum "Si O2"
_cell_formula_units_Z 48
_cell_length_a 32.289373
_cell_length_b 9.232348
_cell_length_c 8.587521
_cell_angle_alpha 90.000000
_cell_angle_beta 90.000000
_cell_angle_gamma 90.000000
_cell_volume 2559.997789
_symmetry_space_group_name_H-M "P B C M"
_symmetry_group_IT_number 57
_symmetry_cell_setting 'orthorhombic'
loop_
_space_group_symop_operation_xyz
x,y,z
-x,-y,1/2+z
x,1/2-y,-z
-x,1/2+y,1/2-z
-x,-y,-z
x,y,1/2-z
-x,1/2+y,z
x,1/2-y,1/2+z
loop_
_atom_site_type_symbol
_atom_site_label
_atom_site_fract_x
_atom_site_fract_y
_atom_site_fract_z
Si Si1 0.539132 0.413862 0.935550
Si Si2 0.375100 0.914789 0.063155
Si Si3 0.039472 0.413057 0.562786
Si Si4 0.878327 0.087401 0.562100
Si Si5 0.284003 0.586286 0.562120
Si Si6 0.203197 0.087765 0.061583
O O1 0.538512 0.410361 0.750000
O O2 0.537082 0.250000 0.000000
O O3 0.500000 0.500000 0.000000
O O4 0.583065 0.479907 0.992303
O O5 0.378788 0.913324 0.250000
O O6 0.329677 0.973953 0.019148
O O7 0.374066 0.750000 0.000000
O O8 0.039321 0.250000 0.500000
O O9 0.038067 0.410121 0.750000
O O10 0.081401 0.495887 0.513621
O O11 0.000000 0.500000 0.500000
O O12 0.880190 0.250000 0.500000
O O13 0.878110 0.092509 0.750000
O O14 0.836370 0.006813 0.511079
O O15 0.279752 0.750000 0.500000
O O16 0.282953 0.593858 0.750000
O O17 0.245760 0.488586 0.509059
O O18 0.203272 0.091178 0.250000
O O19 0.200036 0.250000 0.000000
#
# Coordination Sequence:
#
# PCOD9438482 Si02
#       6
#     8   8   8   8   8   8
#     4  11  21  35  54  78 106 139 177 220 267 319
#     4   9  16  29  49  74 102 134 171 215 261 311
#     4  11  23  39  59  85 115 150 188 231 278 330
#     4  10  22  38  58  83 111 142 183 228 273 322
#     4   9  18  32  53  78 104 133 172 217 261 310
#     4  10  21  37  54  78 109 142 177 217 264 318
#
# _framework density 18.750017
#
# number of rings (size 3 to 8) (size 9 to 14) (size 15 to 20)
#    0.000    2.000    0.000    5.000    0.000    4.667 
#    0.000    0.833    0.000    2.000    0.000    0.000 
#    0.000    0.000    0.000    0.000    0.000    0.000 
#
# Total GULP energy -267956.904725 kJ/mol
# GULP energy per Si atom -5582.435515 kJ/mol
# Density = 1.870734 g / cm^3
# Si number density = 18.750017 Si / 1000 Ang^3
#
#
#
# Elastic Constant Matrix: (Units=GPa)
#
#
# Indices 1 2 3 4 5 6 
#
# 1 230.3322 100.7398 54.7090 0.0000 0.0000 0.0000
# 2 100.7398 127.1486 29.3767 0.0000 0.0000 0.0000
# 3 54.7090 29.3767 60.2693 0.0000 0.0000 0.0000
# 4 0.0000 0.0000 0.0000 32.2596 0.0000 0.0000
# 5 0.0000 0.0000 0.0000 0.0000 25.5629 0.0000
# 6 0.0000 0.0000 0.0000 0.0000 0.0000 35.4802
#
#
#
# Elastic Compliance Matrix: (Units=1/GPa)
#
#
# Indices 1 2 3 4 5 6 
#
# 1 0.007573 -0.004972 -0.004451 0.000000 0.000000 0.000000
# 2 -0.004972 0.012127 -0.001398 0.000000 0.000000 0.000000
# 3 -0.004451 -0.001398 0.021314 0.000000 0.000000 0.000000
# 4 0.000000 0.000000 0.000000 0.030999 0.000000 0.000000
# 5 0.000000 0.000000 0.000000 0.000000 0.039119 0.000000
# 6 0.000000 0.000000 0.000000 0.000000 0.000000 0.028185
#
#
# Mechanical properties :
#
#
# Convention : Reuss Voigt Hill
#
# Bulk Modulus (GPa) = 51.61929 87.48901 69.55415
# Shear Modulus (GPa) = 29.86565 34.18885 32.02725
#
# Velocity S-wave (km/s) = 3.99536 4.27477 4.13742
# Velocity P-wave (km/s) = 6.99099 8.43368 7.74599
#
# Compressibility (1/GPa) = 0.01937260
#
# Stress axis : x y z
#
# Youngs Moduli (GPa) = 132.04089 82.46026 46.91743
#
# Poissons Ratio (x) = 0.40999 0.20884
# Poissons Ratio (y) = 0.65651 0.06558
# Poissons Ratio (z) = 0.58775 0.11526
#
# Static dielectric constant tensor:
#      x y z
#    x 1.686570 0.000000 0.000000 
#    y 0.000000 1.608670 0.000000 
#    z 0.000000 0.000000 1.638890 
# 
# From -- ./inp_files/9951.got.cif
#   From: 2010.05.17/outbox.cif.g08.bks.cpg/sg57_5_cif.got.tgz:9951.got - 2010.06.03 13:58:18.
