data_PCOD9438952
_publ_section_title
;
Structure prediction by ZEFSAII (Michael W. Deem and Ramdas Pophale) SiO2 
 PCOD9438952
Probable space group: P B C M
;
_chemical_formula_sum "Si O2"
_cell_formula_units_Z 32
_cell_length_a 7.378197
_cell_length_b 25.281274
_cell_length_c 8.840516
_cell_angle_alpha 90.000000
_cell_angle_beta 90.000000
_cell_angle_gamma 90.000000
_cell_volume 1649.023394
_symmetry_space_group_name_H-M "P B C M"
_symmetry_group_IT_number 57
_symmetry_cell_setting 'orthorhombic'
loop_
_space_group_symop_operation_xyz
x,y,z
-x,-y,1/2+z
x,1/2-y,-z
-x,1/2+y,1/2-z
-x,-y,-z
x,y,1/2-z
-x,1/2+y,z
x,1/2-y,1/2+z
loop_
_atom_site_type_symbol
_atom_site_label
_atom_site_fract_x
_atom_site_fract_y
_atom_site_fract_z
Si Si1 0.711136 0.887046 0.930067
Si Si2 0.006750 0.308098 0.070301
Si Si3 0.278933 0.614191 0.430192
Si Si4 0.701857 0.503471 0.568481
O O1 0.738232 0.887301 0.750000
O O2 0.495022 0.882323 0.958875
O O3 0.820854 0.839603 0.004594
O O4 0.778583 0.943054 0.997402
O O5 0.018043 0.304733 0.250000
O O6 0.995854 0.250000 0.000000
O O7 0.833855 0.342864 0.020522
O O8 0.251230 0.621856 0.250000
O O9 0.216899 0.554127 0.467747
O O10 0.500000 0.500000 0.500000
O O11 0.693917 0.508086 0.750000
#
# Coordination Sequence:
#
# PCOD9438952 Si02
#       4
#     8   8   8   8
#     4  10  21  39  63  89 120 155 193 240 290 345
#     4  12  26  42  61  84 114 153 198 246 291 344
#     4   9  20  39  62  88 119 154 191 236 288 342
#     4   9  17  32  57  89 122 154 190 234 288 348
#
# _framework density 19.405424
#
# number of rings (size 3 to 8) (size 9 to 14) (size 15 to 20)
#    0.000    2.000    0.000    5.250    0.000    8.000 
#    0.000    0.000    0.000    0.000    0.000    0.000 
#    0.000    0.000    0.000    0.000    0.000    0.000 
#
# Total GULP energy -178741.794548 kJ/mol
# GULP energy per Si atom -5585.681080 kJ/mol
# Density = 1.936126 g / cm^3
# Si number density = 19.405424 Si / 1000 Ang^3
#
#
#
# Elastic Constant Matrix: (Units=GPa)
#
#
# Indices 1 2 3 4 5 6 
#
# 1 94.4929 76.3406 69.4573 0.0000 0.0000 0.0000
# 2 76.3406 221.8323 118.0072 0.0000 0.0000 0.0000
# 3 69.4573 118.0072 137.4796 0.0000 0.0000 0.0000
# 4 0.0000 0.0000 0.0000 39.5027 0.0000 0.0000
# 5 0.0000 0.0000 0.0000 0.0000 31.2137 0.0000
# 6 0.0000 0.0000 0.0000 0.0000 0.0000 32.0018
#
#
#
# Elastic Compliance Matrix: (Units=1/GPa)
#
#
# Indices 1 2 3 4 5 6 
#
# 1 0.017519 -0.002430 -0.006765 0.000000 0.000000 0.000000
# 2 -0.002430 0.008633 -0.006183 0.000000 0.000000 0.000000
# 3 -0.006765 -0.006183 0.015998 0.000000 0.000000 0.000000
# 4 0.000000 0.000000 0.000000 0.025315 0.000000 0.000000
# 5 0.000000 0.000000 0.000000 0.000000 0.032037 0.000000
# 6 0.000000 0.000000 0.000000 0.000000 0.000000 0.031248
#
#
# Mechanical properties :
#
#
# Convention : Reuss Voigt Hill
#
# Bulk Modulus (GPa) = 87.75715 109.04613 98.40164
# Shear Modulus (GPa) = 30.24733 33.21027 31.72880
#
# Velocity S-wave (km/s) = 3.95233 4.14138 4.04796
# Velocity P-wave (km/s) = 8.13321 8.89852 8.52446
#
# Compressibility (1/GPa) = 0.01139508
#
# Stress axis : x y z
#
# Youngs Moduli (GPa) = 57.08215 115.83249 62.50621
#
# Poissons Ratio (x) = 0.28149 0.42284
# Poissons Ratio (y) = 0.13872 0.38645
# Poissons Ratio (z) = 0.38615 0.71615
#
# Static dielectric constant tensor:
#      x y z
#    x 1.636280 0.000000 0.000000 
#    y 0.000000 1.667810 0.000000 
#    z 0.000000 0.000000 1.638030 
# 
# From -- ./inp_files/1261.got.cif
#   From: 2010.05.17/outbox.cif.g08.bks.cpg/sg57_1_cif.got.tgz:1261.got - 2010.06.03 13:58:18.
