data_PCOD9438968
_publ_section_title
;
Structure prediction by ZEFSAII (Michael W. Deem and Ramdas Pophale) SiO2 
 PCOD9438968
Probable space group: P B C M
;
_chemical_formula_sum "Si O2"
_cell_formula_units_Z 64
_cell_length_a 18.094205
_cell_length_b 9.539796
_cell_length_c 18.503631
_cell_angle_alpha 90.000000
_cell_angle_beta 90.000000
_cell_angle_gamma 90.000000
_cell_volume 3194.004718
_symmetry_space_group_name_H-M "P B C M"
_symmetry_group_IT_number 57
_symmetry_cell_setting 'orthorhombic'
loop_
_space_group_symop_operation_xyz
x,y,z
-x,-y,1/2+z
x,1/2-y,-z
-x,1/2+y,1/2-z
-x,-y,-z
x,y,1/2-z
-x,1/2+y,z
x,1/2-y,1/2+z
loop_
_atom_site_type_symbol
_atom_site_label
_atom_site_fract_x
_atom_site_fract_y
_atom_site_fract_z
Si Si1 0.685890 0.451062 0.419015
Si Si2 0.972677 0.427010 0.335525
Si Si3 0.091264 0.217192 0.335403
Si Si4 0.385591 0.792202 0.669775
Si Si5 0.563852 0.403984 0.529863
Si Si6 0.839759 0.276240 0.418003
Si Si7 0.241909 0.263652 0.586663
Si Si8 0.765281 0.030700 0.332748
O O1 0.634820 0.357680 0.366068
O O2 0.643261 0.447954 0.496043
O O3 0.764410 0.370023 0.422209
O O4 0.701001 0.610740 0.396035
O O5 0.964378 0.397696 0.250000
O O6 0.967194 0.592563 0.345895
O O7 0.903904 0.356534 0.375679
O O8 0.050495 0.359812 0.356856
O O9 0.111097 0.218400 0.250000
O O10 0.162341 0.188958 0.383331
O O11 0.415617 0.776110 0.750000
O O12 0.434386 0.884116 0.615450
O O13 0.308816 0.877141 0.672682
O O14 0.549947 0.250000 0.500000
O O15 0.500000 0.500000 0.500000
O O16 0.863131 0.250000 0.500000
O O17 0.820173 0.130776 0.377642
O O18 0.241080 0.250000 0.500000
O O19 0.252254 0.114564 0.626376
O O20 0.791364 0.004356 0.250000
#
# Coordination Sequence:
#
# PCOD9438968 Si02
#       8
#     8   8   8   8   8   8   8   8
#     4  10  21  40  61  88 124 162 208 255 308 379
#     4  10  22  40  60  80 110 158 207 257 318 392
#     4  10  23  41  58  80 113 156 208 260 319 394
#     4   9  19  38  63  88 119 161 210 254 296 365
#     4  10  21  39  63  91 126 168 208 245 308 377
#     4  11  20  37  62  88 115 156 204 259 316 379
#     4  12  23  37  59  90 124 157 204 266 326 374
#     4  10  22  36  57  89 124 159 195 251 319 376
#
# _framework density 20.037541000000001
#
# number of rings (size 3 to 8) (size 9 to 14) (size 15 to 20)
#    0.000    1.750    1.250    4.125    1.750    3.500 
#    0.000    3.750    0.000    0.000    0.000    0.000 
#    0.000    0.000    0.000    0.000    0.000    0.000 
#
# Total GULP energy -357334.406568 kJ/mol
# GULP energy per Si atom -5583.350103 kJ/mol
# Density = 1.999193 g / cm^3
# Si number density = 20.037541 Si / 1000 Ang^3
#
#
#
# Elastic Constant Matrix: (Units=GPa)
#
#
# Indices 1 2 3 4 5 6 
#
# 1 43.7076 14.8174 19.7558 0.0000 0.0000 0.0000
# 2 14.8174 109.4691 32.9977 0.0000 0.0000 0.0000
# 3 19.7558 32.9977 119.3164 0.0000 0.0000 0.0000
# 4 0.0000 0.0000 0.0000 21.3653 0.0000 0.0000
# 5 0.0000 0.0000 0.0000 0.0000 22.6138 0.0000
# 6 0.0000 0.0000 0.0000 0.0000 0.0000 33.5960
#
#
#
# Elastic Compliance Matrix: (Units=1/GPa)
#
#
# Indices 1 2 3 4 5 6 
#
# 1 0.025275 -0.002356 -0.003533 0.000000 0.000000 0.000000
# 2 -0.002356 0.010185 -0.002427 0.000000 0.000000 0.000000
# 3 -0.003533 -0.002427 0.009637 0.000000 0.000000 0.000000
# 4 0.000000 0.000000 0.000000 0.046805 0.000000 0.000000
# 5 0.000000 0.000000 0.000000 0.000000 0.044221 0.000000
# 6 0.000000 0.000000 0.000000 0.000000 0.000000 0.029765
#
#
# Mechanical properties :
#
#
# Convention : Reuss Voigt Hill
#
# Bulk Modulus (GPa) = 35.13031 45.29277 40.21154
# Shear Modulus (GPa) = 26.04035 29.17650 27.60843
#
# Velocity S-wave (km/s) = 3.60888 3.82002 3.71595
# Velocity P-wave (km/s) = 5.91064 6.48920 6.20666
#
# Compressibility (1/GPa) = 0.02846544
#
# Stress axis : x y z
#
# Youngs Moduli (GPa) = 39.56460 98.17965 103.76417
#
# Poissons Ratio (x) = 0.23132 0.36663
# Poissons Ratio (y) = 0.09322 0.25181
# Poissons Ratio (z) = 0.13979 0.23826
#
# Static dielectric constant tensor:
#      x y z
#    x 1.711790 0.000000 0.000000 
#    y 0.000000 1.720250 0.000000 
#    z 0.000000 0.000000 1.720420 
# 
# From -- ./inp_files/23085.got.cif
#   From: 2010.05.17/outbox.cif.g08.bks.cpg/sg57_12_cif.got.tgz:23085.got - 2010.06.03 13:58:18.
