data_PCOD9438006
_publ_section_title
;
Structure prediction by ZEFSAII (Michael W. Deem and Ramdas Pophale) SiO2 
 PCOD9438006
Probable space group: P B C M
;
_chemical_formula_sum "Si O2"
_cell_formula_units_Z 64
_cell_length_a 26.656773
_cell_length_b 15.083545
_cell_length_c 8.598253
_cell_angle_alpha 90.000000
_cell_angle_beta 90.000000
_cell_angle_gamma 90.000000
_cell_volume 3457.173830
_symmetry_space_group_name_H-M "P B C M"
_symmetry_group_IT_number 57
_symmetry_cell_setting 'orthorhombic'
loop_
_space_group_symop_operation_xyz
x,y,z
-x,-y,1/2+z
x,1/2-y,-z
-x,1/2+y,1/2-z
-x,-y,-z
x,y,1/2-z
-x,1/2+y,z
x,1/2-y,1/2+z
loop_
_atom_site_type_symbol
_atom_site_label
_atom_site_fract_x
_atom_site_fract_y
_atom_site_fract_z
Si Si1 0.630092 0.850965 0.937732
Si Si2 0.106222 0.158339 0.934191
Si Si3 0.824559 0.996146 0.936285
Si Si4 0.999612 0.599416 0.063704
Si Si5 0.631243 0.351165 0.062153
Si Si6 0.888905 0.156115 0.436409
Si Si7 0.290265 0.499029 0.561463
Si Si8 0.556365 0.000585 0.436773
O O1 0.627451 0.848359 0.750000
O O2 0.678779 0.910615 0.983684
O O3 0.630571 0.750000 0.000000
O O4 0.584862 0.912356 0.001515
O O5 0.103923 0.158636 0.750000
O O6 0.126056 0.250000 0.000000
O O7 0.142647 0.082129 0.992613
O O8 0.049930 0.144717 0.997585
O O9 0.824679 0.988441 0.750000
O O10 0.767038 0.996832 0.992056
O O11 0.853704 0.083412 0.987779
O O12 0.996576 0.599167 0.250000
O O13 0.052799 0.641487 0.017763
O O14 0.000000 0.500000 0.000000
O O15 0.629056 0.348360 0.250000
O O16 0.679571 0.411743 0.014998
O O17 0.631903 0.250000 0.000000
O O18 0.585410 0.411967 0.999951
O O19 0.872518 0.250000 0.500000
O O20 0.886242 0.150477 0.250000
O O21 0.289925 0.499894 0.750000
O O22 0.557316 0.001252 0.250000
O O23 0.500000 0.000000 0.500000
#
# Coordination Sequence:
#
# PCOD9438006 Si02
#       8
#     8   8   8   8   8   8   8   8
#     4  10  20  38  61  88 120 155 198 244 292 347
#     4  12  25  41  60  86 117 151 194 238 288 348
#     4  11  22  40  63  87 117 152 191 240 296 349
#     4  11  22  38  62  87 116 150 188 232 286 346
#     4  10  20  38  61  88 120 156 199 245 292 346
#     4  11  24  40  59  86 116 150 190 234 285 346
#     4   8  19  38  60  85 116 152 193 243 295 347
#     4  11  22  38  59  88 123 161 201 244 295 344
#
# _framework density 18.512232000000001
#
# number of rings (size 3 to 8) (size 9 to 14) (size 15 to 20)
#    0.000    1.500    1.250    5.250    0.000    4.000 
#    0.000   12.500    0.000    0.000    0.000    0.000 
#    0.000    0.000    0.000    0.000    0.000    0.000 
#
# Total GULP energy -357461.239950 kJ/mol
# GULP energy per Si atom -5585.331874 kJ/mol
# Density = 1.847010 g / cm^3
# Si number density = 18.512232 Si / 1000 Ang^3
#
#
#
# Elastic Constant Matrix: (Units=GPa)
#
#
# Indices 1 2 3 4 5 6 
#
# 1 158.8928 78.4815 50.3560 0.0000 0.0000 0.0000
# 2 78.4815 187.2770 51.6871 0.0000 0.0000 0.0000
# 3 50.3560 51.6871 93.8912 0.0000 0.0000 0.0000
# 4 0.0000 0.0000 0.0000 30.9126 0.0000 0.0000
# 5 0.0000 0.0000 0.0000 0.0000 28.7198 0.0000
# 6 0.0000 0.0000 0.0000 0.0000 0.0000 32.5306
#
#
#
# Elastic Compliance Matrix: (Units=1/GPa)
#
#
# Indices 1 2 3 4 5 6 
#
# 1 0.008646 -0.002763 -0.003116 0.000000 0.000000 0.000000
# 2 -0.002763 0.007179 -0.002470 0.000000 0.000000 0.000000
# 3 -0.003116 -0.002470 0.013682 0.000000 0.000000 0.000000
# 4 0.000000 0.000000 0.000000 0.032349 0.000000 0.000000
# 5 0.000000 0.000000 0.000000 0.000000 0.034819 0.000000
# 6 0.000000 0.000000 0.000000 0.000000 0.000000 0.030740
#
#
# Mechanical properties :
#
#
# Convention : Reuss Voigt Hill
#
# Bulk Modulus (GPa) = 78.07489 89.01224 83.54357
# Shear Modulus (GPa) = 33.69641 35.73502 34.71572
#
# Velocity S-wave (km/s) = 4.27104 4.39834 4.33515
# Velocity P-wave (km/s) = 8.16019 8.60123 8.38361
#
# Compressibility (1/GPa) = 0.01280822
#
# Stress axis : x y z
#
# Youngs Moduli (GPa) = 115.66252 139.28645 73.09090
#
# Poissons Ratio (x) = 0.38488 0.22774
# Poissons Ratio (y) = 0.31960 0.18056
# Poissons Ratio (z) = 0.36038 0.34408
#
# Static dielectric constant tensor:
#      x y z
#    x 1.638700 0.000000 0.000000 
#    y 0.000000 1.609690 0.000000 
#    z 0.000000 0.000000 1.756130 
# 
# From -- ./inp_files/9319.got.cif
#   From: 2010.05.17/outbox.cif.g08.bks.cpg/sg57_5_cif.got.tgz:9319.got - 2010.06.03 13:58:18.
