data_PCOD9438633
_publ_section_title
;
Structure prediction by ZEFSAII (Michael W. Deem and Ramdas Pophale) SiO2 
 PCOD9438633
Probable space group: P B C M
;
_chemical_formula_sum "Si O2"
_cell_formula_units_Z 64
_cell_length_a 10.966299
_cell_length_b 17.646965
_cell_length_c 16.878817
_cell_angle_alpha 90.000000
_cell_angle_beta 90.000000
_cell_angle_gamma 90.000000
_cell_volume 3266.420645
_symmetry_space_group_name_H-M "P B C M"
_symmetry_group_IT_number 57
_symmetry_cell_setting 'orthorhombic'
loop_
_space_group_symop_operation_xyz
x,y,z
-x,-y,1/2+z
x,1/2-y,-z
-x,1/2+y,1/2-z
-x,-y,-z
x,y,1/2-z
-x,1/2+y,z
x,1/2-y,1/2+z
loop_
_atom_site_type_symbol
_atom_site_label
_atom_site_fract_x
_atom_site_fract_y
_atom_site_fract_z
Si Si1 0.536184 0.803511 0.341062
Si Si2 0.939709 0.309147 0.158807
Si Si3 0.735190 0.929769 0.344541
Si Si4 0.403523 0.587837 0.344407
Si Si5 0.702258 0.241847 0.090577
Si Si6 0.342964 0.363340 0.659678
Si Si7 0.122832 0.198378 0.431311
Si Si8 0.974033 0.921919 0.455502
O O1 0.500009 0.820430 0.250000
O O2 0.636915 0.864783 0.364727
O O3 0.415300 0.794992 0.393029
O O4 0.600159 0.721378 0.341084
O O5 0.962150 0.325008 0.250000
O O6 0.814115 0.265061 0.145698
O O7 0.049181 0.255364 0.125734
O O8 0.933272 0.386712 0.108434
O O9 0.767555 0.920751 0.250000
O O10 0.849186 0.926006 0.403941
O O11 0.668456 0.010249 0.353575
O O12 0.406034 0.606891 0.250000
O O13 0.339592 0.656829 0.389168
O O14 0.545886 0.584237 0.369249
O O15 0.741027 0.250000 0.000000
O O16 0.312732 0.383902 0.750000
O O17 0.221318 0.354750 0.609956
O O18 0.182714 0.250000 0.500000
O O19 0.032422 0.142831 0.477453
O O20 0.000000 0.000000 0.500000
#
# Coordination Sequence:
#
# PCOD9438633 Si02
#       8
#     8   8   8   8   8   8   8   8
#     4   9  18  35  59  87 117 157 200 246 295 362
#     4  11  23  42  66  89 116 165 218 255 302 375
#     4  10  21  39  64  87 119 169 211 246 310 386
#     4   9  20  37  59  87 119 159 203 248 298 370
#     4  11  22  36  60  91 125 156 202 260 316 361
#     4   9  17  34  57  84 116 148 198 251 294 350
#     4  10  21  37  61  87 118 156 201 255 311 361
#     4  11  25  42  60  87 130 156 202 260 316 373
#
# _framework density 19.593312000000001
#
# number of rings (size 3 to 8) (size 9 to 14) (size 15 to 20)
#    0.000    2.000    0.000    5.250    3.500    5.000 
#    2.250    3.125    0.000    0.000    0.000    0.000 
#    0.000    0.000    0.000    0.000    0.000    0.000 
#
# Total GULP energy -357204.426983 kJ/mol
# GULP energy per Si atom -5581.319172 kJ/mol
# Density = 1.954872 g / cm^3
# Si number density = 19.593312 Si / 1000 Ang^3
#
#
#
# Elastic Constant Matrix: (Units=GPa)
#
#
# Indices 1 2 3 4 5 6 
#
# 1 54.0802 1.4580 15.6120 0.0000 0.0000 0.0000
# 2 1.4580 58.7385 20.7035 0.0000 0.0000 0.0000
# 3 15.6120 20.7035 71.8598 0.0000 0.0000 0.0000
# 4 0.0000 0.0000 0.0000 24.0125 0.0000 0.0000
# 5 0.0000 0.0000 0.0000 0.0000 22.9295 0.0000
# 6 0.0000 0.0000 0.0000 0.0000 0.0000 25.0132
#
#
#
# Elastic Compliance Matrix: (Units=1/GPa)
#
#
# Indices 1 2 3 4 5 6 
#
# 1 0.019797 0.001140 -0.004630 0.000000 0.000000 0.000000
# 2 0.001140 0.019015 -0.005726 0.000000 0.000000 0.000000
# 3 -0.004630 -0.005726 0.016571 0.000000 0.000000 0.000000
# 4 0.000000 0.000000 0.000000 0.041645 0.000000 0.000000
# 5 0.000000 0.000000 0.000000 0.000000 0.043612 0.000000
# 6 0.000000 0.000000 0.000000 0.000000 0.000000 0.039979
#
#
# Mechanical properties :
#
#
# Convention : Reuss Voigt Hill
#
# Bulk Modulus (GPa) = 27.06181 28.91396 27.98788
# Shear Modulus (GPa) = 23.65561 24.18471 23.92016
#
# Velocity S-wave (km/s) = 3.47844 3.51712 3.49783
# Velocity P-wave (km/s) = 5.47489 5.59309 5.53430
#
# Compressibility (1/GPa) = 0.03695244
#
# Stress axis : x y z
#
# Youngs Moduli (GPa) = 50.51331 52.59132 60.34461
#
# Poissons Ratio (x) = -0.05997 0.27937
# Poissons Ratio (y) = -0.05760 0.34553
# Poissons Ratio (z) = 0.23385 0.30114
#
# Static dielectric constant tensor:
#      x y z
#    x 1.704980 0.000000 0.000000 
#    y 0.000000 1.670590 0.000000 
#    z 0.000000 0.000000 1.700280 
# 
# From -- ./inp_files/17963.got.cif
#   From: 2010.05.17/outbox.cif.g08.bks.cpg/sg57_9_cif.got.tgz:17963.got - 2010.06.03 13:58:18.
