data_PCOD9438763
_publ_section_title
;
Structure prediction by ZEFSAII (Michael W. Deem and Ramdas Pophale) SiO2 
 PCOD9438763
Probable space group: P B C M
;
_chemical_formula_sum "Si O2"
_cell_formula_units_Z 52
_cell_length_a 11.666448
_cell_length_b 7.372431
_cell_length_c 28.871040
_cell_angle_alpha 90.000000
_cell_angle_beta 90.000000
_cell_angle_gamma 90.000000
_cell_volume 2483.200544
_symmetry_space_group_name_H-M "P B C M"
_symmetry_group_IT_number 57
_symmetry_cell_setting 'orthorhombic'
loop_
_space_group_symop_operation_xyz
x,y,z
-x,-y,1/2+z
x,1/2-y,-z
-x,1/2+y,1/2-z
-x,-y,-z
x,y,1/2-z
-x,1/2+y,z
x,1/2-y,1/2+z
loop_
_atom_site_type_symbol
_atom_site_label
_atom_site_fract_x
_atom_site_fract_y
_atom_site_fract_z
Si Si1 0.845095 0.580894 0.076524
Si Si2 0.318054 0.250000 0.000000
Si Si3 0.330740 0.268596 0.750000
Si Si4 0.579032 0.121775 0.354996
Si Si5 0.099526 0.693071 0.446880
Si Si6 0.321592 0.216192 0.348082
Si Si7 0.592902 0.352746 0.750000
Si Si8 0.343204 0.894523 0.542904
O O1 0.850853 0.365260 0.079750
O O2 0.778901 0.669947 0.118042
O O3 0.977413 0.634723 0.071542
O O4 0.765231 0.638062 0.033731
O O5 0.389432 0.406777 0.026992
O O6 0.273395 0.319992 0.702799
O O7 0.455526 0.360989 0.750000
O O8 0.354526 0.053286 0.750000
O O9 0.636569 0.923663 0.352239
O O10 0.613472 0.215022 0.304403
O O11 0.440670 0.108480 0.355126
O O12 0.609261 0.181151 0.408041
O O13 0.078136 0.750000 0.500000
O O14 0.207673 0.560357 0.447570
O O15 0.348889 0.750000 0.500000
#
# Coordination Sequence:
#
# PCOD9438763 Si02
#       8
#     8   4   4   8   8   8   4   8
#     4  12  22  37  60  86 116 157 207 249 303 352
#     4  12  20  38  58  84 120 156 200 248 300 358
#     4   8  16  36  58  87 113 146 200 251 303 355
#     4  10  21  38  60  88 123 154 206 248 310 369
#     4  11  22  37  59  84 117 154 210 258 292 350
#     4  10  22  37  63  88 119 158 197 252 308 369
#     4   8  16  34  60  85 109 154 198 261 299 349
#     4  11  23  39  60  89 125 169 206 250 306 372
#
# _framework density 20.940716999999999
#
# number of rings (size 3 to 8) (size 9 to 14) (size 15 to 20)
#    0.000    1.538    5.385    1.385    2.154    0.000 
#    1.385    1.538    1.692    1.846    0.000    0.000 
#    0.000    0.000    0.000    0.000    0.000    0.000 
#
# Total GULP energy -289752.246100 kJ/mol
# GULP energy per Si atom -5572.158579 kJ/mol
# Density = 2.089305 g / cm^3
# Si number density = 20.940717 Si / 1000 Ang^3
#
#
#
# Elastic Constant Matrix: (Units=GPa)
#
#
# Indices 1 2 3 4 5 6 
#
# 1 66.4500 2.0206 40.0327 0.0000 0.0000 0.0000
# 2 2.0206 53.3793 10.7748 0.0000 0.0000 0.0000
# 3 40.0327 10.7748 171.9698 0.0000 0.0000 0.0000
# 4 0.0000 0.0000 0.0000 23.4095 0.0000 0.0000
# 5 0.0000 0.0000 0.0000 0.0000 -10.6030 0.0000
# 6 0.0000 0.0000 0.0000 0.0000 0.0000 71.9958
#
#
#
# Elastic Compliance Matrix: (Units=1/GPa)
#
#
# Indices 1 2 3 4 5 6 
#
# 1 0.017505 0.000162 -0.004085 0.000000 0.000000 0.000000
# 2 0.000162 0.018975 -0.001227 0.000000 0.000000 0.000000
# 3 -0.004085 -0.001227 0.006843 0.000000 0.000000 0.000000
# 4 0.000000 0.000000 0.000000 0.042718 0.000000 0.000000
# 5 0.000000 0.000000 0.000000 0.000000 -0.094313 0.000000
# 6 0.000000 0.000000 0.000000 0.000000 0.000000 0.013890
#
#
# Mechanical properties :
#
#
# Convention : Reuss Voigt Hill
#
# Bulk Modulus (GPa) = 30.28132 44.16170 37.22151
# Shear Modulus (GPa) = 185.70024 32.89186 109.29605
#
# Velocity S-wave (km/s) = 9.42717 3.96752 7.23232
# Velocity P-wave (km/s) = 11.53201 6.49022 9.35709
#
# Compressibility (1/GPa) = 0.03302366
#
# Stress axis : x y z
#
# Youngs Moduli (GPa) = 57.12628 52.70001 146.13888
#
# Poissons Ratio (x) = -0.00854 0.59700
# Poissons Ratio (y) = -0.00925 0.17926
# Poissons Ratio (z) = 0.23337 0.06464
#
# Static dielectric constant tensor:
#      x y z
#    x 1.734490 0.000000 0.000000 
#    y 0.000000 1.806900 0.000000 
#    z 0.000000 0.000000 1.838060 
# 
# From -- ./inp_files/28596.got.cif
#   From: 2010.05.17/outbox.cif.g08.bks.cpg/sg57_15_cif.got.tgz:28596.got - 2010.06.03 13:58:18.
