data_PCOD9438272
_publ_section_title
;
Structure prediction by ZEFSAII (Michael W. Deem and Ramdas Pophale) SiO2 
 PCOD9438272
Probable space group: P B C M
;
_chemical_formula_sum "Si O2"
_cell_formula_units_Z 56
_cell_length_a 5.662178
_cell_length_b 12.313178
_cell_length_c 33.547738
_cell_angle_alpha 90.000000
_cell_angle_beta 90.000000
_cell_angle_gamma 90.000000
_cell_volume 2338.928352
_symmetry_space_group_name_H-M "P B C M"
_symmetry_group_IT_number 57
_symmetry_cell_setting 'orthorhombic'
loop_
_space_group_symop_operation_xyz
x,y,z
-x,-y,1/2+z
x,1/2-y,-z
-x,1/2+y,1/2-z
-x,-y,-z
x,y,1/2-z
-x,1/2+y,z
x,1/2-y,1/2+z
loop_
_atom_site_type_symbol
_atom_site_label
_atom_site_fract_x
_atom_site_fract_y
_atom_site_fract_z
Si Si1 0.350264 0.077483 0.334995
Si Si2 0.016452 0.032609 0.890573
Si Si3 0.715346 0.177192 0.393502
Si Si4 0.461490 0.122499 0.250000
Si Si5 0.037619 0.740026 0.750000
Si Si6 0.537789 0.669102 0.471906
Si Si7 0.810353 0.050119 0.529408
Si Si8 0.945586 0.699806 0.836750
O O1 0.179795 0.994329 0.357118
O O2 0.560330 0.104859 0.364125
O O3 0.444455 0.054097 0.290757
O O4 0.208253 0.191487 0.333075
O O5 0.929350 0.092246 0.930354
O O6 0.099430 0.915442 0.907243
O O7 0.184265 0.109316 0.863699
O O8 0.562414 0.216583 0.430787
O O9 0.838186 0.264009 0.365117
O O10 0.712883 0.190299 0.250000
O O11 0.212283 0.191516 0.250000
O O12 0.024938 0.674148 0.791610
O O13 0.691772 0.750000 0.500000
O O14 0.647907 0.553517 0.459593
O O15 0.337746 0.634849 0.503757
O O16 0.000000 0.000000 0.500000
#
# Coordination Sequence:
#
# PCOD9438272 Si02
#       8
#     8   8   8   4   4   8   8   8
#     4  10  22  40  64  92 124 167 208 263 324 392
#     4  11  23  41  62  93 127 163 217 267 321 396
#     4  11  21  41  63  89 123 162 215 261 321 388
#     4  10  20  41  67  94 133 172 212 276 336 385
#     4  10  20  41  65  98 131 168 222 268 328 403
#     4  11  24  40  62  89 120 166 215 260 320 394
#     4  11  23  42  59  88 127 161 203 269 321 373
#     4  10  23  39  66  90 125 168 208 263 330 385
#
# _framework density 23.942587
#
# number of rings (size 3 to 8) (size 9 to 14) (size 15 to 20)
#    0.000    1.429    4.286    0.857    0.000    3.429 
#    0.000    1.429    0.000    0.000    0.000    0.000 
#    0.000    0.000    0.000    0.000    0.000    0.000 
#
# Total GULP energy -312411.761114 kJ/mol
# GULP energy per Si atom -5578.781448 kJ/mol
# Density = 2.388809 g / cm^3
# Si number density = 23.942587 Si / 1000 Ang^3
#
#
#
# Elastic Constant Matrix: (Units=GPa)
#
#
# Indices 1 2 3 4 5 6 
#
# 1 37.6078 -7.5794 12.6932 0.0000 0.0000 0.0000
# 2 -7.5794 51.2384 13.1216 0.0000 0.0000 0.0000
# 3 12.6932 13.1216 175.8677 0.0000 0.0000 0.0000
# 4 0.0000 0.0000 0.0000 39.0581 0.0000 0.0000
# 5 0.0000 0.0000 0.0000 0.0000 28.1755 0.0000
# 6 0.0000 0.0000 0.0000 0.0000 0.0000 392.6222
#
#
#
# Elastic Compliance Matrix: (Units=1/GPa)
#
#
# Indices 1 2 3 4 5 6 
#
# 1 0.028373 0.004813 -0.002407 0.000000 0.000000 0.000000
# 2 0.004813 0.020713 -0.001893 0.000000 0.000000 0.000000
# 3 -0.002407 -0.001893 0.006001 0.000000 0.000000 0.000000
# 4 0.000000 0.000000 0.000000 0.025603 0.000000 0.000000
# 5 0.000000 0.000000 0.000000 0.000000 0.035492 0.000000
# 6 0.000000 0.000000 0.000000 0.000000 0.000000 0.002547
#
#
# Mechanical properties :
#
#
# Convention : Reuss Voigt Hill
#
# Bulk Modulus (GPa) = 17.82077 33.46498 25.64288
# Shear Modulus (GPa) = 36.65520 108.40306 72.52913
#
# Velocity S-wave (km/s) = 3.91700 6.73606 5.50987
# Velocity P-wave (km/s) = 5.28360 8.63174 7.15623
#
# Compressibility (1/GPa) = 0.05611431
#
# Stress axis : x y z
#
# Youngs Moduli (GPa) = 35.24519 48.27800 166.63776
#
# Poissons Ratio (x) = -0.23238 0.40108
# Poissons Ratio (y) = -0.16965 0.31542
# Poissons Ratio (z) = 0.08483 0.09138
#
# Static dielectric constant tensor:
#      x y z
#    x 2.713280 0.000000 0.000000 
#    y 0.000000 2.328000 0.000000 
#    z 0.000000 0.000000 1.878090 
# 
# From -- ./inp_files/29215.got.cif
#   From: 2010.05.17/outbox.cif.g08.bks.cpg/sg57_15_cif.got.tgz:29215.got - 2010.06.03 13:58:18.
