data_PCOD9438840
_publ_section_title
;
Structure prediction by ZEFSAII (Michael W. Deem and Ramdas Pophale) SiO2 
 PCOD9438840
Probable space group: P B C M
;
_chemical_formula_sum "Si O2"
_cell_formula_units_Z 52
_cell_length_a 19.433453
_cell_length_b 8.106957
_cell_length_c 16.325616
_cell_angle_alpha 90.000000
_cell_angle_beta 90.000000
_cell_angle_gamma 90.000000
_cell_volume 2572.038238
_symmetry_space_group_name_H-M "P B C M"
_symmetry_group_IT_number 57
_symmetry_cell_setting 'orthorhombic'
loop_
_space_group_symop_operation_xyz
x,y,z
-x,-y,1/2+z
x,1/2-y,-z
-x,1/2+y,1/2-z
-x,-y,-z
x,y,1/2-z
-x,1/2+y,z
x,1/2-y,1/2+z
loop_
_atom_site_type_symbol
_atom_site_label
_atom_site_fract_x
_atom_site_fract_y
_atom_site_fract_z
Si Si1 0.955783 0.600684 0.341285
Si Si2 0.361500 0.250000 0.500000
Si Si3 0.134029 0.561991 0.980855
Si Si4 0.464403 0.040903 0.586224
Si Si5 0.287595 0.917589 0.054096
Si Si6 0.592436 0.290056 0.157615
Si Si7 0.103715 0.031150 0.841251
O O1 0.938186 0.529160 0.250000
O O2 0.922274 0.515975 0.420715
O O3 0.038148 0.590267 0.347047
O O4 0.929003 0.786955 0.341077
O O5 0.412602 0.193718 0.573139
O O6 0.317223 0.412934 0.516683
O O7 0.206667 0.556485 0.933238
O O8 0.115925 0.750000 0.000000
O O9 0.143473 0.484654 0.072330
O O10 0.526515 0.091976 0.644908
O O11 0.500000 0.000000 0.500000
O O12 0.423521 0.876601 0.608392
O O13 0.338410 0.878260 0.128433
O O14 0.292359 0.750000 0.000000
O O15 0.598954 0.239254 0.250000
O O16 0.136616 0.006155 0.750000
#
# Coordination Sequence:
#
# PCOD9438840 Si02
#       7
#     8   4   8   8   8   8   8
#     4  10  21  38  63  93 127 163 209 263 327 379
#     4  12  22  38  72  86 120 164 216 258 306 382
#     4  11  24  39  63  89 124 169 216 256 313 387
#     4  12  20  38  67  93 119 166 210 257 320 383
#     4  11  24  43  63  89 123 173 218 251 314 386
#     4  12  23  39  62  98 134 160 209 273 326 381
#     4  10  21  39  63  93 125 161 208 270 318 375
#
# _framework density 20.217428999999999
#
# number of rings (size 3 to 8) (size 9 to 14) (size 15 to 20)
#    0.000    0.923    4.615    2.308    2.154    2.462 
#    0.000    3.077    0.000    0.000    0.000    0.000 
#    0.000    0.000    0.000    0.000    0.000    0.000 
#
# Total GULP energy -290127.217077 kJ/mol
# GULP energy per Si atom -5579.369559 kJ/mol
# Density = 2.017141 g / cm^3
# Si number density = 20.217429 Si / 1000 Ang^3
#
#
#
# Elastic Constant Matrix: (Units=GPa)
#
#
# Indices 1 2 3 4 5 6 
#
# 1 37.1843 3.3022 14.7571 0.0000 0.0000 0.0000
# 2 3.3022 76.9680 10.3106 0.0000 0.0000 0.0000
# 3 14.7571 10.3106 86.2348 0.0000 0.0000 0.0000
# 4 0.0000 0.0000 0.0000 22.9055 0.0000 0.0000
# 5 0.0000 0.0000 0.0000 0.0000 5.4483 0.0000
# 6 0.0000 0.0000 0.0000 0.0000 0.0000 22.6400
#
#
#
# Elastic Compliance Matrix: (Units=1/GPa)
#
#
# Indices 1 2 3 4 5 6 
#
# 1 0.028879 -0.000586 -0.004872 0.000000 0.000000 0.000000
# 2 -0.000586 0.013216 -0.001480 0.000000 0.000000 0.000000
# 3 -0.004872 -0.001480 0.012607 0.000000 0.000000 0.000000
# 4 0.000000 0.000000 0.000000 0.043658 0.000000 0.000000
# 5 0.000000 0.000000 0.000000 0.000000 0.183544 0.000000
# 6 0.000000 0.000000 0.000000 0.000000 0.000000 0.044170
#
#
# Mechanical properties :
#
#
# Convention : Reuss Voigt Hill
#
# Bulk Modulus (GPa) = 24.49457 28.56964 26.53211
# Shear Modulus (GPa) = 14.14198 21.66657 17.90428
#
# Velocity S-wave (km/s) = 2.64767 3.27720 2.97911
# Velocity P-wave (km/s) = 4.63559 5.33685 4.99853
#
# Compressibility (1/GPa) = 0.04082537
#
# Stress axis : x y z
#
# Youngs Moduli (GPa) = 34.62774 75.66697 79.32183
#
# Poissons Ratio (x) = 0.04437 0.38644
# Poissons Ratio (y) = 0.02030 0.11738
# Poissons Ratio (z) = 0.16870 0.11197
#
# Static dielectric constant tensor:
#      x y z
#    x 1.744700 0.000000 0.000000 
#    y 0.000000 1.728480 0.000000 
#    z 0.000000 0.000000 1.758830 
# 
# From -- ./inp_files/19296.got.cif
#   From: 2010.05.17/outbox.cif.g08.bks.cpg/sg57_10_cif.got.tgz:19296.got - 2010.06.03 13:58:18.
