data_PCOD9438953
_publ_section_title
;
Structure prediction by ZEFSAII (Michael W. Deem and Ramdas Pophale) SiO2 
 PCOD9438953
Probable space group: P B C M
;
_chemical_formula_sum "Si O2"
_cell_formula_units_Z 48
_cell_length_a 9.804574
_cell_length_b 16.916996
_cell_length_c 15.616590
_cell_angle_alpha 90.000000
_cell_angle_beta 90.000000
_cell_angle_gamma 90.000000
_cell_volume 2590.229133
_symmetry_space_group_name_H-M "P B C M"
_symmetry_group_IT_number 57
_symmetry_cell_setting 'orthorhombic'
loop_
_space_group_symop_operation_xyz
x,y,z
-x,-y,1/2+z
x,1/2-y,-z
-x,1/2+y,1/2-z
-x,-y,-z
x,y,1/2-z
-x,1/2+y,z
x,1/2-y,1/2+z
loop_
_atom_site_type_symbol
_atom_site_label
_atom_site_fract_x
_atom_site_fract_y
_atom_site_fract_z
Si Si1 0.129375 0.949039 0.028061
Si Si2 0.374663 0.058692 0.485396
Si Si3 0.701607 0.841574 0.349577
Si Si4 0.476141 0.315576 0.653208
Si Si5 0.982925 0.186390 0.649772
Si Si6 0.769851 0.193717 0.080293
O O1 0.081127 0.887779 0.100153
O O2 0.249055 0.008921 0.052451
O O3 0.189273 0.892555 0.953448
O O4 0.000000 0.000000 0.000000
O O5 0.332213 0.095141 0.577282
O O6 0.418920 0.126877 0.419781
O O7 0.500000 0.000000 0.500000
O O8 0.697468 0.870207 0.250000
O O9 0.595379 0.769572 0.356864
O O10 0.855219 0.810483 0.366583
O O11 0.446007 0.343496 0.750000
O O12 0.638648 0.308898 0.640501
O O13 0.962608 0.176083 0.750000
O O14 0.901983 0.263949 0.619876
O O15 0.730196 0.250000 0.000000
#
# Coordination Sequence:
#
# PCOD9438953 Si02
#       6
#     8   8   8   8   8   8
#     4  11  23  40  62  91 121 162 202 245 309 365
#     4  12  24  41  63  90 126 163 200 253 307 363
#     4  10  23  42  64  90 122 164 207 250 302 362
#     4  11  24  41  63  91 121 161 209 250 300 363
#     4  10  22  41  63  90 121 158 205 253 300 360
#     4  10  21  39  63  89 120 160 205 247 300 363
#
# _framework density 18.531179999999999
#
# number of rings (size 3 to 8) (size 9 to 14) (size 15 to 20)
#    0.000    1.333    3.333    2.000    4.667    2.667 
#    0.000    1.667    0.000    0.000    0.000    0.000 
#    0.000    0.000    0.000    0.000    0.000    0.000 
#
# Total GULP energy -268093.578827 kJ/mol
# GULP energy per Si atom -5585.282892 kJ/mol
# Density = 1.848900 g / cm^3
# Si number density = 18.531180 Si / 1000 Ang^3
#
#
#
# Elastic Constant Matrix: (Units=GPa)
#
#
# Indices 1 2 3 4 5 6 
#
# 1 92.8782 21.1621 26.6236 0.0000 0.0000 0.0000
# 2 21.1621 61.9067 23.9448 0.0000 0.0000 0.0000
# 3 26.6236 23.9448 74.7993 0.0000 0.0000 0.0000
# 4 0.0000 0.0000 0.0000 13.6199 0.0000 0.0000
# 5 0.0000 0.0000 0.0000 0.0000 32.7424 0.0000
# 6 0.0000 0.0000 0.0000 0.0000 0.0000 39.8942
#
#
#
# Elastic Compliance Matrix: (Units=1/GPa)
#
#
# Indices 1 2 3 4 5 6 
#
# 1 0.012429 -0.002896 -0.003497 0.000000 0.000000 0.000000
# 2 -0.002896 0.019111 -0.005087 0.000000 0.000000 0.000000
# 3 -0.003497 -0.005087 0.016242 0.000000 0.000000 0.000000
# 4 0.000000 0.000000 0.000000 0.073422 0.000000 0.000000
# 5 0.000000 0.000000 0.000000 0.000000 0.030541 0.000000
# 6 0.000000 0.000000 0.000000 0.000000 0.000000 0.025066
#
#
# Mechanical properties :
#
#
# Convention : Reuss Voigt Hill
#
# Bulk Modulus (GPa) = 40.28639 41.44946 40.86793
# Shear Modulus (GPa) = 24.03319 27.77489 25.90404
#
# Velocity S-wave (km/s) = 3.60516 3.87566 3.74286
# Velocity P-wave (km/s) = 6.25433 6.51488 6.38593
#
# Compressibility (1/GPa) = 0.02482228
#
# Stress axis : x y z
#
# Youngs Moduli (GPa) = 80.45671 52.32605 61.56816
#
# Poissons Ratio (x) = 0.15155 0.21529
# Poissons Ratio (y) = 0.23302 0.31319
# Poissons Ratio (z) = 0.28134 0.26618
#
# Static dielectric constant tensor:
#      x y z
#    x 1.775790 0.000000 0.000000 
#    y 0.000000 1.635690 0.000000 
#    z 0.000000 0.000000 1.645590 
# 
# From -- ./inp_files/16311.got.cif
#   From: 2010.05.17/outbox.cif.g08.bks.cpg/sg57_9_cif.got.tgz:16311.got - 2010.06.03 13:58:18.
