data_PCOD9438362
_publ_section_title
;
Structure prediction by ZEFSAII (Michael W. Deem and Ramdas Pophale) SiO2 
 PCOD9438362
Probable space group: P B C M
;
_chemical_formula_sum "Si O2"
_cell_formula_units_Z 60
_cell_length_a 18.944221
_cell_length_b 5.132487
_cell_length_c 31.167100
_cell_angle_alpha 90.000000
_cell_angle_beta 90.000000
_cell_angle_gamma 90.000000
_cell_volume 3030.407303
_symmetry_space_group_name_H-M "P B C M"
_symmetry_group_IT_number 57
_symmetry_cell_setting 'orthorhombic'
loop_
_space_group_symop_operation_xyz
x,y,z
-x,-y,1/2+z
x,1/2-y,-z
-x,1/2+y,1/2-z
-x,-y,-z
x,y,1/2-z
-x,1/2+y,z
x,1/2-y,1/2+z
loop_
_atom_site_type_symbol
_atom_site_label
_atom_site_fract_x
_atom_site_fract_y
_atom_site_fract_z
Si Si1 0.336584 0.843200 0.616545
Si Si2 0.453942 0.702606 0.548211
Si Si3 0.337208 0.340904 0.674402
Si Si4 0.953101 0.256117 0.448748
Si Si5 0.180419 0.750754 0.888143
Si Si6 0.966448 0.576055 0.300153
Si Si7 0.181068 0.248681 0.830880
Si Si8 0.449699 0.221275 0.250000
O O1 0.396497 0.771464 0.583231
O O2 0.338884 0.631293 0.655061
O O3 0.259178 0.815502 0.595580
O O4 0.346327 0.129273 0.636441
O O5 0.426483 0.750000 0.500000
O O6 0.481961 0.409043 0.552781
O O7 0.257483 0.283187 0.691015
O O8 0.398047 0.301934 0.709097
O O9 0.938800 0.250000 0.500000
O O10 0.881749 0.219833 0.422087
O O11 0.991281 0.528036 0.438682
O O12 0.181047 0.457430 0.869845
O O13 0.172056 0.958732 0.849333
O O14 0.984227 0.541738 0.250000
O O15 0.886715 0.670778 0.303759
O O16 0.983767 0.297456 0.320262
O O17 0.493216 0.489221 0.250000
#
# Coordination Sequence:
#
# PCOD9438362 Si02
#       8
#     8   8   8   8   8   8   8   4
#     4  10  21  39  59  84 116 148 187 232 283 335
#     4  10  21  36  57  86 114 145 184 221 271 339
#     4  10  23  40  59  84 113 150 189 230 284 343
#     4  10  21  36  54  79 112 150 190 233 284 333
#     4  10  21  36  55  82 107 140 189 228 265 328
#     4  10  21  35  52  79 108 137 178 221 263 319
#     4  10  21  37  57  79 109 145 181 223 275 329
#     4  12  26  42  62  90 116 144 194 240 278 344
#
# _framework density 19.799316999999999
#
# number of rings (size 3 to 8) (size 9 to 14) (size 15 to 20)
#    0.000    1.867    0.000    3.200    0.933    6.933 
#    0.000    0.000    0.000    9.600    0.000    0.000 
#    0.000    0.000    0.000    0.000    0.000    0.000 
#
# Total GULP energy -335115.961398 kJ/mol
# GULP energy per Si atom -5585.266023 kJ/mol
# Density = 1.975425 g / cm^3
# Si number density = 19.799317 Si / 1000 Ang^3
#
#
#
# Elastic Constant Matrix: (Units=GPa)
#
#
# Indices 1 2 3 4 5 6 
#
# 1 84.6025 -1.0448 32.3798 0.0000 0.0000 0.0000
# 2 -1.0448 55.5184 -1.8656 0.0000 0.0000 0.0000
# 3 32.3798 -1.8656 23.9146 0.0000 0.0000 0.0000
# 4 0.0000 0.0000 0.0000 12.6365 0.0000 0.0000
# 5 0.0000 0.0000 0.0000 0.0000 261.9948 0.0000
# 6 0.0000 0.0000 0.0000 0.0000 0.0000 26.1751
#
#
#
# Elastic Compliance Matrix: (Units=1/GPa)
#
#
# Indices 1 2 3 4 5 6 
#
# 1 0.024557 -0.000657 -0.033301 0.000000 0.000000 0.000000
# 2 -0.000657 0.018077 0.002300 0.000000 0.000000 0.000000
# 3 -0.033301 0.002300 0.087084 0.000000 0.000000 0.000000
# 4 0.000000 0.000000 0.000000 0.079136 0.000000 0.000000
# 5 0.000000 0.000000 0.000000 0.000000 0.003817 0.000000
# 6 0.000000 0.000000 0.000000 0.000000 0.000000 0.038204
#
#
# Mechanical properties :
#
#
# Convention : Reuss Voigt Hill
#
# Bulk Modulus (GPa) = 15.05998 24.77492 19.91745
# Shear Modulus (GPa) = 14.86658 69.13237 41.99948
#
# Velocity S-wave (km/s) = 2.74316 5.91543 4.61071
# Velocity P-wave (km/s) = 4.20191 7.69394 6.19890
#
# Compressibility (1/GPa) = 0.06640117
#
# Stress axis : x y z
#
# Youngs Moduli (GPa) = 40.72140 55.31906 11.48321
#
# Poissons Ratio (x) = 0.03634 0.38240
# Poissons Ratio (y) = 0.02675 -0.02641
# Poissons Ratio (z) = 1.35606 -0.12721
#
# Static dielectric constant tensor:
#      x y z
#    x 1.685810 0.000000 0.000000 
#    y 0.000000 1.699960 0.000000 
#    z 0.000000 0.000000 1.675110 
# 
# From -- ./inp_files/28857.got.cif
#   From: 2010.05.17/outbox.cif.g08.bks.cpg/sg57_15_cif.got.tgz:28857.got - 2010.06.03 13:58:18.
