data_PCOD9438163
_publ_section_title
;
Structure prediction by ZEFSAII (Michael W. Deem and Ramdas Pophale) SiO2 
 PCOD9438163
Probable space group: P B C M
;
_chemical_formula_sum "Si O2"
_cell_formula_units_Z 60
_cell_length_a 12.276756
_cell_length_b 26.926989
_cell_length_c 9.657204
_cell_angle_alpha 90.000000
_cell_angle_beta 90.000000
_cell_angle_gamma 90.000000
_cell_volume 3192.440582
_symmetry_space_group_name_H-M "P B C M"
_symmetry_group_IT_number 57
_symmetry_cell_setting 'orthorhombic'
loop_
_space_group_symop_operation_xyz
x,y,z
-x,-y,1/2+z
x,1/2-y,-z
-x,1/2+y,1/2-z
-x,-y,-z
x,y,1/2-z
-x,1/2+y,z
x,1/2-y,1/2+z
loop_
_atom_site_type_symbol
_atom_site_label
_atom_site_fract_x
_atom_site_fract_y
_atom_site_fract_z
Si Si1 0.313942 0.476079 0.910728
Si Si2 0.734117 0.800348 0.414347
Si Si3 0.761987 0.250629 0.750000
Si Si4 0.193513 0.820921 0.010287
Si Si5 0.962517 0.643425 0.587400
Si Si6 0.424040 0.389832 0.414077
Si Si7 0.672367 0.090158 0.585096
Si Si8 0.944502 0.543805 0.087771
O O1 0.349622 0.472591 0.750000
O O2 0.330886 0.532685 0.958224
O O3 0.185559 0.464561 0.915966
O O4 0.376834 0.436257 0.002338
O O5 0.725805 0.750000 0.500000
O O6 0.724786 0.790057 0.250000
O O7 0.850965 0.826630 0.437359
O O8 0.641152 0.840111 0.453437
O O9 0.742500 0.208236 0.629607
O O10 0.791011 0.291635 0.629828
O O11 0.238847 0.876820 0.007965
O O12 0.067552 0.822739 0.057631
O O13 0.964555 0.628575 0.750000
O O14 0.967517 0.595814 0.488355
O O15 0.405163 0.397785 0.250000
O O16 0.553009 0.386761 0.436162
O O17 0.698223 0.090131 0.750000
O O18 0.977947 0.543699 0.250000
O O19 0.000000 0.500000 0.000000
#
# Coordination Sequence:
#
# PCOD9438163 Si02
#       8
#     8   8   4   8   8   8   8   8
#     4  10  21  39  62  88 121 160 203 249 304 361
#     4  10  23  39  59  87 118 158 201 246 302 360
#     4  10  24  40  64  84 122 162 206 256 306 362
#     4  11  22  42  60  92 119 160 206 254 308 365
#     4  11  22  38  63  85 123 160 198 251 304 364
#     4  10  21  41  61  88 120 160 203 251 306 361
#     4  10  20  39  64  88 121 159 200 250 308 364
#     4  11  23  37  58  90 126 165 203 251 309 368
#
# _framework density 18.794397
#
# number of rings (size 3 to 8) (size 9 to 14) (size 15 to 20)
#    0.000    1.600    2.667    1.600    2.800    2.667 
#    4.800    0.000    0.000    0.000    0.000    0.000 
#    0.000    0.000    0.000    0.000    0.000    0.000 
#
# Total GULP energy -334063.294005 kJ/mol
# GULP energy per Si atom -5567.721567 kJ/mol
# Density = 1.875162 g / cm^3
# Si number density = 18.794397 Si / 1000 Ang^3
#
#
#
# Elastic Constant Matrix: (Units=GPa)
#
#
# Indices 1 2 3 4 5 6 
#
# 1 40.3572 17.1423 13.6158 0.0000 0.0000 0.0000
# 2 17.1423 111.9136 44.1651 0.0000 0.0000 0.0000
# 3 13.6158 44.1651 99.0028 0.0000 0.0000 0.0000
# 4 0.0000 0.0000 0.0000 42.3525 0.0000 0.0000
# 5 0.0000 0.0000 0.0000 0.0000 11.2792 0.0000
# 6 0.0000 0.0000 0.0000 0.0000 0.0000 4.8470
#
#
#
# Elastic Compliance Matrix: (Units=1/GPa)
#
#
# Indices 1 2 3 4 5 6 
#
# 1 0.026913 -0.003230 -0.002260 0.000000 0.000000 0.000000
# 2 -0.003230 0.011232 -0.004566 0.000000 0.000000 0.000000
# 3 -0.002260 -0.004566 0.012449 0.000000 0.000000 0.000000
# 4 0.000000 0.000000 0.000000 0.023611 0.000000 0.000000
# 5 0.000000 0.000000 0.000000 0.000000 0.088659 0.000000
# 6 0.000000 0.000000 0.000000 0.000000 0.000000 0.206315
#
#
# Mechanical properties :
#
#
# Convention : Reuss Voigt Hill
#
# Bulk Modulus (GPa) = 32.80832 44.56890 38.68861
# Shear Modulus (GPa) = 12.51707 23.45242 17.98475
#
# Velocity S-wave (km/s) = 2.58350 3.53631 3.09677
# Velocity P-wave (km/s) = 5.13747 6.35920 5.78070
#
# Compressibility (1/GPa) = 0.03048007
#
# Stress axis : x y z
#
# Youngs Moduli (GPa) = 37.15612 89.02827 80.32975
#
# Poissons Ratio (x) = 0.28760 0.18157
# Poissons Ratio (y) = 0.12003 0.36682
# Poissons Ratio (z) = 0.08398 0.40655
#
# Static dielectric constant tensor:
#      x y z
#    x 1.664950 0.000000 0.000000 
#    y 0.000000 1.609440 0.000000 
#    z 0.000000 0.000000 1.628250 
# 
# From -- ./inp_files/3452.got.cif
#   From: 2010.05.17/outbox.cif.g08.bks.cpg/sg57_2_cif.got.tgz:3452.got - 2010.06.03 13:58:18.
