data_PCOD9438492
_publ_section_title
;
Structure prediction by ZEFSAII (Michael W. Deem and Ramdas Pophale) SiO2 
 PCOD9438492
Probable space group: P B C M
;
_chemical_formula_sum "Si O2"
_cell_formula_units_Z 56
_cell_length_a 22.299518
_cell_length_b 15.379187
_cell_length_c 8.554817
_cell_angle_alpha 90.000000
_cell_angle_beta 90.000000
_cell_angle_gamma 90.000000
_cell_volume 2933.861293
_symmetry_space_group_name_H-M "P B C M"
_symmetry_group_IT_number 57
_symmetry_cell_setting 'orthorhombic'
loop_
_space_group_symop_operation_xyz
x,y,z
-x,-y,1/2+z
x,1/2-y,-z
-x,1/2+y,1/2-z
-x,-y,-z
x,y,1/2-z
-x,1/2+y,z
x,1/2-y,1/2+z
loop_
_atom_site_type_symbol
_atom_site_label
_atom_site_fract_x
_atom_site_fract_y
_atom_site_fract_z
Si Si1 0.807054 0.341041 0.938310
Si Si2 0.500702 0.650073 0.562435
Si Si3 0.062856 0.897661 0.562397
Si Si4 0.193035 0.341041 0.438299
Si Si5 0.062933 0.397660 0.437601
Si Si6 0.722966 0.000101 0.060597
Si Si7 0.411291 0.004376 0.437004
O O1 0.809346 0.341794 0.750000
O O2 0.875386 0.355807 0.995419
O O3 0.762616 0.417225 0.986905
O O4 0.784526 0.250000 0.000000
O O5 0.499106 0.750000 0.500000
O O6 0.501029 0.655780 0.750000
O O7 0.445651 0.585258 0.514222
O O8 0.557002 0.590536 0.507822
O O9 0.061683 0.892189 0.750000
O O10 0.999965 0.861878 0.499981
O O11 0.065865 0.999999 0.519999
O O12 0.215574 0.250000 0.500000
O O13 0.190737 0.341724 0.250000
O O14 0.124701 0.355831 0.495426
O O15 0.237439 0.417295 0.486751
O O16 0.061783 0.392184 0.250000
O O17 0.717898 0.000087 0.250000
O O18 0.657313 0.999795 0.988974
O O19 0.416345 0.010143 0.250000
#
# Coordination Sequence:
#
# PCOD9438492 Si02
#       7
#     8   8   8   8   8   8   8
#     4  10  21  37  56  78 107 145 188 234 284 342
#     4  10  21  39  64  93 125 158 192 233 278 328
#     4   9  17  32  53  75 101 136 179 227 283 342
#     4  10  21  37  56  78 106 143 186 231 281 338
#     4   9  17  32  53  75 101 135 178 227 282 341
#     4  10  21  40  60  78 112 157 192 228 280 336
#     4  10  22  39  61  91 123 155 194 236 280 331
#
# _framework density 19.087472000000002
#
# number of rings (size 3 to 8) (size 9 to 14) (size 15 to 20)
#    0.000    2.286    1.429    0.857    0.000    5.714 
#    0.000    7.143    0.000    0.000    0.000    0.000 
#    0.000    0.000    0.000    0.000    0.000    0.000 
#
# Total GULP energy -312420.001599 kJ/mol
# GULP energy per Si atom -5578.928600 kJ/mol
# Density = 1.904403 g / cm^3
# Si number density = 19.087472 Si / 1000 Ang^3
#
#
#
# Elastic Constant Matrix: (Units=GPa)
#
#
# Indices 1 2 3 4 5 6 
#
# 1 161.4177 90.1024 28.5508 0.0000 0.0000 0.0000
# 2 90.1024 176.1916 34.3719 0.0000 0.0000 0.0000
# 3 28.5508 34.3719 15.5603 0.0000 0.0000 0.0000
# 4 0.0000 0.0000 0.0000 26.6990 0.0000 0.0000
# 5 0.0000 0.0000 0.0000 0.0000 31.9552 0.0000
# 6 0.0000 0.0000 0.0000 0.0000 0.0000 -90.0414
#
#
#
# Elastic Compliance Matrix: (Units=1/GPa)
#
#
# Indices 1 2 3 4 5 6 
#
# 1 0.009829 -0.002650 -0.012180 0.000000 0.000000 0.000000
# 2 -0.002650 0.010688 -0.018747 0.000000 0.000000 0.000000
# 3 -0.012180 -0.018747 0.128025 0.000000 0.000000 0.000000
# 4 0.000000 0.000000 0.000000 0.037455 0.000000 0.000000
# 5 0.000000 0.000000 0.000000 0.000000 0.031294 0.000000
# 6 0.000000 0.000000 0.000000 0.000000 0.000000 -0.011106
#
#
# Mechanical properties :
#
#
# Convention : Reuss Voigt Hill
#
# Bulk Modulus (GPa) = 12.28684 73.24665 42.76675
# Shear Modulus (GPa) = 16.64072 7.06554 11.85313
#
# Velocity S-wave (km/s) = 2.95585 1.92606 2.49467
# Velocity P-wave (km/s) = 4.25447 6.58815 5.54546
#
# Compressibility (1/GPa) = 0.08138786
#
# Stress axis : x y z
#
# Youngs Moduli (GPa) = 101.74174 93.56227 7.81097
#
# Poissons Ratio (x) = 0.24796 0.09514
# Poissons Ratio (y) = 0.26964 0.14643
# Poissons Ratio (z) = 1.23924 1.75398
#
# Static dielectric constant tensor:
#      x y z
#    x 1.656390 0.000000 0.000000 
#    y 0.000000 1.661780 0.000000 
#    z 0.000000 0.000000 1.657260 
# 
# From -- ./inp_files/8074.got.cif
#   From: 2010.05.17/outbox.cif.g08.bks.cpg/sg57_5_cif.got.tgz:8074.got - 2010.06.03 13:58:18.
