data_PCOD9438928
_publ_section_title
;
Structure prediction by ZEFSAII (Michael W. Deem and Ramdas Pophale) SiO2 
 PCOD9438928
Probable space group: P B C M
;
_chemical_formula_sum "Si O2"
_cell_formula_units_Z 48
_cell_length_a 8.773202
_cell_length_b 9.231327
_cell_length_c 23.833508
_cell_angle_alpha 90.000000
_cell_angle_beta 90.000000
_cell_angle_gamma 90.000000
_cell_volume 1930.235213
_symmetry_space_group_name_H-M "P B C M"
_symmetry_group_IT_number 57
_symmetry_cell_setting 'orthorhombic'
loop_
_space_group_symop_operation_xyz
x,y,z
-x,-y,1/2+z
x,1/2-y,-z
-x,1/2+y,1/2-z
-x,-y,-z
x,y,1/2-z
-x,1/2+y,z
x,1/2-y,1/2+z
loop_
_atom_site_type_symbol
_atom_site_label
_atom_site_fract_x
_atom_site_fract_y
_atom_site_fract_z
Si Si1 0.013553 0.904996 0.312085
Si Si2 0.845797 0.082080 0.483310
Si Si3 0.835027 0.344715 0.644571
Si Si4 0.476450 0.967084 0.845270
Si Si5 0.374149 0.366535 0.954544
Si Si6 0.704676 0.749095 0.157108
O O1 0.075975 0.886022 0.250000
O O2 0.970978 0.069887 0.324330
O O3 0.849721 0.824608 0.316620
O O4 0.124405 0.824088 0.355231
O O5 0.849403 0.250000 0.500000
O O6 0.831428 0.084105 0.416354
O O7 0.712715 0.994396 0.514324
O O8 0.000000 0.000000 0.500000
O O9 0.674240 0.380047 0.672961
O O10 0.432497 0.133464 0.839001
O O11 0.630991 0.899552 0.819823
O O12 0.503083 0.930734 0.911395
O O13 0.265630 0.283022 0.909203
O O14 0.429277 0.250000 0.000000
#
# Coordination Sequence:
#
# PCOD9438928 Si02
#       6
#     8   8   8   8   8   8
#     4  11  23  44  68  92 124 170 222 285 348 404
#     4  12  25  39  64 100 139 187 227 273 332 404
#     4  11  24  42  65  97 129 173 219 281 335 399
#     4   9  22  38  63  90 134 171 216 270 333 393
#     4  10  21  39  61  92 139 180 224 265 327 407
#     4   9  21  40  61  91 127 170 217 273 328 395
#
# _framework density 24.867436999999999
#
# number of rings (size 3 to 8) (size 9 to 14) (size 15 to 20)
#    1.000    0.667    0.000    5.000    2.333    4.667 
#    0.000    4.167    0.000    0.000    0.000    0.000 
#    0.000    0.000    0.000    0.000    0.000    0.000 
#
# Total GULP energy -268395.951313 kJ/mol
# GULP energy per Si atom -5591.582319 kJ/mol
# Density = 2.481084 g / cm^3
# Si number density = 24.867437 Si / 1000 Ang^3
#
#
#
# Elastic Constant Matrix: (Units=GPa)
#
#
# Indices 1 2 3 4 5 6 
#
# 1 37.7697 30.9666 -4.6539 0.0000 0.0000 0.0000
# 2 30.9666 134.1774 -0.3074 0.0000 0.0000 0.0000
# 3 -4.6539 -0.3074 62.0437 0.0000 0.0000 0.0000
# 4 0.0000 0.0000 0.0000 15.5529 0.0000 0.0000
# 5 0.0000 0.0000 0.0000 0.0000 -1.8798 0.0000
# 6 0.0000 0.0000 0.0000 0.0000 0.0000 43.3331
#
#
#
# Elastic Compliance Matrix: (Units=1/GPa)
#
#
# Indices 1 2 3 4 5 6 
#
# 1 0.033020 -0.007615 0.002439 0.000000 0.000000 0.000000
# 2 -0.007615 0.009209 -0.000526 0.000000 0.000000 0.000000
# 3 0.002439 -0.000526 0.016298 0.000000 0.000000 0.000000
# 4 0.000000 0.000000 0.000000 0.064297 0.000000 0.000000
# 5 0.000000 0.000000 0.000000 0.000000 -0.531980 0.000000
# 6 0.000000 0.000000 0.000000 0.000000 0.000000 0.023077
#
#
# Mechanical properties :
#
#
# Convention : Reuss Voigt Hill
#
# Bulk Modulus (GPa) = 21.22047 31.77793 26.49920
# Shear Modulus (GPa) = -13.92882 25.26695 5.66906
#
# Velocity S-wave (km/s) = -2.36926 3.19104 1.51151
# Velocity P-wave (km/s) = 1.03317 5.13650 3.70480
#
# Compressibility (1/GPa) = 0.04712431
#
# Stress axis : x y z
#
# Youngs Moduli (GPa) = 30.28438 108.58823 61.35715
#
# Poissons Ratio (x) = 0.82691 -0.14966
# Poissons Ratio (y) = 0.23062 0.03225
# Poissons Ratio (z) = -0.07387 0.05707
#
# Static dielectric constant tensor:
#      x y z
#    x 1.986800 0.000000 0.000000 
#    y 0.000000 1.926680 0.000000 
#    z 0.000000 0.000000 1.992470 
# 
# From -- ./inp_files/27093.got.cif
#   From: 2010.05.17/outbox.cif.g08.bks.cpg/sg57_14_cif.got.tgz:27093.got - 2010.06.03 13:58:18.
