data_PCOD9438425
_publ_section_title
;
Structure prediction by ZEFSAII (Michael W. Deem and Ramdas Pophale) SiO2 
 PCOD9438425
Probable space group: P B C M
;
_chemical_formula_sum "Si O2"
_cell_formula_units_Z 56
_cell_length_a 21.491645
_cell_length_b 15.883954
_cell_length_c 8.715533
_cell_angle_alpha 90.000000
_cell_angle_beta 90.000000
_cell_angle_gamma 90.000000
_cell_volume 2975.241551
_symmetry_space_group_name_H-M "P B C M"
_symmetry_group_IT_number 57
_symmetry_cell_setting 'orthorhombic'
loop_
_space_group_symop_operation_xyz
x,y,z
-x,-y,1/2+z
x,1/2-y,-z
-x,1/2+y,1/2-z
-x,-y,-z
x,y,1/2-z
-x,1/2+y,z
x,1/2-y,1/2+z
loop_
_atom_site_type_symbol
_atom_site_label
_atom_site_fract_x
_atom_site_fract_y
_atom_site_fract_z
Si Si1 0.140590 0.659117 0.434419
Si Si2 0.989737 0.406302 0.065020
Si Si3 0.592321 0.163566 0.566257
Si Si4 0.876788 0.838523 0.065744
Si Si5 0.212897 0.009036 0.564676
Si Si6 0.650846 0.515150 0.066210
Si Si7 0.532130 0.916026 0.066093
O O1 0.158784 0.750000 0.500000
O O2 0.138443 0.662789 0.250000
O O3 0.186500 0.582771 0.479887
O O4 0.072373 0.634254 0.496600
O O5 0.985489 0.409353 0.250000
O O6 0.051566 0.354651 0.021258
O O7 0.000000 0.500000 0.000000
O O8 0.618002 0.250000 0.500000
O O9 0.595832 0.166184 0.750000
O O10 0.627491 0.078444 0.516033
O O11 0.519233 0.153518 0.523430
O O12 0.874438 0.835357 0.250000
O O13 0.835672 0.918490 0.016700
O O14 0.854475 0.750000 0.000000
O O15 0.216920 0.010409 0.750000
O O16 0.280021 0.026814 0.494622
O O17 0.648902 0.517726 0.250000
O O18 0.601123 0.582451 0.001988
O O19 0.535399 0.920486 0.250000
O O20 0.500000 0.000000 0.000000
#
# Coordination Sequence:
#
# PCOD9438425 Si02
#       7
#     8   8   8   8   8   8   8
#     4  11  23  40  59  85 119 155 197 243 296 357
#     4  11  21  37  61  88 118 151 190 242 299 356
#     4   9  19  33  52  81 113 140 176 223 269 326
#     4  10  22  40  60  85 113 146 190 239 294 351
#     4  10  22  41  59  79 115 156 194 239 290 346
#     4  10  21  36  55  81 109 143 190 231 273 334
#     4   9  17  32  53  78 106 138 175 218 266 315
#
# _framework density 18.822002000000001
#
# number of rings (size 3 to 8) (size 9 to 14) (size 15 to 20)
#    0.000    2.000    1.429    3.000    0.000    8.000 
#    0.000    3.571    0.000    0.000    0.000    0.000 
#    0.000    0.000    0.000    0.000    0.000    0.000 
#
# Total GULP energy -312521.117433 kJ/mol
# GULP energy per Si atom -5580.734240 kJ/mol
# Density = 1.877916 g / cm^3
# Si number density = 18.822002 Si / 1000 Ang^3
#
#
#
# Elastic Constant Matrix: (Units=GPa)
#
#
# Indices 1 2 3 4 5 6 
#
# 1 89.7663 -3.3136 17.4202 0.0000 0.0000 0.0000
# 2 -3.3136 68.7681 10.1099 0.0000 0.0000 0.0000
# 3 17.4202 10.1099 26.0253 0.0000 0.0000 0.0000
# 4 0.0000 0.0000 0.0000 30.3660 0.0000 0.0000
# 5 0.0000 0.0000 0.0000 0.0000 30.5018 0.0000
# 6 0.0000 0.0000 0.0000 0.0000 0.0000 11.8812
#
#
#
# Elastic Compliance Matrix: (Units=1/GPa)
#
#
# Indices 1 2 3 4 5 6 
#
# 1 0.013065 0.002031 -0.009534 0.000000 0.000000 0.000000
# 2 0.002031 0.015738 -0.007473 0.000000 0.000000 0.000000
# 3 -0.009534 -0.007473 0.047709 0.000000 0.000000 0.000000
# 4 0.000000 0.000000 0.000000 0.032932 0.000000 0.000000
# 5 0.000000 0.000000 0.000000 0.000000 0.032785 0.000000
# 6 0.000000 0.000000 0.000000 0.000000 0.000000 0.084167
#
#
# Mechanical properties :
#
#
# Convention : Reuss Voigt Hill
#
# Bulk Modulus (GPa) = 21.47783 25.88808 23.68295
# Shear Modulus (GPa) = 18.39125 25.23936 21.81530
#
# Velocity S-wave (km/s) = 3.12927 3.66587 3.40815
# Velocity P-wave (km/s) = 4.94897 5.63047 5.30068
#
# Compressibility (1/GPa) = 0.04655964
#
# Stress axis : x y z
#
# Youngs Moduli (GPa) = 76.53881 63.53968 20.96036
#
# Poissons Ratio (x) = -0.12906 0.19984
# Poissons Ratio (y) = -0.15547 0.15664
# Poissons Ratio (z) = 0.72975 0.47485
#
# Static dielectric constant tensor:
#      x y z
#    x 1.645550 0.000000 0.000000 
#    y 0.000000 1.656910 0.000000 
#    z 0.000000 0.000000 1.634300 
# 
# From -- ./inp_files/8008.got.cif
#   From: 2010.05.17/outbox.cif.g08.bks.cpg/sg57_5_cif.got.tgz:8008.got - 2010.06.03 13:58:18.
