data_PCOD9438350
_publ_section_title
;
Structure prediction by ZEFSAII (Michael W. Deem and Ramdas Pophale) SiO2 
 PCOD9438350
Probable space group: P B C M
;
_chemical_formula_sum "Si O2"
_cell_formula_units_Z 64
_cell_length_a 15.704189
_cell_length_b 7.149513
_cell_length_c 25.098407
_cell_angle_alpha 90.000000
_cell_angle_beta 90.000000
_cell_angle_gamma 90.000000
_cell_volume 2817.981458
_symmetry_space_group_name_H-M "P B C M"
_symmetry_group_IT_number 57
_symmetry_cell_setting 'orthorhombic'
loop_
_space_group_symop_operation_xyz
x,y,z
-x,-y,1/2+z
x,1/2-y,-z
-x,1/2+y,1/2-z
-x,-y,-z
x,y,1/2-z
-x,1/2+y,z
x,1/2-y,1/2+z
loop_
_atom_site_type_symbol
_atom_site_label
_atom_site_fract_x
_atom_site_fract_y
_atom_site_fract_z
Si Si1 0.780442 0.045896 0.386882
Si Si2 0.577947 0.794978 0.690158
Si Si3 0.271218 0.400698 0.618436
Si Si4 0.582143 0.435508 0.530527
Si Si5 0.755527 0.950145 0.002044
Si Si6 0.399265 0.611499 0.151492
Si Si7 0.117256 0.032732 0.190044
Si Si8 0.071983 0.031293 0.689144
O O1 0.754992 0.821966 0.384283
O O2 0.794571 0.076801 0.450621
O O3 0.698779 0.156723 0.363110
O O4 0.863368 0.071441 0.350528
O O5 0.595207 0.864113 0.750000
O O6 0.635430 0.905250 0.646403
O O7 0.607560 0.581681 0.683628
O O8 0.476105 0.782906 0.680666
O O9 0.262161 0.490456 0.559887
O O10 0.199440 0.495158 0.654573
O O11 0.612242 0.250000 0.500000
O O12 0.500000 0.500000 0.500000
O O13 0.660203 0.575351 0.525835
O O14 0.562351 0.411310 0.592098
O O15 0.802321 0.750000 0.000000
O O16 0.131369 0.963332 0.250000
O O17 0.104229 0.256735 0.192635
O O18 0.025677 0.961858 0.170171
O O19 0.071023 0.954973 0.750000
#
# Coordination Sequence:
#
# PCOD9438350 Si02
#       8
#     8   8   8   8   8   8   8   8
#     4   8  17  32  52  73  97 132 169 204 250 308
#     4  11  21  34  51  73 102 136 172 210 253 305
#     4   9  17  31  52  73  96 130 168 206 249 303
#     4  11  20  32  51  73  98 131 171 215 258 302
#     4   9  17  32  51  72  98 130 170 211 253 306
#     4  10  21  35  50  73 102 134 170 210 253 301
#     4   9  17  31  50  73  96 124 163 207 253 303
#     4   9  17  31  52  74  98 127 165 209 253 304
#
# _framework density 22.711293999999999
#
# number of rings (size 3 to 8) (size 9 to 14) (size 15 to 20)
#    0.000    2.500    0.000    3.375    0.000    3.500 
#    0.000    4.375    0.000    3.000    0.000    0.000 
#    0.000    0.000    0.000    0.000    0.000    0.000 
#
# Total GULP energy -356861.285385 kJ/mol
# GULP energy per Si atom -5575.957584 kJ/mol
# Density = 2.265960 g / cm^3
# Si number density = 22.711294 Si / 1000 Ang^3
#
#
#
# Elastic Constant Matrix: (Units=GPa)
#
#
# Indices 1 2 3 4 5 6 
#
# 1 132.0383 10.6840 69.8001 0.0000 0.0000 0.0000
# 2 10.6840 50.4908 11.2403 0.0000 0.0000 0.0000
# 3 69.8001 11.2403 141.8490 0.0000 0.0000 0.0000
# 4 0.0000 0.0000 0.0000 16.5320 0.0000 0.0000
# 5 0.0000 0.0000 0.0000 0.0000 -26.9679 0.0000
# 6 0.0000 0.0000 0.0000 0.0000 0.0000 26.6145
#
#
#
# Elastic Compliance Matrix: (Units=1/GPa)
#
#
# Indices 1 2 3 4 5 6 
#
# 1 0.010293 -0.001069 -0.004980 0.000000 0.000000 0.000000
# 2 -0.001069 0.020272 -0.001080 0.000000 0.000000 0.000000
# 3 -0.004980 -0.001080 0.009586 0.000000 0.000000 0.000000
# 4 0.000000 0.000000 0.000000 0.060489 0.000000 0.000000
# 5 0.000000 0.000000 0.000000 0.000000 -0.037081 0.000000
# 6 0.000000 0.000000 0.000000 0.000000 0.000000 0.037573
#
#
# Mechanical properties :
#
#
# Convention : Reuss Voigt Hill
#
# Bulk Modulus (GPa) = 38.62229 56.42521 47.52375
# Shear Modulus (GPa) = 40.31555 18.74598 29.53076
#
# Velocity S-wave (km/s) = 4.21780 2.87610 3.60983
# Velocity P-wave (km/s) = 6.38455 5.99398 6.19234
#
# Compressibility (1/GPa) = 0.02589179
#
# Stress axis : x y z
#
# Youngs Moduli (GPa) = 97.15624 49.32832 104.32000
#
# Poissons Ratio (x) = 0.05275 0.51952
# Poissons Ratio (y) = 0.10389 0.11269
# Poissons Ratio (z) = 0.48384 0.05329
#
# Static dielectric constant tensor:
#      x y z
#    x 1.836470 0.000000 0.000000 
#    y 0.000000 2.021880 0.000000 
#    z 0.000000 0.000000 1.970250 
# 
# From -- ./inp_files/27500.got.cif
#   From: 2010.05.17/outbox.cif.g08.bks.cpg/sg57_14_cif.got.tgz:27500.got - 2010.06.03 13:58:18.
