data_PCOD9438732
_publ_section_title
;
Structure prediction by ZEFSAII (Michael W. Deem and Ramdas Pophale) SiO2 
 PCOD9438732
Probable space group: P B C M
;
_chemical_formula_sum "Si O2"
_cell_formula_units_Z 32
_cell_length_a 6.567328
_cell_length_b 16.694171
_cell_length_c 14.701159
_cell_angle_alpha 90.000000
_cell_angle_beta 90.000000
_cell_angle_gamma 90.000000
_cell_volume 1611.777689
_symmetry_space_group_name_H-M "P B C M"
_symmetry_group_IT_number 57
_symmetry_cell_setting 'orthorhombic'
loop_
_space_group_symop_operation_xyz
x,y,z
-x,-y,1/2+z
x,1/2-y,-z
-x,1/2+y,1/2-z
-x,-y,-z
x,y,1/2-z
-x,1/2+y,z
x,1/2-y,1/2+z
loop_
_atom_site_type_symbol
_atom_site_label
_atom_site_fract_x
_atom_site_fract_y
_atom_site_fract_z
Si Si1 0.662929 0.040176 0.750000
Si Si2 0.467923 0.211021 0.750000
Si Si3 0.580497 0.031538 0.096882
Si Si4 0.263678 0.711843 0.097117
Si Si5 0.942179 0.815707 0.750000
Si Si6 0.912387 0.000697 0.250000
O O1 0.509013 0.115823 0.750000
O O2 0.607164 0.986765 0.663249
O O3 0.901530 0.062139 0.750000
O O4 0.580777 0.238253 0.658357
O O5 0.261660 0.263049 0.750000
O O6 0.640214 0.123859 0.086820
O O7 0.772207 0.997473 0.158366
O O8 0.500000 0.000000 0.000000
O O9 0.063463 0.707840 0.158821
O O10 0.226716 0.750000 0.000000
O O11 0.972233 0.912688 0.750000
#
# Coordination Sequence:
#
# PCOD9438732 Si02
#       6
#     4   4   8   8   4   4
#     4  11  22  38  59  87 121 159 201 249 306 359
#     4  11  22  38  61  85 119 157 197 249 298 356
#     4  10  21  38  59  87 121 157 202 252 301 360
#     4  10  21  38  59  86 117 153 201 247 295 358
#     4   9  20  39  60  83 116 159 198 244 299 352
#     4   9  20  39  62  87 122 161 200 250 305 359
#
# _framework density 19.853854999999999
#
# number of rings (size 3 to 8) (size 9 to 14) (size 15 to 20)
#    0.000    2.000    0.000    5.250    0.000    6.000 
#    0.000    7.500    0.000    0.000    0.000    0.000 
#    0.000    0.000    0.000    0.000    0.000    0.000 
#
# Total GULP energy -178164.035421 kJ/mol
# GULP energy per Si atom -5567.626107 kJ/mol
# Density = 1.980867 g / cm^3
# Si number density = 19.853855 Si / 1000 Ang^3
#
#
#
# Elastic Constant Matrix: (Units=GPa)
#
#
# Indices 1 2 3 4 5 6 
#
# 1 87.0845 12.9408 32.4923 0.0000 0.0000 0.0000
# 2 12.9408 46.7108 17.5028 0.0000 0.0000 0.0000
# 3 32.4923 17.5028 174.3826 0.0000 0.0000 0.0000
# 4 0.0000 0.0000 0.0000 42.3268 0.0000 0.0000
# 5 0.0000 0.0000 0.0000 0.0000 5.7870 0.0000
# 6 0.0000 0.0000 0.0000 0.0000 0.0000 7.5635
#
#
#
# Elastic Compliance Matrix: (Units=1/GPa)
#
#
# Indices 1 2 3 4 5 6 
#
# 1 0.012667 -0.002727 -0.002086 0.000000 0.000000 0.000000
# 2 -0.002727 0.022832 -0.001783 0.000000 0.000000 0.000000
# 3 -0.002086 -0.001783 0.006302 0.000000 0.000000 0.000000
# 4 0.000000 0.000000 0.000000 0.023626 0.000000 0.000000
# 5 0.000000 0.000000 0.000000 0.000000 0.172802 0.000000
# 6 0.000000 0.000000 0.000000 0.000000 0.000000 0.132213
#
#
# Mechanical properties :
#
#
# Convention : Reuss Voigt Hill
#
# Bulk Modulus (GPa) = 34.95689 48.22774 41.59231
# Shear Modulus (GPa) = 12.71707 27.48493 20.10100
#
# Velocity S-wave (km/s) = 2.53362 3.72474 3.18535
# Velocity P-wave (km/s) = 5.11902 6.54541 5.87566
#
# Compressibility (1/GPa) = 0.02860667
#
# Stress axis : x y z
#
# Youngs Moduli (GPa) = 78.94608 43.79779 158.67259
#
# Poissons Ratio (x) = 0.11946 0.33106
# Poissons Ratio (y) = 0.21532 0.28299
# Poissons Ratio (z) = 0.16472 0.07811
#
# Static dielectric constant tensor:
#      x y z
#    x 1.805570 0.000000 0.000000 
#    y 0.000000 1.782650 0.000000 
#    z 0.000000 0.000000 1.711290 
# 
# From -- ./inp_files/10722.got.cif
#   From: 2010.05.17/outbox.cif.g08.bks.cpg/sg57_6_cif.got.tgz:10722.got - 2010.06.03 13:58:18.
