data_PCOD9438217
_publ_section_title
;
Structure prediction by ZEFSAII (Michael W. Deem and Ramdas Pophale) SiO2 
 PCOD9438217
Probable space group: P B C M
;
_chemical_formula_sum "Si O2"
_cell_formula_units_Z 36
_cell_length_a 7.638657
_cell_length_b 15.251582
_cell_length_c 15.650718
_cell_angle_alpha 90.000000
_cell_angle_beta 90.000000
_cell_angle_gamma 90.000000
_cell_volume 1823.333745
_symmetry_space_group_name_H-M "P B C M"
_symmetry_group_IT_number 57
_symmetry_cell_setting 'orthorhombic'
loop_
_space_group_symop_operation_xyz
x,y,z
-x,-y,1/2+z
x,1/2-y,-z
-x,1/2+y,1/2-z
-x,-y,-z
x,y,1/2-z
-x,1/2+y,z
x,1/2-y,1/2+z
loop_
_atom_site_type_symbol
_atom_site_label
_atom_site_fract_x
_atom_site_fract_y
_atom_site_fract_z
Si Si1 0.123603 0.560683 0.250000
Si Si2 0.629469 0.063349 0.597955
Si Si3 0.885468 0.775141 0.750000
Si Si4 0.444118 0.230538 0.652443
Si Si5 0.106711 0.895297 0.250000
Si Si6 0.618972 0.097189 0.406180
O O1 0.239501 0.580332 0.166828
O O2 0.960388 0.627523 0.250000
O O3 0.057837 0.461087 0.250000
O O4 0.477060 0.135542 0.613635
O O5 0.778146 0.083350 0.666615
O O6 0.688685 0.075424 0.500435
O O7 0.543701 0.968477 0.610084
O O8 0.757397 0.756420 0.830753
O O9 0.039103 0.704047 0.750000
O O10 0.517130 0.229486 0.750000
O O11 0.546974 0.304370 0.601050
#
# Coordination Sequence:
#
# PCOD9438217 Si02
#       6
#     4   8   4   8   4   8
#     4  12  22  38  62  86 126 156 188 248 302 352
#     4  11  23  40  63  88 117 159 205 243 289 354
#     4  10  22  36  60  90 116 154 194 236 308 354
#     4  10  20  40  64  85 113 157 203 239 292 350
#     4  12  22  38  62  86 126 156 188 248 302 352
#     4  11  23  40  63  88 117 159 205 243 289 354
#
# _framework density 19.744053999999998
#
# number of rings (size 3 to 8) (size 9 to 14) (size 15 to 20)
#    0.667    0.444    2.222    5.333    0.000    0.889 
#    0.000    4.444    0.000    0.000    0.000    0.000 
#    0.000    0.000    0.000    0.000    0.000    0.000 
#
# Total GULP energy -201101.247058 kJ/mol
# GULP energy per Si atom -5586.145752 kJ/mol
# Density = 1.969912 g / cm^3
# Si number density = 19.744054 Si / 1000 Ang^3
#
#
#
# Elastic Constant Matrix: (Units=GPa)
#
#
# Indices 1 2 3 4 5 6 
#
# 1 41.4784 -23.6177 36.0754 0.0000 0.0000 0.0000
# 2 -23.6177 55.3129 -9.8799 0.0000 0.0000 0.0000
# 3 36.0754 -9.8799 77.8478 0.0000 0.0000 0.0000
# 4 0.0000 0.0000 0.0000 9.7986 0.0000 0.0000
# 5 0.0000 0.0000 0.0000 0.0000 -2.8891 0.0000
# 6 0.0000 0.0000 0.0000 0.0000 0.0000 29.1855
#
#
#
# Elastic Compliance Matrix: (Units=1/GPa)
#
#
# Indices 1 2 3 4 5 6 
#
# 1 0.055386 0.019507 -0.023191 0.000000 0.000000 0.000000
# 2 0.019507 0.025368 -0.005820 0.000000 0.000000 0.000000
# 3 -0.023191 -0.005820 0.022854 0.000000 0.000000 0.000000
# 4 0.000000 0.000000 0.000000 0.102055 0.000000 0.000000
# 5 0.000000 0.000000 0.000000 0.000000 -0.346124 0.000000
# 6 0.000000 0.000000 0.000000 0.000000 0.000000 0.034264
#
#
# Mechanical properties :
#
#
# Convention : Reuss Voigt Hill
#
# Bulk Modulus (GPa) = 11.82038 19.97720 15.89879
# Shear Modulus (GPa) = -84.76197 18.68975 -33.03611
#
# Velocity S-wave (km/s) = -6.55924 3.08003 -4.09494
# Velocity P-wave (km/s) = 7.16694 4.77376 3.77996
#
# Compressibility (1/GPa) = 0.08459967
#
# Stress axis : x y z
#
# Youngs Moduli (GPa) = 18.05520 39.41917 43.75657
#
# Poissons Ratio (x) = -0.76893 1.01474
# Poissons Ratio (y) = -0.35219 0.25466
# Poissons Ratio (z) = 0.41871 0.22942
#
# Static dielectric constant tensor:
#      x y z
#    x 1.682590 0.000000 0.000000 
#    y 0.000000 1.663040 0.000000 
#    z 0.000000 0.000000 1.681550 
# 
# From -- ./inp_files/15841.got.cif
#   From: 2010.05.17/outbox.cif.g08.bks.cpg/sg57_8_cif.got.tgz:15841.got - 2010.06.03 13:58:18.
