data_PCOD9438178
_publ_section_title
;
Structure prediction by ZEFSAII (Michael W. Deem and Ramdas Pophale) SiO2 
 PCOD9438178
Probable space group: P B C M
;
_chemical_formula_sum "Si O2"
_cell_formula_units_Z 60
_cell_length_a 11.625897
_cell_length_b 9.000835
_cell_length_c 27.112057
_cell_angle_alpha 90.000000
_cell_angle_beta 90.000000
_cell_angle_gamma 90.000000
_cell_volume 2837.081033
_symmetry_space_group_name_H-M "P B C M"
_symmetry_group_IT_number 57
_symmetry_cell_setting 'orthorhombic'
loop_
_space_group_symop_operation_xyz
x,y,z
-x,-y,1/2+z
x,1/2-y,-z
-x,1/2+y,1/2-z
-x,-y,-z
x,y,1/2-z
-x,1/2+y,z
x,1/2-y,1/2+z
loop_
_atom_site_type_symbol
_atom_site_label
_atom_site_fract_x
_atom_site_fract_y
_atom_site_fract_z
Si Si1 0.433956 0.232134 0.750000
Si Si2 0.526790 0.496967 0.325373
Si Si3 0.929369 0.866675 0.955951
Si Si4 0.127491 0.294882 0.355429
Si Si5 0.949728 0.499282 0.305012
Si Si6 0.185895 0.584398 0.019596
Si Si7 0.313248 0.515703 0.380585
Si Si8 0.732300 0.284294 0.307775
O O1 0.438742 0.360326 0.793583
O O2 0.442133 0.101074 0.708145
O O3 0.450527 0.525766 0.373485
O O4 0.638858 0.395744 0.330577
O O5 0.908823 0.781423 0.906009
O O6 0.058350 0.930931 0.955965
O O7 0.928191 0.750000 0.000000
O O8 0.830906 0.983502 0.970821
O O9 0.106145 0.159384 0.317237
O O10 0.253272 0.362329 0.363445
O O11 0.046205 0.433603 0.340930
O O12 0.000035 0.508691 0.250000
O O13 0.850823 0.373859 0.305876
O O14 0.272930 0.542800 0.063139
O O15 0.204424 0.750000 0.000000
O O16 0.265185 0.641662 0.342637
O O17 0.695953 0.253204 0.250000
#
# Coordination Sequence:
#
# PCOD9438178 Si02
#       8
#     4   8   8   8   8   8   8   8
#     4  10  20  40  64  94 126 170 228 278 318 384
#     4  11  21  39  64  94 128 166 224 278 325 383
#     4  10  20  39  65  95 128 169 223 282 321 385
#     4  12  25  41  63  96 136 176 223 265 337 404
#     4  11  26  42  60  91 140 185 218 263 328 407
#     4  10  22  39  65  95 130 167 217 281 340 389
#     4  12  25  39  63 101 132 166 219 281 343 393
#     4  11  23  41  64  91 128 174 228 271 316 396
#
# _framework density 21.148496000000002
#
# number of rings (size 3 to 8) (size 9 to 14) (size 15 to 20)
#    0.000    1.067    4.000    2.800    8.400    2.133 
#    0.000    0.000    0.000    0.800    0.000    0.000 
#    0.000    0.000    0.000    0.000    0.000    0.000 
#
# Total GULP energy -334081.417288 kJ/mol
# GULP energy per Si atom -5568.023621 kJ/mol
# Density = 2.110036 g / cm^3
# Si number density = 21.148496 Si / 1000 Ang^3
#
#
#
# Elastic Constant Matrix: (Units=GPa)
#
#
# Indices 1 2 3 4 5 6 
#
# 1 44.9889 -19.5587 21.5288 0.0000 0.0000 0.0000
# 2 -19.5587 64.1882 16.6487 0.0000 0.0000 0.0000
# 3 21.5288 16.6487 92.0429 0.0000 0.0000 0.0000
# 4 0.0000 0.0000 0.0000 35.3905 0.0000 0.0000
# 5 0.0000 0.0000 0.0000 0.0000 13.2976 0.0000
# 6 0.0000 0.0000 0.0000 0.0000 0.0000 19.2802
#
#
#
# Elastic Compliance Matrix: (Units=1/GPa)
#
#
# Indices 1 2 3 4 5 6 
#
# 1 0.032297 0.012381 -0.009794 0.000000 0.000000 0.000000
# 2 0.012381 0.021093 -0.006711 0.000000 0.000000 0.000000
# 3 -0.009794 -0.006711 0.014369 0.000000 0.000000 0.000000
# 4 0.000000 0.000000 0.000000 0.028256 0.000000 0.000000
# 5 0.000000 0.000000 0.000000 0.000000 0.075202 0.000000
# 6 0.000000 0.000000 0.000000 0.000000 0.000000 0.051867
#
#
# Mechanical properties :
#
#
# Convention : Reuss Voigt Hill
#
# Bulk Modulus (GPa) = 16.80339 26.49529 21.64934
# Shear Modulus (GPa) = 19.90698 25.76706 22.83702
#
# Velocity S-wave (km/s) = 3.07138 3.49433 3.28966
# Velocity P-wave (km/s) = 4.53217 5.36990 4.96872
#
# Compressibility (1/GPa) = 0.05951181
#
# Stress axis : x y z
#
# Youngs Moduli (GPa) = 30.96244 47.40986 69.59324
#
# Poissons Ratio (x) = -0.58700 0.68159
# Poissons Ratio (y) = -0.38336 0.46706
# Poissons Ratio (z) = 0.30324 0.31818
#
# Static dielectric constant tensor:
#      x y z
#    x 1.817850 0.000000 0.000000 
#    y 0.000000 1.799750 0.000000 
#    z 0.000000 0.000000 1.782040 
# 
# From -- ./inp_files/28614.got.cif
#   From: 2010.05.17/outbox.cif.g08.bks.cpg/sg57_15_cif.got.tgz:28614.got - 2010.06.03 13:58:18.
