data_PCOD9438935
_publ_section_title
;
Structure prediction by ZEFSAII (Michael W. Deem and Ramdas Pophale) SiO2 
 PCOD9438935
Probable space group: P B C M
;
_chemical_formula_sum "Si O2"
_cell_formula_units_Z 40
_cell_length_a 8.512678
_cell_length_b 24.760838
_cell_length_c 7.742046
_cell_angle_alpha 90.000000
_cell_angle_beta 90.000000
_cell_angle_gamma 90.000000
_cell_volume 1631.876515
_symmetry_space_group_name_H-M "P B C M"
_symmetry_group_IT_number 57
_symmetry_cell_setting 'orthorhombic'
loop_
_space_group_symop_operation_xyz
x,y,z
-x,-y,1/2+z
x,1/2-y,-z
-x,1/2+y,1/2-z
-x,-y,-z
x,y,1/2-z
-x,1/2+y,z
x,1/2-y,1/2+z
loop_
_atom_site_type_symbol
_atom_site_label
_atom_site_fract_x
_atom_site_fract_y
_atom_site_fract_z
Si Si1 0.184531 0.366289 0.959329
Si Si2 0.823573 0.508270 0.951212
Si Si3 0.137675 0.810824 0.542504
Si Si4 0.510482 0.329839 0.941697
Si Si5 0.565052 0.057601 0.941785
O O1 0.186103 0.363354 0.750000
O O2 0.332721 0.328325 0.018501
O O3 0.009680 0.347798 0.017499
O O4 0.215173 0.429022 0.008140
O O5 0.791704 0.498791 0.750000
O O6 0.744401 0.459365 0.054662
O O7 0.000000 0.500000 0.000000
O O8 0.088492 0.750000 0.500000
O O9 0.150823 0.819442 0.750000
O O10 0.319660 0.815368 0.474449
O O11 0.505341 0.304583 0.750000
O O12 0.530794 0.394381 0.931679
O O13 0.514770 0.072840 0.750000
O O14 0.500000 0.000000 0.000000
#
# Coordination Sequence:
#
# PCOD9438935 Si02
#       5
#     8   8   8   8   8
#     4  10  21  39  62  87 120 161 206 256 312 370
#     4  12  24  38  59  89 125 166 210 255 309 369
#     4  10  23  42  63  89 119 156 204 262 322 379
#     4  10  21  39  63  89 123 165 210 258 314 373
#     4  12  23  37  59  90 127 166 207 252 304 367
#
# _framework density 24.511659000000002
#
# number of rings (size 3 to 8) (size 9 to 14) (size 15 to 20)
#    0.000    1.200    2.000    4.800    0.000    4.000 
#    0.000    0.000    0.000    0.000    0.000    0.000 
#    0.000    0.000    0.000    0.000    0.000    0.000 
#
# Total GULP energy -222971.131584 kJ/mol
# GULP energy per Si atom -5574.278290 kJ/mol
# Density = 2.445587 g / cm^3
# Si number density = 24.511659 Si / 1000 Ang^3
#
#
#
# Elastic Constant Matrix: (Units=GPa)
#
#
# Indices 1 2 3 4 5 6 
#
# 1 158.2532 7.0893 6.2948 0.0000 0.0000 0.0000
# 2 7.0893 64.6437 -2.3421 0.0000 0.0000 0.0000
# 3 6.2948 -2.3421 88.1794 0.0000 0.0000 0.0000
# 4 0.0000 0.0000 0.0000 14.8038 0.0000 0.0000
# 5 0.0000 0.0000 0.0000 0.0000 13.2693 0.0000
# 6 0.0000 0.0000 0.0000 0.0000 0.0000 35.6800
#
#
#
# Elastic Compliance Matrix: (Units=1/GPa)
#
#
# Indices 1 2 3 4 5 6 
#
# 1 0.006370 -0.000716 -0.000474 0.000000 0.000000 0.000000
# 2 -0.000716 0.015565 0.000465 0.000000 0.000000 0.000000
# 3 -0.000474 0.000465 0.011387 0.000000 0.000000 0.000000
# 4 0.000000 0.000000 0.000000 0.067550 0.000000 0.000000
# 5 0.000000 0.000000 0.000000 0.000000 0.075362 0.000000
# 6 0.000000 0.000000 0.000000 0.000000 0.000000 0.028027
#
#
# Mechanical properties :
#
#
# Convention : Reuss Voigt Hill
#
# Bulk Modulus (GPa) = 31.37613 37.01782 34.19698
# Shear Modulus (GPa) = 23.11238 32.75289 27.93264
#
# Velocity S-wave (km/s) = 3.07402 3.65940 3.37941
# Velocity P-wave (km/s) = 5.04259 5.74368 5.40452
#
# Compressibility (1/GPa) = 0.03187136
#
# Stress axis : x y z
#
# Youngs Moduli (GPa) = 156.98848 64.24783 87.82194
#
# Poissons Ratio (x) = 0.04598 0.04160
# Poissons Ratio (y) = 0.11236 -0.04079
# Poissons Ratio (z) = 0.07437 -0.02984
#
# Static dielectric constant tensor:
#      x y z
#    x 0.322560 0.000000 0.000000 
#    y 0.000000 1.861580 0.000000 
#    z 0.000000 0.000000 1.843320 
# 
# From -- ./inp_files/1477.got.cif
#   From: 2010.05.17/outbox.cif.g08.bks.cpg/sg57_1_cif.got.tgz:1477.got - 2010.06.03 13:58:18.
