data_PCOD9438941
_publ_section_title
;
Structure prediction by ZEFSAII (Michael W. Deem and Ramdas Pophale) SiO2 
 PCOD9438941
Probable space group: P B C M
;
_chemical_formula_sum "Si O2"
_cell_formula_units_Z 48
_cell_length_a 10.158232
_cell_length_b 29.290740
_cell_length_c 8.734720
_cell_angle_alpha 90.000000
_cell_angle_beta 90.000000
_cell_angle_gamma 90.000000
_cell_volume 2598.947214
_symmetry_space_group_name_H-M "P B C M"
_symmetry_group_IT_number 57
_symmetry_cell_setting 'orthorhombic'
loop_
_space_group_symop_operation_xyz
x,y,z
-x,-y,1/2+z
x,1/2-y,-z
-x,1/2+y,1/2-z
-x,-y,-z
x,y,1/2-z
-x,1/2+y,z
x,1/2-y,1/2+z
loop_
_atom_site_type_symbol
_atom_site_label
_atom_site_fract_x
_atom_site_fract_y
_atom_site_fract_z
Si Si1 0.770380 0.800468 0.434349
Si Si2 0.488198 0.699141 0.065928
Si Si3 0.119788 0.028786 0.932319
Si Si4 0.284118 0.880677 0.566844
Si Si5 0.993436 0.628448 0.567313
Si Si6 0.367956 0.978476 0.432370
O O1 0.789537 0.750000 0.500000
O O2 0.761525 0.799634 0.250000
O O3 0.629912 0.816534 0.500868
O O4 0.894093 0.831492 0.479101
O O5 0.495794 0.702315 0.250000
O O6 0.376516 0.662346 0.024425
O O7 0.462606 0.750000 0.000000
O O8 0.131163 0.021429 0.750000
O O9 0.083951 0.081313 0.959774
O O10 0.249840 0.011112 0.013922
O O11 0.000000 0.000000 0.000000
O O12 0.287810 0.885504 0.750000
O O13 0.337384 0.927649 0.494226
O O14 0.134203 0.872466 0.514179
O O15 0.017502 0.631860 0.750000
O O16 0.374869 0.976745 0.250000
O O17 0.500000 0.000000 0.500000
#
# Coordination Sequence:
#
# PCOD9438941 Si02
#       6
#     8   8   8   8   8   8
#     4  10  21  39  62  90 120 156 200 246 300 361
#     4  10  22  40  62  90 120 156 200 247 303 362
#     4  11  22  40  63  91 123 161 204 247 300 359
#     4  11  24  41  62  91 123 158 205 252 301 362
#     4  10  23  40  61  89 121 160 202 243 301 363
#     4  12  26  43  63  90 124 163 205 254 306 360
#
# _framework density 18.469017000000001
#
# number of rings (size 3 to 8) (size 9 to 14) (size 15 to 20)
#    0.000    1.333    1.667    4.500    2.333    5.333 
#    0.000    3.333    0.000    0.000    0.000    0.000 
#    0.000    0.000    0.000    0.000    0.000    0.000 
#
# Total GULP energy -268288.873484 kJ/mol
# GULP energy per Si atom -5589.351531 kJ/mol
# Density = 1.842698 g / cm^3
# Si number density = 18.469017 Si / 1000 Ang^3
#
#
#
# Elastic Constant Matrix: (Units=GPa)
#
#
# Indices 1 2 3 4 5 6 
#
# 1 194.5790 100.5580 80.1668 0.0000 0.0000 0.0000
# 2 100.5580 103.7003 67.4587 0.0000 0.0000 0.0000
# 3 80.1668 67.4587 93.1845 0.0000 0.0000 0.0000
# 4 0.0000 0.0000 0.0000 24.7656 0.0000 0.0000
# 5 0.0000 0.0000 0.0000 0.0000 38.4163 0.0000
# 6 0.0000 0.0000 0.0000 0.0000 0.0000 35.8973
#
#
#
# Elastic Compliance Matrix: (Units=1/GPa)
#
#
# Indices 1 2 3 4 5 6 
#
# 1 0.010793 -0.008365 -0.003229 0.000000 0.000000 0.000000
# 2 -0.008365 0.024710 -0.010692 0.000000 0.000000 0.000000
# 3 -0.003229 -0.010692 0.021250 0.000000 0.000000 0.000000
# 4 0.000000 0.000000 0.000000 0.040379 0.000000 0.000000
# 5 0.000000 0.000000 0.000000 0.000000 0.026031 0.000000
# 6 0.000000 0.000000 0.000000 0.000000 0.000000 0.027857
#
#
# Mechanical properties :
#
#
# Convention : Reuss Voigt Hill
#
# Bulk Modulus (GPa) = 82.10114 98.64788 90.37451
# Shear Modulus (GPa) = 25.04369 29.36785 27.20577
#
# Velocity S-wave (km/s) = 3.68636 3.99195 3.84220
# Velocity P-wave (km/s) = 7.91637 8.64732 8.28991
#
# Compressibility (1/GPa) = 0.01218010
#
# Stress axis : x y z
#
# Youngs Moduli (GPa) = 92.65378 40.46976 47.05948
#
# Poissons Ratio (x) = 0.33853 0.15198
# Poissons Ratio (y) = 0.77505 0.50314
# Poissons Ratio (z) = 0.29922 0.43269
#
# Static dielectric constant tensor:
#      x y z
#    x 1.601510 0.000000 0.000000 
#    y 0.000000 1.622330 0.000000 
#    z 0.000000 0.000000 1.624250 
# 
# From -- ./inp_files/2126.got.cif
#   From: 2010.05.17/outbox.cif.g08.bks.cpg/sg57_2_cif.got.tgz:2126.got - 2010.06.03 13:58:18.
