data_PCOD9438436
_publ_section_title
;
Structure prediction by ZEFSAII (Michael W. Deem and Ramdas Pophale) SiO2 
 PCOD9438436
Probable space group: P B C M
;
_chemical_formula_sum "Si O2"
_cell_formula_units_Z 48
_cell_length_a 18.738126
_cell_length_b 9.081902
_cell_length_c 14.554487
_cell_angle_alpha 90.000000
_cell_angle_beta 90.000000
_cell_angle_gamma 90.000000
_cell_volume 2476.850927
_symmetry_space_group_name_H-M "P B C M"
_symmetry_group_IT_number 57
_symmetry_cell_setting 'orthorhombic'
loop_
_space_group_symop_operation_xyz
x,y,z
-x,-y,1/2+z
x,1/2-y,-z
-x,1/2+y,1/2-z
-x,-y,-z
x,y,1/2-z
-x,1/2+y,z
x,1/2-y,1/2+z
loop_
_atom_site_type_symbol
_atom_site_label
_atom_site_fract_x
_atom_site_fract_y
_atom_site_fract_z
Si Si1 0.354131 0.395232 0.936079
Si Si2 0.916504 0.564955 0.250000
Si Si3 0.409817 0.734445 0.250000
Si Si4 0.803333 0.596997 0.394716
Si Si5 0.186573 0.065398 0.893737
Si Si6 0.438735 0.418765 0.750000
Si Si7 0.323554 0.628569 0.426561
Si Si8 0.929743 0.920864 0.250000
O O1 0.278502 0.453193 0.895032
O O2 0.402587 0.367737 0.846852
O O3 0.342534 0.250000 0.000000
O O4 0.373405 0.519482 0.011669
O O5 0.864454 0.526858 0.334187
O O6 0.931214 0.741837 0.250000
O O7 0.990959 0.482317 0.250000
O O8 0.480597 0.635856 0.250000
O O9 0.365207 0.697914 0.341565
O O10 0.431386 0.905107 0.250000
O O11 0.796013 0.767434 0.364151
O O12 0.828548 0.580462 0.498800
O O13 0.117216 0.023688 0.836332
O O14 0.255949 0.962718 0.887368
O O15 0.298268 0.750000 0.500000
#
# Coordination Sequence:
#
# PCOD9438436 Si02
#       8
#     8   4   4   8   8   4   8   4
#     4  11  22  43  71  97 121 161 218 262 315 373
#     4  10  21  36  56  82 124 160 197 250 302 366
#     4  12  29  44  62  94 132 172 209 250 318 378
#     4   9  17  36  62  87 111 155 205 249 296 367
#     4   9  18  36  62  86 114 152 205 247 302 365
#     4  12  29  44  62  96 132 168 209 256 310 384
#     4  11  22  43  67  94 127 160 204 272 317 357
#     4  10  21  38  54  84 120 160 199 244 306 368
#
# _framework density 19.379446000000002
#
# number of rings (size 3 to 8) (size 9 to 14) (size 15 to 20)
#    0.000    1.667    5.000    1.000    2.333    2.000 
#    6.000    0.000    0.000    0.000    0.000    0.000 
#    0.000    0.000    0.000    0.000    0.000    0.000 
#
# Total GULP energy -267531.486477 kJ/mol
# GULP energy per Si atom -5573.572635 kJ/mol
# Density = 1.933534 g / cm^3
# Si number density = 19.379446 Si / 1000 Ang^3
#
#
#
# Elastic Constant Matrix: (Units=GPa)
#
#
# Indices 1 2 3 4 5 6 
#
# 1 103.8060 33.5483 63.3235 0.0000 0.0000 0.0000
# 2 33.5483 54.3607 25.4868 0.0000 0.0000 0.0000
# 3 63.3235 25.4868 98.4640 0.0000 0.0000 0.0000
# 4 0.0000 0.0000 0.0000 22.3846 0.0000 0.0000
# 5 0.0000 0.0000 0.0000 0.0000 1048.5595 0.0000
# 6 0.0000 0.0000 0.0000 0.0000 0.0000 31.7577
#
#
#
# Elastic Compliance Matrix: (Units=1/GPa)
#
#
# Indices 1 2 3 4 5 6 
#
# 1 0.017569 -0.006311 -0.009665 0.000000 0.000000 0.000000
# 2 -0.006311 0.023203 -0.001947 0.000000 0.000000 0.000000
# 3 -0.009665 -0.001947 0.016876 0.000000 0.000000 0.000000
# 4 0.000000 0.000000 0.000000 0.044674 0.000000 0.000000
# 5 0.000000 0.000000 0.000000 0.000000 0.000954 0.000000
# 6 0.000000 0.000000 0.000000 0.000000 0.000000 0.031488
#
#
# Mechanical properties :
#
#
# Convention : Reuss Voigt Hill
#
# Bulk Modulus (GPa) = 45.86940 55.70530 50.78735
# Shear Modulus (GPa) = 28.10912 229.49182 128.80047
#
# Velocity S-wave (km/s) = 3.81262 10.89391 8.16129
# Velocity P-wave (km/s) = 6.56521 13.67638 10.72719
#
# Compressibility (1/GPa) = 0.02180103
#
# Stress axis : x y z
#
# Youngs Moduli (GPa) = 56.91872 43.09707 59.25609
#
# Poissons Ratio (x) = 0.27199 0.57272
# Poissons Ratio (y) = 0.35921 0.11539
# Poissons Ratio (z) = 0.55013 0.08393
#
# Static dielectric constant tensor:
#      x y z
#    x 1.650620 0.000000 0.000000 
#    y 0.000000 1.726500 0.000000 
#    z 0.000000 0.000000 1.584690 
# 
# From -- ./inp_files/19034.got.cif
#   From: 2010.05.17/outbox.cif.g08.bks.cpg/sg57_10_cif.got.tgz:19034.got - 2010.06.03 13:58:18.
