data_PCOD9438226
_publ_section_title
;
Structure prediction by ZEFSAII (Michael W. Deem and Ramdas Pophale) SiO2 
 PCOD9438226
Probable space group: P B C M
;
_chemical_formula_sum "Si O2"
_cell_formula_units_Z 64
_cell_length_a 6.889732
_cell_length_b 14.668022
_cell_length_c 21.716106
_cell_angle_alpha 90.000000
_cell_angle_beta 90.000000
_cell_angle_gamma 90.000000
_cell_volume 2194.602322
_symmetry_space_group_name_H-M "P B C M"
_symmetry_group_IT_number 57
_symmetry_cell_setting 'orthorhombic'
loop_
_space_group_symop_operation_xyz
x,y,z
-x,-y,1/2+z
x,1/2-y,-z
-x,1/2+y,1/2-z
-x,-y,-z
x,y,1/2-z
-x,1/2+y,z
x,1/2-y,1/2+z
loop_
_atom_site_type_symbol
_atom_site_label
_atom_site_fract_x
_atom_site_fract_y
_atom_site_fract_z
Si Si1 0.270907 0.097078 0.574830
Si Si2 0.765693 0.099367 0.574557
Si Si3 0.749769 0.458649 0.684674
Si Si4 0.628991 0.774936 0.643349
Si Si5 0.483448 0.645388 0.018567
Si Si6 0.755400 0.261952 0.183936
Si Si7 0.868832 0.930994 0.646533
Si Si8 0.984123 0.641563 0.015563
O O1 0.256838 0.195020 0.608756
O O2 0.520907 0.100545 0.555202
O O3 0.016570 0.084375 0.554008
O O4 0.298203 0.014956 0.623312
O O5 0.801984 0.185532 0.620421
O O6 0.764471 0.117465 0.493442
O O7 0.745569 0.010161 0.616277
O O8 0.650137 0.481920 0.750000
O O9 0.763199 0.348286 0.681436
O O10 0.977300 0.481285 0.687632
O O11 0.519399 0.838826 0.591859
O O12 0.475833 0.723540 0.684435
O O13 0.758133 0.848273 0.677623
O O14 0.730151 0.616657 0.003468
O O15 0.472875 0.750000 0.000000
O O16 0.842997 0.290779 0.250000
O O17 0.969786 0.883107 0.586993
O O18 0.986073 0.750000 0.000000
#
# Coordination Sequence:
#
# PCOD9438226 Si02
#       8
#     8   8   8   8   8   8   8   8
#     4  11  21  44  68  98 138 178 219 281 349 409
#     4  12  25  41  67 104 138 186 224 286 346 413
#     4  11  28  49  68  96 135 183 241 288 337 412
#     4  11  24  44  71 105 141 178 223 287 346 419
#     4  10  20  40  65 102 140 169 218 272 347 406
#     4  11  27  49  70  95 134 189 242 289 342 411
#     4  12  26  42  70 105 140 179 230 283 353 416
#     4  12  22  40  68 106 144 179 219 281 352 425
#
# _framework density 29.162455999999999
#
# number of rings (size 3 to 8) (size 9 to 14) (size 15 to 20)
#    0.000    0.750    6.250    1.875    3.500    2.000 
#    0.000    0.000    0.000    0.000    0.000    0.000 
#    0.000    0.000    0.000    0.000    0.000    0.000 
#
# Total GULP energy -356753.883962 kJ/mol
# GULP energy per Si atom -5574.279437 kJ/mol
# Density = 2.909608 g / cm^3
# Si number density = 29.162456 Si / 1000 Ang^3
#
#
#
# Elastic Constant Matrix: (Units=GPa)
#
#
# Indices 1 2 3 4 5 6 
#
# 1 156.9270 1.7080 47.3019 0.0000 0.0000 0.0000
# 2 1.7080 93.8614 30.3468 0.0000 0.0000 0.0000
# 3 47.3019 30.3468 196.3355 0.0000 0.0000 0.0000
# 4 0.0000 0.0000 0.0000 -6.0193 0.0000 0.0000
# 5 0.0000 0.0000 0.0000 0.0000 -83.3498 0.0000
# 6 0.0000 0.0000 0.0000 0.0000 0.0000 62.0013
#
#
#
# Elastic Compliance Matrix: (Units=1/GPa)
#
#
# Indices 1 2 3 4 5 6 
#
# 1 0.006888 0.000433 -0.001726 0.000000 0.000000 0.000000
# 2 0.000433 0.011242 -0.001842 0.000000 0.000000 0.000000
# 3 -0.001726 -0.001842 0.005794 0.000000 0.000000 0.000000
# 4 0.000000 0.000000 0.000000 -0.166133 0.000000 0.000000
# 5 0.000000 0.000000 0.000000 0.000000 -0.011998 0.000000
# 6 0.000000 0.000000 0.000000 0.000000 0.000000 0.016129
#
#
# Mechanical properties :
#
#
# Convention : Reuss Voigt Hill
#
# Bulk Modulus (GPa) = 56.64828 67.31524 61.98176
# Shear Modulus (GPa) = -39.70671 19.04427 -10.33122
#
# Velocity S-wave (km/s) = -3.69395 2.55824 -1.88423
# Velocity P-wave (km/s) = 1.12853 5.64438 4.07017
#
# Compressibility (1/GPa) = 0.01765279
#
# Stress axis : x y z
#
# Youngs Moduli (GPa) = 145.17877 88.95511 172.59415
#
# Poissons Ratio (x) = -0.03850 0.29797
# Poissons Ratio (y) = -0.06284 0.31789
# Poissons Ratio (z) = 0.25064 0.16384
#
# Static dielectric constant tensor:
#      x y z
#    x 2.982030 0.000000 0.000000 
#    y 0.000000 2.117850 0.000000 
#    z 0.000000 0.000000 2.233880 
# 
# From -- ./inp_files/26884.got.cif
#   From: 2010.05.17/outbox.cif.g08.bks.cpg/sg57_14_cif.got.tgz:26884.got - 2010.06.03 13:58:18.
