data_PCOD9438167
_publ_section_title
;
Structure prediction by ZEFSAII (Michael W. Deem and Ramdas Pophale) SiO2 
 PCOD9438167
Probable space group: P B C M
;
_chemical_formula_sum "Si O2"
_cell_formula_units_Z 48
_cell_length_a 8.785775
_cell_length_b 18.087039
_cell_length_c 15.472739
_cell_angle_alpha 90.000000
_cell_angle_beta 90.000000
_cell_angle_gamma 90.000000
_cell_volume 2458.752145
_symmetry_space_group_name_H-M "P B C M"
_symmetry_group_IT_number 57
_symmetry_cell_setting 'orthorhombic'
loop_
_space_group_symop_operation_xyz
x,y,z
-x,-y,1/2+z
x,1/2-y,-z
-x,1/2+y,1/2-z
-x,-y,-z
x,y,1/2-z
-x,1/2+y,z
x,1/2-y,1/2+z
loop_
_atom_site_type_symbol
_atom_site_label
_atom_site_fract_x
_atom_site_fract_y
_atom_site_fract_z
Si Si1 0.843043 0.523614 0.250000
Si Si2 0.157358 0.035043 0.750000
Si Si3 0.792692 0.193835 0.421910
Si Si4 0.648660 0.558490 0.410175
Si Si5 0.276346 0.300172 0.250000
Si Si6 0.998643 0.314400 0.750000
Si Si7 0.561034 0.775873 0.902829
Si Si8 0.710919 0.028828 0.425946
O O1 0.737612 0.519461 0.333474
O O2 0.975467 0.463765 0.250000
O O3 0.928669 0.603368 0.250000
O O4 0.226014 0.116003 0.750000
O O5 0.213132 0.993513 0.836057
O O6 0.835261 0.250000 0.500000
O O7 0.899911 0.195422 0.337716
O O8 0.620220 0.213774 0.392844
O O9 0.778239 0.108531 0.453735
O O10 0.646119 0.645906 0.392617
O O11 0.724638 0.532843 0.499777
O O12 0.470574 0.537322 0.411869
O O13 0.375205 0.280977 0.333959
O O14 0.131613 0.246018 0.250000
O O15 0.587488 0.750000 0.000000
#
# Coordination Sequence:
#
# PCOD9438167 Si02
#       8
#     4   4   8   8   4   4   8   8
#     4  12  23  41  60  89 128 175 201 256 321 385
#     4  12  25  41  61  93 129 168 204 260 323 383
#     4  10  22  41  67  92 124 169 212 255 317 374
#     4  10  21  39  66  91 121 163 212 256 316 368
#     4  12  25  39  61  93 123 164 212 258 315 377
#     4  12  23  43  60  91 132 173 205 250 317 383
#     4  10  20  39  64  92 120 157 209 266 306 364
#     4  10  21  41  66  94 123 162 212 268 312 370
#
# _framework density 19.522096999999999
#
# number of rings (size 3 to 8) (size 9 to 14) (size 15 to 20)
#    0.000    1.333    3.333    2.000    0.000    6.667 
#    3.000    1.667    0.000    0.000    0.000    0.000 
#    0.000    0.000    0.000    0.000    0.000    0.000 
#
# Total GULP energy -268225.532884 kJ/mol
# GULP energy per Si atom -5588.031935 kJ/mol
# Density = 1.947766 g / cm^3
# Si number density = 19.522097 Si / 1000 Ang^3
#
#
#
# Elastic Constant Matrix: (Units=GPa)
#
#
# Indices 1 2 3 4 5 6 
#
# 1 9.6044 -9.8181 15.6570 0.0000 0.0000 0.0000
# 2 -9.8181 61.5363 -0.2227 0.0000 0.0000 0.0000
# 3 15.6570 -0.2227 97.1966 0.0000 0.0000 0.0000
# 4 0.0000 0.0000 0.0000 31.0903 0.0000 0.0000
# 5 0.0000 0.0000 0.0000 0.0000 238.4328 0.0000
# 6 0.0000 0.0000 0.0000 0.0000 0.0000 22.4007
#
#
#
# Elastic Compliance Matrix: (Units=1/GPa)
#
#
# Indices 1 2 3 4 5 6 
#
# 1 0.180921 0.028761 -0.029078 0.000000 0.000000 0.000000
# 2 0.028761 0.020823 -0.004585 0.000000 0.000000 0.000000
# 3 -0.029078 -0.004585 0.014962 0.000000 0.000000 0.000000
# 4 0.000000 0.000000 0.000000 0.032164 0.000000 0.000000
# 5 0.000000 0.000000 0.000000 0.000000 0.004194 0.000000
# 6 0.000000 0.000000 0.000000 0.000000 0.000000 0.044641
#
#
# Mechanical properties :
#
#
# Convention : Reuss Voigt Hill
#
# Bulk Modulus (GPa) = 4.83323 19.95218 12.39271
# Shear Modulus (GPa) = 13.28102 69.23286 41.25694
#
# Velocity S-wave (km/s) = 2.61110 5.96161 4.60210
# Velocity P-wave (km/s) = 3.40171 7.59146 5.88226
#
# Compressibility (1/GPa) = 0.20690102
#
# Stress axis : x y z
#
# Youngs Moduli (GPa) = 5.52727 48.02444 66.83629
#
# Poissons Ratio (x) = -1.38122 1.94346
# Poissons Ratio (y) = -0.15897 0.30646
# Poissons Ratio (z) = 0.16072 0.22020
#
# Static dielectric constant tensor:
#      x y z
#    x 1.671770 0.000000 0.000000 
#    y 0.000000 1.691930 0.000000 
#    z 0.000000 0.000000 1.651010 
# 
# From -- ./inp_files/16471.got.cif
#   From: 2010.05.17/outbox.cif.g08.bks.cpg/sg57_9_cif.got.tgz:16471.got - 2010.06.03 13:58:18.
