data_PCOD9438497
_publ_section_title
;
Structure prediction by ZEFSAII (Michael W. Deem and Ramdas Pophale) SiO2 
 PCOD9438497
Probable space group: P B C M
;
_chemical_formula_sum "Si O2"
_cell_formula_units_Z 56
_cell_length_a 15.064509
_cell_length_b 23.079310
_cell_length_c 8.836776
_cell_angle_alpha 90.000000
_cell_angle_beta 90.000000
_cell_angle_gamma 90.000000
_cell_volume 3072.356788
_symmetry_space_group_name_H-M "P B C M"
_symmetry_group_IT_number 57
_symmetry_cell_setting 'orthorhombic'
loop_
_space_group_symop_operation_xyz
x,y,z
-x,-y,1/2+z
x,1/2-y,-z
-x,1/2+y,1/2-z
-x,-y,-z
x,y,1/2-z
-x,1/2+y,z
x,1/2-y,1/2+z
loop_
_atom_site_type_symbol
_atom_site_label
_atom_site_fract_x
_atom_site_fract_y
_atom_site_fract_z
Si Si1 0.798400 0.598287 0.572326
Si Si2 0.066380 0.312268 0.570287
Si Si3 0.616605 0.951135 0.067665
Si Si4 0.308860 0.688838 0.567701
Si Si5 0.907242 0.019708 0.427246
Si Si6 0.414735 0.574183 0.932437
Si Si7 0.882577 0.142121 0.931227
O O1 0.800899 0.615306 0.750000
O O2 0.858856 0.642066 0.479444
O O3 0.696958 0.590564 0.520962
O O4 0.841456 0.534480 0.561888
O O5 0.087246 0.250000 0.500000
O O6 0.060747 0.308603 0.750000
O O7 0.971506 0.332835 0.505115
O O8 0.620613 0.955834 0.250000
O O9 0.519095 0.927774 0.025846
O O10 0.626365 0.015526 0.000334
O O11 0.338182 0.750000 0.500000
O O12 0.313549 0.691697 0.750000
O O13 0.366381 0.633073 0.518428
O O14 0.206251 0.676591 0.525652
O O15 0.920289 0.033695 0.250000
O O16 0.873062 0.076087 0.513755
O O17 0.000000 0.000000 0.500000
O O18 0.408390 0.570969 0.750000
O O19 0.892003 0.143543 0.750000
#
# Coordination Sequence:
#
# PCOD9438497 Si02
#       7
#     8   8   8   8   8   8   8
#     4  10  21  37  56  81 113 146 183 227 272 325
#     4  12  25  40  58  77 104 144 187 229 275 326
#     4   9  18  34  59  86 112 144 180 224 277 330
#     4  10  22  37  55  80 111 149 186 229 276 328
#     4  11  21  33  53  81 113 147 184 227 278 325
#     4   9  18  35  57  84 115 144 179 225 278 330
#     4  11  22  37  56  80 112 146 186 229 275 330
#
# _framework density 18.227049999999998
#
# number of rings (size 3 to 8) (size 9 to 14) (size 15 to 20)
#    0.000    1.714    1.429    3.429    0.000    4.000 
#    0.000    0.714    0.000    1.714    0.000    0.000 
#    0.000    0.000    0.000    0.000    0.000    0.000 
#
# Total GULP energy -312842.861007 kJ/mol
# GULP energy per Si atom -5586.479661 kJ/mol
# Density = 1.818556 g / cm^3
# Si number density = 18.227050 Si / 1000 Ang^3
#
#
#
# Elastic Constant Matrix: (Units=GPa)
#
#
# Indices 1 2 3 4 5 6 
#
# 1 106.4194 59.2532 39.5488 0.0000 0.0000 0.0000
# 2 59.2532 114.9367 32.9905 0.0000 0.0000 0.0000
# 3 39.5488 32.9905 54.0690 0.0000 0.0000 0.0000
# 4 0.0000 0.0000 0.0000 35.3464 0.0000 0.0000
# 5 0.0000 0.0000 0.0000 0.0000 14.1060 0.0000
# 6 0.0000 0.0000 0.0000 0.0000 0.0000 21.2820
#
#
#
# Elastic Compliance Matrix: (Units=1/GPa)
#
#
# Indices 1 2 3 4 5 6 
#
# 1 0.015509 -0.005745 -0.007838 0.000000 0.000000 0.000000
# 2 -0.005745 0.012676 -0.003532 0.000000 0.000000 0.000000
# 3 -0.007838 -0.003532 0.026383 0.000000 0.000000 0.000000
# 4 0.000000 0.000000 0.000000 0.028291 0.000000 0.000000
# 5 0.000000 0.000000 0.000000 0.000000 0.070892 0.000000
# 6 0.000000 0.000000 0.000000 0.000000 0.000000 0.046988
#
#
# Mechanical properties :
#
#
# Convention : Reuss Voigt Hill
#
# Bulk Modulus (GPa) = 49.17181 59.89002 54.53092
# Shear Modulus (GPa) = 20.68256 23.72237 22.20246
#
# Velocity S-wave (km/s) = 3.37221 3.61153 3.49392
# Velocity P-wave (km/s) = 6.49603 7.09366 6.80141
#
# Compressibility (1/GPa) = 0.02033686
#
# Stress axis : x y z
#
# Youngs Moduli (GPa) = 64.48001 78.88848 37.90288
#
# Poissons Ratio (x) = 0.45324 0.29709
# Poissons Ratio (y) = 0.37046 0.13387
# Poissons Ratio (z) = 0.50541 0.27863
#
# Static dielectric constant tensor:
#      x y z
#    x 1.640000 0.000000 0.000000 
#    y 0.000000 1.589780 0.000000 
#    z 0.000000 0.000000 1.612150 
# 
# From -- ./inp_files/5252.got.cif
#   From: 2010.05.17/outbox.cif.g08.bks.cpg/sg57_3_cif.got.tgz:5252.got - 2010.06.03 13:58:18.
