data_PCOD9438819
_publ_section_title
;
Structure prediction by ZEFSAII (Michael W. Deem and Ramdas Pophale) SiO2 
 PCOD9438819
Probable space group: P B C M
;
_chemical_formula_sum "Si O2"
_cell_formula_units_Z 40
_cell_length_a 18.695756
_cell_length_b 9.255609
_cell_length_c 10.772584
_cell_angle_alpha 90.000000
_cell_angle_beta 90.000000
_cell_angle_gamma 90.000000
_cell_volume 1864.094480
_symmetry_space_group_name_H-M "P B C M"
_symmetry_group_IT_number 57
_symmetry_cell_setting 'orthorhombic'
loop_
_space_group_symop_operation_xyz
x,y,z
-x,-y,1/2+z
x,1/2-y,-z
-x,1/2+y,1/2-z
-x,-y,-z
x,y,1/2-z
-x,1/2+y,z
x,1/2-y,1/2+z
loop_
_atom_site_type_symbol
_atom_site_label
_atom_site_fract_x
_atom_site_fract_y
_atom_site_fract_z
Si Si1 0.112221 0.082576 0.035157
Si Si2 0.265873 0.131860 0.388739
Si Si3 0.615099 0.088416 0.969974
Si Si4 0.041314 0.860364 0.614653
Si Si5 0.542736 0.856451 0.384567
O O1 0.187929 0.056733 0.098257
O O2 0.038021 0.068991 0.110297
O O3 0.114397 0.250000 0.000000
O O4 0.098937 0.983779 0.915205
O O5 0.272776 0.250000 0.500000
O O6 0.270344 0.196885 0.250000
O O7 0.326062 0.010557 0.405947
O O8 0.541060 0.104095 0.893871
O O9 0.640214 0.250000 0.000000
O O10 0.588761 0.000019 0.091472
O O11 0.046031 0.750000 0.500000
O O12 0.051928 0.794220 0.750000
O O13 0.556797 0.750000 0.500000
O O14 0.558105 0.791877 0.250000
#
# Coordination Sequence:
#
# PCOD9438819 Si02
#       5
#     8   8   8   8   8
#     4   9  21  38  60  87 119 159 204 249 297 353
#     4  11  24  42  63  88 121 162 205 248 298 358
#     4  10  23  39  61  91 124 158 199 249 303 358
#     4  10  21  38  62  92 124 157 199 252 308 365
#     4  10  22  41  65  91 120 157 202 250 301 360
#
# _framework density 21.458138000000002
#
# number of rings (size 3 to 8) (size 9 to 14) (size 15 to 20)
#    0.000    2.000    0.000    1.800    0.000   24.000 
#    0.000    0.000    0.000    0.000    0.000    0.000 
#    0.000    0.000    0.000    0.000    0.000    0.000 
#
# Total GULP energy -223259.412633 kJ/mol
# GULP energy per Si atom -5581.485316 kJ/mol
# Density = 2.140930 g / cm^3
# Si number density = 21.458138 Si / 1000 Ang^3
#
#
#
# Elastic Constant Matrix: (Units=GPa)
#
#
# Indices 1 2 3 4 5 6 
#
# 1 107.1457 40.2130 33.7331 0.0000 0.0000 0.0000
# 2 40.2130 100.7307 56.2119 0.0000 0.0000 0.0000
# 3 33.7331 56.2119 190.3097 0.0000 0.0000 0.0000
# 4 0.0000 0.0000 0.0000 28.2845 0.0000 0.0000
# 5 0.0000 0.0000 0.0000 0.0000 -39.7055 0.0000
# 6 0.0000 0.0000 0.0000 0.0000 0.0000 68.6624
#
#
#
# Elastic Compliance Matrix: (Units=1/GPa)
#
#
# Indices 1 2 3 4 5 6 
#
# 1 0.011075 -0.003982 -0.000787 0.000000 0.000000 0.000000
# 2 -0.003982 0.013319 -0.003228 0.000000 0.000000 0.000000
# 3 -0.000787 -0.003228 0.006348 0.000000 0.000000 0.000000
# 4 0.000000 0.000000 0.000000 0.035355 0.000000 0.000000
# 5 0.000000 0.000000 0.000000 0.000000 -0.025185 0.000000
# 6 0.000000 0.000000 0.000000 0.000000 0.000000 0.014564
#
#
# Mechanical properties :
#
#
# Convention : Reuss Voigt Hill
#
# Bulk Modulus (GPa) = 67.81011 73.16688 70.48849
# Shear Modulus (GPa) = 65.45740 29.31682 47.38711
#
# Velocity S-wave (km/s) = 5.52910 3.70027 4.70441
# Velocity P-wave (km/s) = 8.51064 7.24068 7.90122
#
# Compressibility (1/GPa) = 0.01474706
#
# Stress axis : x y z
#
# Youngs Moduli (GPa) = 90.28981 75.08267 157.54120
#
# Poissons Ratio (x) = 0.29900 0.12397
# Poissons Ratio (y) = 0.35956 0.50855
# Poissons Ratio (z) = 0.07105 0.24237
#
# Static dielectric constant tensor:
#      x y z
#    x 1.795560 0.000000 0.000000 
#    y 0.000000 1.800980 0.000000 
#    z 0.000000 0.000000 1.809590 
# 
# From -- ./inp_files/14030.got.cif
#   From: 2010.05.17/outbox.cif.g08.bks.cpg/sg57_8_cif.got.tgz:14030.got - 2010.06.03 13:58:18.
