data_PCOD9438208
_publ_section_title
;
Structure prediction by ZEFSAII (Michael W. Deem and Ramdas Pophale) SiO2 
 PCOD9438208
Probable space group: P B C M
;
_chemical_formula_sum "Si O2"
_cell_formula_units_Z 40
_cell_length_a 10.400766
_cell_length_b 9.434149
_cell_length_c 17.945386
_cell_angle_alpha 90.000000
_cell_angle_beta 90.000000
_cell_angle_gamma 90.000000
_cell_volume 1760.843915
_symmetry_space_group_name_H-M "P B C M"
_symmetry_group_IT_number 57
_symmetry_cell_setting 'orthorhombic'
loop_
_space_group_symop_operation_xyz
x,y,z
-x,-y,1/2+z
x,1/2-y,-z
-x,1/2+y,1/2-z
-x,-y,-z
x,y,1/2-z
-x,1/2+y,z
x,1/2-y,1/2+z
loop_
_atom_site_type_symbol
_atom_site_label
_atom_site_fract_x
_atom_site_fract_y
_atom_site_fract_z
Si Si1 0.753953 0.643175 0.070315
Si Si2 0.598100 0.658079 0.662649
Si Si3 0.858825 0.015747 0.160738
Si Si4 0.400162 0.603236 0.957821
Si Si5 0.981630 0.236249 0.911087
O O1 0.647123 0.693963 0.128202
O O2 0.731447 0.483056 0.046599
O O3 0.891215 0.669344 0.104572
O O4 0.740813 0.750000 0.000000
O O5 0.583189 0.664924 0.750000
O O6 0.716083 0.548753 0.645508
O O7 0.466283 0.624320 0.621683
O O8 0.879936 0.007342 0.250000
O O9 0.962537 0.914135 0.118004
O O10 0.871911 0.177552 0.132398
O O11 0.389302 0.750000 0.000000
O O12 0.500000 0.500000 0.000000
O O13 0.960621 0.250000 0.000000
#
# Coordination Sequence:
#
# PCOD9438208 Si02
#       5
#     8   8   8   8   8
#     4  10  20  40  62  86 119 158 201 249 305 359
#     4  10  21  37  61  87 121 161 200 245 302 362
#     4  10  21  40  62  87 123 163 200 247 312 369
#     4  12  21  40  64  88 119 162 201 247 302 360
#     4  10  21  39  62  91 120 156 208 256 300 362
#
# _framework density 22.716380999999998
#
# number of rings (size 3 to 8) (size 9 to 14) (size 15 to 20)
#    0.000    1.600    4.000    1.200    0.000    1.600 
#    3.600    1.000    0.000    0.000    0.000    0.000 
#    0.000    0.000    0.000    0.000    0.000    0.000 
#
# Total GULP energy -223618.630907 kJ/mol
# GULP energy per Si atom -5590.465773 kJ/mol
# Density = 2.266468 g / cm^3
# Si number density = 22.716381 Si / 1000 Ang^3
#
#
#
# Elastic Constant Matrix: (Units=GPa)
#
#
# Indices 1 2 3 4 5 6 
#
# 1 26.1403 11.6968 -1.4993 0.0000 0.0000 0.0000
# 2 11.6968 93.6922 -6.1241 0.0000 0.0000 0.0000
# 3 -1.4993 -6.1241 87.0502 0.0000 0.0000 0.0000
# 4 0.0000 0.0000 0.0000 26.7148 0.0000 0.0000
# 5 0.0000 0.0000 0.0000 0.0000 20.8926 0.0000
# 6 0.0000 0.0000 0.0000 0.0000 0.0000 32.3646
#
#
#
# Elastic Compliance Matrix: (Units=1/GPa)
#
#
# Indices 1 2 3 4 5 6 
#
# 1 0.040529 -0.005037 0.000344 0.000000 0.000000 0.000000
# 2 -0.005037 0.011349 0.000712 0.000000 0.000000 0.000000
# 3 0.000344 0.000712 0.011544 0.000000 0.000000 0.000000
# 4 0.000000 0.000000 0.000000 0.037432 0.000000 0.000000
# 5 0.000000 0.000000 0.000000 0.000000 0.047864 0.000000
# 6 0.000000 0.000000 0.000000 0.000000 0.000000 0.030898
#
#
# Mechanical properties :
#
#
# Convention : Reuss Voigt Hill
#
# Bulk Modulus (GPa) = 18.03194 23.89215 20.96204
# Shear Modulus (GPa) = 24.26420 29.51502 26.88961
#
# Velocity S-wave (km/s) = 3.27178 3.60847 3.44424
# Velocity P-wave (km/s) = 4.71464 5.28222 5.00648
#
# Compressibility (1/GPa) = 0.05545716
#
# Stress axis : x y z
#
# Youngs Moduli (GPa) = 24.67380 88.11643 86.62803
#
# Poissons Ratio (x) = 0.44386 -0.02977
# Poissons Ratio (y) = 0.12429 -0.06165
# Poissons Ratio (z) = -0.00848 -0.06271
#
# Static dielectric constant tensor:
#      x y z
#    x 1.884350 0.000000 0.000000 
#    y 0.000000 1.903380 0.000000 
#    z 0.000000 0.000000 1.708520 
# 
# From -- ./inp_files/24855.got.cif
#   From: 2010.05.17/outbox.cif.g08.bks.cpg/sg57_13_cif.got.tgz:24855.got - 2010.06.03 13:58:18.
