data_PCOD9438296
_publ_section_title
;
Structure prediction by ZEFSAII (Michael W. Deem and Ramdas Pophale) SiO2 
 PCOD9438296
Probable space group: P B C M
;
_chemical_formula_sum "Si O2"
_cell_formula_units_Z 40
_cell_length_a 14.297170
_cell_length_b 9.497780
_cell_length_c 13.987810
_cell_angle_alpha 90.000000
_cell_angle_beta 90.000000
_cell_angle_gamma 90.000000
_cell_volume 1899.423957
_symmetry_space_group_name_H-M "P B C M"
_symmetry_group_IT_number 57
_symmetry_cell_setting 'orthorhombic'
loop_
_space_group_symop_operation_xyz
x,y,z
-x,-y,1/2+z
x,1/2-y,-z
-x,1/2+y,1/2-z
-x,-y,-z
x,y,1/2-z
-x,1/2+y,z
x,1/2-y,1/2+z
loop_
_atom_site_type_symbol
_atom_site_label
_atom_site_fract_x
_atom_site_fract_y
_atom_site_fract_z
Si Si1 0.128807 0.342653 0.750000
Si Si2 0.082623 0.901287 0.963353
Si Si3 0.248285 0.503886 0.904902
Si Si4 0.568688 0.890880 0.545730
Si Si5 0.066846 0.493726 0.250000
Si Si6 0.499021 0.924069 0.750000
Si Si7 0.369835 0.825531 0.250000
O O1 0.193403 0.389280 0.839814
O O2 0.042494 0.455479 0.750000
O O3 0.091458 0.177563 0.750000
O O4 0.100489 0.935006 0.850661
O O5 0.048822 0.750000 0.000000
O O6 0.174461 0.925256 0.026128
O O7 0.000000 0.000000 0.000000
O O8 0.324777 0.428760 0.970213
O O9 0.307394 0.615976 0.839319
O O10 0.538840 0.750000 0.500000
O O11 0.552838 0.875844 0.657056
O O12 0.500000 0.000000 0.500000
O O13 0.399414 0.840155 0.750000
O O14 0.528933 0.091131 0.750000
#
# Coordination Sequence:
#
# PCOD9438296 Si02
#       7
#     4   8   8   8   4   4   4
#     4  11  24  44  75 102 144 181 242 295 365 435
#     4  12  27  46  72 103 148 191 243 301 365 429
#     4  10  24  42  68 101 146 187 230 298 358 420
#     4  11  24  42  70  99 138 184 233 285 358 420
#     4  12  26  43  77 105 137 192 244 286 364 437
#     4  10  20  42  68  95 129 174 230 282 346 410
#     4   9  20  41  72  98 136 183 228 289 361 416
#
# _framework density 21.059017000000001
#
# number of rings (size 3 to 8) (size 9 to 14) (size 15 to 20)
#    0.000    1.200    2.000    4.200    2.800    3.200 
#    0.000    1.000    0.000    0.000    0.000    0.000 
#    0.000    0.000    0.000    0.000    0.000    0.000 
#
# Total GULP energy -222785.738103 kJ/mol
# GULP energy per Si atom -5569.643453 kJ/mol
# Density = 2.101109 g / cm^3
# Si number density = 21.059017 Si / 1000 Ang^3
#
#
#
# Elastic Constant Matrix: (Units=GPa)
#
#
# Indices 1 2 3 4 5 6 
#
# 1 98.2548 87.5155 30.4989 0.0000 0.0000 0.0000
# 2 87.5155 136.0041 40.6243 0.0000 0.0000 0.0000
# 3 30.4989 40.6243 97.0600 0.0000 0.0000 0.0000
# 4 0.0000 0.0000 0.0000 12.1062 0.0000 0.0000
# 5 0.0000 0.0000 0.0000 0.0000 -28.2677 0.0000
# 6 0.0000 0.0000 0.0000 0.0000 0.0000 37.1694
#
#
#
# Elastic Compliance Matrix: (Units=1/GPa)
#
#
# Indices 1 2 3 4 5 6 
#
# 1 0.023971 -0.015057 -0.001230 0.000000 0.000000 0.000000
# 2 -0.015057 0.017862 -0.002744 0.000000 0.000000 0.000000
# 3 -0.001230 -0.002744 0.011838 0.000000 0.000000 0.000000
# 4 0.000000 0.000000 0.000000 0.082602 0.000000 0.000000
# 5 0.000000 0.000000 0.000000 0.000000 -0.035376 0.000000
# 6 0.000000 0.000000 0.000000 0.000000 0.000000 0.026904
#
#
# Mechanical properties :
#
#
# Convention : Reuss Voigt Hill
#
# Bulk Modulus (GPa) = 64.07466 72.06625 68.07046
# Shear Modulus (GPa) = 29.22835 15.71362 22.47098
#
# Velocity S-wave (km/s) = 3.72953 2.73458 3.27011
# Velocity P-wave (km/s) = 7.00272 6.65326 6.83023
#
# Compressibility (1/GPa) = 0.01560679
#
# Stress axis : x y z
#
# Youngs Moduli (GPa) = 41.71698 55.98609 84.47276
#
# Poissons Ratio (x) = 0.84300 0.10391
# Poissons Ratio (y) = 0.62815 0.23184
# Poissons Ratio (z) = 0.05132 0.15365
#
# Static dielectric constant tensor:
#      x y z
#    x 1.681190 0.000000 0.000000 
#    y 0.000000 1.910080 0.000000 
#    z 0.000000 0.000000 1.766360 
# 
# From -- ./inp_files/18307.got.cif
#   From: 2010.05.17/outbox.cif.g08.bks.cpg/sg57_10_cif.got.tgz:18307.got - 2010.06.03 13:58:18.
