data_PCOD9438756
_publ_section_title
;
Structure prediction by ZEFSAII (Michael W. Deem and Ramdas Pophale) SiO2 
 PCOD9438756
Probable space group: P B C M
;
_chemical_formula_sum "Si O2"
_cell_formula_units_Z 56
_cell_length_a 4.949862
_cell_length_b 33.712393
_cell_length_c 14.029437
_cell_angle_alpha 90.000000
_cell_angle_beta 90.000000
_cell_angle_gamma 90.000000
_cell_volume 2341.115905
_symmetry_space_group_name_H-M "P B C M"
_symmetry_group_IT_number 57
_symmetry_cell_setting 'orthorhombic'
loop_
_space_group_symop_operation_xyz
x,y,z
-x,-y,1/2+z
x,1/2-y,-z
-x,1/2+y,1/2-z
-x,-y,-z
x,y,1/2-z
-x,1/2+y,z
x,1/2-y,1/2+z
loop_
_atom_site_type_symbol
_atom_site_label
_atom_site_fract_x
_atom_site_fract_y
_atom_site_fract_z
Si Si1 0.441362 0.016612 0.359559
Si Si2 0.834546 0.275953 0.864319
Si Si3 0.664130 0.729337 0.635919
Si Si4 0.032186 0.141971 0.447363
Si Si5 0.940540 0.444221 0.947347
Si Si6 0.742936 0.934099 0.143375
Si Si7 0.471402 0.644161 0.931787
O O1 0.471065 0.030352 0.250000
O O2 0.140228 0.025198 0.394891
O O3 0.639853 0.040683 0.429820
O O4 0.540420 0.971423 0.361205
O O5 0.828125 0.275802 0.750000
O O6 0.538090 0.263876 0.898342
O O7 0.037214 0.240948 0.896259
O O8 0.944422 0.318399 0.894760
O O9 0.668594 0.730960 0.750000
O O10 0.554772 0.686311 0.610522
O O11 0.967769 0.099520 0.401576
O O12 0.347820 0.141677 0.472229
O O13 0.843361 0.142573 0.542635
O O14 0.048917 0.439256 0.055438
O O15 0.866940 0.934000 0.250000
O O16 0.575202 0.893479 0.127840
#
# Coordination Sequence:
#
# PCOD9438756 Si02
#       7
#     8   8   8   8   8   8   8
#     4  11  24  42  68  97 127 169 216 262 323 385
#     4  10  22  39  59  85 118 157 202 251 306 371
#     4  10  21  38  60  87 119 157 199 248 308 368
#     4  11  24  40  60  89 120 160 206 252 313 368
#     4  11  23  44  65  95 133 167 213 269 318 380
#     4  10  23  43  67  96 130 171 214 262 323 387
#     4  11  23  40  61  89 123 158 203 256 307 373
#
# _framework density 23.920214000000001
#
# number of rings (size 3 to 8) (size 9 to 14) (size 15 to 20)
#    0.000    1.429    0.000    5.143    0.000    6.857 
#    0.000   15.714    0.000    0.000    0.000    0.000 
#    0.000    0.000    0.000    0.000    0.000    0.000 
#
# Total GULP energy -313574.533867 kJ/mol
# GULP energy per Si atom -5599.545248 kJ/mol
# Density = 2.386577 g / cm^3
# Si number density = 23.920214 Si / 1000 Ang^3
#
#
#
# Elastic Constant Matrix: (Units=GPa)
#
#
# Indices 1 2 3 4 5 6 
#
# 1 74.6313 5.3043 2.6780 0.0000 0.0000 0.0000
# 2 5.3043 133.9681 6.1931 0.0000 0.0000 0.0000
# 3 2.6780 6.1931 109.3833 0.0000 0.0000 0.0000
# 4 0.0000 0.0000 0.0000 32.1647 0.0000 0.0000
# 5 0.0000 0.0000 0.0000 0.0000 14.0381 0.0000
# 6 0.0000 0.0000 0.0000 0.0000 0.0000 38.7114
#
#
#
# Elastic Compliance Matrix: (Units=1/GPa)
#
#
# Indices 1 2 3 4 5 6 
#
# 1 0.013447 -0.000519 -0.000300 0.000000 0.000000 0.000000
# 2 -0.000519 0.007504 -0.000412 0.000000 0.000000 0.000000
# 3 -0.000300 -0.000412 0.009173 0.000000 0.000000 0.000000
# 4 0.000000 0.000000 0.000000 0.031090 0.000000 0.000000
# 5 0.000000 0.000000 0.000000 0.000000 0.071235 0.000000
# 6 0.000000 0.000000 0.000000 0.000000 0.000000 0.025832
#
#
# Mechanical properties :
#
#
# Convention : Reuss Voigt Hill
#
# Bulk Modulus (GPa) = 36.14995 38.48150 37.31573
# Shear Modulus (GPa) = 29.41826 37.23667 33.32746
#
# Velocity S-wave (km/s) = 3.51073 3.94979 3.73671
# Velocity P-wave (km/s) = 5.61953 6.07647 5.85246
#
# Compressibility (1/GPa) = 0.02766256
#
# Stress axis : x y z
#
# Youngs Moduli (GPa) = 74.36705 133.26140 109.01745
#
# Poissons Ratio (x) = 0.06910 0.03269
# Poissons Ratio (y) = 0.03856 0.04493
# Poissons Ratio (z) = 0.02230 0.05493
#
# Static dielectric constant tensor:
#      x y z
#    x 1.856360 0.000000 0.000000 
#    y 0.000000 1.900420 0.000000 
#    z 0.000000 0.000000 1.924670 
# 
# From -- ./inp_files/15272.got.cif
#   From: 2010.05.17/outbox.cif.g08.bks.cpg/sg57_8_cif.got.tgz:15272.got - 2010.06.03 13:58:18.
