data_PCOD9438780
_publ_section_title
;
Structure prediction by ZEFSAII (Michael W. Deem and Ramdas Pophale) SiO2 
 PCOD9438780
Probable space group: P B C M
;
_chemical_formula_sum "Si O2"
_cell_formula_units_Z 48
_cell_length_a 14.759288
_cell_length_b 20.791360
_cell_length_c 8.707222
_cell_angle_alpha 90.000000
_cell_angle_beta 90.000000
_cell_angle_gamma 90.000000
_cell_volume 2671.947514
_symmetry_space_group_name_H-M "P B C M"
_symmetry_group_IT_number 57
_symmetry_cell_setting 'orthorhombic'
loop_
_space_group_symop_operation_xyz
x,y,z
-x,-y,1/2+z
x,1/2-y,-z
-x,1/2+y,1/2-z
-x,-y,-z
x,y,1/2-z
-x,1/2+y,z
x,1/2-y,1/2+z
loop_
_atom_site_type_symbol
_atom_site_label
_atom_site_fract_x
_atom_site_fract_y
_atom_site_fract_z
Si Si1 0.558266 0.680453 0.566619
Si Si2 0.942812 0.440585 0.435069
Si Si3 0.936533 0.819654 0.065483
Si Si4 0.258422 0.523066 0.934068
Si Si5 0.447534 0.561797 0.067214
Si Si6 0.746693 0.630352 0.066512
O O1 0.533741 0.750000 0.500000
O O2 0.556563 0.681477 0.750000
O O3 0.492013 0.625332 0.503784
O O4 0.659061 0.662508 0.508907
O O5 0.944966 0.444812 0.250000
O O6 0.838190 0.447663 0.481677
O O7 0.000000 0.500000 0.500000
O O8 0.991093 0.374280 0.480454
O O9 0.932115 0.817230 0.250000
O O10 0.960205 0.750000 0.000000
O O11 0.838835 0.840682 0.000686
O O12 0.269930 0.531596 0.750000
O O13 0.256016 0.446318 0.963137
O O14 0.343150 0.553806 0.020008
O O15 0.458488 0.562649 0.250000
O O16 0.500000 0.500000 0.000000
O O17 0.744138 0.640190 0.250000
#
# Coordination Sequence:
#
# PCOD9438780 Si02
#       6
#     8   8   8   8   8   8
#     4  12  25  42  63  89 124 161 201 249 302 363
#     4  10  21  38  61  87 117 155 198 247 298 352
#     4  11  23  38  58  86 122 160 201 244 298 357
#     4  10  21  38  61  90 122 156 198 250 302 354
#     4  12  24  40  63  91 122 160 203 248 300 357
#     4  11  21  36  61  90 124 159 197 246 303 359
#
# _framework density 17.964424999999999
#
# number of rings (size 3 to 8) (size 9 to 14) (size 15 to 20)
#    0.000    1.000    3.333    4.500    0.000    2.000 
#    0.000    0.833    0.000    2.000    0.000    0.000 
#    0.000    0.000    0.000    0.000    0.000    0.000 
#
# Total GULP energy -268476.820320 kJ/mol
# GULP energy per Si atom -5593.267090 kJ/mol
# Density = 1.792354 g / cm^3
# Si number density = 17.964425 Si / 1000 Ang^3
#
#
#
# Elastic Constant Matrix: (Units=GPa)
#
#
# Indices 1 2 3 4 5 6 
#
# 1 147.9405 92.0276 57.8756 0.0000 0.0000 0.0000
# 2 92.0276 177.1903 78.9492 0.0000 0.0000 0.0000
# 3 57.8756 78.9492 103.1340 0.0000 0.0000 0.0000
# 4 0.0000 0.0000 0.0000 29.3407 0.0000 0.0000
# 5 0.0000 0.0000 0.0000 0.0000 11.9382 0.0000
# 6 0.0000 0.0000 0.0000 0.0000 0.0000 15.7573
#
#
#
# Elastic Compliance Matrix: (Units=1/GPa)
#
#
# Indices 1 2 3 4 5 6 
#
# 1 0.010422 -0.004260 -0.002587 0.000000 0.000000 0.000000
# 2 -0.004260 0.010306 -0.005499 0.000000 0.000000 0.000000
# 3 -0.002587 -0.005499 0.015357 0.000000 0.000000 0.000000
# 4 0.000000 0.000000 0.000000 0.034082 0.000000 0.000000
# 5 0.000000 0.000000 0.000000 0.000000 0.083765 0.000000
# 6 0.000000 0.000000 0.000000 0.000000 0.000000 0.063463
#
#
# Mechanical properties :
#
#
# Convention : Reuss Voigt Hill
#
# Bulk Modulus (GPa) = 87.77287 98.44107 93.10697
# Shear Modulus (GPa) = 20.33473 24.70139 22.51806
#
# Velocity S-wave (km/s) = 3.36809 3.71215 3.54429
# Velocity P-wave (km/s) = 8.00567 8.56096 8.28797
#
# Compressibility (1/GPa) = 0.01139304
#
# Stress axis : x y z
#
# Youngs Moduli (GPa) = 95.95525 97.02904 65.11481
#
# Poissons Ratio (x) = 0.41333 0.16847
# Poissons Ratio (y) = 0.40875 0.35806
# Poissons Ratio (z) = 0.24827 0.53356
#
# Static dielectric constant tensor:
#      x y z
#    x 1.592770 0.000000 0.000000 
#    y 0.000000 1.593950 0.000000 
#    z 0.000000 0.000000 1.600130 
# 
# From -- ./inp_files/4584.got.cif
#   From: 2010.05.17/outbox.cif.g08.bks.cpg/sg57_3_cif.got.tgz:4584.got - 2010.06.03 13:58:18.
