data_PCOD9438175
_publ_section_title
;
Structure prediction by ZEFSAII (Michael W. Deem and Ramdas Pophale) SiO2 
 PCOD9438175
Probable space group: P B C M
;
_chemical_formula_sum "Si O2"
_cell_formula_units_Z 48
_cell_length_a 11.544640
_cell_length_b 9.879083
_cell_length_c 18.149457
_cell_angle_alpha 90.000000
_cell_angle_beta 90.000000
_cell_angle_gamma 90.000000
_cell_volume 2069.953861
_symmetry_space_group_name_H-M "P B C M"
_symmetry_group_IT_number 57
_symmetry_cell_setting 'orthorhombic'
loop_
_space_group_symop_operation_xyz
x,y,z
-x,-y,1/2+z
x,1/2-y,-z
-x,1/2+y,1/2-z
-x,-y,-z
x,y,1/2-z
-x,1/2+y,z
x,1/2-y,1/2+z
loop_
_atom_site_type_symbol
_atom_site_label
_atom_site_fract_x
_atom_site_fract_y
_atom_site_fract_z
Si Si1 0.734494 0.901763 0.480353
Si Si2 0.246695 0.967565 0.670018
Si Si3 0.523190 0.921004 0.665099
Si Si4 0.077652 0.003102 0.426330
Si Si5 0.511648 0.168183 0.932943
Si Si6 0.962658 0.265092 0.664956
O O1 0.768565 0.750000 0.500000
O O2 0.595988 0.905145 0.473877
O O3 0.778829 0.940195 0.399662
O O4 0.792774 0.995035 0.541365
O O5 0.225643 0.032015 0.750000
O O6 0.382228 0.929679 0.666723
O O7 0.162692 0.839434 0.664124
O O8 0.563695 0.917608 0.750000
O O9 0.545053 0.782565 0.620721
O O10 0.564032 0.055383 0.621390
O O11 0.050918 0.875923 0.375855
O O12 0.000000 0.000000 0.500000
O O13 0.047653 0.135987 0.379479
O O14 0.574847 0.250000 0.000000
O O15 0.997230 0.249881 0.750000
#
# Coordination Sequence:
#
# PCOD9438175 Si02
#       6
#     8   8   8   8   8   8
#     4  10  21  39  61  94 131 166 216 263 327 390
#     4   9  20  39  62  89 128 173 218 266 326 389
#     4  10  20  39  65  92 127 175 221 269 327 391
#     4  12  23  40  67  95 127 170 216 266 326 391
#     4  10  21  39  62  93 131 168 217 272 329 388
#     4  11  24  43  65  95 130 170 219 271 322 385
#
# _framework density 23.188922000000002
#
# number of rings (size 3 to 8) (size 9 to 14) (size 15 to 20)
#    0.000    1.667    1.667    3.000    0.000    0.667 
#   12.000    0.833    0.000    2.000    0.000    0.000 
#    0.000    0.000    0.000    0.000    0.000    0.000 
#
# Total GULP energy -268443.483163 kJ/mol
# GULP energy per Si atom -5592.572566 kJ/mol
# Density = 2.313614 g / cm^3
# Si number density = 23.188922 Si / 1000 Ang^3
#
#
#
# Elastic Constant Matrix: (Units=GPa)
#
#
# Indices 1 2 3 4 5 6 
#
# 1 67.0426 13.7566 35.1716 0.0000 0.0000 0.0000
# 2 13.7566 109.4890 80.2940 0.0000 0.0000 0.0000
# 3 35.1716 80.2940 206.7019 0.0000 0.0000 0.0000
# 4 0.0000 0.0000 0.0000 44.8948 0.0000 0.0000
# 5 0.0000 0.0000 0.0000 0.0000 27.6247 0.0000
# 6 0.0000 0.0000 0.0000 0.0000 0.0000 22.9607
#
#
#
# Elastic Compliance Matrix: (Units=1/GPa)
#
#
# Indices 1 2 3 4 5 6 
#
# 1 0.016378 -0.000020 -0.002779 0.000000 0.000000 0.000000
# 2 -0.000020 0.012772 -0.004958 0.000000 0.000000 0.000000
# 3 -0.002779 -0.004958 0.007237 0.000000 0.000000 0.000000
# 4 0.000000 0.000000 0.000000 0.022274 0.000000 0.000000
# 5 0.000000 0.000000 0.000000 0.000000 0.036199 0.000000
# 6 0.000000 0.000000 0.000000 0.000000 0.000000 0.043553
#
#
# Mechanical properties :
#
#
# Convention : Reuss Voigt Hill
#
# Bulk Modulus (GPa) = 47.90903 71.29752 59.60327
# Shear Modulus (GPa) = 31.07836 36.03013 33.55424
#
# Velocity S-wave (km/s) = 3.66488 3.94606 3.80806
# Velocity P-wave (km/s) = 6.21399 7.18157 6.71523
#
# Compressibility (1/GPa) = 0.02087289
#
# Stress axis : x y z
#
# Youngs Moduli (GPa) = 61.05779 78.29839 138.18520
#
# Poissons Ratio (x) = 0.00154 0.38404
# Poissons Ratio (y) = 0.00120 0.68510
# Poissons Ratio (z) = 0.16969 0.38819
#
# Static dielectric constant tensor:
#      x y z
#    x 1.914880 0.000000 0.000000 
#    y 0.000000 1.893020 0.000000 
#    z 0.000000 0.000000 1.870190 
# 
# From -- ./inp_files/22444.got.cif
#   From: 2010.05.17/outbox.cif.g08.bks.cpg/sg57_12_cif.got.tgz:22444.got - 2010.06.03 13:58:18.
