data_PCOD9438399
_publ_section_title
;
Structure prediction by ZEFSAII (Michael W. Deem and Ramdas Pophale) SiO2 
 PCOD9438399
Probable space group: P B C M
;
_chemical_formula_sum "Si O2"
_cell_formula_units_Z 48
_cell_length_a 17.085253
_cell_length_b 18.610854
_cell_length_c 8.502992
_cell_angle_alpha 90.000000
_cell_angle_beta 90.000000
_cell_angle_gamma 90.000000
_cell_volume 2703.706137
_symmetry_space_group_name_H-M "P B C M"
_symmetry_group_IT_number 57
_symmetry_cell_setting 'orthorhombic'
loop_
_space_group_symop_operation_xyz
x,y,z
-x,-y,1/2+z
x,1/2-y,-z
-x,1/2+y,1/2-z
-x,-y,-z
x,y,1/2-z
-x,1/2+y,z
x,1/2-y,1/2+z
loop_
_atom_site_type_symbol
_atom_site_label
_atom_site_fract_x
_atom_site_fract_y
_atom_site_fract_z
Si Si1 0.583588 0.525091 0.559904
Si Si2 0.741573 0.453131 0.941030
Si Si3 0.992872 0.581299 0.062277
Si Si4 0.854449 0.169401 0.440295
Si Si5 0.825042 0.898689 0.439565
Si Si6 0.335393 0.327822 0.060517
O O1 0.500000 0.500000 0.500000
O O2 0.582791 0.524782 0.750000
O O3 0.653963 0.472292 0.506872
O O4 0.609826 0.605509 0.510077
O O5 0.740015 0.452047 0.750000
O O6 0.781665 0.379891 0.994373
O O7 0.796510 0.520839 0.983280
O O8 0.996083 0.577933 0.250000
O O9 0.066015 0.629319 0.007652
O O10 0.909996 0.614015 0.009997
O O11 0.000000 0.500000 0.000000
O O12 0.850607 0.250000 0.500000
O O13 0.854347 0.170037 0.250000
O O14 0.830578 0.896046 0.250000
O O15 0.753811 0.846990 0.489348
O O16 0.335680 0.327442 0.250000
O O17 0.359070 0.250000 0.000000
#
# Coordination Sequence:
#
# PCOD9438399 Si02
#       6
#     8   8   8   8   8   8
#     4   9  18  34  57  81 104 136 173 212 260 313
#     4   8  15  33  55  71  96 134 168 202 255 310
#     4  11  21  33  52  76 103 138 179 219 260 306
#     4  10  21  36  52  72 101 137 175 214 258 304
#     4   9  17  33  54  74  99 134 174 213 255 307
#     4   9  19  34  54  78 108 143 173 211 266 318
#
# _framework density 17.753409999999999
#
# number of rings (size 3 to 8) (size 9 to 14) (size 15 to 20)
#    0.000    2.667    1.667    2.500    0.000    3.333 
#    0.000    7.500    0.000    4.000    0.000    0.000 
#    0.000    0.000    0.000    0.000    0.000    0.000 
#
# Total GULP energy -267623.382182 kJ/mol
# GULP energy per Si atom -5575.487129 kJ/mol
# Density = 1.771300 g / cm^3
# Si number density = 17.753410 Si / 1000 Ang^3
#
#
#
# Elastic Constant Matrix: (Units=GPa)
#
#
# Indices 1 2 3 4 5 6 
#
# 1 163.2426 91.6722 23.4344 0.0000 0.0000 0.0000
# 2 91.6722 146.9966 20.4218 0.0000 0.0000 0.0000
# 3 23.4344 20.4218 10.8303 0.0000 0.0000 0.0000
# 4 0.0000 0.0000 0.0000 27.3158 0.0000 0.0000
# 5 0.0000 0.0000 0.0000 0.0000 29.1711 0.0000
# 6 0.0000 0.0000 0.0000 0.0000 0.0000 20.4748
#
#
#
# Elastic Compliance Matrix: (Units=1/GPa)
#
#
# Indices 1 2 3 4 5 6 
#
# 1 0.010899 -0.004770 -0.014588 0.000000 0.000000 0.000000
# 2 -0.004770 0.011305 -0.010996 0.000000 0.000000 0.000000
# 3 -0.014588 -0.010996 0.144632 0.000000 0.000000 0.000000
# 4 0.000000 0.000000 0.000000 0.036609 0.000000 0.000000
# 5 0.000000 0.000000 0.000000 0.000000 0.034281 0.000000
# 6 0.000000 0.000000 0.000000 0.000000 0.000000 0.048841
#
#
# Mechanical properties :
#
#
# Convention : Reuss Voigt Hill
#
# Bulk Modulus (GPa) = 9.42252 65.79181 37.60717
# Shear Modulus (GPa) = 13.06674 27.76175 20.41425
#
# Velocity S-wave (km/s) = 2.71590 3.95871 3.39466
# Velocity P-wave (km/s) = 3.89279 7.61802 6.04930
#
# Compressibility (1/GPa) = 0.10612871
#
# Stress axis : x y z
#
# Youngs Moduli (GPa) = 91.75268 88.45335 6.91408
#
# Poissons Ratio (x) = 0.42195 0.10086
# Poissons Ratio (y) = 0.43768 0.07603
# Poissons Ratio (z) = 1.33848 0.97262
#
# Static dielectric constant tensor:
#      x y z
#    x 1.606520 0.000000 0.000000 
#    y 0.000000 1.595950 0.000000 
#    z 0.000000 0.000000 1.614870 
# 
# From -- ./inp_files/4684.got.cif
#   From: 2010.05.17/outbox.cif.g08.bks.cpg/sg57_3_cif.got.tgz:4684.got - 2010.06.03 13:58:18.
