data_PCOD9438904
_publ_section_title
;
Structure prediction by ZEFSAII (Michael W. Deem and Ramdas Pophale) SiO2 
 PCOD9438904
Probable space group: P B C M
;
_chemical_formula_sum "Si O2"
_cell_formula_units_Z 64
_cell_length_a 9.366179
_cell_length_b 10.627080
_cell_length_c 31.730316
_cell_angle_alpha 90.000000
_cell_angle_beta 90.000000
_cell_angle_gamma 90.000000
_cell_volume 3158.281240
_symmetry_space_group_name_H-M "P B C M"
_symmetry_group_IT_number 57
_symmetry_cell_setting 'orthorhombic'
loop_
_space_group_symop_operation_xyz
x,y,z
-x,-y,1/2+z
x,1/2-y,-z
-x,1/2+y,1/2-z
-x,-y,-z
x,y,1/2-z
-x,1/2+y,z
x,1/2-y,1/2+z
loop_
_atom_site_type_symbol
_atom_site_label
_atom_site_fract_x
_atom_site_fract_y
_atom_site_fract_z
Si Si1 0.121919 0.521967 0.860284
Si Si2 0.866106 0.679449 0.063681
Si Si3 0.175969 0.080207 0.615992
Si Si4 0.356614 0.024002 0.025907
Si Si5 0.327872 0.682084 0.589303
Si Si6 0.178307 0.886865 0.957387
Si Si7 0.374369 0.034350 0.199820
Si Si8 0.452681 0.300117 0.158589
O O1 0.132635 0.414013 0.895983
O O2 0.194532 0.645263 0.881172
O O3 0.218104 0.483356 0.820990
O O4 0.955790 0.547844 0.853565
O O5 0.875471 0.818481 0.081462
O O6 0.716853 0.654976 0.039518
O O7 0.011362 0.645954 0.039203
O O8 0.306267 0.141215 0.640863
O O9 0.207221 0.960847 0.586569
O O10 0.380993 0.947969 0.069046
O O11 0.500000 0.000000 0.000000
O O12 0.232903 0.963991 0.996961
O O13 0.274433 0.764687 0.550606
O O14 0.450801 0.737062 0.618281
O O15 0.371446 0.029517 0.250000
O O16 0.429609 0.172002 0.184791
O O17 0.467104 0.915840 0.182217
#
# Coordination Sequence:
#
# PCOD9438904 Si02
#       8
#     8   8   8   8   8   8   8   8
#     4   9  20  40  64  89 117 163 207 255 311 385
#     4  10  21  39  61  85 117 167 216 259 318 377
#     4  11  21  38  66  91 119 163 222 264 305 391
#     4  11  24  39  56  85 124 162 217 274 325 368
#     4  10  21  39  62  85 121 167 213 259 317 384
#     4  11  22  38  57  87 123 164 212 272 322 369
#     4  11  23  43  67  99 135 164 203 261 329 396
#     4  11  23  40  70  98 129 172 216 262 322 395
#
# _framework density 20.264187
#
# number of rings (size 3 to 8) (size 9 to 14) (size 15 to 20)
#    0.000    1.500    2.500    2.625    1.750    0.500 
#    4.500    1.250    0.000    0.000    0.000    0.000 
#    0.000    0.000    0.000    0.000    0.000    0.000 
#
# Total GULP energy -357382.843503 kJ/mol
# GULP energy per Si atom -5584.106930 kJ/mol
# Density = 2.021806 g / cm^3
# Si number density = 20.264187 Si / 1000 Ang^3
#
#
#
# Elastic Constant Matrix: (Units=GPa)
#
#
# Indices 1 2 3 4 5 6 
#
# 1 104.4488 21.7844 35.9008 0.0000 0.0000 0.0000
# 2 21.7844 70.2379 13.2883 0.0000 0.0000 0.0000
# 3 35.9008 13.2883 77.3119 0.0000 0.0000 0.0000
# 4 0.0000 0.0000 0.0000 31.6033 0.0000 0.0000
# 5 0.0000 0.0000 0.0000 0.0000 20.0086 0.0000
# 6 0.0000 0.0000 0.0000 0.0000 0.0000 20.1870
#
#
#
# Elastic Compliance Matrix: (Units=1/GPa)
#
#
# Indices 1 2 3 4 5 6 
#
# 1 0.011878 -0.002729 -0.005047 0.000000 0.000000 0.000000
# 2 -0.002729 0.015343 -0.001370 0.000000 0.000000 0.000000
# 3 -0.005047 -0.001370 0.015513 0.000000 0.000000 0.000000
# 4 0.000000 0.000000 0.000000 0.031642 0.000000 0.000000
# 5 0.000000 0.000000 0.000000 0.000000 0.049979 0.000000
# 6 0.000000 0.000000 0.000000 0.000000 0.000000 0.049537
#
#
# Mechanical properties :
#
#
# Convention : Reuss Voigt Hill
#
# Bulk Modulus (GPa) = 40.91112 43.77172 42.34142
# Shear Modulus (GPa) = 24.95874 26.42812 25.69343
#
# Velocity S-wave (km/s) = 3.51332 3.61526 3.56465
# Velocity P-wave (km/s) = 6.05728 6.25094 6.15487
#
# Compressibility (1/GPa) = 0.02444323
#
# Stress axis : x y z
#
# Youngs Moduli (GPa) = 84.19024 65.17651 64.46008
#
# Poissons Ratio (x) = 0.17788 0.32530
# Poissons Ratio (y) = 0.22977 0.08830
# Poissons Ratio (z) = 0.42487 0.08928
#
# Static dielectric constant tensor:
#      x y z
#    x 1.743600 0.000000 0.000000 
#    y 0.000000 1.602930 0.000000 
#    z 0.000000 0.000000 2.115050 
# 
# From -- ./inp_files/29601.got.cif
#   From: 2010.05.17/outbox.cif.g08.bks.cpg/sg57_15_cif.got.tgz:29601.got - 2010.06.03 13:58:18.
