data_PCOD9438724
_publ_section_title
;
Structure prediction by ZEFSAII (Michael W. Deem and Ramdas Pophale) SiO2 
 PCOD9438724
Probable space group: P B C M
;
_chemical_formula_sum "Si O2"
_cell_formula_units_Z 56
_cell_length_a 14.920278
_cell_length_b 22.352057
_cell_length_c 8.228995
_cell_angle_alpha 90.000000
_cell_angle_beta 90.000000
_cell_angle_gamma 90.000000
_cell_volume 2744.360816
_symmetry_space_group_name_H-M "P B C M"
_symmetry_group_IT_number 57
_symmetry_cell_setting 'orthorhombic'
loop_
_space_group_symop_operation_xyz
x,y,z
-x,-y,1/2+z
x,1/2-y,-z
-x,1/2+y,1/2-z
-x,-y,-z
x,y,1/2-z
-x,1/2+y,z
x,1/2-y,1/2+z
loop_
_atom_site_type_symbol
_atom_site_label
_atom_site_fract_x
_atom_site_fract_y
_atom_site_fract_z
Si Si1 0.399714 0.006690 0.063814
Si Si2 0.248309 0.918661 0.050815
Si Si3 0.741748 0.685701 0.058692
Si Si4 0.044812 0.563271 0.553594
Si Si5 0.572918 0.629819 0.938818
Si Si6 0.928496 0.680122 0.945504
Si Si7 0.617986 0.318079 0.054585
O O1 0.403105 0.988934 0.250000
O O2 0.320377 0.967748 0.990347
O O3 0.383921 0.076276 0.040597
O O4 0.500000 0.000000 0.000000
O O5 0.245492 0.919792 0.250000
O O6 0.148203 0.932154 0.995686
O O7 0.295356 0.856106 0.003410
O O8 0.724544 0.681694 0.250000
O O9 0.772936 0.750000 0.000000
O O10 0.650391 0.677816 0.959053
O O11 0.833616 0.652567 0.012128
O O12 0.044160 0.562051 0.750000
O O13 0.000000 0.500000 0.500000
O O14 0.998176 0.626969 0.507771
O O15 0.564213 0.612321 0.750000
O O16 0.475591 0.650688 0.999608
O O17 0.922568 0.683035 0.750000
O O18 0.950914 0.750000 0.000000
O O19 0.614152 0.319229 0.250000
O O20 0.620293 0.250000 0.000000
#
# Coordination Sequence:
#
# PCOD9438724 Si02
#       7
#     8   8   8   8   8   8   8
#     4  11  21  37  60  86 117 156 198 239 294 355
#     4   9  20  41  61  83 117 157 193 239 304 362
#     4  11  22  37  58  86 119 159 199 243 297 357
#     4  10  23  42  65  91 122 157 202 256 314 372
#     4  11  22  37  57  85 122 159 198 246 295 352
#     4  10  21  39  62  90 121 159 204 257 313 374
#     4  10  21  38  59  84 118 158 196 241 292 347
#
# _framework density 20.405480000000001
#
# number of rings (size 3 to 8) (size 9 to 14) (size 15 to 20)
#    0.000    1.714    1.429    3.857    2.000    4.000 
#    0.000    1.429    0.000    0.000    0.000    0.000 
#    0.000    0.000    0.000    0.000    0.000    0.000 
#
# Total GULP energy -311840.565391 kJ/mol
# GULP energy per Si atom -5568.581525 kJ/mol
# Density = 2.035904 g / cm^3
# Si number density = 20.405480 Si / 1000 Ang^3
#
#
#
# Elastic Constant Matrix: (Units=GPa)
#
#
# Indices 1 2 3 4 5 6 
#
# 1 151.3524 54.5624 17.5195 0.0000 0.0000 0.0000
# 2 54.5624 104.0527 7.3162 0.0000 0.0000 0.0000
# 3 17.5195 7.3162 37.2262 0.0000 0.0000 0.0000
# 4 0.0000 0.0000 0.0000 25.1059 0.0000 0.0000
# 5 0.0000 0.0000 0.0000 0.0000 18.7165 0.0000
# 6 0.0000 0.0000 0.0000 0.0000 0.0000 39.0892
#
#
#
# Elastic Compliance Matrix: (Units=1/GPa)
#
#
# Indices 1 2 3 4 5 6 
#
# 1 0.008500 -0.004235 -0.003168 0.000000 0.000000 0.000000
# 2 -0.004235 0.011855 -0.000337 0.000000 0.000000 0.000000
# 3 -0.003168 -0.000337 0.028420 0.000000 0.000000 0.000000
# 4 0.000000 0.000000 0.000000 0.039831 0.000000 0.000000
# 5 0.000000 0.000000 0.000000 0.000000 0.053429 0.000000
# 6 0.000000 0.000000 0.000000 0.000000 0.000000 0.025583
#
#
# Mechanical properties :
#
#
# Convention : Reuss Voigt Hill
#
# Bulk Modulus (GPa) = 30.03402 50.15863 40.09632
# Shear Modulus (GPa) = 25.74718 30.79785 28.27251
#
# Velocity S-wave (km/s) = 3.55600 3.88918 3.72632
# Velocity P-wave (km/s) = 5.62235 6.69342 6.18113
#
# Compressibility (1/GPa) = 0.03329558
#
# Stress axis : x y z
#
# Youngs Moduli (GPa) = 117.64140 84.35454 35.18641
#
# Poissons Ratio (x) = 0.35721 0.11148
# Poissons Ratio (y) = 0.49817 0.01186
# Poissons Ratio (z) = 0.37272 0.02842
#
# Static dielectric constant tensor:
#      x y z
#    x 2.032120 0.000000 0.000000 
#    y 0.000000 0.519270 0.000000 
#    z 0.000000 0.000000 1.710120 
# 
# From -- ./inp_files/5286.got.cif
#   From: 2010.05.17/outbox.cif.g08.bks.cpg/sg57_3_cif.got.tgz:5286.got - 2010.06.03 13:58:18.
