data_PCOD9438546
_publ_section_title
;
Structure prediction by ZEFSAII (Michael W. Deem and Ramdas Pophale) SiO2 
 PCOD9438546
Probable space group: P B C M
;
_chemical_formula_sum "Si O2"
_cell_formula_units_Z 48
_cell_length_a 7.087576
_cell_length_b 13.423866
_cell_length_c 22.122726
_cell_angle_alpha 90.000000
_cell_angle_beta 90.000000
_cell_angle_gamma 90.000000
_cell_volume 2104.815230
_symmetry_space_group_name_H-M "P B C M"
_symmetry_group_IT_number 57
_symmetry_cell_setting 'orthorhombic'
loop_
_space_group_symop_operation_xyz
x,y,z
-x,-y,1/2+z
x,1/2-y,-z
-x,1/2+y,1/2-z
-x,-y,-z
x,y,1/2-z
-x,1/2+y,z
x,1/2-y,1/2+z
loop_
_atom_site_type_symbol
_atom_site_label
_atom_site_fract_x
_atom_site_fract_y
_atom_site_fract_z
Si Si1 0.357716 0.301968 0.937868
Si Si2 0.875575 0.499854 0.438599
Si Si3 0.618073 0.679741 0.818406
Si Si4 0.171878 0.717475 0.813711
Si Si5 0.783520 0.269392 0.437420
Si Si6 0.910914 0.523648 0.682698
O O1 0.280543 0.413609 0.938759
O O2 0.310128 0.245016 0.874965
O O3 0.584819 0.288242 0.940781
O O4 0.292205 0.250000 0.000000
O O5 0.779585 0.389979 0.432959
O O6 0.000000 0.500000 0.500000
O O7 0.008432 0.518137 0.379906
O O8 0.673848 0.713661 0.750000
O O9 0.391263 0.685131 0.819447
O O10 0.700290 0.568343 0.825351
O O11 0.155201 0.771130 0.750000
O O12 0.124775 0.769966 0.876167
O O13 0.038928 0.622710 0.811640
O O14 0.885982 0.250000 0.500000
O O15 0.924975 0.476830 0.750000
#
# Coordination Sequence:
#
# PCOD9438546 Si02
#       6
#     8   8   8   8   8   8
#     4  10  21  37  58  83 115 155 201 246 297 363
#     4  11  23  37  59  90 121 155 201 256 309 363
#     4   9  17  32  56  83 113 153 195 239 296 357
#     4   8  15  30  53  80 109 145 190 236 286 349
#     4   9  20  37  58  83 114 153 196 243 303 365
#     4   9  18  34  57  84 116 153 193 242 300 359
#
# _framework density 22.804849999999998
#
# number of rings (size 3 to 8) (size 9 to 14) (size 15 to 20)
#    0.000    2.667    0.000    1.000    0.000    6.667 
#    0.000    3.333    0.000    1.000    0.000   28.000 
#    0.000    0.000    0.000    0.000    0.000    0.000 
#
# Total GULP energy -267376.932693 kJ/mol
# GULP energy per Si atom -5570.352764 kJ/mol
# Density = 2.275294 g / cm^3
# Si number density = 22.804850 Si / 1000 Ang^3
#
#
#
# Elastic Constant Matrix: (Units=GPa)
#
#
# Indices 1 2 3 4 5 6 
#
# 1 82.2796 24.3650 0.3749 0.0000 0.0000 0.0000
# 2 24.3650 111.1637 26.5280 0.0000 0.0000 0.0000
# 3 0.3749 26.5280 233.9176 0.0000 0.0000 0.0000
# 4 0.0000 0.0000 0.0000 17.5196 0.0000 0.0000
# 5 0.0000 0.0000 0.0000 0.0000 -0.8442 0.0000
# 6 0.0000 0.0000 0.0000 0.0000 0.0000 27.4206
#
#
#
# Elastic Compliance Matrix: (Units=1/GPa)
#
#
# Indices 1 2 3 4 5 6 
#
# 1 0.013019 -0.002928 0.000311 0.000000 0.000000 0.000000
# 2 -0.002928 0.009904 -0.001119 0.000000 0.000000 0.000000
# 3 0.000311 -0.001119 0.004401 0.000000 0.000000 0.000000
# 4 0.000000 0.000000 0.000000 0.057079 0.000000 0.000000
# 5 0.000000 0.000000 0.000000 0.000000 -1.184516 0.000000
# 6 0.000000 0.000000 0.000000 0.000000 0.000000 0.036469
#
#
# Mechanical properties :
#
#
# Convention : Reuss Voigt Hill
#
# Bulk Modulus (GPa) = 50.36612 58.87741 54.62176
# Shear Modulus (GPa) = -4.76393 33.89205 14.56406
#
# Velocity S-wave (km/s) = -1.44690 3.85928 2.52987
# Velocity P-wave (km/s) = 4.39799 6.76260 5.70416
#
# Compressibility (1/GPa) = 0.01985462
#
# Stress axis : x y z
#
# Youngs Moduli (GPa) = 76.80920 100.96523 227.20237
#
# Poissons Ratio (x) = 0.29561 -0.07070
# Poissons Ratio (y) = 0.22489 0.25414
# Poissons Ratio (z) = -0.02390 0.11293
#
# Static dielectric constant tensor:
#      x y z
#    x 1.867930 0.000000 0.000000 
#    y 0.000000 1.845560 0.000000 
#    z 0.000000 0.000000 1.966720 
# 
# From -- ./inp_files/26780.got.cif
#   From: 2010.05.17/outbox.cif.g08.bks.cpg/sg57_14_cif.got.tgz:26780.got - 2010.06.03 13:58:18.
