data_PCOD9438565
_publ_section_title
;
Structure prediction by ZEFSAII (Michael W. Deem and Ramdas Pophale) SiO2 
 PCOD9438565
Probable space group: P B C M
;
_chemical_formula_sum "Si O2"
_cell_formula_units_Z 64
_cell_length_a 26.607907
_cell_length_b 15.094420
_cell_length_c 8.720023
_cell_angle_alpha 90.000000
_cell_angle_beta 90.000000
_cell_angle_gamma 90.000000
_cell_volume 3502.230891
_symmetry_space_group_name_H-M "P B C M"
_symmetry_group_IT_number 57
_symmetry_cell_setting 'orthorhombic'
loop_
_space_group_symop_operation_xyz
x,y,z
-x,-y,1/2+z
x,1/2-y,-z
-x,1/2+y,1/2-z
-x,-y,-z
x,y,1/2-z
-x,1/2+y,z
x,1/2-y,1/2+z
loop_
_atom_site_type_symbol
_atom_site_label
_atom_site_fract_x
_atom_site_fract_y
_atom_site_fract_z
Si Si1 0.869282 0.149820 0.934483
Si Si2 0.791916 0.504720 0.066855
Si Si3 0.498943 0.598576 0.565709
Si Si4 0.865992 0.649794 0.566028
Si Si5 0.608958 0.658423 0.565762
Si Si6 0.055848 0.995241 0.565639
Si Si7 0.319070 0.500399 0.434699
Si Si8 0.393704 0.659532 0.432641
O O1 0.872412 0.155283 0.750000
O O2 0.821833 0.085978 0.975413
O O3 0.866945 0.250000 0.000000
O O4 0.915567 0.090864 0.998202
O O5 0.795022 0.513604 0.250000
O O6 0.819143 0.590464 0.993122
O O7 0.734808 0.498364 0.012498
O O8 0.500000 0.500000 0.500000
O O9 0.497845 0.597300 0.750000
O O10 0.551450 0.642190 0.514799
O O11 0.448528 0.642908 0.503934
O O12 0.868112 0.750000 0.500000
O O13 0.863776 0.656258 0.750000
O O14 0.913206 0.585300 0.524812
O O15 0.627179 0.750000 0.500000
O O16 0.608134 0.659195 0.750000
O O17 0.646900 0.582352 0.516672
O O18 0.055402 0.988783 0.750000
O O19 0.000000 0.000000 0.500000
O O20 0.312307 0.497358 0.250000
O O21 0.354209 0.583609 0.471266
O O22 0.373567 0.750000 0.500000
O O23 0.399482 0.662695 0.250000
#
# Coordination Sequence:
#
# PCOD9438565 Si02
#       8
#     8   8   8   8   8   8   8   8
#     4  10  21  38  60  86 117 153 197 244 291 346
#     4  10  22  39  60  86 114 147 192 242 292 345
#     4  11  21  37  60  84 113 148 186 229 282 341
#     4  10  21  38  61  87 116 155 198 240 290 342
#     4  10  22  39  57  82 111 144 183 225 278 337
#     4  10  21  37  58  87 124 162 200 242 290 340
#     4  10  22  41  59  79 115 151 185 234 289 343
#     4  11  23  40  59  84 115 149 189 233 284 343
#
# _framework density 18.274065
#
# number of rings (size 3 to 8) (size 9 to 14) (size 15 to 20)
#    0.000    1.750    1.250    2.625    0.000    8.000 
#    0.000    5.000    0.000    0.000    0.000    0.000 
#    0.000    0.000    0.000    0.000    0.000    0.000 
#
# Total GULP energy -357297.087375 kJ/mol
# GULP energy per Si atom -5582.766990 kJ/mol
# Density = 1.823247 g / cm^3
# Si number density = 18.274065 Si / 1000 Ang^3
#
#
#
# Elastic Constant Matrix: (Units=GPa)
#
#
# Indices 1 2 3 4 5 6 
#
# 1 155.2370 85.9702 54.3709 0.0000 0.0000 0.0000
# 2 85.9702 198.2005 61.6626 0.0000 0.0000 0.0000
# 3 54.3709 61.6626 51.9777 0.0000 0.0000 0.0000
# 4 0.0000 0.0000 0.0000 34.6736 0.0000 0.0000
# 5 0.0000 0.0000 0.0000 0.0000 35.8711 0.0000
# 6 0.0000 0.0000 0.0000 0.0000 0.0000 31.8347
#
#
#
# Elastic Compliance Matrix: (Units=1/GPa)
#
#
# Indices 1 2 3 4 5 6 
#
# 1 0.010562 -0.001813 -0.008897 0.000000 0.000000 0.000000
# 2 -0.001813 0.008308 -0.007959 0.000000 0.000000 0.000000
# 3 -0.008897 -0.007959 0.037988 0.000000 0.000000 0.000000
# 4 0.000000 0.000000 0.000000 0.028840 0.000000 0.000000
# 5 0.000000 0.000000 0.000000 0.000000 0.027878 0.000000
# 6 0.000000 0.000000 0.000000 0.000000 0.000000 0.031412
#
#
# Mechanical properties :
#
#
# Convention : Reuss Voigt Hill
#
# Bulk Modulus (GPa) = 51.23286 89.93583 70.58434
# Shear Modulus (GPa) = 26.47807 34.03665 30.25736
#
# Velocity S-wave (km/s) = 3.81063 4.32043 4.07351
# Velocity P-wave (km/s) = 6.88897 8.61452 7.79961
#
# Compressibility (1/GPa) = 0.01951872
#
# Stress axis : x y z
#
# Youngs Moduli (GPa) = 94.67701 120.36289 26.32380
#
# Poissons Ratio (x) = 0.21826 0.23421
# Poissons Ratio (y) = 0.17168 0.20952
# Poissons Ratio (z) = 0.84237 0.95802
#
# Static dielectric constant tensor:
#      x y z
#    x 1.599390 0.000000 0.000000 
#    y 0.000000 1.611700 0.000000 
#    z 0.000000 0.000000 1.619410 
# 
# From -- ./inp_files/9268.got.cif
#   From: 2010.05.17/outbox.cif.g08.bks.cpg/sg57_5_cif.got.tgz:9268.got - 2010.06.03 13:58:18.
