data_PCOD9438222
_publ_section_title
;
Structure prediction by ZEFSAII (Michael W. Deem and Ramdas Pophale) SiO2 
 PCOD9438222
Probable space group: P B C M
;
_chemical_formula_sum "Si O2"
_cell_formula_units_Z 44
_cell_length_a 17.554578
_cell_length_b 9.589188
_cell_length_c 14.022620
_cell_angle_alpha 90.000000
_cell_angle_beta 90.000000
_cell_angle_gamma 90.000000
_cell_volume 2360.485800
_symmetry_space_group_name_H-M "P B C M"
_symmetry_group_IT_number 57
_symmetry_cell_setting 'orthorhombic'
loop_
_space_group_symop_operation_xyz
x,y,z
-x,-y,1/2+z
x,1/2-y,-z
-x,1/2+y,1/2-z
-x,-y,-z
x,y,1/2-z
-x,1/2+y,z
x,1/2-y,1/2+z
loop_
_atom_site_type_symbol
_atom_site_label
_atom_site_fract_x
_atom_site_fract_y
_atom_site_fract_z
Si Si1 0.417827 0.132387 0.571252
Si Si2 0.324128 0.503231 0.750000
Si Si3 0.847823 0.000143 0.250000
Si Si4 0.087847 0.771372 0.612636
Si Si5 0.590369 0.128071 0.566144
Si Si6 0.147576 0.542719 0.750000
Si Si7 0.949252 0.728724 0.250000
Si Si8 0.686177 0.836885 0.250000
O O1 0.388038 0.250000 0.500000
O O2 0.504826 0.172188 0.599282
O O3 0.361954 0.116625 0.658719
O O4 0.420008 0.994296 0.509565
O O5 0.364896 0.567311 0.843518
O O6 0.237468 0.550399 0.750000
O O7 0.318985 0.333508 0.750000
O O8 0.913607 0.882585 0.250000
O O9 0.768364 0.913967 0.250000
O O10 0.861414 0.102852 0.158668
O O11 0.088232 0.750000 0.500000
O O12 0.116692 0.628232 0.659895
O O13 0.004029 0.792942 0.658513
O O14 0.625263 0.250000 0.500000
O O15 0.116129 0.386784 0.750000
#
# Coordination Sequence:
#
# PCOD9438222 Si02
#       8
#     8   4   4   8   8   4   4   4
#     4  10  21  41  62  88 122 162 208 258 302 362
#     4  12  23  40  64  91 126 168 203 253 327 365
#     4  10  23  40  62  97 124 160 204 247 311 369
#     4  10  22  42  64  87 123 161 206 249 301 365
#     4  10  23  40  63  91 121 159 213 259 302 367
#     4  10  23  38  60  91 128 154 196 265 299 357
#     4  10  20  40  64  92 124 158 200 254 300 364
#     4  12  23  40  66  89 128 168 203 251 321 375
#
# _framework density 18.640232000000001
#
# number of rings (size 3 to 8) (size 9 to 14) (size 15 to 20)
#    0.000    1.818    2.727    2.727    0.000    8.727 
#    0.000    0.909    0.000    0.000    0.000    0.000 
#    0.000    0.000    0.000    0.000    0.000    0.000 
#
# Total GULP energy -245313.264812 kJ/mol
# GULP energy per Si atom -5575.301473 kJ/mol
# Density = 1.859781 g / cm^3
# Si number density = 18.640232 Si / 1000 Ang^3
#
#
#
# Elastic Constant Matrix: (Units=GPa)
#
#
# Indices 1 2 3 4 5 6 
#
# 1 99.2407 16.0444 63.7390 0.0000 0.0000 0.0000
# 2 16.0444 103.8044 49.6502 0.0000 0.0000 0.0000
# 3 63.7390 49.6502 166.7055 0.0000 0.0000 0.0000
# 4 0.0000 0.0000 0.0000 18.9503 0.0000 0.0000
# 5 0.0000 0.0000 0.0000 0.0000 -5.3187 0.0000
# 6 0.0000 0.0000 0.0000 0.0000 0.0000 30.6069
#
#
#
# Elastic Compliance Matrix: (Units=1/GPa)
#
#
# Indices 1 2 3 4 5 6 
#
# 1 0.013374 0.000442 -0.005245 0.000000 0.000000 0.000000
# 2 0.000442 0.011248 -0.003519 0.000000 0.000000 0.000000
# 3 -0.005245 -0.003519 0.009052 0.000000 0.000000 0.000000
# 4 0.000000 0.000000 0.000000 0.052769 0.000000 0.000000
# 5 0.000000 0.000000 0.000000 0.000000 -0.188016 0.000000
# 6 0.000000 0.000000 0.000000 0.000000 0.000000 0.032672
#
#
# Mechanical properties :
#
#
# Convention : Reuss Voigt Hill
#
# Bulk Modulus (GPa) = 58.72134 69.84641 64.28387
# Shear Modulus (GPa) = -107.34542 24.86883 -41.23829
#
# Velocity S-wave (km/s) = -7.59691 3.65656 -4.70864
# Velocity P-wave (km/s) = 6.73646 7.44173 2.23601
#
# Compressibility (1/GPa) = 0.01702959
#
# Stress axis : x y z
#
# Youngs Moduli (GPa) = 74.77331 88.90158 110.47249
#
# Poissons Ratio (x) = -0.03926 0.57942
# Poissons Ratio (y) = -0.03302 0.38875
# Poissons Ratio (z) = 0.39218 0.31284
#
# Static dielectric constant tensor:
#      x y z
#    x 1.667660 0.000000 0.000000 
#    y 0.000000 1.607320 0.000000 
#    z 0.000000 0.000000 1.390380 
# 
# From -- ./inp_files/18921.got.cif
#   From: 2010.05.17/outbox.cif.g08.bks.cpg/sg57_10_cif.got.tgz:18921.got - 2010.06.03 13:58:18.
