data_PCOD9438672
_publ_section_title
;
Structure prediction by ZEFSAII (Michael W. Deem and Ramdas Pophale) SiO2 
 PCOD9438672
Probable space group: P B C M
;
_chemical_formula_sum "Si O2"
_cell_formula_units_Z 48
_cell_length_a 29.239501
_cell_length_b 5.402376
_cell_length_c 13.877706
_cell_angle_alpha 90.000000
_cell_angle_beta 90.000000
_cell_angle_gamma 90.000000
_cell_volume 2192.160998
_symmetry_space_group_name_H-M "P B C M"
_symmetry_group_IT_number 57
_symmetry_cell_setting 'orthorhombic'
loop_
_space_group_symop_operation_xyz
x,y,z
-x,-y,1/2+z
x,1/2-y,-z
-x,1/2+y,1/2-z
-x,-y,-z
x,y,1/2-z
-x,1/2+y,z
x,1/2-y,1/2+z
loop_
_atom_site_type_symbol
_atom_site_label
_atom_site_fract_x
_atom_site_fract_y
_atom_site_fract_z
Si Si1 0.601301 0.936478 0.750000
Si Si2 0.720855 0.994374 0.440161
Si Si3 0.340232 0.938982 0.750000
Si Si4 0.823250 0.602589 0.867202
Si Si5 0.019368 0.518429 0.607360
Si Si6 0.480095 0.494328 0.889239
Si Si7 0.874498 0.103781 0.866526
O O1 0.625056 0.669832 0.750000
O O2 0.635029 0.172073 0.750000
O O3 0.570968 0.952664 0.651097
O O4 0.718894 0.250000 0.500000
O O5 0.690627 0.032058 0.345069
O O6 0.705696 0.750000 0.500000
O O7 0.772941 0.942483 0.408001
O O8 0.820699 0.601414 0.750000
O O9 0.855185 0.371046 0.896708
O O10 0.843644 0.869115 0.896306
O O11 0.073301 0.560883 0.604572
O O12 0.000000 0.500000 0.500000
O O13 0.994319 0.755753 0.651099
O O14 0.506890 0.260193 0.850196
O O15 0.500000 0.500000 0.000000
O O16 0.874047 0.104727 0.750000
#
# Coordination Sequence:
#
# PCOD9438672 Si02
#       7
#     4   8   4   8   8   8   8
#     4  12  24  45  74 108 148 206 250 295 378 424
#     4  12  26  50  74 108 145 192 239 295 382 430
#     4  12  28  51  74 110 158 198 244 309 354 462
#     4  10  21  43  69  96 134 169 220 296 346 416
#     4  10  21  38  52  77 122 163 197 259 336 401
#     4  10  21  41  67 103 146 191 251 313 357 410
#     4  10  21  37  64  94 119 168 228 272 338 418
#
# _framework density 21.896203
#
# number of rings (size 3 to 8) (size 9 to 14) (size 15 to 20)
#    0.000    1.333    0.833    4.500    0.000    0.667 
#   36.000    0.000    0.000    0.000    0.000    0.000 
#    0.000    0.000    0.000    0.000    0.000    0.000 
#
# Total GULP energy -268123.218823 kJ/mol
# GULP energy per Si atom -5585.900392 kJ/mol
# Density = 2.184637 g / cm^3
# Si number density = 21.896203 Si / 1000 Ang^3
#
#
#
# Elastic Constant Matrix: (Units=GPa)
#
#
# Indices 1 2 3 4 5 6 
#
# 1 86.6390 11.4360 30.1756 0.0000 0.0000 0.0000
# 2 11.4360 154.8529 31.4870 0.0000 0.0000 0.0000
# 3 30.1756 31.4870 141.1833 0.0000 0.0000 0.0000
# 4 0.0000 0.0000 0.0000 -25.3137 0.0000 0.0000
# 5 0.0000 0.0000 0.0000 0.0000 -16.4254 0.0000
# 6 0.0000 0.0000 0.0000 0.0000 0.0000 44.1775
#
#
#
# Elastic Compliance Matrix: (Units=1/GPa)
#
#
# Indices 1 2 3 4 5 6 
#
# 1 0.012494 -0.000398 -0.002582 0.000000 0.000000 0.000000
# 2 -0.000398 0.006777 -0.001426 0.000000 0.000000 0.000000
# 3 -0.002582 -0.001426 0.007953 0.000000 0.000000 0.000000
# 4 0.000000 0.000000 0.000000 -0.039504 0.000000 0.000000
# 5 0.000000 0.000000 0.000000 0.000000 -0.060881 0.000000
# 6 0.000000 0.000000 0.000000 0.000000 0.000000 0.022636
#
#
# Mechanical properties :
#
#
# Convention : Reuss Voigt Hill
#
# Bulk Modulus (GPa) = 54.31174 58.76358 56.53766
# Shear Modulus (GPa) = -140.54188 21.12612 -59.70788
#
# Velocity S-wave (km/s) = -8.02028 3.10954 -5.22760
# Velocity P-wave (km/s) = 7.80439 6.30777 3.24965
#
# Compressibility (1/GPa) = 0.01841223
#
# Stress axis : x y z
#
# Youngs Moduli (GPa) = 80.03963 147.55438 125.74020
#
# Poissons Ratio (x) = 0.05869 0.32462
# Poissons Ratio (y) = 0.03183 0.17936
# Poissons Ratio (z) = 0.20663 0.21048
#
# Static dielectric constant tensor:
#      x y z
#    x 1.745910 0.000000 0.000000 
#    y 0.000000 1.822390 0.000000 
#    z 0.000000 0.000000 1.793800 
# 
# From -- ./inp_files/19589.got.cif
#   From: 2010.05.17/outbox.cif.g08.bks.cpg/sg57_10_cif.got.tgz:19589.got - 2010.06.03 13:58:18.
