data_PCOD9438240
_publ_section_title
;
Structure prediction by ZEFSAII (Michael W. Deem and Ramdas Pophale) SiO2 
 PCOD9438240
Probable space group: P B C M
;
_chemical_formula_sum "Si O2"
_cell_formula_units_Z 48
_cell_length_a 8.418047
_cell_length_b 11.820909
_cell_length_c 23.083298
_cell_angle_alpha 90.000000
_cell_angle_beta 90.000000
_cell_angle_gamma 90.000000
_cell_volume 2296.995152
_symmetry_space_group_name_H-M "P B C M"
_symmetry_group_IT_number 57
_symmetry_cell_setting 'orthorhombic'
loop_
_space_group_symop_operation_xyz
x,y,z
-x,-y,1/2+z
x,1/2-y,-z
-x,1/2+y,1/2-z
-x,-y,-z
x,y,1/2-z
-x,1/2+y,z
x,1/2-y,1/2+z
loop_
_atom_site_type_symbol
_atom_site_label
_atom_site_fract_x
_atom_site_fract_y
_atom_site_fract_z
Si Si1 0.833888 0.034235 0.185694
Si Si2 0.484912 0.521029 0.814612
Si Si3 0.482213 0.880322 0.572103
Si Si4 0.751132 0.945974 0.493556
Si Si5 0.973040 0.424054 0.414431
Si Si6 0.718025 0.226280 0.642956
O O1 0.902387 0.021313 0.250000
O O2 0.764764 0.160638 0.177310
O O3 0.674965 0.956866 0.181250
O O4 0.956282 0.005023 0.135375
O O5 0.458267 0.472565 0.750000
O O6 0.452427 0.438531 0.868779
O O7 0.378107 0.631865 0.822108
O O8 0.622992 0.871888 0.526843
O O9 0.396621 0.765997 0.590779
O O10 0.349060 0.963508 0.544573
O O11 0.876577 0.884872 0.452242
O O12 0.853831 0.012170 0.541988
O O13 0.876421 0.326103 0.383452
#
# Coordination Sequence:
#
# PCOD9438240 Si02
#       6
#     8   8   8   8   8   8
#     4  10  23  45  65  92 133 166 215 276 324 386
#     4  10  20  40  66  93 125 166 217 270 317 385
#     4  10  21  44  65  95 125 174 216 267 316 391
#     4  10  21  43  65  90 138 163 215 268 322 383
#     4  11  22  41  65  99 131 171 208 275 330 384
#     4  11  22  41  68  96 126 174 222 256 339 382
#
# _framework density 20.896865999999999
#
# number of rings (size 3 to 8) (size 9 to 14) (size 15 to 20)
#    0.000    1.667    5.000    0.500    0.000    2.667 
#    3.000    1.667    0.000    0.000    0.000    0.000 
#    0.000    0.000    0.000    0.000    0.000    0.000 
#
# Total GULP energy -268105.386689 kJ/mol
# GULP energy per Si atom -5585.528889 kJ/mol
# Density = 2.084930 g / cm^3
# Si number density = 20.896866 Si / 1000 Ang^3
#
#
#
# Elastic Constant Matrix: (Units=GPa)
#
#
# Indices 1 2 3 4 5 6 
#
# 1 104.2317 41.4100 58.4561 0.0000 0.0000 0.0000
# 2 41.4100 49.3958 33.1826 0.0000 0.0000 0.0000
# 3 58.4561 33.1826 135.0434 0.0000 0.0000 0.0000
# 4 0.0000 0.0000 0.0000 13.2941 0.0000 0.0000
# 5 0.0000 0.0000 0.0000 0.0000 18.3628 0.0000
# 6 0.0000 0.0000 0.0000 0.0000 0.0000 40.2461
#
#
#
# Elastic Compliance Matrix: (Units=1/GPa)
#
#
# Indices 1 2 3 4 5 6 
#
# 1 0.016342 -0.010717 -0.004441 0.000000 0.000000 0.000000
# 2 -0.010717 0.031275 -0.003046 0.000000 0.000000 0.000000
# 3 -0.004441 -0.003046 0.010076 0.000000 0.000000 0.000000
# 4 0.000000 0.000000 0.000000 0.075221 0.000000 0.000000
# 5 0.000000 0.000000 0.000000 0.000000 0.054458 0.000000
# 6 0.000000 0.000000 0.000000 0.000000 0.000000 0.024847
#
#
# Mechanical properties :
#
#
# Convention : Reuss Voigt Hill
#
# Bulk Modulus (GPa) = 46.97925 61.64092 54.31009
# Shear Modulus (GPa) = 19.55249 24.75540 22.15394
#
# Velocity S-wave (km/s) = 3.06218 3.44560 3.25954
# Velocity P-wave (km/s) = 5.91886 6.73731 6.34130
#
# Compressibility (1/GPa) = 0.02128599
#
# Stress axis : x y z
#
# Youngs Moduli (GPa) = 61.19111 31.97424 99.24914
#
# Poissons Ratio (x) = 0.34267 0.44073
# Poissons Ratio (y) = 0.65579 0.30229
# Poissons Ratio (z) = 0.27173 0.09739
#
# Static dielectric constant tensor:
#      x y z
#    x 1.748770 0.000000 0.000000 
#    y 0.000000 1.723320 0.000000 
#    z 0.000000 0.000000 1.766650 
# 
# From -- ./inp_files/26695.got.cif
#   From: 2010.05.17/outbox.cif.g08.bks.cpg/sg57_14_cif.got.tgz:26695.got - 2010.06.03 13:58:18.
