data_PCOD9438757
_publ_section_title
;
Structure prediction by ZEFSAII (Michael W. Deem and Ramdas Pophale) SiO2 
 PCOD9438757
Probable space group: P B C M
;
_chemical_formula_sum "Si O2"
_cell_formula_units_Z 64
_cell_length_a 15.103658
_cell_length_b 24.275967
_cell_length_c 8.753283
_cell_angle_alpha 90.000000
_cell_angle_beta 90.000000
_cell_angle_gamma 90.000000
_cell_volume 3209.442884
_symmetry_space_group_name_H-M "P B C M"
_symmetry_group_IT_number 57
_symmetry_cell_setting 'orthorhombic'
loop_
_space_group_symop_operation_xyz
x,y,z
-x,-y,1/2+z
x,1/2-y,-z
-x,1/2+y,1/2-z
-x,-y,-z
x,y,1/2-z
-x,1/2+y,z
x,1/2-y,1/2+z
loop_
_atom_site_type_symbol
_atom_site_label
_atom_site_fract_x
_atom_site_fract_y
_atom_site_fract_z
Si Si1 0.349974 0.602509 0.066273
Si Si2 0.404628 0.016242 0.567062
Si Si3 0.168099 0.625027 0.931800
Si Si4 0.552500 0.872019 0.567769
Si Si5 0.098011 0.990049 0.566029
Si Si6 0.007996 0.810073 0.932159
Si Si7 0.857393 0.887948 0.066771
Si Si8 0.699719 0.693235 0.568261
O O1 0.341912 0.608282 0.250000
O O2 0.344728 0.536698 0.031636
O O3 0.449143 0.622030 0.021911
O O4 0.269636 0.632144 0.983350
O O5 0.407508 0.021394 0.750000
O O6 0.392160 0.075658 0.494898
O O7 0.500000 0.000000 0.500000
O O8 0.159529 0.626849 0.750000
O O9 0.137552 0.564960 0.992838
O O10 0.103055 0.669700 0.006409
O O11 0.554402 0.872738 0.750000
O O12 0.604166 0.820175 0.502205
O O13 0.095894 0.983313 0.750000
O O14 0.148480 0.047285 0.530226
O O15 0.000000 0.000000 0.500000
O O16 0.008057 0.807133 0.750000
O O17 0.985671 0.750000 0.000000
O O18 0.938494 0.856598 0.986779
O O19 0.871672 0.884361 0.250000
O O20 0.769553 0.854268 0.028365
O O21 0.734121 0.750000 0.500000
O O22 0.693059 0.696393 0.750000
#
# Coordination Sequence:
#
# PCOD9438757 Si02
#       8
#     8   8   8   8   8   8   8   8
#     4   9  20  38  59  85 121 162 204 250 307 363
#     4   9  17  31  53  81 115 152 193 241 293 355
#     4  12  25  40  61  93 131 168 212 258 309 374
#     4  10  21  38  60  87 119 157 203 255 306 365
#     4  11  22  39  63  93 131 169 208 255 314 376
#     4  12  25  43  68  92 122 162 206 257 310 367
#     4  10  23  42  65  93 127 165 208 256 311 374
#     4  11  24  42  63  90 123 164 209 263 317 374
#
# _framework density 19.941155999999999
#
# number of rings (size 3 to 8) (size 9 to 14) (size 15 to 20)
#    0.000    1.500    1.250    4.875    1.750    5.500 
#    0.000    0.625    0.000    3.000    0.000    0.000 
#    0.000    0.000    0.000    0.000    0.000    0.000 
#
# Total GULP energy -357586.305438 kJ/mol
# GULP energy per Si atom -5587.286022 kJ/mol
# Density = 1.989577 g / cm^3
# Si number density = 19.941156 Si / 1000 Ang^3
#
#
#
# Elastic Constant Matrix: (Units=GPa)
#
#
# Indices 1 2 3 4 5 6 
#
# 1 80.1430 7.6756 30.2279 0.0000 0.0000 0.0000
# 2 7.6756 63.5618 21.7947 0.0000 0.0000 0.0000
# 3 30.2279 21.7947 51.9797 0.0000 0.0000 0.0000
# 4 0.0000 0.0000 0.0000 33.3466 0.0000 0.0000
# 5 0.0000 0.0000 0.0000 0.0000 24.7232 0.0000
# 6 0.0000 0.0000 0.0000 0.0000 0.0000 29.6090
#
#
#
# Elastic Compliance Matrix: (Units=1/GPa)
#
#
# Indices 1 2 3 4 5 6 
#
# 1 0.016102 0.001479 -0.009984 0.000000 0.000000 0.000000
# 2 0.001479 0.018510 -0.008621 0.000000 0.000000 0.000000
# 3 -0.009984 -0.008621 0.028659 0.000000 0.000000 0.000000
# 4 0.000000 0.000000 0.000000 0.029988 0.000000 0.000000
# 5 0.000000 0.000000 0.000000 0.000000 0.040448 0.000000
# 6 0.000000 0.000000 0.000000 0.000000 0.000000 0.033774
#
#
# Mechanical properties :
#
#
# Convention : Reuss Voigt Hill
#
# Bulk Modulus (GPa) = 34.46046 35.00897 34.73471
# Shear Modulus (GPa) = 23.65124 26.60152 25.12638
#
# Velocity S-wave (km/s) = 3.44765 3.65636 3.55354
# Velocity P-wave (km/s) = 5.75907 5.95143 5.85604
#
# Compressibility (1/GPa) = 0.02901877
#
# Stress axis : x y z
#
# Youngs Moduli (GPa) = 62.10532 54.02407 34.89310
#
# Poissons Ratio (x) = -0.07990 0.34836
# Poissons Ratio (y) = -0.09185 0.30082
# Poissons Ratio (z) = 0.62004 0.46575
#
# Static dielectric constant tensor:
#      x y z
#    x 1.705820 0.000000 0.000000 
#    y 0.000000 1.689770 0.000000 
#    z 0.000000 0.000000 1.676060 
# 
# From -- ./inp_files/5739.got.cif
#   From: 2010.05.17/outbox.cif.g08.bks.cpg/sg57_3_cif.got.tgz:5739.got - 2010.06.03 13:58:18.
