data_PCOD9438888
_publ_section_title
;
Structure prediction by ZEFSAII (Michael W. Deem and Ramdas Pophale) SiO2 
 PCOD9438888
Probable space group: P B C M
;
_chemical_formula_sum "Si O2"
_cell_formula_units_Z 48
_cell_length_a 14.463256
_cell_length_b 8.392390
_cell_length_c 18.359567
_cell_angle_alpha 90.000000
_cell_angle_beta 90.000000
_cell_angle_gamma 90.000000
_cell_volume 2228.507835
_symmetry_space_group_name_H-M "P B C M"
_symmetry_group_IT_number 57
_symmetry_cell_setting 'orthorhombic'
loop_
_space_group_symop_operation_xyz
x,y,z
-x,-y,1/2+z
x,1/2-y,-z
-x,1/2+y,1/2-z
-x,-y,-z
x,y,1/2-z
-x,1/2+y,z
x,1/2-y,1/2+z
loop_
_atom_site_type_symbol
_atom_site_label
_atom_site_fract_x
_atom_site_fract_y
_atom_site_fract_z
Si Si1 0.031050 0.681582 0.081002
Si Si2 0.715967 0.395777 0.404805
Si Si3 0.453215 0.037577 0.335229
Si Si4 0.891055 0.483363 0.333683
Si Si5 0.639336 0.882357 0.334553
Si Si6 0.222144 0.964950 0.935023
O O1 0.111792 0.547326 0.074700
O O2 0.938489 0.613423 0.115174
O O3 0.070247 0.817193 0.134416
O O4 0.020375 0.750000 0.000000
O O5 0.610670 0.428510 0.385702
O O6 0.781013 0.474125 0.343490
O O7 0.739891 0.209229 0.410157
O O8 0.748931 0.473194 0.480764
O O9 0.443213 0.989952 0.250000
O O10 0.560998 0.014529 0.352063
O O11 0.413725 0.215158 0.343102
O O12 0.916644 0.506534 0.250000
O O13 0.667134 0.899170 0.250000
O O14 0.726345 0.905127 0.386695
#
# Coordination Sequence:
#
# PCOD9438888 Si02
#       6
#     8   8   8   8   8   8
#     4  11  22  42  63  88 124 168 201 254 309 373
#     4  10  21  39  60  85 121 156 202 250 302 368
#     4  10  21  39  60  87 121 159 198 251 311 359
#     4  11  23  39  63  93 122 160 210 257 306 364
#     4  10  22  38  60  88 119 156 203 250 303 368
#     4  10  21  39  61  88 114 161 206 243 308 366
#
# _framework density 21.539076000000001
#
# number of rings (size 3 to 8) (size 9 to 14) (size 15 to 20)
#    0.000    1.667    3.333    2.500    0.000    8.000 
#    0.000    1.667    0.000    0.000    0.000    0.000 
#    0.000    0.000    0.000    0.000    0.000    0.000 
#
# Total GULP energy -268390.950092 kJ/mol
# GULP energy per Si atom -5591.478127 kJ/mol
# Density = 2.149005 g / cm^3
# Si number density = 21.539076 Si / 1000 Ang^3
#
#
#
# Elastic Constant Matrix: (Units=GPa)
#
#
# Indices 1 2 3 4 5 6 
#
# 1 52.3237 2.8044 32.5829 0.0000 0.0000 0.0000
# 2 2.8044 25.9107 14.1910 0.0000 0.0000 0.0000
# 3 32.5829 14.1910 78.7690 0.0000 0.0000 0.0000
# 4 0.0000 0.0000 0.0000 22.5304 0.0000 0.0000
# 5 0.0000 0.0000 0.0000 0.0000 25.1487 0.0000
# 6 0.0000 0.0000 0.0000 0.0000 0.0000 22.6791
#
#
#
# Elastic Compliance Matrix: (Units=1/GPa)
#
#
# Indices 1 2 3 4 5 6 
#
# 1 0.026012 0.003415 -0.011375 0.000000 0.000000 0.000000
# 2 0.003415 0.043267 -0.009208 0.000000 0.000000 0.000000
# 3 -0.011375 -0.009208 0.019060 0.000000 0.000000 0.000000
# 4 0.000000 0.000000 0.000000 0.044384 0.000000 0.000000
# 5 0.000000 0.000000 0.000000 0.000000 0.039763 0.000000
# 6 0.000000 0.000000 0.000000 0.000000 0.000000 0.044093
#
#
# Mechanical properties :
#
#
# Convention : Reuss Voigt Hill
#
# Bulk Modulus (GPa) = 18.51745 28.46222 23.48983
# Shear Modulus (GPa) = 18.59305 21.23333 19.91319
#
# Velocity S-wave (km/s) = 2.94125 3.14316 3.04388
# Velocity P-wave (km/s) = 4.48892 5.13960 4.82524
#
# Compressibility (1/GPa) = 0.05400313
#
# Stress axis : x y z
#
# Youngs Moduli (GPa) = 38.44327 23.11212 52.46713
#
# Poissons Ratio (x) = -0.07892 0.59683
# Poissons Ratio (y) = -0.13127 0.48309
# Poissons Ratio (z) = 0.43730 0.21281
#
# Static dielectric constant tensor:
#      x y z
#    x 1.764970 0.000000 0.000000 
#    y 0.000000 1.823810 0.000000 
#    z 0.000000 0.000000 1.742010 
# 
# From -- ./inp_files/22419.got.cif
#   From: 2010.05.17/outbox.cif.g08.bks.cpg/sg57_12_cif.got.tgz:22419.got - 2010.06.03 13:58:18.
