data_PCOD9438992
_publ_section_title
;
Structure prediction by ZEFSAII (Michael W. Deem and Ramdas Pophale) SiO2 
 PCOD9438992
Probable space group: P B C M
;
_chemical_formula_sum "Si O2"
_cell_formula_units_Z 40
_cell_length_a 5.075754
_cell_length_b 19.786749
_cell_length_c 17.278278
_cell_angle_alpha 90.000000
_cell_angle_beta 90.000000
_cell_angle_gamma 90.000000
_cell_volume 1735.303599
_symmetry_space_group_name_H-M "P B C M"
_symmetry_group_IT_number 57
_symmetry_cell_setting 'orthorhombic'
loop_
_space_group_symop_operation_xyz
x,y,z
-x,-y,1/2+z
x,1/2-y,-z
-x,1/2+y,1/2-z
-x,-y,-z
x,y,1/2-z
-x,1/2+y,z
x,1/2-y,1/2+z
loop_
_atom_site_type_symbol
_atom_site_label
_atom_site_fract_x
_atom_site_fract_y
_atom_site_fract_z
Si Si1 0.290357 0.446553 0.157899
Si Si2 0.187718 0.768383 0.838548
Si Si3 0.057838 0.558748 0.438311
Si Si4 0.788493 0.371983 0.414758
Si Si5 0.683490 0.639214 0.161909
O O1 0.317555 0.445736 0.250000
O O2 0.232168 0.522118 0.126790
O O3 0.543488 0.414785 0.116782
O O4 0.043899 0.400761 0.130402
O O5 0.221911 0.743150 0.750000
O O6 0.238346 0.706410 0.894842
O O7 0.399222 0.828032 0.848711
O O8 0.897429 0.799888 0.844758
O O9 0.178112 0.615590 0.493937
O O10 0.000000 0.500000 0.500000
O O11 0.792573 0.585346 0.398644
O O12 0.702722 0.612391 0.250000
#
# Coordination Sequence:
#
# PCOD9438992 Si02
#       5
#     8   8   8   8   8
#     4  11  22  39  65  92 125 170 216 262 313 376
#     4  10  21  39  64  92 122 159 208 258 306 368
#     4  10  24  43  62  92 130 166 207 258 314 374
#     4  11  23  40  63  94 129 165 210 264 321 372
#     4  10  22  41  66  93 123 162 205 252 306 370
#
# _framework density 23.050719000000001
#
# number of rings (size 3 to 8) (size 9 to 14) (size 15 to 20)
#    0.000    1.600    0.000    4.200    0.000    8.800 
#    0.000    8.000    0.000    0.000    0.000    0.000 
#    0.000    0.000    0.000    0.000    0.000    0.000 
#
# Total GULP energy -224063.541198 kJ/mol
# GULP energy per Si atom -5601.588530 kJ/mol
# Density = 2.299825 g / cm^3
# Si number density = 23.050719 Si / 1000 Ang^3
#
#
#
# Elastic Constant Matrix: (Units=GPa)
#
#
# Indices 1 2 3 4 5 6 
#
# 1 91.5606 -7.7223 10.0048 0.0000 0.0000 0.0000
# 2 -7.7223 77.5290 29.4223 0.0000 0.0000 0.0000
# 3 10.0048 29.4223 107.4597 0.0000 0.0000 0.0000
# 4 0.0000 0.0000 0.0000 52.1281 0.0000 0.0000
# 5 0.0000 0.0000 0.0000 0.0000 34.4707 0.0000
# 6 0.0000 0.0000 0.0000 0.0000 0.0000 26.7403
#
#
#
# Elastic Compliance Matrix: (Units=1/GPa)
#
#
# Indices 1 2 3 4 5 6 
#
# 1 0.011229 0.001691 -0.001508 0.000000 0.000000 0.000000
# 2 0.001691 0.014649 -0.004168 0.000000 0.000000 0.000000
# 3 -0.001508 -0.004168 0.010587 0.000000 0.000000 0.000000
# 4 0.000000 0.000000 0.000000 0.019184 0.000000 0.000000
# 5 0.000000 0.000000 0.000000 0.000000 0.029010 0.000000
# 6 0.000000 0.000000 0.000000 0.000000 0.000000 0.037397
#
#
# Mechanical properties :
#
#
# Convention : Reuss Voigt Hill
#
# Bulk Modulus (GPa) = 35.09521 37.77319 36.43420
# Shear Modulus (GPa) = 35.83586 38.99080 37.41333
#
# Velocity S-wave (km/s) = 3.94719 4.11727 4.03313
# Velocity P-wave (km/s) = 6.00266 6.24701 6.12606
#
# Compressibility (1/GPa) = 0.02849392
#
# Stress axis : x y z
#
# Youngs Moduli (GPa) = 89.05375 68.26567 94.45105
#
# Poissons Ratio (x) = -0.11543 0.14247
# Poissons Ratio (y) = -0.15058 0.39369
# Poissons Ratio (z) = 0.13433 0.28455
#
# Static dielectric constant tensor:
#      x y z
#    x 1.849600 0.000000 0.000000 
#    y 0.000000 1.904030 0.000000 
#    z 0.000000 0.000000 1.846750 
# 
# From -- ./inp_files/19977.got.cif
#   From: 2010.05.17/outbox.cif.g08.bks.cpg/sg57_10_cif.got.tgz:19977.got - 2010.06.03 13:58:18.
