data_PCOD9438077
_publ_section_title
;
Structure prediction by ZEFSAII (Michael W. Deem and Ramdas Pophale) SiO2 
 PCOD9438077
Probable space group: P B C M
;
_chemical_formula_sum "Si O2"
_cell_formula_units_Z 32
_cell_length_a 7.183001
_cell_length_b 13.807446
_cell_length_c 11.934432
_cell_angle_alpha 90.000000
_cell_angle_beta 90.000000
_cell_angle_gamma 90.000000
_cell_volume 1183.643819
_symmetry_space_group_name_H-M "P B C M"
_symmetry_group_IT_number 57
_symmetry_cell_setting 'orthorhombic'
loop_
_space_group_symop_operation_xyz
x,y,z
-x,-y,1/2+z
x,1/2-y,-z
-x,1/2+y,1/2-z
-x,-y,-z
x,y,1/2-z
-x,1/2+y,z
x,1/2-y,1/2+z
loop_
_atom_site_type_symbol
_atom_site_label
_atom_site_fract_x
_atom_site_fract_y
_atom_site_fract_z
Si Si1 0.370656 0.847235 0.440629
Si Si2 0.956633 0.655404 0.626261
Si Si3 0.158395 0.124400 0.123246
Si Si4 0.434205 0.525675 0.366990
O O1 0.439195 0.750000 0.500000
O O2 0.180294 0.825528 0.377262
O O3 0.319421 0.923491 0.537629
O O4 0.523395 0.911291 0.376120
O O5 0.920043 0.610818 0.750000
O O6 0.855077 0.759156 0.625980
O O7 0.913118 0.605566 0.505572
O O8 0.083442 0.095696 0.250000
O O9 0.363699 0.077648 0.125719
O O10 0.350902 0.552181 0.250000
#
# Coordination Sequence:
#
# PCOD9438077 Si02
#       4
#     8   8   8   8
#     4  11  23  42  66  96 133 177 226 283 343 405
#     4  10  20  38  64  97 134 178 225 274 335 401
#     4   9  19  39  63  93 133 175 222 275 336 402
#     4  10  24  43  66  97 135 177 229 286 342 410
#
# _framework density 27.035160000000001
#
# number of rings (size 3 to 8) (size 9 to 14) (size 15 to 20)
#    0.000    2.000    2.500    0.750    3.500    4.000 
#    0.000    6.250    0.000    0.000    0.000    0.000 
#    0.000    0.000    0.000    0.000    0.000    0.000 
#
# Total GULP energy -178471.761760 kJ/mol
# GULP energy per Si atom -5577.242555 kJ/mol
# Density = 2.697363 g / cm^3
# Si number density = 27.035160 Si / 1000 Ang^3
#
#
#
# Elastic Constant Matrix: (Units=GPa)
#
#
# Indices 1 2 3 4 5 6 
#
# 1 97.7019 52.7061 24.9564 0.0000 0.0000 0.0000
# 2 52.7061 167.8653 20.1424 0.0000 0.0000 0.0000
# 3 24.9564 20.1424 271.3785 0.0000 0.0000 0.0000
# 4 0.0000 0.0000 0.0000 -31.3048 0.0000 0.0000
# 5 0.0000 0.0000 0.0000 0.0000 11.4622 0.0000
# 6 0.0000 0.0000 0.0000 0.0000 0.0000 21.4871
#
#
#
# Elastic Compliance Matrix: (Units=1/GPa)
#
#
# Indices 1 2 3 4 5 6 
#
# 1 0.012522 -0.003827 -0.000867 0.000000 0.000000 0.000000
# 2 -0.003827 0.007181 -0.000181 0.000000 0.000000 0.000000
# 3 -0.000867 -0.000181 0.003778 0.000000 0.000000 0.000000
# 4 0.000000 0.000000 0.000000 -0.031944 0.000000 0.000000
# 5 0.000000 0.000000 0.000000 0.000000 0.087243 0.000000
# 6 0.000000 0.000000 0.000000 0.000000 0.000000 0.046540
#
#
# Mechanical properties :
#
#
# Convention : Reuss Voigt Hill
#
# Bulk Modulus (GPa) = 72.84075 81.39507 77.11791
# Shear Modulus (GPa) = 35.80464 29.60495 32.70480
#
# Velocity S-wave (km/s) = 3.64314 3.31275 3.48187
# Velocity P-wave (km/s) = 6.68566 6.69365 6.68966
#
# Compressibility (1/GPa) = 0.01372858
#
# Stress axis : x y z
#
# Youngs Moduli (GPa) = 79.86254 139.26419 264.68377
#
# Poissons Ratio (x) = 0.53302 0.22959
# Poissons Ratio (y) = 0.30567 0.04790
# Poissons Ratio (z) = 0.06927 0.02521
#
# Static dielectric constant tensor:
#      x y z
#    x 2.058580 0.000000 0.000000 
#    y 0.000000 2.050410 0.000000 
#    z 0.000000 0.000000 2.897210 
# 
# From -- ./inp_files/11397.got.cif
#   From: 2010.05.17/outbox.cif.g08.bks.cpg/sg57_6_cif.got.tgz:11397.got - 2010.06.03 13:58:18.
