data_PCOD9438996
_publ_section_title
;
Structure prediction by ZEFSAII (Michael W. Deem and Ramdas Pophale) SiO2 
 PCOD9438996
Probable space group: P B C M
;
_chemical_formula_sum "Si O2"
_cell_formula_units_Z 56
_cell_length_a 11.152588
_cell_length_b 15.208504
_cell_length_c 16.041689
_cell_angle_alpha 90.000000
_cell_angle_beta 90.000000
_cell_angle_gamma 90.000000
_cell_volume 2720.897913
_symmetry_space_group_name_H-M "P B C M"
_symmetry_group_IT_number 57
_symmetry_cell_setting 'orthorhombic'
loop_
_space_group_symop_operation_xyz
x,y,z
-x,-y,1/2+z
x,1/2-y,-z
-x,1/2+y,1/2-z
-x,-y,-z
x,y,1/2-z
-x,1/2+y,z
x,1/2-y,1/2+z
loop_
_atom_site_type_symbol
_atom_site_label
_atom_site_fract_x
_atom_site_fract_y
_atom_site_fract_z
Si Si1 0.262082 0.887691 0.847490
Si Si2 0.405520 0.785083 0.346668
Si Si3 0.611482 0.437433 0.480067
Si Si4 0.678080 0.740349 0.159426
Si Si5 0.212313 0.438646 0.613018
Si Si6 0.960760 0.986784 0.342104
Si Si7 0.875136 0.666710 0.545225
O O1 0.296260 0.911120 0.750000
O O2 0.294620 0.783621 0.851954
O O3 0.130530 0.931739 0.860350
O O4 0.332436 0.922786 0.928387
O O5 0.401919 0.821790 0.250000
O O6 0.411135 0.849631 0.426158
O O7 0.535512 0.737824 0.354013
O O8 0.500000 0.500000 0.500000
O O9 0.697359 0.487430 0.415575
O O10 0.698268 0.781996 0.250000
O O11 0.724737 0.640927 0.159989
O O12 0.760105 0.793741 0.094365
O O13 0.170750 0.394635 0.527494
O O14 0.094621 0.476826 0.655038
O O15 0.928450 0.956748 0.250000
O O16 0.949669 0.900372 0.398765
O O17 0.937840 0.750000 0.500000
#
# Coordination Sequence:
#
# PCOD9438996 Si02
#       7
#     8   8   8   8   8   8   8
#     4  10  23  43  66  93 127 174 225 278 337 408
#     4  10  23  42  64  97 138 176 228 285 344 414
#     4  12  24  40  68  98 134 177 223 281 351 409
#     4  10  21  41  65  92 129 175 223 280 338 401
#     4  11  23  40  64  95 134 167 221 279 338 403
#     4  11  23  43  68  95 132 179 228 275 338 418
#     4  10  21  39  64  94 128 165 219 275 332 405
#
# _framework density 20.581440000000001
#
# number of rings (size 3 to 8) (size 9 to 14) (size 15 to 20)
#    0.000    1.429    1.429    3.429    0.000    4.000 
#    5.143    0.000    0.000    0.000    0.000    0.000 
#    0.000    0.000    0.000    0.000    0.000    0.000 
#
# Total GULP energy -311916.472590 kJ/mol
# GULP energy per Si atom -5569.937011 kJ/mol
# Density = 2.053460 g / cm^3
# Si number density = 20.581440 Si / 1000 Ang^3
#
#
#
# Elastic Constant Matrix: (Units=GPa)
#
#
# Indices 1 2 3 4 5 6 
#
# 1 88.1453 51.2450 39.7407 0.0000 0.0000 0.0000
# 2 51.2450 84.6041 25.2018 0.0000 0.0000 0.0000
# 3 39.7407 25.2018 82.7765 0.0000 0.0000 0.0000
# 4 0.0000 0.0000 0.0000 24.5960 0.0000 0.0000
# 5 0.0000 0.0000 0.0000 0.0000 21.1380 0.0000
# 6 0.0000 0.0000 0.0000 0.0000 0.0000 108.0072
#
#
#
# Elastic Compliance Matrix: (Units=1/GPa)
#
#
# Indices 1 2 3 4 5 6 
#
# 1 0.020347 -0.010353 -0.006616 0.000000 0.000000 0.000000
# 2 -0.010353 0.018267 -0.000591 0.000000 0.000000 0.000000
# 3 -0.006616 -0.000591 0.015437 0.000000 0.000000 0.000000
# 4 0.000000 0.000000 0.000000 0.040657 0.000000 0.000000
# 5 0.000000 0.000000 0.000000 0.000000 0.047308 0.000000
# 6 0.000000 0.000000 0.000000 0.000000 0.000000 0.009259
#
#
# Mechanical properties :
#
#
# Convention : Reuss Voigt Hill
#
# Bulk Modulus (GPa) = 52.82680 54.21121 53.51900
# Shear Modulus (GPa) = 25.94625 40.03748 32.99186
#
# Velocity S-wave (km/s) = 3.55443 4.41536 4.00808
# Velocity P-wave (km/s) = 6.52443 7.23816 6.89054
#
# Compressibility (1/GPa) = 0.01892979
#
# Stress axis : x y z
#
# Youngs Moduli (GPa) = 49.14697 54.74394 64.77893
#
# Poissons Ratio (x) = 0.56679 0.42860
# Poissons Ratio (y) = 0.50884 0.03827
# Poissons Ratio (z) = 0.32518 0.03234
#
# Static dielectric constant tensor:
#      x y z
#    x 1.693950 0.000000 0.000000 
#    y 0.000000 1.549480 0.000000 
#    z 0.000000 0.000000 2.176380 
# 
# From -- ./inp_files/17716.got.cif
#   From: 2010.05.17/outbox.cif.g08.bks.cpg/sg57_9_cif.got.tgz:17716.got - 2010.06.03 13:58:18.
