data_PCOD9438955
_publ_section_title
;
Structure prediction by ZEFSAII (Michael W. Deem and Ramdas Pophale) SiO2 
 PCOD9438955
Probable space group: P B C M
;
_chemical_formula_sum "Si O2"
_cell_formula_units_Z 48
_cell_length_a 9.034797
_cell_length_b 8.048527
_cell_length_c 31.349099
_cell_angle_alpha 90.000000
_cell_angle_beta 90.000000
_cell_angle_gamma 90.000000
_cell_volume 2279.606400
_symmetry_space_group_name_H-M "P B C M"
_symmetry_group_IT_number 57
_symmetry_cell_setting 'orthorhombic'
loop_
_space_group_symop_operation_xyz
x,y,z
-x,-y,1/2+z
x,1/2-y,-z
-x,1/2+y,1/2-z
-x,-y,-z
x,y,1/2-z
-x,1/2+y,z
x,1/2-y,1/2+z
loop_
_atom_site_type_symbol
_atom_site_label
_atom_site_fract_x
_atom_site_fract_y
_atom_site_fract_z
Si Si1 0.276098 0.292810 0.953466
Si Si2 0.908991 0.831302 0.124181
Si Si3 0.402406 0.837961 0.200877
Si Si4 0.223570 0.801627 0.624089
Si Si5 0.595955 0.165116 0.545793
Si Si6 0.279286 0.287991 0.701042
O O1 0.159971 0.264690 0.916159
O O2 0.342291 0.478474 0.953725
O O3 0.419211 0.173790 0.947327
O O4 0.212115 0.250000 0.000000
O O5 0.847499 0.748407 0.167325
O O6 0.085187 0.824086 0.123324
O O7 0.846895 0.016981 0.122478
O O8 0.381695 0.781840 0.250000
O O9 0.316712 0.727393 0.166864
O O10 0.577656 0.827325 0.192272
O O11 0.341227 0.024643 0.197058
O O12 0.326291 0.764665 0.583707
O O13 0.624441 0.250000 0.500000
O O14 0.231308 0.262718 0.750000
#
# Coordination Sequence:
#
# PCOD9438955 Si02
#       6
#     8   8   8   8   8   8
#     4  11  22  40  64  91 120 154 197 243 292 345
#     4  12  25  41  60  86 120 158 198 242 295 352
#     4  10  21  39  63  90 119 154 197 244 293 346
#     4  12  25  41  60  86 120 158 198 242 295 352
#     4  11  22  40  64  91 120 154 197 243 292 345
#     4  10  21  39  63  90 119 154 197 244 293 346
#
# _framework density 21.056266999999998
#
# number of rings (size 3 to 8) (size 9 to 14) (size 15 to 20)
#    0.000    1.000    0.000    9.000    0.000    3.333 
#    0.000    3.333    0.000    0.000    0.000    0.000 
#    0.000    0.000    0.000    0.000    0.000    0.000 
#
# Total GULP energy -268797.848096 kJ/mol
# GULP energy per Si atom -5599.955169 kJ/mol
# Density = 2.100834 g / cm^3
# Si number density = 21.056267 Si / 1000 Ang^3
#
#
#
# Elastic Constant Matrix: (Units=GPa)
#
#
# Indices 1 2 3 4 5 6 
#
# 1 53.3094 -16.2880 62.0871 0.0000 0.0000 0.0000
# 2 -16.2880 60.7633 7.9753 0.0000 0.0000 0.0000
# 3 62.0871 7.9753 115.3177 0.0000 0.0000 0.0000
# 4 0.0000 0.0000 0.0000 26.0658 0.0000 0.0000
# 5 0.0000 0.0000 0.0000 0.0000 -7.5698 0.0000
# 6 0.0000 0.0000 0.0000 0.0000 0.0000 36.0885
#
#
#
# Elastic Compliance Matrix: (Units=1/GPa)
#
#
# Indices 1 2 3 4 5 6 
#
# 1 0.077844 0.026609 -0.043751 0.000000 0.000000 0.000000
# 2 0.026609 0.025704 -0.016104 0.000000 0.000000 0.000000
# 3 -0.043751 -0.016104 0.033341 0.000000 0.000000 0.000000
# 4 0.000000 0.000000 0.000000 0.038364 0.000000 0.000000
# 5 0.000000 0.000000 0.000000 0.000000 -0.132104 0.000000
# 6 0.000000 0.000000 0.000000 0.000000 0.000000 0.027710
#
#
# Mechanical properties :
#
#
# Convention : Reuss Voigt Hill
#
# Bulk Modulus (GPa) = 14.20537 37.43770 25.82154
# Shear Modulus (GPa) = 31.09129 22.62463 26.85796
#
# Velocity S-wave (km/s) = 3.84680 3.28149 3.57533
# Velocity P-wave (km/s) = 5.14699 5.67239 5.41607
#
# Compressibility (1/GPa) = 0.07039591
#
# Stress axis : x y z
#
# Youngs Moduli (GPa) = 12.84624 38.90495 29.99288
#
# Poissons Ratio (x) = -1.03522 1.31223
# Poissons Ratio (y) = -0.34183 0.48300
# Poissons Ratio (z) = 0.56204 0.62652
#
# Static dielectric constant tensor:
#      x y z
#    x 1.701820 0.000000 0.000000 
#    y 0.000000 1.781080 0.000000 
#    z 0.000000 0.000000 1.732130 
# 
# From -- ./inp_files/29448.got.cif
#   From: 2010.05.17/outbox.cif.g08.bks.cpg/sg57_15_cif.got.tgz:29448.got - 2010.06.03 13:58:18.
