data_PCOD9438243
_publ_section_title
;
Structure prediction by ZEFSAII (Michael W. Deem and Ramdas Pophale) SiO2 
 PCOD9438243
Probable space group: P B C M
;
_chemical_formula_sum "Si O2"
_cell_formula_units_Z 20
_cell_length_a 6.634162
_cell_length_b 11.811675
_cell_length_c 9.833074
_cell_angle_alpha 90.000000
_cell_angle_beta 90.000000
_cell_angle_gamma 90.000000
_cell_volume 770.525239
_symmetry_space_group_name_H-M "P B C M"
_symmetry_group_IT_number 57
_symmetry_cell_setting 'orthorhombic'
loop_
_space_group_symop_operation_xyz
x,y,z
-x,-y,1/2+z
x,1/2-y,-z
-x,1/2+y,1/2-z
-x,-y,-z
x,y,1/2-z
-x,1/2+y,z
x,1/2-y,1/2+z
loop_
_atom_site_type_symbol
_atom_site_label
_atom_site_fract_x
_atom_site_fract_y
_atom_site_fract_z
Si Si1 0.785892 0.315384 0.750000
Si Si2 0.744582 0.894198 0.750000
Si Si3 0.454428 0.153550 0.750000
Si Si4 0.760603 0.002256 0.028938
O O1 0.696361 0.188279 0.750000
O O2 0.724446 0.381792 0.611118
O O3 0.027765 0.342857 0.750000
O O4 0.614382 0.783139 0.750000
O O5 0.689130 0.970870 0.878872
O O6 0.337183 0.094782 0.623659
O O7 0.000000 0.000000 0.000000
#
# Coordination Sequence:
#
# PCOD9438243 Si02
#       4
#     4   4   4   8
#     4   9  21  41  66  98 135 185 239 295 364 437
#     4  10  20  40  66  95 135 183 234 297 358 426
#     4  11  21  39  68 101 136 182 239 292 358 441
#     4   9  20  42  67  96 139 185 235 297 365 431
#
# _framework density 25.956322
#
# number of rings (size 3 to 8) (size 9 to 14) (size 15 to 20)
#    0.000    2.400    0.000    2.400    0.000    1.600 
#    0.000   34.000    0.000    0.000    0.000    0.000 
#    0.000    0.000    0.000    0.000    0.000    0.000 
#
# Total GULP energy -111551.038213 kJ/mol
# GULP energy per Si atom -5577.551911 kJ/mol
# Density = 2.589724 g / cm^3
# Si number density = 25.956322 Si / 1000 Ang^3
#
#
#
# Elastic Constant Matrix: (Units=GPa)
#
#
# Indices 1 2 3 4 5 6 
#
# 1 183.1854 42.7855 22.4515 0.0000 0.0000 0.0000
# 2 42.7855 168.6688 72.7953 0.0000 0.0000 0.0000
# 3 22.4515 72.7953 250.4240 0.0000 0.0000 0.0000
# 4 0.0000 0.0000 0.0000 21.3523 0.0000 0.0000
# 5 0.0000 0.0000 0.0000 0.0000 17.7537 0.0000
# 6 0.0000 0.0000 0.0000 0.0000 0.0000 60.0807
#
#
#
# Elastic Compliance Matrix: (Units=1/GPa)
#
#
# Indices 1 2 3 4 5 6 
#
# 1 0.005805 -0.001427 -0.000106 0.000000 0.000000 0.000000
# 2 -0.001427 0.007130 -0.001945 0.000000 0.000000 0.000000
# 3 -0.000106 -0.001945 0.004568 0.000000 0.000000 0.000000
# 4 0.000000 0.000000 0.000000 0.046833 0.000000 0.000000
# 5 0.000000 0.000000 0.000000 0.000000 0.056326 0.000000
# 6 0.000000 0.000000 0.000000 0.000000 0.000000 0.016644
#
#
# Mechanical properties :
#
#
# Convention : Reuss Voigt Hill
#
# Bulk Modulus (GPa) = 94.79927 97.59364 96.19645
# Shear Modulus (GPa) = 33.83452 50.78707 42.31080
#
# Velocity S-wave (km/s) = 3.61434 4.42819 4.04180
# Velocity P-wave (km/s) = 7.34982 7.98911 7.67612
#
# Compressibility (1/GPa) = 0.01054860
#
# Stress axis : x y z
#
# Youngs Moduli (GPa) = 172.25964 140.25133 218.91433
#
# Poissons Ratio (x) = 0.20014 0.02313
# Poissons Ratio (y) = 0.24581 0.42572
# Poissons Ratio (z) = 0.01820 0.27275
#
# Static dielectric constant tensor:
#      x y z
#    x 2.225590 0.000000 0.000000 
#    y 0.000000 2.050740 0.000000 
#    z 0.000000 0.000000 2.347090 
# 
# From -- ./inp_files/936.got.cif
#   From: 2010.05.17/outbox.cif.g08.bks.cpg/sg57_1_cif.got.tgz:936.got - 2010.06.03 13:58:18.
