data_PCOD9438301
_publ_section_title
;
Structure prediction by ZEFSAII (Michael W. Deem and Ramdas Pophale) SiO2 
 PCOD9438301
Probable space group: P B C M
;
_chemical_formula_sum "Si O2"
_cell_formula_units_Z 32
_cell_length_a 7.498675
_cell_length_b 11.166777
_cell_length_c 14.379825
_cell_angle_alpha 90.000000
_cell_angle_beta 90.000000
_cell_angle_gamma 90.000000
_cell_volume 1204.109479
_symmetry_space_group_name_H-M "P B C M"
_symmetry_group_IT_number 57
_symmetry_cell_setting 'orthorhombic'
loop_
_space_group_symop_operation_xyz
x,y,z
-x,-y,1/2+z
x,1/2-y,-z
-x,1/2+y,1/2-z
-x,-y,-z
x,y,1/2-z
-x,1/2+y,z
x,1/2-y,1/2+z
loop_
_atom_site_type_symbol
_atom_site_label
_atom_site_fract_x
_atom_site_fract_y
_atom_site_fract_z
Si Si1 0.590607 0.636082 0.750000
Si Si2 0.106086 0.881598 0.395770
Si Si3 0.934660 0.124645 0.117857
Si Si4 0.393951 0.616148 0.250000
Si Si5 0.487066 0.373881 0.442520
O O1 0.495008 0.505160 0.750000
O O2 0.509865 0.767353 0.750000
O O3 0.656492 0.628194 0.858295
O O4 0.067973 0.880461 0.506384
O O5 0.017193 0.760960 0.355783
O O6 0.319030 0.865089 0.393926
O O7 0.048847 0.008933 0.354777
O O8 0.739938 0.113215 0.162833
O O9 0.461490 0.250000 0.500000
O O10 0.500000 0.500000 0.500000
#
# Coordination Sequence:
#
# PCOD9438301 Si02
#       5
#     4   8   8   4   8
#     4  12  24  43  71  97 139 186 228 293 345 421
#     4  10  20  43  64  96 128 180 222 279 344 411
#     4  10  21  40  67  90 135 173 224 284 340 407
#     4  12  24  45  65  99 139 180 232 291 345 409
#     4  12  24  45  71 102 140 185 232 288 353 418
#
# _framework density 26.575659000000002
#
# number of rings (size 3 to 8) (size 9 to 14) (size 15 to 20)
#    0.000    1.000    5.000    3.000    0.000    2.000 
#   18.000    0.000    0.000    0.000    0.000    0.000 
#    0.000    0.000    0.000    0.000    0.000    0.000 
#
# Total GULP energy -178457.659741 kJ/mol
# GULP energy per Si atom -5576.801867 kJ/mol
# Density = 2.651517 g / cm^3
# Si number density = 26.575659 Si / 1000 Ang^3
#
#
#
# Elastic Constant Matrix: (Units=GPa)
#
#
# Indices 1 2 3 4 5 6 
#
# 1 41.3598 57.2327 -5.5230 0.0000 0.0000 0.0000
# 2 57.2327 298.4793 66.3110 0.0000 0.0000 0.0000
# 3 -5.5230 66.3110 171.6014 0.0000 0.0000 0.0000
# 4 0.0000 0.0000 0.0000 22.6994 0.0000 0.0000
# 5 0.0000 0.0000 0.0000 0.0000 15.9963 0.0000
# 6 0.0000 0.0000 0.0000 0.0000 0.0000 52.2040
#
#
#
# Elastic Compliance Matrix: (Units=1/GPa)
#
#
# Indices 1 2 3 4 5 6 
#
# 1 0.035379 -0.007698 0.004113 0.000000 0.000000 0.000000
# 2 -0.007698 0.005340 -0.002311 0.000000 0.000000 0.000000
# 3 0.004113 -0.002311 0.006853 0.000000 0.000000 0.000000
# 4 0.000000 0.000000 0.000000 0.044054 0.000000 0.000000
# 5 0.000000 0.000000 0.000000 0.000000 0.062514 0.000000
# 6 0.000000 0.000000 0.000000 0.000000 0.000000 0.019156
#
#
# Mechanical properties :
#
#
# Convention : Reuss Voigt Hill
#
# Bulk Modulus (GPa) = 27.94802 83.05355 55.50078
# Shear Modulus (GPa) = 25.37888 44.40793 34.89341
#
# Velocity S-wave (km/s) = 3.09361 4.09222 3.62744
# Velocity P-wave (km/s) = 4.82698 7.32448 6.20273
#
# Compressibility (1/GPa) = 0.03578071
#
# Stress axis : x y z
#
# Youngs Moduli (GPa) = 28.26518 187.27335 145.92285
#
# Poissons Ratio (x) = 1.44157 -0.60022
# Poissons Ratio (y) = 0.21758 0.33725
# Poissons Ratio (z) = -0.11626 0.43282
#
# Static dielectric constant tensor:
#      x y z
#    x 2.119150 0.000000 0.000000 
#    y 0.000000 2.093070 0.000000 
#    z 0.000000 0.000000 2.208950 
# 
# From -- ./inp_files/17208.got.cif
#   From: 2010.05.17/outbox.cif.g08.bks.cpg/sg57_9_cif.got.tgz:17208.got - 2010.06.03 13:58:18.
