data_PCOD9438948
_publ_section_title
;
Structure prediction by ZEFSAII (Michael W. Deem and Ramdas Pophale) SiO2 
 PCOD9438948
Probable space group: P B C M
;
_chemical_formula_sum "Si O2"
_cell_formula_units_Z 32
_cell_length_a 4.943050
_cell_length_b 22.640185
_cell_length_c 11.560760
_cell_angle_alpha 90.000000
_cell_angle_beta 90.000000
_cell_angle_gamma 90.000000
_cell_volume 1293.782761
_symmetry_space_group_name_H-M "P B C M"
_symmetry_group_IT_number 57
_symmetry_cell_setting 'orthorhombic'
loop_
_space_group_symop_operation_xyz
x,y,z
-x,-y,1/2+z
x,1/2-y,-z
-x,1/2+y,1/2-z
-x,-y,-z
x,y,1/2-z
-x,1/2+y,z
x,1/2-y,1/2+z
loop_
_atom_site_type_symbol
_atom_site_label
_atom_site_fract_x
_atom_site_fract_y
_atom_site_fract_z
Si Si1 0.834300 0.866079 0.623413
Si Si2 0.556020 0.072185 0.623578
Si Si3 0.813133 0.470741 0.620453
Si Si4 0.661338 0.319417 0.501279
O O1 0.912942 0.844466 0.750000
O O2 0.900077 0.936286 0.620471
O O3 0.029819 0.834879 0.531371
O O4 0.529910 0.848148 0.599144
O O5 0.676683 0.056995 0.750000
O O6 0.695650 0.049691 0.504618
O O7 0.565108 0.142661 0.609051
O O8 0.263101 0.040047 0.622130
O O9 0.704679 0.452183 0.750000
O O10 0.620677 0.250000 0.500000
#
# Coordination Sequence:
#
# PCOD9438948 Si02
#       4
#     8   8   8   8
#     4  10  21  39  63  86 114 156 205 254 305 366
#     4   9  18  34  58  89 124 160 201 256 315 368
#     4   8  16  34  60  90 121 157 204 256 313 373
#     4  11  23  39  58  88 123 161 206 252 302 364
#
# _framework density 24.733671999999999
#
# number of rings (size 3 to 8) (size 9 to 14) (size 15 to 20)
#    0.000    2.500    0.000    1.500    0.000    4.000 
#    0.000    5.000    0.000   12.000    0.000    0.000 
#    0.000    0.000    0.000    0.000    0.000    0.000 
#
# Total GULP energy -178183.714689 kJ/mol
# GULP energy per Si atom -5568.241084 kJ/mol
# Density = 2.467738 g / cm^3
# Si number density = 24.733672 Si / 1000 Ang^3
#
#
#
# Elastic Constant Matrix: (Units=GPa)
#
#
# Indices 1 2 3 4 5 6 
#
# 1 61.2386 11.0299 31.1204 0.0000 0.0000 0.0000
# 2 11.0299 133.6062 54.4361 0.0000 0.0000 0.0000
# 3 31.1204 54.4361 195.0016 0.0000 0.0000 0.0000
# 4 0.0000 0.0000 0.0000 23.3224 0.0000 0.0000
# 5 0.0000 0.0000 0.0000 0.0000 37.0611 0.0000
# 6 0.0000 0.0000 0.0000 0.0000 0.0000 31.4873
#
#
#
# Elastic Compliance Matrix: (Units=1/GPa)
#
#
# Indices 1 2 3 4 5 6 
#
# 1 0.017785 -0.000352 -0.002740 0.000000 0.000000 0.000000
# 2 -0.000352 0.008452 -0.002303 0.000000 0.000000 0.000000
# 3 -0.002740 -0.002303 0.006208 0.000000 0.000000 0.000000
# 4 0.000000 0.000000 0.000000 0.042877 0.000000 0.000000
# 5 0.000000 0.000000 0.000000 0.000000 0.026982 0.000000
# 6 0.000000 0.000000 0.000000 0.000000 0.000000 0.031759
#
#
# Mechanical properties :
#
#
# Convention : Reuss Voigt Hill
#
# Bulk Modulus (GPa) = 46.17785 64.77993 55.47889
# Shear Modulus (GPa) = 32.87879 37.92484 35.40182
#
# Velocity S-wave (km/s) = 3.64993 3.92002 3.78738
# Velocity P-wave (km/s) = 6.03931 6.83642 6.45019
#
# Compressibility (1/GPa) = 0.02165541
#
# Stress axis : x y z
#
# Youngs Moduli (GPa) = 56.22576 118.31248 161.07050
#
# Poissons Ratio (x) = 0.04163 0.44136
# Poissons Ratio (y) = 0.01978 0.37100
# Poissons Ratio (z) = 0.15407 0.27251
#
# Static dielectric constant tensor:
#      x y z
#    x 2.013400 0.000000 0.000000 
#    y 0.000000 2.031080 0.000000 
#    z 0.000000 0.000000 1.982640 
# 
# From -- ./inp_files/10669.got.cif
#   From: 2010.05.17/outbox.cif.g08.bks.cpg/sg57_6_cif.got.tgz:10669.got - 2010.06.03 13:58:18.
