data_PCOD9438009
_publ_section_title
;
Structure prediction by ZEFSAII (Michael W. Deem and Ramdas Pophale) SiO2 
 PCOD9438009
Probable space group: P B C M
;
_chemical_formula_sum "Si O2"
_cell_formula_units_Z 40
_cell_length_a 26.018825
_cell_length_b 9.368791
_cell_length_c 8.603869
_cell_angle_alpha 90.000000
_cell_angle_beta 90.000000
_cell_angle_gamma 90.000000
_cell_volume 2097.321555
_symmetry_space_group_name_H-M "P B C M"
_symmetry_group_IT_number 57
_symmetry_cell_setting 'orthorhombic'
loop_
_space_group_symop_operation_xyz
x,y,z
-x,-y,1/2+z
x,1/2-y,-z
-x,1/2+y,1/2-z
-x,-y,-z
x,y,1/2-z
-x,1/2+y,z
x,1/2-y,1/2+z
loop_
_atom_site_type_symbol
_atom_site_label
_atom_site_fract_x
_atom_site_fract_y
_atom_site_fract_z
Si Si1 0.048360 0.588950 0.436302
Si Si2 0.855785 0.590039 0.062644
Si Si3 0.241590 0.907417 0.063139
Si Si4 0.359117 0.591179 0.937110
Si Si5 0.452350 0.409381 0.064516
O O1 0.046709 0.750000 0.500000
O O2 0.047220 0.591225 0.250000
O O3 0.099431 0.509599 0.495513
O O4 0.000000 0.500000 0.500000
O O5 0.859030 0.590893 0.250000
O O6 0.801078 0.521506 0.014971
O O7 0.861209 0.750000 0.000000
O O8 0.240850 0.899882 0.250000
O O9 0.300144 0.942791 0.016522
O O10 0.228977 0.750000 0.000000
O O11 0.362644 0.590903 0.750000
O O12 0.370347 0.750000 0.000000
O O13 0.399926 0.482675 0.006980
O O14 0.454096 0.408124 0.250000
O O15 0.455731 0.250000 0.000000
O O16 0.500000 0.500000 0.000000
#
# Coordination Sequence:
#
# PCOD9438009 Si02
#       5
#     8   8   8   8   8
#     4  12  25  43  65  91 121 157 197 244 296 353
#     4  11  23  40  60  88 122 160 201 246 295 349
#     4   9  20  37  60  87 119 156 198 242 292 348
#     4  10  20  38  61  89 121 157 197 242 292 349
#     4  12  25  42  62  87 117 154 195 242 294 351
#
# _framework density 19.071943999999998
#
# number of rings (size 3 to 8) (size 9 to 14) (size 15 to 20)
#    0.000    1.200    0.000    6.600    0.000    4.800 
#    0.000    2.000    0.000    0.000    0.000    0.000 
#    0.000    0.000    0.000    0.000    0.000    0.000 
#
# Total GULP energy -223768.980922 kJ/mol
# GULP energy per Si atom -5594.224523 kJ/mol
# Density = 1.902854 g / cm^3
# Si number density = 19.071944 Si / 1000 Ang^3
#
#
#
# Elastic Constant Matrix: (Units=GPa)
#
#
# Indices 1 2 3 4 5 6 
#
# 1 137.4182 121.5775 63.4788 0.0000 0.0000 0.0000
# 2 121.5775 197.2213 73.7501 0.0000 0.0000 0.0000
# 3 63.4788 73.7501 133.1937 0.0000 0.0000 0.0000
# 4 0.0000 0.0000 0.0000 39.3846 0.0000 0.0000
# 5 0.0000 0.0000 0.0000 0.0000 29.1409 0.0000
# 6 0.0000 0.0000 0.0000 0.0000 0.0000 37.9000
#
#
#
# Elastic Compliance Matrix: (Units=1/GPa)
#
#
# Indices 1 2 3 4 5 6 
#
# 1 0.016835 -0.009304 -0.002872 0.000000 0.000000 0.000000
# 2 -0.009304 0.011537 -0.001954 0.000000 0.000000 0.000000
# 3 -0.002872 -0.001954 0.009958 0.000000 0.000000 0.000000
# 4 0.000000 0.000000 0.000000 0.025391 0.000000 0.000000
# 5 0.000000 0.000000 0.000000 0.000000 0.034316 0.000000
# 6 0.000000 0.000000 0.000000 0.000000 0.000000 0.026385
#
#
# Mechanical properties :
#
#
# Convention : Reuss Voigt Hill
#
# Bulk Modulus (GPa) = 99.29488 109.49399 104.39443
# Shear Modulus (GPa) = 32.04339 35.22022 33.63180
#
# Velocity S-wave (km/s) = 4.10339 4.30199 4.20386
# Velocity P-wave (km/s) = 8.63868 9.06707 8.85547
#
# Compressibility (1/GPa) = 0.01007101
#
# Stress axis : x y z
#
# Youngs Moduli (GPa) = 59.39851 86.68019 100.41988
#
# Poissons Ratio (x) = 0.80650 0.28838
# Poissons Ratio (y) = 0.55267 0.19617
# Poissons Ratio (z) = 0.17058 0.16933
#
# Static dielectric constant tensor:
#      x y z
#    x 1.660230 0.000000 0.000000 
#    y 0.000000 1.614470 0.000000 
#    z 0.000000 0.000000 1.640930 
# 
# From -- ./inp_files/8891.got.cif
#   From: 2010.05.17/outbox.cif.g08.bks.cpg/sg57_5_cif.got.tgz:8891.got - 2010.06.03 13:58:18.
