data_PCOD9438737
_publ_section_title
;
Structure prediction by ZEFSAII (Michael W. Deem and Ramdas Pophale) SiO2 
 PCOD9438737
Probable space group: P B C M
;
_chemical_formula_sum "Si O2"
_cell_formula_units_Z 64
_cell_length_a 22.832447
_cell_length_b 9.267463
_cell_length_c 14.175856
_cell_angle_alpha 90.000000
_cell_angle_beta 90.000000
_cell_angle_gamma 90.000000
_cell_volume 2999.594938
_symmetry_space_group_name_H-M "P B C M"
_symmetry_group_IT_number 57
_symmetry_cell_setting 'orthorhombic'
loop_
_space_group_symop_operation_xyz
x,y,z
-x,-y,1/2+z
x,1/2-y,-z
-x,1/2+y,1/2-z
-x,-y,-z
x,y,1/2-z
-x,1/2+y,z
x,1/2-y,1/2+z
loop_
_atom_site_type_symbol
_atom_site_label
_atom_site_fract_x
_atom_site_fract_y
_atom_site_fract_z
Si Si1 0.123151 0.139930 0.646850
Si Si2 0.693373 0.098533 0.025804
Si Si3 0.351948 0.101389 0.143065
Si Si4 0.462305 0.210985 0.864151
Si Si5 0.251410 0.180649 0.602348
Si Si6 0.968775 0.601305 0.138973
Si Si7 0.425678 0.611696 0.364035
Si Si8 0.915917 0.097466 0.010619
O O1 0.110305 0.075239 0.750000
O O2 0.188633 0.200418 0.649001
O O3 0.074522 0.262133 0.629225
O O4 0.120165 0.024331 0.564084
O O5 0.635719 0.136031 0.085990
O O6 0.731086 0.985692 0.086959
O O7 0.723018 0.250000 0.000000
O O8 0.672328 0.013930 0.931437
O O9 0.360478 0.044192 0.250000
O O10 0.411830 0.175782 0.107307
O O11 0.304922 0.231820 0.147354
O O12 0.460112 0.211522 0.750000
O O13 0.525709 0.270411 0.890538
O O14 0.448490 0.047832 0.892551
O O15 0.245254 0.250000 0.500000
O O16 0.979616 0.578916 0.250000
O O17 0.027313 0.623434 0.077834
O O18 0.937462 0.466032 0.088852
O O19 0.419231 0.613188 0.250000
O O20 0.885085 0.250000 0.000000
#
# Coordination Sequence:
#
# PCOD9438737 Si02
#       8
#     8   8   8   8   8   8   8   8
#     4  11  23  40  66  94 119 162 214 253 303 366
#     4  11  25  40  59  93 123 159 198 250 317 374
#     4  10  21  41  63  85 118 160 207 255 303 360
#     4   9  19  35  58  86 118 157 200 247 302 360
#     4  10  21  41  66  87 117 156 209 257 300 362
#     4  10  21  38  60  90 128 169 215 256 297 354
#     4  10  21  38  59  87 123 161 201 250 307 369
#     4  11  22  36  58  90 133 170 199 252 311 360
#
# _framework density 21.336213999999998
#
# number of rings (size 3 to 8) (size 9 to 14) (size 15 to 20)
#    0.000    1.750    1.250    3.375    1.750    4.000 
#    0.000    0.000    0.000    0.000    0.000    0.000 
#    0.000    0.000    0.000    0.000    0.000    0.000 
#
# Total GULP energy -357832.206877 kJ/mol
# GULP energy per Si atom -5591.128232 kJ/mol
# Density = 2.128765 g / cm^3
# Si number density = 21.336214 Si / 1000 Ang^3
#
#
#
# Elastic Constant Matrix: (Units=GPa)
#
#
# Indices 1 2 3 4 5 6 
#
# 1 75.7033 -8.9441 3.5041 0.0000 0.0000 0.0000
# 2 -8.9441 68.6737 14.6069 0.0000 0.0000 0.0000
# 3 3.5041 14.6069 104.5541 0.0000 0.0000 0.0000
# 4 0.0000 0.0000 0.0000 18.0733 0.0000 0.0000
# 5 0.0000 0.0000 0.0000 0.0000 20.6439 0.0000
# 6 0.0000 0.0000 0.0000 0.0000 0.0000 19.3054
#
#
#
# Elastic Compliance Matrix: (Units=1/GPa)
#
#
# Indices 1 2 3 4 5 6 
#
# 1 0.013468 0.001907 -0.000718 0.000000 0.000000 0.000000
# 2 0.001907 0.015278 -0.002198 0.000000 0.000000 0.000000
# 3 -0.000718 -0.002198 0.009896 0.000000 0.000000 0.000000
# 4 0.000000 0.000000 0.000000 0.055330 0.000000 0.000000
# 5 0.000000 0.000000 0.000000 0.000000 0.048440 0.000000
# 6 0.000000 0.000000 0.000000 0.000000 0.000000 0.051799
#
#
# Mechanical properties :
#
#
# Convention : Reuss Voigt Hill
#
# Bulk Modulus (GPa) = 27.30560 29.69609 28.50085
# Shear Modulus (GPa) = 23.98809 27.58880 25.78845
#
# Velocity S-wave (km/s) = 3.35668 3.59980 3.48037
# Velocity P-wave (km/s) = 5.27718 5.58807 5.43485
#
# Compressibility (1/GPa) = 0.03662252
#
# Stress axis : x y z
#
# Youngs Moduli (GPa) = 74.25025 65.45559 101.05506
#
# Poissons Ratio (x) = -0.12481 0.07253
# Poissons Ratio (y) = -0.14158 0.22215
# Poissons Ratio (z) = 0.05329 0.14389
#
# Static dielectric constant tensor:
#      x y z
#    x 1.742880 0.000000 0.000000 
#    y 0.000000 1.779560 0.000000 
#    z 0.000000 0.000000 1.767370 
# 
# From -- ./inp_files/19506.got.cif
#   From: 2010.05.17/outbox.cif.g08.bks.cpg/sg57_10_cif.got.tgz:19506.got - 2010.06.03 13:58:18.
