data_PCOD9438873
_publ_section_title
;
Structure prediction by ZEFSAII (Michael W. Deem and Ramdas Pophale) SiO2 
 PCOD9438873
Probable space group: P B C M
;
_chemical_formula_sum "Si O2"
_cell_formula_units_Z 64
_cell_length_a 14.284756
_cell_length_b 5.269934
_cell_length_c 36.021575
_cell_angle_alpha 90.000000
_cell_angle_beta 90.000000
_cell_angle_gamma 90.000000
_cell_volume 2711.694128
_symmetry_space_group_name_H-M "P B C M"
_symmetry_group_IT_number 57
_symmetry_cell_setting 'orthorhombic'
loop_
_space_group_symop_operation_xyz
x,y,z
-x,-y,1/2+z
x,1/2-y,-z
-x,1/2+y,1/2-z
-x,-y,-z
x,y,1/2-z
-x,1/2+y,z
x,1/2-y,1/2+z
loop_
_atom_site_type_symbol
_atom_site_label
_atom_site_fract_x
_atom_site_fract_y
_atom_site_fract_z
Si Si1 0.063031 0.443195 0.291141
Si Si2 0.637225 0.204624 0.097526
Si Si3 0.137225 0.795376 0.097526
Si Si4 0.859012 0.711081 0.867243
Si Si5 0.605319 0.496321 0.983345
Si Si6 0.563031 0.943195 0.791141
Si Si7 0.359012 0.211081 0.132757
Si Si8 0.894681 0.496321 0.016655
O O1 0.107291 0.424235 0.250000
O O2 0.129638 0.397124 0.326032
O O3 0.012913 0.715727 0.293443
O O4 0.750000 0.250000 0.096630
O O5 0.601360 0.490396 0.105527
O O6 0.607123 0.059137 0.060175
O O7 0.605812 0.000362 0.128652
O O8 0.101360 0.509604 0.105527
O O9 0.105812 0.999638 0.128652
O O10 0.107123 0.940863 0.060175
O O11 0.750000 0.750000 0.876333
O O12 0.647964 0.750000 0.000000
O O13 0.500000 0.500000 0.000000
O O14 0.652113 0.250000 0.000000
O O15 0.607291 0.924235 0.750000
O O16 0.487087 0.715727 0.793443
O O17 0.629638 0.897124 0.826032
O O18 0.852036 0.750000 0.000000
O O19 0.000000 0.500000 0.000000
O O20 0.847887 0.250000 0.000000
#
# Coordination Sequence:
#
# PCOD9438873 Si02
#       8
#     8   8   8   8   8   8   8   8
#     4  10  21  39  59  89 127 160 200 249 301 358
#     4  10  21  39  60  84 118 155 199 251 304 356
#     4  10  21  39  60  84 118 155 199 251 304 356
#     4  10  21  39  61  89 120 158 206 248 298 362
#     4  10  21  39  56  82 116 149 191 250 291 358
#     4  10  21  39  59  89 127 160 200 249 301 358
#     4  10  21  39  61  89 120 158 206 248 298 362
#     4  10  21  39  56  82 116 149 191 250 291 358
#
# _framework density 23.601482000000001
#
# number of rings (size 3 to 8) (size 9 to 14) (size 15 to 20)
#    0.000    2.000    0.000    3.000    0.000    1.000 
#   27.000    1.250    0.000    9.000    0.000    0.000 
#    0.000    0.000    0.000    0.000    0.000    0.000 
#
# Total GULP energy -357080.042697 kJ/mol
# GULP energy per Si atom -5579.375667 kJ/mol
# Density = 2.354776 g / cm^3
# Si number density = 23.601482 Si / 1000 Ang^3
#
#
#
# Elastic Constant Matrix: (Units=GPa)
#
#
# Indices 1 2 3 4 5 6 
#
# 1 82.6865 18.0788 -6.5207 0.0000 0.0000 0.0000
# 2 18.0788 211.3224 55.4075 0.0000 0.0000 0.0000
# 3 -6.5207 55.4075 113.9739 0.0000 0.0000 0.0000
# 4 0.0000 0.0000 0.0000 43.2128 0.0000 0.0000
# 5 0.0000 0.0000 0.0000 0.0000 150.7541 0.0000
# 6 0.0000 0.0000 0.0000 0.0000 0.0000 -19.3599
#
#
#
# Elastic Compliance Matrix: (Units=1/GPa)
#
#
# Indices 1 2 3 4 5 6 
#
# 1 0.012521 -0.001443 0.001418 0.000000 0.000000 0.000000
# 2 -0.001443 0.005590 -0.002800 0.000000 0.000000 0.000000
# 3 0.001418 -0.002800 0.010216 0.000000 0.000000 0.000000
# 4 0.000000 0.000000 0.000000 0.023141 0.000000 0.000000
# 5 0.000000 0.000000 0.000000 0.000000 0.006633 0.000000
# 6 0.000000 0.000000 0.000000 0.000000 0.000000 -0.051653
#
#
# Mechanical properties :
#
#
# Convention : Reuss Voigt Hill
#
# Bulk Modulus (GPa) = 44.09755 60.21266 52.15511
# Shear Modulus (GPa) = 254.35501 57.65589 156.00545
#
# Velocity S-wave (km/s) = 10.39253 4.94792 8.13900
# Velocity P-wave (km/s) = 12.75661 7.62956 10.51050
#
# Compressibility (1/GPa) = 0.02267699
#
# Stress axis : x y z
#
# Youngs Moduli (GPa) = 79.86474 178.90125 97.88359
#
# Poissons Ratio (x) = 0.25814 -0.13878
# Poissons Ratio (y) = 0.11524 0.27407
# Poissons Ratio (z) = -0.11324 0.50091
#
# Static dielectric constant tensor:
#      x y z
#    x 1.866990 0.000000 0.000000 
#    y 0.000000 2.011150 0.000000 
#    z 0.000000 0.000000 1.958080 
# 
# From -- ./inp_files/29958.got.cif
#   From: 2010.05.17/outbox.cif.g08.bks.cpg/sg57_15_cif.got.tgz:29958.got - 2010.06.03 13:58:18.
