data_PCOD9438736
_publ_section_title
;
Structure prediction by ZEFSAII (Michael W. Deem and Ramdas Pophale) SiO2 
 PCOD9438736
Probable space group: P B C M
;
_chemical_formula_sum "Si O2"
_cell_formula_units_Z 64
_cell_length_a 14.904817
_cell_length_b 25.697621
_cell_length_c 8.638403
_cell_angle_alpha 90.000000
_cell_angle_beta 90.000000
_cell_angle_gamma 90.000000
_cell_volume 3308.666763
_symmetry_space_group_name_H-M "P B C M"
_symmetry_group_IT_number 57
_symmetry_cell_setting 'orthorhombic'
loop_
_space_group_symop_operation_xyz
x,y,z
-x,-y,1/2+z
x,1/2-y,-z
-x,1/2+y,1/2-z
-x,-y,-z
x,y,1/2-z
-x,1/2+y,z
x,1/2-y,1/2+z
loop_
_atom_site_type_symbol
_atom_site_label
_atom_site_fract_x
_atom_site_fract_y
_atom_site_fract_z
Si Si1 0.275342 0.590047 0.063984
Si Si2 0.008344 0.165207 0.938777
Si Si3 0.188741 0.804429 0.436218
Si Si4 0.478329 0.557730 0.062717
Si Si5 0.789617 0.805979 0.435419
Si Si6 0.787260 0.983184 0.570501
Si Si7 0.961505 0.552130 0.931143
Si Si8 0.654800 0.608187 0.431096
O O1 0.267013 0.589372 0.250000
O O2 0.379018 0.577750 0.022239
O O3 0.239501 0.644673 0.999449
O O4 0.221371 0.541278 0.992672
O O5 0.010492 0.166092 0.750000
O O6 0.916377 0.192408 0.986685
O O7 0.106724 0.184551 0.990322
O O8 0.999589 0.105632 0.993926
O O9 0.226012 0.750000 0.500000
O O10 0.191772 0.805091 0.250000
O O11 0.483533 0.554960 0.250000
O O12 0.553999 0.599147 0.009584
O O13 0.500000 0.500000 0.000000
O O14 0.760944 0.750000 0.500000
O O15 0.791486 0.805055 0.250000
O O16 0.720726 0.850854 0.487999
O O17 0.815927 0.984196 0.750000
O O18 0.857057 0.950523 0.469854
O O19 0.696786 0.949903 0.560633
O O20 0.976917 0.551849 0.750000
O O21 0.000000 0.500000 0.000000
O O22 0.652407 0.623020 0.250000
#
# Coordination Sequence:
#
# PCOD9438736 Si02
#       8
#     8   8   8   8   8   8   8   8
#     4  11  23  39  62  92 122 157 200 249 302 363
#     4   9  20  37  58  83 115 154 198 245 291 347
#     4  11  23  42  64  87 119 158 202 252 301 355
#     4  10  21  38  62  91 123 155 195 244 300 361
#     4  11  22  39  61  87 118 156 200 247 297 353
#     4  11  21  35  57  86 122 159 196 242 299 356
#     4  11  21  35  53  81 120 161 204 245 298 359
#     4  10  21  38  59  87 121 156 194 241 295 355
#
# _framework density 19.343136999999999
#
# number of rings (size 3 to 8) (size 9 to 14) (size 15 to 20)
#    0.000    1.500    2.500    3.000    0.000    2.500 
#    0.000    4.375    0.000    0.000    0.000    0.000 
#    0.000    0.000    0.000    0.000    0.000    0.000 
#
# Total GULP energy -357266.886152 kJ/mol
# GULP energy per Si atom -5582.295096 kJ/mol
# Density = 1.929911 g / cm^3
# Si number density = 19.343137 Si / 1000 Ang^3
#
#
#
# Elastic Constant Matrix: (Units=GPa)
#
#
# Indices 1 2 3 4 5 6 
#
# 1 75.1279 41.0685 4.5618 0.0000 0.0000 0.0000
# 2 41.0685 153.5785 33.2407 0.0000 0.0000 0.0000
# 3 4.5618 33.2407 29.5042 0.0000 0.0000 0.0000
# 4 0.0000 0.0000 0.0000 31.6967 0.0000 0.0000
# 5 0.0000 0.0000 0.0000 0.0000 20.5753 0.0000
# 6 0.0000 0.0000 0.0000 0.0000 0.0000 14.5285
#
#
#
# Elastic Compliance Matrix: (Units=1/GPa)
#
#
# Indices 1 2 3 4 5 6 
#
# 1 0.015796 -0.004887 0.003064 0.000000 0.000000 0.000000
# 2 -0.004887 0.010123 -0.010650 0.000000 0.000000 0.000000
# 3 0.003064 -0.010650 0.045418 0.000000 0.000000 0.000000
# 4 0.000000 0.000000 0.000000 0.031549 0.000000 0.000000
# 5 0.000000 0.000000 0.000000 0.000000 0.048602 0.000000
# 6 0.000000 0.000000 0.000000 0.000000 0.000000 0.068830
#
#
# Mechanical properties :
#
#
# Convention : Reuss Voigt Hill
#
# Bulk Modulus (GPa) = 21.55572 46.21695 33.88634
# Shear Modulus (GPa) = 19.17706 25.31610 22.24658
#
# Velocity S-wave (km/s) = 3.15209 3.62164 3.39499
# Velocity P-wave (km/s) = 4.94121 6.43689 5.73799
#
# Compressibility (1/GPa) = 0.04639140
#
# Stress axis : x y z
#
# Youngs Moduli (GPa) = 63.30652 98.78281 22.01768
#
# Poissons Ratio (x) = 0.48277 -0.06746
# Poissons Ratio (y) = 0.30939 0.23448
# Poissons Ratio (z) = -0.19396 1.05200
#
# Static dielectric constant tensor:
#      x y z
#    x 1.767130 0.000000 0.000000 
#    y 0.000000 1.683370 0.000000 
#    z 0.000000 0.000000 1.661460 
# 
# From -- ./inp_files/5553.got.cif
#   From: 2010.05.17/outbox.cif.g08.bks.cpg/sg57_3_cif.got.tgz:5553.got - 2010.06.03 13:58:18.
