data_PCOD9438050
_publ_section_title
;
Structure prediction by ZEFSAII (Michael W. Deem and Ramdas Pophale) SiO2 
 PCOD9438050
Probable space group: P B C M
;
_chemical_formula_sum "Si O2"
_cell_formula_units_Z 48
_cell_length_a 13.961979
_cell_length_b 8.802651
_cell_length_c 16.298166
_cell_angle_alpha 90.000000
_cell_angle_beta 90.000000
_cell_angle_gamma 90.000000
_cell_volume 2003.084180
_symmetry_space_group_name_H-M "P B C M"
_symmetry_group_IT_number 57
_symmetry_cell_setting 'orthorhombic'
loop_
_space_group_symop_operation_xyz
x,y,z
-x,-y,1/2+z
x,1/2-y,-z
-x,1/2+y,1/2-z
-x,-y,-z
x,y,1/2-z
-x,1/2+y,z
x,1/2-y,1/2+z
loop_
_atom_site_type_symbol
_atom_site_label
_atom_site_fract_x
_atom_site_fract_y
_atom_site_fract_z
Si Si1 0.617401 0.182601 0.591818
Si Si2 0.005444 0.680134 0.750000
Si Si3 0.540264 0.490122 0.844563
Si Si4 0.256077 0.082210 0.605930
Si Si5 0.856627 0.416588 0.750000
Si Si6 0.183859 0.602663 0.549449
Si Si7 0.096335 0.313031 0.909620
O O1 0.613512 0.250000 0.500000
O O2 0.572672 0.316229 0.646063
O O3 0.728810 0.150145 0.607833
O O4 0.551950 0.035655 0.603030
O O5 0.956010 0.514782 0.750000
O O6 0.966128 0.753012 0.665030
O O7 0.114658 0.739980 0.750000
O O8 0.520674 0.523310 0.750000
O O9 0.632231 0.585779 0.875095
O O10 0.203567 0.974978 0.672461
O O11 0.201806 0.242287 0.607923
O O12 0.234252 0.004521 0.519111
O O13 0.148507 0.750000 0.500000
O O14 0.103680 0.495018 0.587707
O O15 0.069219 0.250000 0.000000
#
# Coordination Sequence:
#
# PCOD9438050 Si02
#       7
#     8   4   8   8   4   8   8
#     4  11  24  40  60  89 126 166 221 263 314 373
#     4  10  22  44  66 101 129 168 214 267 327 392
#     4  12  24  41  59  89 127 166 215 268 317 367
#     4  10  20  38  63  85 123 168 203 257 321 382
#     4  10  22  42  64  93 129 164 208 263 325 392
#     4  10  20  39  59  92 123 160 219 260 314 378
#     4   9  21  40  67  95 130 168 214 260 326 400
#
# _framework density 23.963048000000001
#
# number of rings (size 3 to 8) (size 9 to 14) (size 15 to 20)
#    0.000    1.667    4.167    1.000    2.333    2.000 
#    3.000    8.333    0.000    0.000    0.000    0.000 
#    0.000    0.000    0.000    0.000    0.000    0.000 
#
# Total GULP energy -268561.436432 kJ/mol
# GULP energy per Si atom -5595.029926 kJ/mol
# Density = 2.390851 g / cm^3
# Si number density = 23.963048 Si / 1000 Ang^3
#
#
#
# Elastic Constant Matrix: (Units=GPa)
#
#
# Indices 1 2 3 4 5 6 
#
# 1 78.8587 31.2079 18.0311 0.0000 0.0000 0.0000
# 2 31.2079 99.2007 8.1959 0.0000 0.0000 0.0000
# 3 18.0311 8.1959 87.7448 0.0000 0.0000 0.0000
# 4 0.0000 0.0000 0.0000 26.5042 0.0000 0.0000
# 5 0.0000 0.0000 0.0000 0.0000 17.0728 0.0000
# 6 0.0000 0.0000 0.0000 0.0000 0.0000 36.3790
#
#
#
# Elastic Compliance Matrix: (Units=1/GPa)
#
#
# Indices 1 2 3 4 5 6 
#
# 1 0.015083 -0.004524 -0.002677 0.000000 0.000000 0.000000
# 2 -0.004524 0.011516 -0.000146 0.000000 0.000000 0.000000
# 3 -0.002677 -0.000146 0.011960 0.000000 0.000000 0.000000
# 4 0.000000 0.000000 0.000000 0.037730 0.000000 0.000000
# 5 0.000000 0.000000 0.000000 0.000000 0.058573 0.000000
# 6 0.000000 0.000000 0.000000 0.000000 0.000000 0.027488
#
#
# Mechanical properties :
#
#
# Convention : Reuss Voigt Hill
#
# Bulk Modulus (GPa) = 41.90108 42.29712 42.09910
# Shear Modulus (GPa) = 27.02707 29.88248 28.45478
#
# Velocity S-wave (km/s) = 3.36201 3.53515 3.44967
# Velocity P-wave (km/s) = 5.70916 5.86109 5.78562
#
# Compressibility (1/GPa) = 0.02386573
#
# Stress axis : x y z
#
# Youngs Moduli (GPa) = 66.29834 86.83688 83.60900
#
# Poissons Ratio (x) = 0.39285 0.22382
# Poissons Ratio (y) = 0.29993 0.01221
# Poissons Ratio (z) = 0.17748 0.01268
#
# Static dielectric constant tensor:
#      x y z
#    x 1.889400 0.000000 0.000000 
#    y 0.000000 1.973030 0.000000 
#    z 0.000000 0.000000 1.912010 
# 
# From -- ./inp_files/22504.got.cif
#   From: 2010.05.17/outbox.cif.g08.bks.cpg/sg57_12_cif.got.tgz:22504.got - 2010.06.03 13:58:18.
