data_PCOD9438739
_publ_section_title
;
Structure prediction by ZEFSAII (Michael W. Deem and Ramdas Pophale) SiO2 
 PCOD9438739
Probable space group: P B C M
;
_chemical_formula_sum "Si O2"
_cell_formula_units_Z 40
_cell_length_a 12.798344
_cell_length_b 18.917022
_cell_length_c 8.487350
_cell_angle_alpha 90.000000
_cell_angle_beta 90.000000
_cell_angle_gamma 90.000000
_cell_volume 2054.843070
_symmetry_space_group_name_H-M "P B C M"
_symmetry_group_IT_number 57
_symmetry_cell_setting 'orthorhombic'
loop_
_space_group_symop_operation_xyz
x,y,z
-x,-y,1/2+z
x,1/2-y,-z
-x,1/2+y,1/2-z
-x,-y,-z
x,y,1/2-z
-x,1/2+y,z
x,1/2-y,1/2+z
loop_
_atom_site_type_symbol
_atom_site_label
_atom_site_fract_x
_atom_site_fract_y
_atom_site_fract_z
Si Si1 0.047289 0.926183 0.060603
Si Si2 0.717903 0.419608 0.561022
Si Si3 0.660054 0.576520 0.941988
Si Si4 0.533861 0.328617 0.438629
Si Si5 0.857490 0.670837 0.939927
O O1 0.050639 0.928067 0.250000
O O2 0.966407 0.864988 0.010789
O O3 0.163003 0.915025 0.995255
O O4 0.000000 0.000000 0.000000
O O5 0.715993 0.418344 0.750000
O O6 0.671678 0.495538 0.506177
O O7 0.644696 0.357970 0.496187
O O8 0.659498 0.575786 0.750000
O O9 0.556126 0.617071 0.994758
O O10 0.761581 0.621162 0.992296
O O11 0.513256 0.250000 0.500000
O O12 0.531865 0.327419 0.250000
O O13 0.855375 0.671766 0.750000
O O14 0.845817 0.750000 0.000000
#
# Coordination Sequence:
#
# PCOD9438739 Si02
#       5
#     8   8   8   8   8
#     4  11  22  39  62  88 122 160 204 250 300 361
#     4  11  22  40  64  89 122 159 201 253 308 361
#     4   9  19  38  62  88 121 156 196 250 303 359
#     4  11  23  40  61  88 122 160 204 249 303 364
#     4  10  21  38  59  88 122 156 195 246 301 357
#
# _framework density 19.466206
#
# number of rings (size 3 to 8) (size 9 to 14) (size 15 to 20)
#    0.000    1.600    2.000    3.000    0.000    2.400 
#    0.000    6.000    0.000    0.000    0.000    0.000 
#    0.000    0.000    0.000    0.000    0.000    0.000 
#
# Total GULP energy -223579.844805 kJ/mol
# GULP energy per Si atom -5589.496120 kJ/mol
# Density = 1.942190 g / cm^3
# Si number density = 19.466206 Si / 1000 Ang^3
#
#
#
# Elastic Constant Matrix: (Units=GPa)
#
#
# Indices 1 2 3 4 5 6 
#
# 1 102.1390 -7.3674 13.2491 0.0000 0.0000 0.0000
# 2 -7.3674 35.4422 2.9279 0.0000 0.0000 0.0000
# 3 13.2491 2.9279 36.5746 0.0000 0.0000 0.0000
# 4 0.0000 0.0000 0.0000 32.0289 0.0000 0.0000
# 5 0.0000 0.0000 0.0000 0.0000 26.3235 0.0000
# 6 0.0000 0.0000 0.0000 0.0000 0.0000 29.1444
#
#
#
# Elastic Compliance Matrix: (Units=1/GPa)
#
#
# Indices 1 2 3 4 5 6 
#
# 1 0.010491 0.002511 -0.004001 0.000000 0.000000 0.000000
# 2 0.002511 0.029004 -0.003232 0.000000 0.000000 0.000000
# 3 -0.004001 -0.003232 0.029049 0.000000 0.000000 0.000000
# 4 0.000000 0.000000 0.000000 0.031222 0.000000 0.000000
# 5 0.000000 0.000000 0.000000 0.000000 0.037989 0.000000
# 6 0.000000 0.000000 0.000000 0.000000 0.000000 0.034312
#
#
# Mechanical properties :
#
#
# Convention : Reuss Voigt Hill
#
# Bulk Modulus (GPa) = 16.92016 21.30834 19.11425
# Shear Modulus (GPa) = 24.84963 28.52245 26.68604
#
# Velocity S-wave (km/s) = 3.57676 3.83198 3.70657
# Velocity P-wave (km/s) = 5.07628 5.52710 5.30648
#
# Compressibility (1/GPa) = 0.05910110
#
# Stress axis : x y z
#
# Youngs Moduli (GPa) = 95.32207 34.47806 34.42401
#
# Poissons Ratio (x) = -0.08658 0.13774
# Poissons Ratio (y) = -0.23938 0.11124
# Poissons Ratio (z) = 0.38141 0.11142
#
# Static dielectric constant tensor:
#      x y z
#    x 1.664480 0.000000 0.000000 
#    y 0.000000 1.650510 0.000000 
#    z 0.000000 0.000000 1.672520 
# 
# From -- ./inp_files/2638.got.cif
#   From: 2010.05.17/outbox.cif.g08.bks.cpg/sg57_2_cif.got.tgz:2638.got - 2010.06.03 13:58:18.
