data_PCOD9438669
_publ_section_title
;
Structure prediction by ZEFSAII (Michael W. Deem and Ramdas Pophale) SiO2 
 PCOD9438669
Probable space group: P B C M
;
_chemical_formula_sum "Si O2"
_cell_formula_units_Z 52
_cell_length_a 20.896230
_cell_length_b 4.841900
_cell_length_c 22.011028
_cell_angle_alpha 90.000000
_cell_angle_beta 90.000000
_cell_angle_gamma 90.000000
_cell_volume 2227.019818
_symmetry_space_group_name_H-M "P B C M"
_symmetry_group_IT_number 57
_symmetry_cell_setting 'orthorhombic'
loop_
_space_group_symop_operation_xyz
x,y,z
-x,-y,1/2+z
x,1/2-y,-z
-x,1/2+y,1/2-z
-x,-y,-z
x,y,1/2-z
-x,1/2+y,z
x,1/2-y,1/2+z
loop_
_atom_site_type_symbol
_atom_site_label
_atom_site_fract_x
_atom_site_fract_y
_atom_site_fract_z
Si Si1 0.247680 0.640108 0.068518
Si Si2 0.548075 0.806267 0.250000
Si Si3 0.459132 0.635133 0.937996
Si Si4 0.365904 0.587228 0.151031
Si Si5 0.291417 0.580710 0.750000
Si Si6 0.951742 0.525648 0.320131
Si Si7 0.787694 0.918128 0.250000
Si Si8 0.824848 0.661820 0.378610
O O1 0.310444 0.508521 0.102145
O O2 0.193615 0.400871 0.073328
O O3 0.221884 0.905491 0.106488
O O4 0.259301 0.750000 0.000000
O O5 0.513495 0.511829 0.250000
O O6 0.593347 0.873188 0.308082
O O7 0.475150 0.314340 0.936378
O O8 0.417913 0.734142 0.883518
O O9 0.428513 0.750000 0.000000
O O10 0.329827 0.801784 0.194071
O O11 0.278610 0.257349 0.750000
O O12 0.225053 0.756137 0.750000
O O13 0.926490 0.510762 0.250000
O O14 0.895478 0.537545 0.369446
O O15 0.002802 0.286059 0.326586
O O16 0.816516 0.818802 0.313482
#
# Coordination Sequence:
#
# PCOD9438669 Si02
#       8
#     8   4   8   8   4   8   4   8
#     4  12  27  44  66  98 133 182 232 275 332 394
#     4  11  26  43  64  96 129 168 211 268 342 411
#     4  10  22  39  59  81 111 156 208 257 308 372
#     4  11  23  41  64  91 126 168 203 276 322 406
#     4  11  24  36  60  92 132 152 207 248 328 399
#     4  10  21  37  64 104 139 174 221 275 337 400
#     4  12  20  41  60 100 123 174 198 252 338 398
#     4  12  23  43  70  95 144 176 216 285 334 405
#
# _framework density 23.349588000000001
#
# number of rings (size 3 to 8) (size 9 to 14) (size 15 to 20)
#    0.000    0.923    3.846    2.769    0.000    6.154 
#    0.000    3.077    0.000    9.231    0.000    0.000 
#    0.000    0.000    0.000    0.000    0.000    0.000 
#
# Total GULP energy -290673.901449 kJ/mol
# GULP energy per Si atom -5589.882720 kJ/mol
# Density = 2.329644 g / cm^3
# Si number density = 23.349588 Si / 1000 Ang^3
#
#
#
# Elastic Constant Matrix: (Units=GPa)
#
#
# Indices 1 2 3 4 5 6 
#
# 1 86.7526 13.3247 33.9856 0.0000 0.0000 0.0000
# 2 13.3247 105.8823 4.5446 0.0000 0.0000 0.0000
# 3 33.9856 4.5446 107.5185 0.0000 0.0000 0.0000
# 4 0.0000 0.0000 0.0000 23.7307 0.0000 0.0000
# 5 0.0000 0.0000 0.0000 0.0000 12.5038 0.0000
# 6 0.0000 0.0000 0.0000 0.0000 0.0000 83.3513
#
#
#
# Elastic Compliance Matrix: (Units=1/GPa)
#
#
# Indices 1 2 3 4 5 6 
#
# 1 0.013392 -0.001506 -0.004169 0.000000 0.000000 0.000000
# 2 -0.001506 0.009631 0.000069 0.000000 0.000000 0.000000
# 3 -0.004169 0.000069 0.010616 0.000000 0.000000 0.000000
# 4 0.000000 0.000000 0.000000 0.042139 0.000000 0.000000
# 5 0.000000 0.000000 0.000000 0.000000 0.079976 0.000000
# 6 0.000000 0.000000 0.000000 0.000000 0.000000 0.011997
#
#
# Mechanical properties :
#
#
# Convention : Reuss Voigt Hill
#
# Bulk Modulus (GPa) = 44.59258 44.87371 44.73315
# Shear Modulus (GPa) = 26.81834 40.47038 33.64436
#
# Velocity S-wave (km/s) = 3.39271 4.16773 3.80003
# Velocity P-wave (km/s) = 5.87253 6.51306 6.20107
#
# Compressibility (1/GPa) = 0.02242525
#
# Stress axis : x y z
#
# Youngs Moduli (GPa) = 74.67282 103.83085 94.20013
#
# Poissons Ratio (x) = 0.15640 0.39275
# Poissons Ratio (y) = 0.11248 -0.00650
# Poissons Ratio (z) = 0.31134 -0.00717
#
# Static dielectric constant tensor:
#      x y z
#    x 2.034750 0.000000 0.000000 
#    y 0.000000 1.825880 0.000000 
#    z 0.000000 0.000000 1.952300 
# 
# From -- ./inp_files/25771.got.cif
#   From: 2010.05.17/outbox.cif.g08.bks.cpg/sg57_13_cif.got.tgz:25771.got - 2010.06.03 13:58:18.
