data_PCOD9438075
_publ_section_title
;
Structure prediction by ZEFSAII (Michael W. Deem and Ramdas Pophale) SiO2 
 PCOD9438075
Probable space group: P B C M
;
_chemical_formula_sum "Si O2"
_cell_formula_units_Z 48
_cell_length_a 9.170379
_cell_length_b 11.389539
_cell_length_c 17.153230
_cell_angle_alpha 90.000000
_cell_angle_beta 90.000000
_cell_angle_gamma 90.000000
_cell_volume 1791.592938
_symmetry_space_group_name_H-M "P B C M"
_symmetry_group_IT_number 57
_symmetry_cell_setting 'orthorhombic'
loop_
_space_group_symop_operation_xyz
x,y,z
-x,-y,1/2+z
x,1/2-y,-z
-x,1/2+y,1/2-z
-x,-y,-z
x,y,1/2-z
-x,1/2+y,z
x,1/2-y,1/2+z
loop_
_atom_site_type_symbol
_atom_site_label
_atom_site_fract_x
_atom_site_fract_y
_atom_site_fract_z
Si Si1 0.617837 0.429279 0.845507
Si Si2 0.809489 0.041553 0.609681
Si Si3 0.874900 0.145046 0.453686
Si Si4 0.009198 0.959311 0.750000
Si Si5 0.854315 0.789891 0.250000
Si Si6 0.465786 0.672675 0.842012
Si Si7 0.209248 0.297122 0.583579
O O1 0.623309 0.424862 0.750000
O O2 0.776702 0.410988 0.886216
O O3 0.553829 0.556431 0.871132
O O4 0.531656 0.308581 0.868875
O O5 0.892073 0.066517 0.530228
O O6 0.918365 0.000432 0.675391
O O7 0.703394 0.138141 0.643265
O O8 0.722470 0.924797 0.590836
O O9 0.792188 0.250000 0.500000
O O10 0.031036 0.191936 0.425219
O O11 0.123638 0.069423 0.750000
O O12 0.986821 0.813169 0.750000
O O13 0.773639 0.764362 0.167681
O O14 0.491252 0.673175 0.750000
O O15 0.258777 0.250000 0.500000
#
# Coordination Sequence:
#
# PCOD9438075 Si02
#       7
#     8   8   8   4   4   8   8
#     4  10  23  42  68  94 125 170 215 279 326 383
#     4  11  21  39  65  91 130 177 210 260 329 387
#     4  11  21  37  61  93 126 164 219 262 318 383
#     4  10  20  38  64  93 125 171 221 256 323 379
#     4  10  22  36  66  91 125 177 221 258 315 387
#     4  10  21  42  69  91 128 165 220 269 329 388
#     4  10  23  40  61  95 138 173 215 267 321 388
#
# _framework density 26.791799000000001
#
# number of rings (size 3 to 8) (size 9 to 14) (size 15 to 20)
#    0.000    1.667    2.500    2.500    1.167    2.000 
#    3.000    0.000    1.833    0.000    0.000    0.000 
#    0.000    0.000    0.000    0.000    0.000    0.000 
#
# Total GULP energy -267675.067178 kJ/mol
# GULP energy per Si atom -5576.563900 kJ/mol
# Density = 2.673082 g / cm^3
# Si number density = 26.791799 Si / 1000 Ang^3
#
#
#
# Elastic Constant Matrix: (Units=GPa)
#
#
# Indices 1 2 3 4 5 6 
#
# 1 62.7198 38.6488 21.5073 0.0000 0.0000 0.0000
# 2 38.6488 174.3005 53.0987 0.0000 0.0000 0.0000
# 3 21.5073 53.0987 156.3361 0.0000 0.0000 0.0000
# 4 0.0000 0.0000 0.0000 60.5454 0.0000 0.0000
# 5 0.0000 0.0000 0.0000 0.0000 71.7250 0.0000
# 6 0.0000 0.0000 0.0000 0.0000 0.0000 58.8081
#
#
#
# Elastic Compliance Matrix: (Units=1/GPa)
#
#
# Indices 1 2 3 4 5 6 
#
# 1 0.018701 -0.003751 -0.001299 0.000000 0.000000 0.000000
# 2 -0.003751 0.007152 -0.001913 0.000000 0.000000 0.000000
# 3 -0.001299 -0.001913 0.007225 0.000000 0.000000 0.000000
# 4 0.000000 0.000000 0.000000 0.016517 0.000000 0.000000
# 5 0.000000 0.000000 0.000000 0.000000 0.013942 0.000000
# 6 0.000000 0.000000 0.000000 0.000000 0.000000 0.017004
#
#
# Mechanical properties :
#
#
# Convention : Reuss Voigt Hill
#
# Bulk Modulus (GPa) = 52.21411 68.87402 60.54407
# Shear Modulus (GPa) = 49.57871 56.88913 53.23392
#
# Velocity S-wave (km/s) = 4.30643 4.61301 4.46236
# Velocity P-wave (km/s) = 6.65269 7.35772 7.01407
#
# Compressibility (1/GPa) = 0.01915191
#
# Stress axis : x y z
#
# Youngs Moduli (GPa) = 53.47406 139.82626 138.41060
#
# Poissons Ratio (x) = 0.52449 0.17975
# Poissons Ratio (y) = 0.20058 0.26478
# Poissons Ratio (z) = 0.06944 0.26749
#
# Static dielectric constant tensor:
#      x y z
#    x 2.238830 0.000000 0.000000 
#    y 0.000000 2.311540 0.000000 
#    z 0.000000 0.000000 2.065810 
# 
# From -- ./inp_files/21861.got.cif
#   From: 2010.05.17/outbox.cif.g08.bks.cpg/sg57_11_cif.got.tgz:21861.got - 2010.06.03 13:58:18.
