data_PCOD9438976
_publ_section_title
;
Structure prediction by ZEFSAII (Michael W. Deem and Ramdas Pophale) SiO2 
 PCOD9438976
Probable space group: P B C M
;
_chemical_formula_sum "Si O2"
_cell_formula_units_Z 64
_cell_length_a 12.836991
_cell_length_b 29.361237
_cell_length_c 8.612554
_cell_angle_alpha 90.000000
_cell_angle_beta 90.000000
_cell_angle_gamma 90.000000
_cell_volume 3246.157169
_symmetry_space_group_name_H-M "P B C M"
_symmetry_group_IT_number 57
_symmetry_cell_setting 'orthorhombic'
loop_
_space_group_symop_operation_xyz
x,y,z
-x,-y,1/2+z
x,1/2-y,-z
-x,1/2+y,1/2-z
-x,-y,-z
x,y,1/2-z
-x,1/2+y,z
x,1/2-y,1/2+z
loop_
_atom_site_type_symbol
_atom_site_label
_atom_site_fract_x
_atom_site_fract_y
_atom_site_fract_z
Si Si1 0.893090 0.978762 0.935182
Si Si2 0.480661 0.549784 0.063829
Si Si3 0.155555 0.378246 0.436597
Si Si4 0.434611 0.801187 0.062910
Si Si5 0.786046 0.344867 0.062731
Si Si6 0.243094 0.940870 0.564187
Si Si7 0.615566 0.634885 0.437196
Si Si8 0.003431 0.701042 0.563178
O O1 0.897242 0.977168 0.750000
O O2 0.872151 0.928158 0.998432
O O3 0.804044 0.013905 0.989335
O O4 0.000000 0.000000 0.000000
O O5 0.484664 0.548335 0.250000
O O6 0.364136 0.564042 0.019123
O O7 0.564641 0.586751 0.011743
O O8 0.500000 0.500000 0.000000
O O9 0.155235 0.380859 0.250000
O O10 0.269036 0.362907 0.495063
O O11 0.071521 0.340259 0.485935
O O12 0.438524 0.801173 0.250000
O O13 0.327591 0.826719 0.013925
O O14 0.431378 0.750000 0.000000
O O15 0.535454 0.827030 0.996761
O O16 0.786341 0.348140 0.250000
O O17 0.878452 0.310990 0.014751
O O18 0.809730 0.394695 0.995057
O O19 0.234437 0.944220 0.750000
O O20 0.619631 0.636236 0.250000
O O21 0.971016 0.750000 0.500000
O O22 0.001071 0.702695 0.750000
#
# Coordination Sequence:
#
# PCOD9438976 Si02
#       8
#     8   8   8   8   8   8   8   8
#     4  12  25  42  64  94 128 170 218 265 322 383
#     4  10  22  37  57  86 120 160 206 254 308 367
#     4  11  24  43  65  93 130 170 215 267 321 384
#     4  11  23  39  63  93 126 167 214 267 328 390
#     4  10  21  39  63  94 128 165 208 261 323 387
#     4  11  22  38  61  91 126 167 211 260 316 379
#     4  11  23  42  63  89 126 168 215 264 317 382
#     4  10  23  42  65  92 123 158 204 259 319 383
#
# _framework density 19.715619
#
# number of rings (size 3 to 8) (size 9 to 14) (size 15 to 20)
#    0.000    1.250    1.250    4.500    0.000    7.500 
#    0.000    1.250    0.000    0.000    0.000    0.000 
#    0.000    0.000    0.000    0.000    0.000    0.000 
#
# Total GULP energy -357901.845425 kJ/mol
# GULP energy per Si atom -5592.216335 kJ/mol
# Density = 1.967075 g / cm^3
# Si number density = 19.715619 Si / 1000 Ang^3
#
#
#
# Elastic Constant Matrix: (Units=GPa)
#
#
# Indices 1 2 3 4 5 6 
#
# 1 128.4772 60.0613 37.4023 0.0000 0.0000 0.0000
# 2 60.0613 164.4191 36.6523 0.0000 0.0000 0.0000
# 3 37.4023 36.6523 54.8865 0.0000 0.0000 0.0000
# 4 0.0000 0.0000 0.0000 38.5957 0.0000 0.0000
# 5 0.0000 0.0000 0.0000 0.0000 27.8219 0.0000
# 6 0.0000 0.0000 0.0000 0.0000 0.0000 35.8236
#
#
#
# Elastic Compliance Matrix: (Units=1/GPa)
#
#
# Indices 1 2 3 4 5 6 
#
# 1 0.010616 -0.002662 -0.005457 0.000000 0.000000 0.000000
# 2 -0.002662 0.007813 -0.003404 0.000000 0.000000 0.000000
# 3 -0.005457 -0.003404 0.024211 0.000000 0.000000 0.000000
# 4 0.000000 0.000000 0.000000 0.025910 0.000000 0.000000
# 5 0.000000 0.000000 0.000000 0.000000 0.035943 0.000000
# 6 0.000000 0.000000 0.000000 0.000000 0.000000 0.027915
#
#
# Mechanical properties :
#
#
# Convention : Reuss Voigt Hill
#
# Bulk Modulus (GPa) = 51.03162 68.44605 59.73884
# Shear Modulus (GPa) = 30.86716 34.69271 32.77994
#
# Velocity S-wave (km/s) = 3.96108 4.19938 4.08197
# Velocity P-wave (km/s) = 6.84546 7.63577 7.25139
#
# Compressibility (1/GPa) = 0.01959569
#
# Stress axis : x y z
#
# Youngs Moduli (GPa) = 94.19358 127.99124 41.30331
#
# Poissons Ratio (x) = 0.34066 0.22540
# Poissons Ratio (y) = 0.25071 0.14058
# Poissons Ratio (z) = 0.51403 0.43564
#
# Static dielectric constant tensor:
#      x y z
#    x 1.741590 0.000000 0.000000 
#    y 0.000000 1.661190 0.000000 
#    z 0.000000 0.000000 1.666880 
# 
# From -- ./inp_files/3874.got.cif
#   From: 2010.05.17/outbox.cif.g08.bks.cpg/sg57_2_cif.got.tgz:3874.got - 2010.06.03 13:58:18.
