data_PCOD9438504
_publ_section_title
;
Structure prediction by ZEFSAII (Michael W. Deem and Ramdas Pophale) SiO2 
 PCOD9438504
Probable space group: P B C M
;
_chemical_formula_sum "Si O2"
_cell_formula_units_Z 64
_cell_length_a 14.902814
_cell_length_b 28.380332
_cell_length_c 8.749256
_cell_angle_alpha 90.000000
_cell_angle_beta 90.000000
_cell_angle_gamma 90.000000
_cell_volume 3700.469907
_symmetry_space_group_name_H-M "P B C M"
_symmetry_group_IT_number 57
_symmetry_cell_setting 'orthorhombic'
loop_
_space_group_symop_operation_xyz
x,y,z
-x,-y,1/2+z
x,1/2-y,-z
-x,1/2+y,1/2-z
-x,-y,-z
x,y,1/2-z
-x,1/2+y,z
x,1/2-y,1/2+z
loop_
_atom_site_type_symbol
_atom_site_label
_atom_site_fract_x
_atom_site_fract_y
_atom_site_fract_z
Si Si1 0.354149 0.302109 0.933765
Si Si2 0.472064 0.114073 0.932570
Si Si3 0.354128 0.470162 0.567498
Si Si4 0.159273 0.468483 0.065958
Si Si5 0.852239 0.077153 0.432644
Si Si6 0.645488 0.074471 0.433583
Si Si7 0.027372 0.383741 0.068046
Si Si8 0.852654 0.801664 0.932461
O O1 0.361843 0.301600 0.750000
O O2 0.250514 0.314637 0.973622
O O3 0.370946 0.250000 0.000000
O O4 0.420619 0.340367 0.004014
O O5 0.471742 0.114053 0.750000
O O6 0.419562 0.068243 0.994889
O O7 0.572647 0.109381 0.996533
O O8 0.363422 0.470370 0.750000
O O9 0.252366 0.457730 0.518610
O O10 0.371532 0.522237 0.500804
O O11 0.175089 0.467105 0.250000
O O12 0.132491 0.522041 0.026778
O O13 0.083888 0.430671 0.026001
O O14 0.861912 0.081425 0.250000
O O15 0.748496 0.087309 0.471596
O O16 0.926239 0.108967 0.512147
O O17 0.637395 0.072358 0.250000
O O18 0.029552 0.379262 0.250000
O O19 0.078234 0.339693 0.995324
O O20 0.857884 0.799636 0.750000
O O21 0.870025 0.750000 0.000000
#
# Coordination Sequence:
#
# PCOD9438504 Si02
#       8
#     8   8   8   8   8   8   8   8
#     4  10  21  38  59  84 111 140 172 212 261 314
#     4  12  23  35  54  79 107 141 179 219 261 313
#     4  11  21  33  51  77 108 142 179 220 264 314
#     4   9  19  34  50  74 108 144 178 215 259 309
#     4   9  19  35  53  73 103 141 179 219 262 305
#     4  10  21  38  55  74 104 141 180 223 266 311
#     4  11  21  32  52  79 107 139 177 217 259 310
#     4  10  21  37  57  80 108 138 171 211 259 312
#
# _framework density 17.295102
#
# number of rings (size 3 to 8) (size 9 to 14) (size 15 to 20)
#    0.000    1.750    0.000    6.000    0.000    7.000 
#    0.000    0.000    0.000    0.750    0.000    0.000 
#    0.000    0.000    0.000    0.000    0.000    0.000 
#
# Total GULP energy -357628.652312 kJ/mol
# GULP energy per Si atom -5587.947692 kJ/mol
# Density = 1.725574 g / cm^3
# Si number density = 17.295102 Si / 1000 Ang^3
#
#
#
# Elastic Constant Matrix: (Units=GPa)
#
#
# Indices 1 2 3 4 5 6 
#
# 1 135.9988 96.2510 67.5041 0.0000 0.0000 0.0000
# 2 96.2510 95.5954 53.1368 0.0000 0.0000 0.0000
# 3 67.5041 53.1368 86.3305 0.0000 0.0000 0.0000
# 4 0.0000 0.0000 0.0000 27.8530 0.0000 0.0000
# 5 0.0000 0.0000 0.0000 0.0000 27.9909 0.0000
# 6 0.0000 0.0000 0.0000 0.0000 0.0000 30.7364
#
#
#
# Elastic Compliance Matrix: (Units=1/GPa)
#
#
# Indices 1 2 3 4 5 6 
#
# 1 0.028062 -0.024409 -0.006919 0.000000 0.000000 0.000000
# 2 -0.024409 0.037132 -0.003769 0.000000 0.000000 0.000000
# 3 -0.006919 -0.003769 0.019313 0.000000 0.000000 0.000000
# 4 0.000000 0.000000 0.000000 0.035903 0.000000 0.000000
# 5 0.000000 0.000000 0.000000 0.000000 0.035726 0.000000
# 6 0.000000 0.000000 0.000000 0.000000 0.000000 0.032535
#
#
# Mechanical properties :
#
#
# Convention : Reuss Voigt Hill
#
# Bulk Modulus (GPa) = 69.86112 83.52317 76.69214
# Shear Modulus (GPa) = 18.96560 24.05157 21.50858
#
# Velocity S-wave (km/s) = 3.31507 3.73320 3.53033
# Velocity P-wave (km/s) = 7.42524 8.18414 7.81391
#
# Compressibility (1/GPa) = 0.01431411
#
# Stress axis : x y z
#
# Youngs Moduli (GPa) = 35.63521 26.93103 51.77788
#
# Poissons Ratio (x) = 0.65735 0.35824
# Poissons Ratio (y) = 0.86981 0.19515
# Poissons Ratio (z) = 0.24655 0.10150
#
# Static dielectric constant tensor:
#      x y z
#    x 1.588260 0.000000 0.000000 
#    y 0.000000 1.559770 0.000000 
#    z 0.000000 0.000000 1.573490 
# 
# From -- ./inp_files/5731.got.cif
#   From: 2010.05.17/outbox.cif.g08.bks.cpg/sg57_3_cif.got.tgz:5731.got - 2010.06.03 13:58:18.
