data_PCOD9438769
_publ_section_title
;
Structure prediction by ZEFSAII (Michael W. Deem and Ramdas Pophale) SiO2 
 PCOD9438769
Probable space group: P B C M
;
_chemical_formula_sum "Si O2"
_cell_formula_units_Z 64
_cell_length_a 23.088063
_cell_length_b 9.605655
_cell_length_c 14.500199
_cell_angle_alpha 90.000000
_cell_angle_beta 90.000000
_cell_angle_gamma 90.000000
_cell_volume 3215.795666
_symmetry_space_group_name_H-M "P B C M"
_symmetry_group_IT_number 57
_symmetry_cell_setting 'orthorhombic'
loop_
_space_group_symop_operation_xyz
x,y,z
-x,-y,1/2+z
x,1/2-y,-z
-x,1/2+y,1/2-z
-x,-y,-z
x,y,1/2-z
-x,1/2+y,z
x,1/2-y,1/2+z
loop_
_atom_site_type_symbol
_atom_site_label
_atom_site_fract_x
_atom_site_fract_y
_atom_site_fract_z
Si Si1 0.951674 0.557156 0.070556
Si Si2 0.375630 0.638952 0.642499
Si Si3 0.961428 0.239785 0.855403
Si Si4 0.819318 0.590762 0.007828
Si Si5 0.537552 0.101193 0.139126
Si Si6 0.843637 0.374893 0.640375
Si Si7 0.758358 0.381202 0.357867
Si Si8 0.575695 0.603002 0.484781
O O1 0.950840 0.424493 0.138882
O O2 0.886195 0.582030 0.040804
O O3 0.979166 0.702414 0.103601
O O4 0.000000 0.500000 0.000000
O O5 0.384045 0.596566 0.750000
O O6 0.416042 0.773931 0.628131
O O7 0.307698 0.666445 0.628668
O O8 0.392578 0.516170 0.573340
O O9 0.963466 0.281548 0.750000
O O10 0.906443 0.323565 0.896039
O O11 0.778434 0.506274 0.077381
O O12 0.801821 0.750000 0.000000
O O13 0.820884 0.509647 0.911264
O O14 0.527979 0.080643 0.250000
O O15 0.480281 0.137549 0.079773
O O16 0.559491 0.964837 0.083702
O O17 0.846893 0.397073 0.750000
O O18 0.800552 0.247478 0.622757
O O19 0.765258 0.419592 0.250000
O O20 0.606973 0.750000 0.500000
#
# Coordination Sequence:
#
# PCOD9438769 Si02
#       8
#     8   8   8   8   8   8   8   8
#     4  12  23  38  58  87 121 155 201 249 310 378
#     4  10  22  42  66  92 123 166 216 263 313 375
#     4  11  23  39  59  85 119 157 200 252 307 368
#     4  12  25  40  62  93 126 166 199 258 323 377
#     4  10  21  38  60  89 128 172 218 261 307 366
#     4  10  22  42  64  88 118 159 209 256 306 368
#     4  10  23  44  70  92 118 162 218 267 310 374
#     4  11  22  35  58  93 132 168 206 258 318 376
#
# _framework density 19.901761
#
# number of rings (size 3 to 8) (size 9 to 14) (size 15 to 20)
#    0.000    1.250    2.500    4.125    0.000    5.500 
#    0.000    0.000    0.000    3.000    0.000    0.000 
#    0.000    0.000    0.000    0.000    0.000    0.000 
#
# Total GULP energy -357367.362337 kJ/mol
# GULP energy per Si atom -5583.865037 kJ/mol
# Density = 1.985646 g / cm^3
# Si number density = 19.901761 Si / 1000 Ang^3
#
#
#
# Elastic Constant Matrix: (Units=GPa)
#
#
# Indices 1 2 3 4 5 6 
#
# 1 72.9956 12.8720 27.9265 0.0000 0.0000 0.0000
# 2 12.8720 116.5465 47.3145 0.0000 0.0000 0.0000
# 3 27.9265 47.3145 93.4230 0.0000 0.0000 0.0000
# 4 0.0000 0.0000 0.0000 7.7552 0.0000 0.0000
# 5 0.0000 0.0000 0.0000 0.0000 11.0649 0.0000
# 6 0.0000 0.0000 0.0000 0.0000 0.0000 20.4681
#
#
#
# Elastic Compliance Matrix: (Units=1/GPa)
#
#
# Indices 1 2 3 4 5 6 
#
# 1 0.015473 0.000212 -0.004733 0.000000 0.000000 0.000000
# 2 0.000212 0.010804 -0.005535 0.000000 0.000000 0.000000
# 3 -0.004733 -0.005535 0.014922 0.000000 0.000000 0.000000
# 4 0.000000 0.000000 0.000000 0.128946 0.000000 0.000000
# 5 0.000000 0.000000 0.000000 0.000000 0.090376 0.000000
# 6 0.000000 0.000000 0.000000 0.000000 0.000000 0.048857
#
#
# Mechanical properties :
#
#
# Convention : Reuss Voigt Hill
#
# Bulk Modulus (GPa) = 47.42112 51.02122 49.22117
# Shear Modulus (GPa) = 14.85809 20.84777 17.85293
#
# Velocity S-wave (km/s) = 2.73531 3.24007 2.99833
# Velocity P-wave (km/s) = 5.81852 6.29997 6.06403
#
# Compressibility (1/GPa) = 0.02108765
#
# Stress axis : x y z
#
# Youngs Moduli (GPa) = 64.63016 92.55883 67.01471
#
# Poissons Ratio (x) = -0.01967 0.31717
# Poissons Ratio (y) = -0.01373 0.37094
# Poissons Ratio (z) = 0.30588 0.51233
#
# Static dielectric constant tensor:
#      x y z
#    x 1.698000 0.000000 0.000000 
#    y 0.000000 1.695670 0.000000 
#    z 0.000000 0.000000 1.728030 
# 
# From -- ./inp_files/19471.got.cif
#   From: 2010.05.17/outbox.cif.g08.bks.cpg/sg57_10_cif.got.tgz:19471.got - 2010.06.03 13:58:18.
