data_PCOD9438071
_publ_section_title
;
Structure prediction by ZEFSAII (Michael W. Deem and Ramdas Pophale) SiO2 
 PCOD9438071
Probable space group: P B C M
;
_chemical_formula_sum "Si O2"
_cell_formula_units_Z 40
_cell_length_a 7.839995
_cell_length_b 17.537421
_cell_length_c 12.608034
_cell_angle_alpha 90.000000
_cell_angle_beta 90.000000
_cell_angle_gamma 90.000000
_cell_volume 1733.520112
_symmetry_space_group_name_H-M "P B C M"
_symmetry_group_IT_number 57
_symmetry_cell_setting 'orthorhombic'
loop_
_space_group_symop_operation_xyz
x,y,z
-x,-y,1/2+z
x,1/2-y,-z
-x,1/2+y,1/2-z
-x,-y,-z
x,y,1/2-z
-x,1/2+y,z
x,1/2-y,1/2+z
loop_
_atom_site_type_symbol
_atom_site_label
_atom_site_fract_x
_atom_site_fract_y
_atom_site_fract_z
Si Si1 0.058485 0.707442 0.250000
Si Si2 0.633905 0.943602 0.133112
Si Si3 0.243325 0.539877 0.940341
Si Si4 0.530750 0.639599 0.250000
Si Si5 0.883114 0.953664 0.750000
Si Si6 0.289134 0.201425 0.750000
Si Si7 0.301084 0.818572 0.934670
O O1 0.171035 0.720116 0.146486
O O2 0.010252 0.617363 0.250000
O O3 0.894459 0.760169 0.250000
O O4 0.671646 0.978509 0.250000
O O5 0.431861 0.950488 0.111691
O O6 0.680574 0.855062 0.150997
O O7 0.732817 0.980996 0.036676
O O8 0.115408 0.506639 0.853505
O O9 0.205039 0.622081 0.989519
O O10 0.697463 0.588011 0.250000
O O11 0.581123 0.728814 0.250000
O O12 0.427132 0.632049 0.140182
O O13 0.385784 0.750000 0.000000
#
# Coordination Sequence:
#
# PCOD9438071 Si02
#       7
#     4   8   8   4   4   4   8
#     4  10  26  44  60  88 130 170 216 254 300 380
#     4   9  19  34  64 100 126 154 198 264 325 367
#     4  11  21  37  64  95 129 159 203 261 321 379
#     4  10  20  38  64  92 122 154 214 262 312 368
#     4  11  23  41  65  97 125 159 211 269 316 370
#     4   9  19  39  65  91 123 161 207 261 308 368
#     4  11  25  41  60  87 126 174 207 255 311 374
#
# _framework density 23.074435000000001
#
# number of rings (size 3 to 8) (size 9 to 14) (size 15 to 20)
#    0.600    1.200    1.000    3.600    2.800    4.000 
#    0.000    6.000    0.000    0.000    0.000    0.000 
#    0.000    0.000    0.000    0.000    0.000    0.000 
#
# Total GULP energy -223775.076516 kJ/mol
# GULP energy per Si atom -5594.376913 kJ/mol
# Density = 2.302192 g / cm^3
# Si number density = 23.074435 Si / 1000 Ang^3
#
#
#
# Elastic Constant Matrix: (Units=GPa)
#
#
# Indices 1 2 3 4 5 6 
#
# 1 44.8386 -4.2489 9.3940 0.0000 0.0000 0.0000
# 2 -4.2489 102.9444 38.0825 0.0000 0.0000 0.0000
# 3 9.3940 38.0825 126.6676 0.0000 0.0000 0.0000
# 4 0.0000 0.0000 0.0000 24.5908 0.0000 0.0000
# 5 0.0000 0.0000 0.0000 0.0000 2.4306 0.0000
# 6 0.0000 0.0000 0.0000 0.0000 0.0000 21.1809
#
#
#
# Elastic Compliance Matrix: (Units=1/GPa)
#
#
# Indices 1 2 3 4 5 6 
#
# 1 0.022938 0.001773 -0.002234 0.000000 0.000000 0.000000
# 2 0.001773 0.011067 -0.003459 0.000000 0.000000 0.000000
# 3 -0.002234 -0.003459 0.009100 0.000000 0.000000 0.000000
# 4 0.000000 0.000000 0.000000 0.040666 0.000000 0.000000
# 5 0.000000 0.000000 0.000000 0.000000 0.411422 0.000000
# 6 0.000000 0.000000 0.000000 0.000000 0.000000 0.047212
#
#
# Mechanical properties :
#
#
# Convention : Reuss Voigt Hill
#
# Bulk Modulus (GPa) = 28.35607 40.10066 34.22837
# Shear Modulus (GPa) = 8.89680 25.05533 16.97606
#
# Velocity S-wave (km/s) = 1.96572 3.29880 2.71534
# Velocity P-wave (km/s) = 4.17944 5.65031 4.96959
#
# Compressibility (1/GPa) = 0.03526582
#
# Stress axis : x y z
#
# Youngs Moduli (GPa) = 43.59513 90.36149 109.88725
#
# Poissons Ratio (x) = -0.16024 0.24552
# Poissons Ratio (y) = -0.07731 0.38007
# Poissons Ratio (z) = 0.09741 0.31253
#
# Static dielectric constant tensor:
#      x y z
#    x 1.823410 0.000000 0.000000 
#    y 0.000000 1.841940 0.000000 
#    z 0.000000 0.000000 1.869070 
# 
# From -- ./inp_files/11630.got.cif
#   From: 2010.05.17/outbox.cif.g08.bks.cpg/sg57_6_cif.got.tgz:11630.got - 2010.06.03 13:58:18.
