data_PCOD9438388
_publ_section_title
;
Structure prediction by ZEFSAII (Michael W. Deem and Ramdas Pophale) SiO2 
 PCOD9438388
Probable space group: P B C M
;
_chemical_formula_sum "Si O2"
_cell_formula_units_Z 64
_cell_length_a 18.205500
_cell_length_b 12.107130
_cell_length_c 14.514860
_cell_angle_alpha 90.000000
_cell_angle_beta 90.000000
_cell_angle_gamma 90.000000
_cell_volume 3199.312538
_symmetry_space_group_name_H-M "P B C M"
_symmetry_group_IT_number 57
_symmetry_cell_setting 'orthorhombic'
loop_
_space_group_symop_operation_xyz
x,y,z
-x,-y,1/2+z
x,1/2-y,-z
-x,1/2+y,1/2-z
-x,-y,-z
x,y,1/2-z
-x,1/2+y,z
x,1/2-y,1/2+z
loop_
_atom_site_type_symbol
_atom_site_label
_atom_site_fract_x
_atom_site_fract_y
_atom_site_fract_z
Si Si1 0.837092 0.883897 0.361780
Si Si2 0.223654 0.725144 0.892249
Si Si3 0.200128 0.032428 0.357192
Si Si4 0.609020 0.258160 0.145608
Si Si5 0.064004 0.322327 0.638805
Si Si6 0.093155 0.889038 0.856357
Si Si7 0.303122 0.127384 0.987671
Si Si8 0.423447 0.562748 0.010190
O O1 0.830786 0.883248 0.250000
O O2 0.892180 0.786504 0.391799
O O3 0.757491 0.869663 0.406782
O O4 0.871556 0.999543 0.395433
O O5 0.208532 0.597140 0.874147
O O6 0.302699 0.756115 0.851923
O O7 0.155705 0.796716 0.857479
O O8 0.229918 0.750000 0.000000
O O9 0.214640 0.056654 0.250000
O O10 0.118284 0.075361 0.377671
O O11 0.256819 0.096520 0.421355
O O12 0.581883 0.270656 0.250000
O O13 0.593970 0.364867 0.081382
O O14 0.576900 0.151749 0.092941
O O15 0.057177 0.308004 0.750000
O O16 0.982766 0.345376 0.601160
O O17 0.075965 0.917367 0.750000
O O18 0.335972 0.250000 0.000000
O O19 0.361419 0.030027 0.973855
O O20 0.500000 0.500000 0.000000
#
# Coordination Sequence:
#
# PCOD9438388 Si02
#       8
#     8   8   8   8   8   8   8   8
#     4  10  21  40  61  88 128 168 220 279 328 391
#     4  12  22  40  63  97 126 166 223 281 328 388
#     4  11  22  40  64  90 127 173 221 270 322 387
#     4  11  23  46  75 101 135 178 225 273 325 391
#     4   9  20  37  55  84 125 172 219 272 335 392
#     4  10  21  35  59  87 119 169 225 277 335 389
#     4  12  24  41  68  96 129 173 223 264 331 402
#     4  11  26  46  72 104 142 173 212 272 336 400
#
# _framework density 20.004296
#
# number of rings (size 3 to 8) (size 9 to 14) (size 15 to 20)
#    0.000    1.250    3.750    2.625    3.500    2.000 
#    2.250    1.250    0.000    0.000    0.000    0.000 
#    0.000    0.000    0.000    0.000    0.000    0.000 
#
# Total GULP energy -357698.491117 kJ/mol
# GULP energy per Si atom -5589.038924 kJ/mol
# Density = 1.995877 g / cm^3
# Si number density = 20.004296 Si / 1000 Ang^3
#
#
#
# Elastic Constant Matrix: (Units=GPa)
#
#
# Indices 1 2 3 4 5 6 
#
# 1 107.3720 49.6796 11.6330 0.0000 0.0000 0.0000
# 2 49.6796 133.1566 23.7334 0.0000 0.0000 0.0000
# 3 11.6330 23.7334 89.3740 0.0000 0.0000 0.0000
# 4 0.0000 0.0000 0.0000 23.5955 0.0000 0.0000
# 5 0.0000 0.0000 0.0000 0.0000 12.1224 0.0000
# 6 0.0000 0.0000 0.0000 0.0000 0.0000 23.5716
#
#
#
# Elastic Compliance Matrix: (Units=1/GPa)
#
#
# Indices 1 2 3 4 5 6 
#
# 1 0.011268 -0.004138 -0.000368 0.000000 0.000000 0.000000
# 2 -0.004138 0.009403 -0.001958 0.000000 0.000000 0.000000
# 3 -0.000368 -0.001958 0.011757 0.000000 0.000000 0.000000
# 4 0.000000 0.000000 0.000000 0.042381 0.000000 0.000000
# 5 0.000000 0.000000 0.000000 0.000000 0.082492 0.000000
# 6 0.000000 0.000000 0.000000 0.000000 0.000000 0.042424
#
#
# Mechanical properties :
#
#
# Convention : Reuss Voigt Hill
#
# Bulk Modulus (GPa) = 51.28481 55.55497 53.41989
# Shear Modulus (GPa) = 22.81505 28.18166 25.49836
#
# Velocity S-wave (km/s) = 3.38080 3.75744 3.57409
# Velocity P-wave (km/s) = 6.39784 6.83054 6.61773
#
# Compressibility (1/GPa) = 0.01949895
#
# Stress axis : x y z
#
# Youngs Moduli (GPa) = 88.74629 106.34866 85.05699
#
# Poissons Ratio (x) = 0.44012 0.03127
# Poissons Ratio (y) = 0.36728 0.16657
# Poissons Ratio (z) = 0.03263 0.20826
#
# Static dielectric constant tensor:
#      x y z
#    x 1.686980 0.000000 0.000000 
#    y 0.000000 1.697930 0.000000 
#    z 0.000000 0.000000 1.748180 
# 
# From -- ./inp_files/19098.got.cif
#   From: 2010.05.17/outbox.cif.g08.bks.cpg/sg57_10_cif.got.tgz:19098.got - 2010.06.03 13:58:18.
