data_PCOD9438417
_publ_section_title
;
Structure prediction by ZEFSAII (Michael W. Deem and Ramdas Pophale) SiO2 
 PCOD9438417
Probable space group: P B C M
;
_chemical_formula_sum "Si O2"
_cell_formula_units_Z 48
_cell_length_a 14.217421
_cell_length_b 8.023296
_cell_length_c 17.502413
_cell_angle_alpha 90.000000
_cell_angle_beta 90.000000
_cell_angle_gamma 90.000000
_cell_volume 1996.510350
_symmetry_space_group_name_H-M "P B C M"
_symmetry_group_IT_number 57
_symmetry_cell_setting 'orthorhombic'
loop_
_space_group_symop_operation_xyz
x,y,z
-x,-y,1/2+z
x,1/2-y,-z
-x,1/2+y,1/2-z
-x,-y,-z
x,y,1/2-z
-x,1/2+y,z
x,1/2-y,1/2+z
loop_
_atom_site_type_symbol
_atom_site_label
_atom_site_fract_x
_atom_site_fract_y
_atom_site_fract_z
Si Si1 0.188546 0.314829 0.419641
Si Si2 0.471267 0.460792 0.339674
Si Si3 0.649044 0.622606 0.160706
Si Si4 0.021847 0.007249 0.839041
Si Si5 0.311431 0.843703 0.922785
Si Si6 0.873574 0.200682 0.589863
O O1 0.150779 0.250000 0.500000
O O2 0.260312 0.178832 0.385968
O O3 0.105095 0.365053 0.362978
O O4 0.249257 0.485434 0.434550
O O5 0.476237 0.501000 0.250000
O O6 0.420790 0.283337 0.345847
O O7 0.578740 0.477623 0.367860
O O8 0.401306 0.591651 0.378369
O O9 0.674084 0.599450 0.250000
O O10 0.999265 0.018866 0.750000
O O11 0.930129 0.034831 0.891267
O O12 0.068541 0.832521 0.860202
O O13 0.234506 0.719945 0.884737
O O14 0.338055 0.750000 0.000000
O O15 0.877944 0.250000 0.500000
#
# Coordination Sequence:
#
# PCOD9438417 Si02
#       6
#     8   8   8   8   8   8
#     4  10  21  36  55  77 106 143 178 218 269 323
#     4   9  18  33  54  76 103 137 174 217 266 316
#     4   9  18  34  53  76 103 136 176 218 264 316
#     4  11  22  37  58  84 111 143 183 228 272 323
#     4   9  20  36  54  76 104 138 176 216 261 318
#     4  10  21  38  58  81 111 147 182 223 273 326
#
# _framework density 24.041948000000001
#
# number of rings (size 3 to 8) (size 9 to 14) (size 15 to 20)
#    0.000    2.333    0.000    2.000    0.000    9.333 
#    0.000    3.333    0.000    5.000    0.000    0.000 
#    0.000    0.000    0.000    0.000    0.000    0.000 
#
# Total GULP energy -268501.648185 kJ/mol
# GULP energy per Si atom -5593.784337 kJ/mol
# Density = 2.398723 g / cm^3
# Si number density = 24.041948 Si / 1000 Ang^3
#
#
#
# Elastic Constant Matrix: (Units=GPa)
#
#
# Indices 1 2 3 4 5 6 
#
# 1 115.0006 12.1092 35.5536 0.0000 0.0000 0.0000
# 2 12.1092 48.8262 9.0211 0.0000 0.0000 0.0000
# 3 35.5536 9.0211 82.5567 0.0000 0.0000 0.0000
# 4 0.0000 0.0000 0.0000 30.3267 0.0000 0.0000
# 5 0.0000 0.0000 0.0000 0.0000 27.3703 0.0000
# 6 0.0000 0.0000 0.0000 0.0000 0.0000 198.8817
#
#
#
# Elastic Compliance Matrix: (Units=1/GPa)
#
#
# Indices 1 2 3 4 5 6 
#
# 1 0.010175 -0.001749 -0.004191 0.000000 0.000000 0.000000
# 2 -0.001749 0.021204 -0.001564 0.000000 0.000000 0.000000
# 3 -0.004191 -0.001564 0.014089 0.000000 0.000000 0.000000
# 4 0.000000 0.000000 0.000000 0.032974 0.000000 0.000000
# 5 0.000000 0.000000 0.000000 0.000000 0.036536 0.000000
# 6 0.000000 0.000000 0.000000 0.000000 0.000000 0.005028
#
#
# Mechanical properties :
#
#
# Convention : Reuss Voigt Hill
#
# Bulk Modulus (GPa) = 32.83004 39.97238 36.40121
# Shear Modulus (GPa) = 34.44308 63.96238 49.20273
#
# Velocity S-wave (km/s) = 3.78911 5.16355 4.52877
# Velocity P-wave (km/s) = 5.72958 7.22578 6.52073
#
# Compressibility (1/GPa) = 0.03045991
#
# Stress axis : x y z
#
# Youngs Moduli (GPa) = 98.27534 47.16193 70.97920
#
# Poissons Ratio (x) = 0.08250 0.29747
# Poissons Ratio (y) = 0.17191 0.11098
# Poissons Ratio (z) = 0.41187 0.07374
#
# Static dielectric constant tensor:
#      x y z
#    x 1.897020 0.000000 0.000000 
#    y 0.000000 2.055320 0.000000 
#    z 0.000000 0.000000 1.832630 
# 
# From -- ./inp_files/22454.got.cif
#   From: 2010.05.17/outbox.cif.g08.bks.cpg/sg57_12_cif.got.tgz:22454.got - 2010.06.03 13:58:18.
