data_PCOD9438346
_publ_section_title
;
Structure prediction by ZEFSAII (Michael W. Deem and Ramdas Pophale) SiO2 
 PCOD9438346
Probable space group: P B C M
;
_chemical_formula_sum "Si O2"
_cell_formula_units_Z 56
_cell_length_a 13.986586
_cell_length_b 29.272826
_cell_length_c 8.674680
_cell_angle_alpha 90.000000
_cell_angle_beta 90.000000
_cell_angle_gamma 90.000000
_cell_volume 3551.647326
_symmetry_space_group_name_H-M "P B C M"
_symmetry_group_IT_number 57
_symmetry_cell_setting 'orthorhombic'
loop_
_space_group_symop_operation_xyz
x,y,z
-x,-y,1/2+z
x,1/2-y,-z
-x,1/2+y,1/2-z
-x,-y,-z
x,y,1/2-z
-x,1/2+y,z
x,1/2-y,1/2+z
loop_
_atom_site_type_symbol
_atom_site_label
_atom_site_fract_x
_atom_site_fract_y
_atom_site_fract_z
Si Si1 0.920961 0.106385 0.065398
Si Si2 0.204551 0.966526 0.434763
Si Si3 0.234001 0.298515 0.934833
Si Si4 0.286523 0.103587 0.063306
Si Si5 0.399575 0.484016 0.934816
Si Si6 0.011387 0.200956 0.064133
Si Si7 0.102037 0.053338 0.566644
O O1 0.914480 0.105620 0.250000
O O2 0.947449 0.157897 0.015083
O O3 0.827539 0.082865 0.993953
O O4 0.009917 0.075313 0.011961
O O5 0.199087 0.968434 0.250000
O O6 0.310095 0.983830 0.482565
O O7 0.130663 0.003634 0.503281
O O8 0.233768 0.295530 0.750000
O O9 0.294731 0.343217 0.978124
O O10 0.122795 0.305926 0.983760
O O11 0.266353 0.250000 0.000000
O O12 0.272366 0.100674 0.250000
O O13 0.370058 0.067983 0.022593
O O14 0.191833 0.084593 0.981992
O O15 0.404139 0.485869 0.750000
O O16 0.500000 0.500000 0.000000
O O17 0.010488 0.202308 0.250000
O O18 0.980488 0.250000 0.000000
O O19 0.089540 0.051825 0.750000
#
# Coordination Sequence:
#
# PCOD9438346 Si02
#       7
#     8   8   8   8   8   8   8
#     4  11  20  32  47  66  94 128 161 195 231 271
#     4  10  21  35  48  67  93 123 155 192 234 279
#     4   9  16  28  44  64  93 126 159 192 227 270
#     4   9  17  32  48  66  95 130 158 190 235 281
#     4   9  19  34  53  71  93 120 151 192 240 288
#     4   9  18  30  45  64  91 127 162 196 229 267
#     4  11  20  29  44  67  94 127 161 194 227 270
#
# _framework density 15.767331
#
# number of rings (size 3 to 8) (size 9 to 14) (size 15 to 20)
#    0.000    2.286    1.429    3.429    0.000    4.571 
#    0.000    0.000    0.000    0.000    0.000    1.000 
#    0.000    2.286    0.000    0.000    0.000    0.000 
#
# Total GULP energy -312200.634808 kJ/mol
# GULP energy per Si atom -5575.011336 kJ/mol
# Density = 1.573144 g / cm^3
# Si number density = 15.767331 Si / 1000 Ang^3
#
#
#
# Elastic Constant Matrix: (Units=GPa)
#
#
# Indices 1 2 3 4 5 6 
#
# 1 67.7325 68.0961 13.0138 0.0000 0.0000 0.0000
# 2 68.0961 148.5302 26.3120 0.0000 0.0000 0.0000
# 3 13.0138 26.3120 20.8275 0.0000 0.0000 0.0000
# 4 0.0000 0.0000 0.0000 27.3360 0.0000 0.0000
# 5 0.0000 0.0000 0.0000 0.0000 22.1199 0.0000
# 6 0.0000 0.0000 0.0000 0.0000 0.0000 17.2915
#
#
#
# Elastic Compliance Matrix: (Units=1/GPa)
#
#
# Indices 1 2 3 4 5 6 
#
# 1 0.027430 -0.012290 -0.001613 0.000000 0.000000 0.000000
# 2 -0.012290 0.014180 -0.010235 0.000000 0.000000 0.000000
# 3 -0.001613 -0.010235 0.061952 0.000000 0.000000 0.000000
# 4 0.000000 0.000000 0.000000 0.036582 0.000000 0.000000
# 5 0.000000 0.000000 0.000000 0.000000 0.045208 0.000000
# 6 0.000000 0.000000 0.000000 0.000000 0.000000 0.057832
#
#
# Mechanical properties :
#
#
# Convention : Reuss Voigt Hill
#
# Bulk Modulus (GPa) = 18.08790 50.21490 34.15140
# Shear Modulus (GPa) = 16.13486 21.99403 19.06444
#
# Velocity S-wave (km/s) = 3.20239 3.73890 3.48100
# Velocity P-wave (km/s) = 5.01701 7.11026 6.15330
#
# Compressibility (1/GPa) = 0.05528558
#
# Stress axis : x y z
#
# Youngs Moduli (GPa) = 36.45685 70.52052 16.14162
#
# Poissons Ratio (x) = 0.86669 0.02604
# Poissons Ratio (y) = 0.44805 0.16521
# Poissons Ratio (z) = 0.05880 0.72179
#
# Static dielectric constant tensor:
#      x y z
#    x 1.509850 0.000000 0.000000 
#    y 0.000000 1.557660 0.000000 
#    z 0.000000 0.000000 1.542790 
# 
# From -- ./inp_files/5921.got.cif
#   From: 2010.05.17/outbox.cif.g08.bks.cpg/sg57_3_cif.got.tgz:5921.got - 2010.06.03 13:58:18.
