data_PCOD9438786
_publ_section_title
;
Structure prediction by ZEFSAII (Michael W. Deem and Ramdas Pophale) SiO2 
 PCOD9438786
Probable space group: P B C M
;
_chemical_formula_sum "Si O2"
_cell_formula_units_Z 56
_cell_length_a 12.355817
_cell_length_b 11.306999
_cell_length_c 19.447530
_cell_angle_alpha 90.000000
_cell_angle_beta 90.000000
_cell_angle_gamma 90.000000
_cell_volume 2716.960167
_symmetry_space_group_name_H-M "P B C M"
_symmetry_group_IT_number 57
_symmetry_cell_setting 'orthorhombic'
loop_
_space_group_symop_operation_xyz
x,y,z
-x,-y,1/2+z
x,1/2-y,-z
-x,1/2+y,1/2-z
-x,-y,-z
x,y,1/2-z
-x,1/2+y,z
x,1/2-y,1/2+z
loop_
_atom_site_type_symbol
_atom_site_label
_atom_site_fract_x
_atom_site_fract_y
_atom_site_fract_z
Si Si1 0.978420 0.634683 0.828112
Si Si2 0.192455 0.919413 0.824886
Si Si3 0.877759 0.822792 0.567871
Si Si4 0.200760 0.550179 0.601845
Si Si5 0.103281 0.627297 0.034952
Si Si6 0.554665 0.421893 0.829967
Si Si7 0.417715 0.848938 0.165815
O O1 0.989937 0.677232 0.750000
O O2 0.890264 0.529115 0.827088
O O3 0.928098 0.732564 0.877735
O O4 0.093057 0.590085 0.857087
O O5 0.181148 0.860711 0.750000
O O6 0.159805 0.850611 0.892707
O O7 0.317665 0.952309 0.832002
O O8 0.842230 0.750000 0.500000
O O9 0.979233 0.910451 0.548697
O O10 0.791147 0.907171 0.604619
O O11 0.183511 0.568391 0.519539
O O12 0.301543 0.619202 0.633365
O O13 0.079771 0.750000 0.000000
O O14 0.521479 0.413372 0.750000
O O15 0.491930 0.538522 0.856297
O O16 0.545715 0.284880 0.856164
O O17 0.411039 0.846355 0.250000
#
# Coordination Sequence:
#
# PCOD9438786 Si02
#       7
#     8   8   8   8   8   8   8
#     4  11  23  36  56  91 128 161 204 260 317 372
#     4  10  21  38  61  88 121 163 207 258 313 374
#     4  11  22  37  57  84 128 173 207 246 311 388
#     4  12  22  38  60  90 126 163 210 258 313 385
#     4  11  20  36  59  86 120 165 203 243 301 377
#     4   9  20  40  64  88 121 164 214 261 320 384
#     4  10  22  40  65  94 124 167 215 270 324 381
#
# _framework density 20.611269
#
# number of rings (size 3 to 8) (size 9 to 14) (size 15 to 20)
#    0.000    1.429    4.286    2.571    0.000    2.857 
#    0.000    3.571    0.000    0.857    0.000    0.000 
#    0.000    0.000    0.000    0.000    0.000    0.000 
#
# Total GULP energy -311961.852844 kJ/mol
# GULP energy per Si atom -5570.747372 kJ/mol
# Density = 2.056436 g / cm^3
# Si number density = 20.611269 Si / 1000 Ang^3
#
#
#
# Elastic Constant Matrix: (Units=GPa)
#
#
# Indices 1 2 3 4 5 6 
#
# 1 73.1500 60.0405 10.9870 0.0000 0.0000 0.0000
# 2 60.0405 103.2344 23.8941 0.0000 0.0000 0.0000
# 3 10.9870 23.8941 109.2513 0.0000 0.0000 0.0000
# 4 0.0000 0.0000 0.0000 17.8879 0.0000 0.0000
# 5 0.0000 0.0000 0.0000 0.0000 17.5147 0.0000
# 6 0.0000 0.0000 0.0000 0.0000 0.0000 29.0927
#
#
#
# Elastic Compliance Matrix: (Units=1/GPa)
#
#
# Indices 1 2 3 4 5 6 
#
# 1 0.026213 -0.015415 0.000735 0.000000 0.000000 0.000000
# 2 -0.015415 0.019269 -0.002664 0.000000 0.000000 0.000000
# 3 0.000735 -0.002664 0.009662 0.000000 0.000000 0.000000
# 4 0.000000 0.000000 0.000000 0.055904 0.000000 0.000000
# 5 0.000000 0.000000 0.000000 0.000000 0.057095 0.000000
# 6 0.000000 0.000000 0.000000 0.000000 0.000000 0.034373
#
#
# Mechanical properties :
#
#
# Convention : Reuss Voigt Hill
#
# Bulk Modulus (GPa) = 48.88676 52.83101 50.85888
# Shear Modulus (GPa) = 20.48998 25.61333 23.05165
#
# Velocity S-wave (km/s) = 3.15638 3.52900 3.34788
# Velocity P-wave (km/s) = 6.08717 6.50330 6.29867
#
# Compressibility (1/GPa) = 0.02045544
#
# Stress axis : x y z
#
# Youngs Moduli (GPa) = 38.14915 51.89733 103.49943
#
# Poissons Ratio (x) = 0.80002 -0.07611
# Poissons Ratio (y) = 0.58809 0.27572
# Poissons Ratio (z) = -0.02805 0.13825
#
# Static dielectric constant tensor:
#      x y z
#    x 1.760810 0.000000 0.000000 
#    y 0.000000 1.824760 0.000000 
#    z 0.000000 0.000000 1.787070 
# 
# From -- ./inp_files/25028.got.cif
#   From: 2010.05.17/outbox.cif.g08.bks.cpg/sg57_13_cif.got.tgz:25028.got - 2010.06.03 13:58:18.
