data_PCOD9438768
_publ_section_title
;
Structure prediction by ZEFSAII (Michael W. Deem and Ramdas Pophale) SiO2 
 PCOD9438768
Probable space group: P B C M
;
_chemical_formula_sum "Si O2"
_cell_formula_units_Z 40
_cell_length_a 10.791742
_cell_length_b 5.003778
_cell_length_c 29.091948
_cell_angle_alpha 90.000000
_cell_angle_beta 90.000000
_cell_angle_gamma 90.000000
_cell_volume 1570.950099
_symmetry_space_group_name_H-M "P B C M"
_symmetry_group_IT_number 57
_symmetry_cell_setting 'orthorhombic'
loop_
_space_group_symop_operation_xyz
x,y,z
-x,-y,1/2+z
x,1/2-y,-z
-x,1/2+y,1/2-z
-x,-y,-z
x,y,1/2-z
-x,1/2+y,z
x,1/2-y,1/2+z
loop_
_atom_site_type_symbol
_atom_site_label
_atom_site_fract_x
_atom_site_fract_y
_atom_site_fract_z
Si Si1 0.587866 0.288843 0.900145
Si Si2 0.758365 0.999648 0.828401
Si Si3 0.914644 0.691513 0.598313
Si Si4 0.078883 0.763462 0.750000
Si Si5 0.587376 0.827352 0.750000
Si Si6 0.591008 0.250000 0.500000
Si Si7 0.091284 0.250000 0.500000
O O1 0.528772 0.582868 0.897486
O O2 0.679065 0.198237 0.860214
O O3 0.653839 0.254087 0.950146
O O4 0.845637 0.172760 0.794846
O O5 0.833012 0.795368 0.860226
O O6 0.670689 0.828712 0.795114
O O7 0.844963 0.740171 0.549509
O O8 0.965550 0.390382 0.599724
O O9 0.957129 0.573354 0.750000
O O10 0.486598 0.601405 0.750000
O O11 0.500000 0.500000 0.500000
O O12 0.000000 0.500000 0.500000
#
# Coordination Sequence:
#
# PCOD9438768 Si02
#       7
#     8   8   8   4   4   4   4
#     4  10  21  38  60  89 124 161 204 253 304 366
#     4  11  24  40  68  94 122 168 214 259 320 376
#     4  10  21  38  60  89 124 161 204 253 304 366
#     4  11  26  45  64  92 128 163 208 267 324 382
#     4  11  26  45  64  92 128 163 208 267 324 382
#     4   8  16  34  56  80 118 158 192 242 300 350
#     4   8  16  34  56  80 118 158 192 242 300 350
#
# _framework density 25.462301
#
# number of rings (size 3 to 8) (size 9 to 14) (size 15 to 20)
#    0.000    2.000    0.000    2.400    0.000    8.000 
#    0.000   12.000    0.000    0.000    0.000    0.000 
#    0.000    0.000    0.000    0.000    0.000    0.000 
#
# Total GULP energy -224307.039162 kJ/mol
# GULP energy per Si atom -5607.675979 kJ/mol
# Density = 2.540435 g / cm^3
# Si number density = 25.462301 Si / 1000 Ang^3
#
#
#
# Elastic Constant Matrix: (Units=GPa)
#
#
# Indices 1 2 3 4 5 6 
#
# 1 72.7238 13.6192 57.4768 0.0000 0.0000 0.0000
# 2 13.6192 125.1800 -3.2591 0.0000 0.0000 0.0000
# 3 57.4768 -3.2591 218.8237 0.0000 0.0000 0.0000
# 4 0.0000 0.0000 0.0000 23.3741 0.0000 0.0000
# 5 0.0000 0.0000 0.0000 0.0000 57.4925 0.0000
# 6 0.0000 0.0000 0.0000 0.0000 0.0000 37.6882
#
#
#
# Elastic Compliance Matrix: (Units=1/GPa)
#
#
# Indices 1 2 3 4 5 6 
#
# 1 0.017872 -0.002067 -0.004725 0.000000 0.000000 0.000000
# 2 -0.002067 0.008231 0.000666 0.000000 0.000000 0.000000
# 3 -0.004725 0.000666 0.005821 0.000000 0.000000 0.000000
# 4 0.000000 0.000000 0.000000 0.042782 0.000000 0.000000
# 5 0.000000 0.000000 0.000000 0.000000 0.017394 0.000000
# 6 0.000000 0.000000 0.000000 0.000000 0.000000 0.026533
#
#
# Mechanical properties :
#
#
# Convention : Reuss Voigt Hill
#
# Bulk Modulus (GPa) = 50.83887 61.37792 56.10839
# Shear Modulus (GPa) = 36.37840 46.97035 41.67437
#
# Velocity S-wave (km/s) = 3.78394 4.29966 4.05001
# Velocity P-wave (km/s) = 6.25305 6.98621 6.62977
#
# Compressibility (1/GPa) = 0.01966999
#
# Stress axis : x y z
#
# Youngs Moduli (GPa) = 55.95230 121.49549 171.79370
#
# Poissons Ratio (x) = 0.25119 0.81176
# Poissons Ratio (y) = 0.11568 -0.11435
# Poissons Ratio (z) = 0.26439 -0.08087
#
# Static dielectric constant tensor:
#      x y z
#    x 1.986750 0.000000 0.000000 
#    y 0.000000 1.915260 0.000000 
#    z 0.000000 0.000000 2.040230 
# 
# From -- ./inp_files/28484.got.cif
#   From: 2010.05.17/outbox.cif.g08.bks.cpg/sg57_15_cif.got.tgz:28484.got - 2010.06.03 13:58:18.
