data_PCOD9438503
_publ_section_title
;
Structure prediction by ZEFSAII (Michael W. Deem and Ramdas Pophale) SiO2 
 PCOD9438503
Probable space group: P B C M
;
_chemical_formula_sum "Si O2"
_cell_formula_units_Z 64
_cell_length_a 15.668440
_cell_length_b 23.899391
_cell_length_c 8.360460
_cell_angle_alpha 90.000000
_cell_angle_beta 90.000000
_cell_angle_gamma 90.000000
_cell_volume 3130.709468
_symmetry_space_group_name_H-M "P B C M"
_symmetry_group_IT_number 57
_symmetry_cell_setting 'orthorhombic'
loop_
_space_group_symop_operation_xyz
x,y,z
-x,-y,1/2+z
x,1/2-y,-z
-x,1/2+y,1/2-z
-x,-y,-z
x,y,1/2-z
-x,1/2+y,z
x,1/2-y,1/2+z
loop_
_atom_site_type_symbol
_atom_site_label
_atom_site_fract_x
_atom_site_fract_y
_atom_site_fract_z
Si Si1 0.067929 0.366495 0.062100
Si Si2 0.399585 0.391976 0.054967
Si Si3 0.676469 0.496051 0.943945
Si Si4 0.243104 0.312353 0.443286
Si Si5 0.297198 0.870954 0.942250
Si Si6 0.454765 0.689548 0.560052
Si Si7 0.893772 0.395090 0.939935
Si Si8 0.866774 0.517470 0.437776
O O1 0.058876 0.355953 0.250000
O O2 0.148814 0.331039 0.000083
O O3 0.093278 0.431162 0.033286
O O4 0.976210 0.358578 0.981197
O O5 0.401094 0.391813 0.250000
O O6 0.390499 0.456585 0.005477
O O7 0.315381 0.356831 0.006227
O O8 0.482076 0.358635 0.996390
O O9 0.683451 0.496905 0.750000
O O10 0.664610 0.431666 0.991896
O O11 0.767451 0.514168 0.014840
O O12 0.263561 0.250000 0.500000
O O13 0.241944 0.313371 0.250000
O O14 0.299012 0.867819 0.750000
O O15 0.197957 0.870611 0.992840
O O16 0.358492 0.823928 0.009787
O O17 0.482614 0.750000 0.500000
O O18 0.460124 0.689353 0.750000
O O19 0.888938 0.403674 0.750000
O O20 0.902821 0.456503 0.017687
O O21 0.878263 0.527811 0.250000
#
# Coordination Sequence:
#
# PCOD9438503 Si02
#       8
#     8   8   8   8   8   8   8   8
#     4  11  21  35  55  79 111 153 192 233 280 335
#     4   9  18  36  60  86 115 151 187 228 286 344
#     4   9  17  35  59  83 118 157 188 224 287 353
#     4  10  21  37  57  79 112 152 191 233 283 340
#     4   9  20  38  60  84 115 152 187 233 292 348
#     4  11  23  39  62  86 113 148 193 243 286 339
#     4  10  21  37  57  81 112 149 187 234 285 339
#     4  11  20  31  51  83 118 151 189 232 275 332
#
# _framework density 20.44265
#
# number of rings (size 3 to 8) (size 9 to 14) (size 15 to 20)
#    0.000    2.000    1.250    3.750    0.000    4.000 
#    0.000    2.500    0.000    1.500    0.000    0.000 
#    0.000    0.000    0.000    0.000    0.000    0.000 
#
# Total GULP energy -357376.873533 kJ/mol
# GULP energy per Si atom -5584.013649 kJ/mol
# Density = 2.039612 g / cm^3
# Si number density = 20.442650 Si / 1000 Ang^3
#
#
#
# Elastic Constant Matrix: (Units=GPa)
#
#
# Indices 1 2 3 4 5 6 
#
# 1 60.5513 19.0590 -2.3066 0.0000 0.0000 0.0000
# 2 19.0590 17.2656 3.1359 0.0000 0.0000 0.0000
# 3 -2.3066 3.1359 12.0078 0.0000 0.0000 0.0000
# 4 0.0000 0.0000 0.0000 22.0769 0.0000 0.0000
# 5 0.0000 0.0000 0.0000 0.0000 18.8162 0.0000
# 6 0.0000 0.0000 0.0000 0.0000 0.0000 20.7908
#
#
#
# Elastic Compliance Matrix: (Units=1/GPa)
#
#
# Indices 1 2 3 4 5 6 
#
# 1 0.027320 -0.032659 0.013777 0.000000 0.000000 0.000000
# 2 -0.032659 0.099846 -0.032349 0.000000 0.000000 0.000000
# 3 0.013777 -0.032349 0.094374 0.000000 0.000000 0.000000
# 4 0.000000 0.000000 0.000000 0.045296 0.000000 0.000000
# 5 0.000000 0.000000 0.000000 0.000000 0.053146 0.000000
# 6 0.000000 0.000000 0.000000 0.000000 0.000000 0.048098
#
#
# Mechanical properties :
#
#
# Convention : Reuss Voigt Hill
#
# Bulk Modulus (GPa) = 8.39793 14.40012 11.39903
# Shear Modulus (GPa) = 9.79943 16.99919 13.39931
#
# Velocity S-wave (km/s) = 2.19181 2.88680 2.56297
# Velocity P-wave (km/s) = 3.24381 4.26274 3.78769
#
# Compressibility (1/GPa) = 0.11907693
#
# Stress axis : x y z
#
# Youngs Moduli (GPa) = 36.60377 10.01547 10.59614
#
# Poissons Ratio (x) = 0.32710 -0.14598
# Poissons Ratio (y) = 1.19546 0.34277
# Poissons Ratio (z) = -0.50429 0.32399
#
# Static dielectric constant tensor:
#      x y z
#    x 1.755460 0.000000 0.000000 
#    y 0.000000 1.710960 0.000000 
#    z 0.000000 0.000000 1.366740 
# 
# From -- ./inp_files/5676.got.cif
#   From: 2010.05.17/outbox.cif.g08.bks.cpg/sg57_3_cif.got.tgz:5676.got - 2010.06.03 13:58:18.
