data_PCOD9438674
_publ_section_title
;
Structure prediction by ZEFSAII (Michael W. Deem and Ramdas Pophale) SiO2 
 PCOD9438674
Probable space group: P B C M
;
_chemical_formula_sum "Si O2"
_cell_formula_units_Z 64
_cell_length_a 12.153220
_cell_length_b 8.638623
_cell_length_c 31.078263
_cell_angle_alpha 90.000000
_cell_angle_beta 90.000000
_cell_angle_gamma 90.000000
_cell_volume 3262.816265
_symmetry_space_group_name_H-M "P B C M"
_symmetry_group_IT_number 57
_symmetry_cell_setting 'orthorhombic'
loop_
_space_group_symop_operation_xyz
x,y,z
-x,-y,1/2+z
x,1/2-y,-z
-x,1/2+y,1/2-z
-x,-y,-z
x,y,1/2-z
-x,1/2+y,z
x,1/2-y,1/2+z
loop_
_atom_site_type_symbol
_atom_site_label
_atom_site_fract_x
_atom_site_fract_y
_atom_site_fract_z
Si Si1 0.028727 0.414372 0.895075
Si Si2 0.322113 0.680247 0.939203
Si Si3 0.430504 0.169020 0.588833
Si Si4 0.525644 0.583560 0.151136
Si Si5 0.061726 0.333011 0.040041
Si Si6 0.717678 0.991723 0.018790
Si Si7 0.842482 0.181486 0.860707
Si Si8 0.356008 0.688199 0.698850
O O1 0.999884 0.535103 0.933273
O O2 0.924166 0.321375 0.875214
O O3 0.095123 0.285053 0.921833
O O4 0.088184 0.521705 0.859990
O O5 0.448133 0.710365 0.927930
O O6 0.276773 0.838870 0.959584
O O7 0.247095 0.653622 0.898167
O O8 0.321959 0.534380 0.971250
O O9 0.399341 0.312687 0.619212
O O10 0.450307 0.025577 0.621029
O O11 0.358029 0.115983 0.548718
O O12 0.600100 0.476928 0.181397
O O13 0.442654 0.690939 0.178059
O O14 0.165105 0.412225 0.017944
O O15 0.999589 0.250000 0.000000
O O16 0.766821 0.215360 0.819581
O O17 0.358714 0.696170 0.750000
#
# Coordination Sequence:
#
# PCOD9438674 Si02
#       8
#     8   8   8   8   8   8   8   8
#     4  10  24  39  62  82 117 156 211 258 308 355
#     4  11  21  38  56  82 124 172 203 251 299 352
#     4  11  20  38  57  88 124 168 196 242 287 367
#     4  10  21  37  65  92 124 158 196 230 298 372
#     4  11  22  38  56  86 112 159 209 265 296 340
#     4  11  23  34  55  87 125 160 217 250 292 346
#     4  11  21  44  62  87 117 166 202 254 316 360
#     4  11  23  42  69  97 126 153 189 246 310 380
#
# _framework density 19.614957
#
# number of rings (size 3 to 8) (size 9 to 14) (size 15 to 20)
#    0.000    1.250    5.000    1.875    1.750    2.000 
#    2.250    0.625    0.000    0.000    0.000    0.000 
#    0.000    0.000    0.000    0.000    0.000    0.000 
#
# Total GULP energy -357360.514898 kJ/mol
# GULP energy per Si atom -5583.758045 kJ/mol
# Density = 1.957031 g / cm^3
# Si number density = 19.614957 Si / 1000 Ang^3
#
#
#
# Elastic Constant Matrix: (Units=GPa)
#
#
# Indices 1 2 3 4 5 6 
#
# 1 38.4611 11.1413 7.4828 0.0000 0.0000 0.0000
# 2 11.1413 89.2580 21.0248 0.0000 0.0000 0.0000
# 3 7.4828 21.0248 72.7927 0.0000 0.0000 0.0000
# 4 0.0000 0.0000 0.0000 21.1878 0.0000 0.0000
# 5 0.0000 0.0000 0.0000 0.0000 20.0431 0.0000
# 6 0.0000 0.0000 0.0000 0.0000 0.0000 73.6474
#
#
#
# Elastic Compliance Matrix: (Units=1/GPa)
#
#
# Indices 1 2 3 4 5 6 
#
# 1 0.027231 -0.002940 -0.001950 0.000000 0.000000 0.000000
# 2 -0.002940 0.012339 -0.003262 0.000000 0.000000 0.000000
# 3 -0.001950 -0.003262 0.014880 0.000000 0.000000 0.000000
# 4 0.000000 0.000000 0.000000 0.047197 0.000000 0.000000
# 5 0.000000 0.000000 0.000000 0.000000 0.049892 0.000000
# 6 0.000000 0.000000 0.000000 0.000000 0.000000 0.013578
#
#
# Mechanical properties :
#
#
# Convention : Reuss Voigt Hill
#
# Bulk Modulus (GPa) = 26.21428 31.08996 28.65212
# Shear Modulus (GPa) = 25.75508 33.69984 29.72746
#
# Velocity S-wave (km/s) = 3.62751 4.14946 3.89723
# Velocity P-wave (km/s) = 5.56224 6.23232 5.90679
#
# Compressibility (1/GPa) = 0.03814715
#
# Stress axis : x y z
#
# Youngs Moduli (GPa) = 36.72247 81.04585 67.20350
#
# Poissons Ratio (x) = 0.23825 0.13106
# Poissons Ratio (y) = 0.10795 0.21919
# Poissons Ratio (z) = 0.07162 0.26434
#
# Static dielectric constant tensor:
#      x y z
#    x 1.709310 0.000000 0.000000 
#    y 0.000000 1.755910 0.000000 
#    z 0.000000 0.000000 1.688440 
# 
# From -- ./inp_files/29775.got.cif
#   From: 2010.05.17/outbox.cif.g08.bks.cpg/sg57_15_cif.got.tgz:29775.got - 2010.06.03 13:58:18.
