data_PCOD9438090
_publ_section_title
;
Structure prediction by ZEFSAII (Michael W. Deem and Ramdas Pophale) SiO2 
 PCOD9438090
Probable space group: P B C M
;
_chemical_formula_sum "Si O2"
_cell_formula_units_Z 64
_cell_length_a 12.240369
_cell_length_b 32.052405
_cell_length_c 8.543242
_cell_angle_alpha 90.000000
_cell_angle_beta 90.000000
_cell_angle_gamma 90.000000
_cell_volume 3351.798024
_symmetry_space_group_name_H-M "P B C M"
_symmetry_group_IT_number 57
_symmetry_cell_setting 'orthorhombic'
loop_
_space_group_symop_operation_xyz
x,y,z
-x,-y,1/2+z
x,1/2-y,-z
-x,1/2+y,1/2-z
-x,-y,-z
x,y,1/2-z
-x,1/2+y,z
x,1/2-y,1/2+z
loop_
_atom_site_type_symbol
_atom_site_label
_atom_site_fract_x
_atom_site_fract_y
_atom_site_fract_z
Si Si1 0.117639 0.513958 0.065495
Si Si2 0.501027 0.704220 0.938599
Si Si3 0.633006 0.125028 0.436793
Si Si4 0.754254 0.794436 0.437906
Si Si5 0.738485 0.943908 0.933517
Si Si6 0.893660 0.873147 0.438124
Si Si7 0.504882 0.547487 0.934846
Si Si8 0.137208 0.894460 0.063667
O O1 0.122574 0.505094 0.250000
O O2 0.212622 0.488701 0.978672
O O3 0.132400 0.562263 0.029373
O O4 0.000000 0.500000 0.000000
O O5 0.494614 0.703839 0.750000
O O6 0.628361 0.699302 0.986886
O O7 0.465227 0.750000 0.000000
O O8 0.436116 0.664859 0.005783
O O9 0.639173 0.124821 0.250000
O O10 0.577719 0.081269 0.491141
O O11 0.753355 0.128254 0.510714
O O12 0.791865 0.750000 0.500000
O O13 0.755271 0.793674 0.250000
O O14 0.831036 0.831822 0.490347
O O15 0.714761 0.941410 0.750000
O O16 0.833251 0.911747 0.981058
O O17 0.627318 0.936419 0.027890
O O18 0.880405 0.878152 0.250000
O O19 0.022437 0.871882 0.469839
O O20 0.485508 0.546008 0.750000
O O21 0.500000 0.500000 0.000000
O O22 0.141288 0.902848 0.250000
#
# Coordination Sequence:
#
# PCOD9438090 Si02
#       8
#     8   8   8   8   8   8   8   8
#     4  12  23  38  58  84 118 158 204 251 300 353
#     4  10  20  38  65  95 126 159 201 252 312 375
#     4  12  25  42  63  90 124 163 210 260 316 377
#     4   9  19  36  60  90 120 151 185 234 294 356
#     4  12  24  38  60  89 119 153 197 246 302 357
#     4  10  21  38  60  86 118 155 198 243 292 350
#     4  12  25  43  63  87 122 161 205 254 310 372
#     4  11  23  40  61  85 119 163 208 252 303 359
#
# _framework density 19.094231000000001
#
# number of rings (size 3 to 8) (size 9 to 14) (size 15 to 20)
#    0.000    1.000    1.250    6.750    0.000    2.500 
#    0.000    0.625    0.000    1.500    0.000    0.000 
#    0.000    0.000    0.000    0.000    0.000    0.000 
#
# Total GULP energy -357924.654497 kJ/mol
# GULP energy per Si atom -5592.572727 kJ/mol
# Density = 1.905077 g / cm^3
# Si number density = 19.094231 Si / 1000 Ang^3
#
#
#
# Elastic Constant Matrix: (Units=GPa)
#
#
# Indices 1 2 3 4 5 6 
#
# 1 85.1725 33.8354 9.2429 0.0000 0.0000 0.0000
# 2 33.8354 101.6120 12.0559 0.0000 0.0000 0.0000
# 3 9.2429 12.0559 53.3671 0.0000 0.0000 0.0000
# 4 0.0000 0.0000 0.0000 32.8534 0.0000 0.0000
# 5 0.0000 0.0000 0.0000 0.0000 23.0417 0.0000
# 6 0.0000 0.0000 0.0000 0.0000 0.0000 35.6546
#
#
#
# Elastic Compliance Matrix: (Units=1/GPa)
#
#
# Indices 1 2 3 4 5 6 
#
# 1 0.013628 -0.004375 -0.001372 0.000000 0.000000 0.000000
# 2 -0.004375 0.011517 -0.001844 0.000000 0.000000 0.000000
# 3 -0.001372 -0.001844 0.019392 0.000000 0.000000 0.000000
# 4 0.000000 0.000000 0.000000 0.030438 0.000000 0.000000
# 5 0.000000 0.000000 0.000000 0.000000 0.043400 0.000000
# 6 0.000000 0.000000 0.000000 0.000000 0.000000 0.028047
#
#
# Mechanical properties :
#
#
# Convention : Reuss Voigt Hill
#
# Bulk Modulus (GPa) = 34.06566 38.93556 36.50061
# Shear Modulus (GPa) = 29.17341 30.64442 29.90892
#
# Velocity S-wave (km/s) = 3.91303 4.01047 3.96205
# Velocity P-wave (km/s) = 6.18832 6.47153 6.33151
#
# Compressibility (1/GPa) = 0.02935508
#
# Stress axis : x y z
#
# Youngs Moduli (GPa) = 73.37942 86.82825 51.56683
#
# Poissons Ratio (x) = 0.37988 0.07075
# Poissons Ratio (y) = 0.32104 0.09509
# Poissons Ratio (z) = 0.10067 0.16011
#
# Static dielectric constant tensor:
#      x y z
#    x 1.671920 0.000000 0.000000 
#    y 0.000000 1.715730 0.000000 
#    z 0.000000 0.000000 1.638250 
# 
# From -- ./inp_files/3808.got.cif
#   From: 2010.05.17/outbox.cif.g08.bks.cpg/sg57_2_cif.got.tgz:3808.got - 2010.06.03 13:58:18.
