data_PCOD9438135
_publ_section_title
;
Structure prediction by ZEFSAII (Michael W. Deem and Ramdas Pophale) SiO2 
 PCOD9438135
Probable space group: P B C M
;
_chemical_formula_sum "Si O2"
_cell_formula_units_Z 40
_cell_length_a 14.085271
_cell_length_b 9.112511
_cell_length_c 16.483290
_cell_angle_alpha 90.000000
_cell_angle_beta 90.000000
_cell_angle_gamma 90.000000
_cell_volume 2115.666319
_symmetry_space_group_name_H-M "P B C M"
_symmetry_group_IT_number 57
_symmetry_cell_setting 'orthorhombic'
loop_
_space_group_symop_operation_xyz
x,y,z
-x,-y,1/2+z
x,1/2-y,-z
-x,1/2+y,1/2-z
-x,-y,-z
x,y,1/2-z
-x,1/2+y,z
x,1/2-y,1/2+z
loop_
_atom_site_type_symbol
_atom_site_label
_atom_site_fract_x
_atom_site_fract_y
_atom_site_fract_z
Si Si1 0.713585 0.455760 0.569983
Si Si2 0.227151 0.655534 0.658599
Si Si3 0.097330 0.578563 0.521068
Si Si4 0.602266 0.504664 0.405805
Si Si5 0.581240 0.672195 0.846287
O O1 0.730975 0.296804 0.610240
O O2 0.815744 0.490782 0.530410
O O3 0.638444 0.458410 0.495408
O O4 0.672660 0.572076 0.633404
O O5 0.205453 0.697773 0.750000
O O6 0.136982 0.586287 0.612659
O O7 0.311164 0.538221 0.652922
O O8 0.087770 0.750000 0.500000
O O9 0.000000 0.500000 0.500000
O O10 0.510183 0.417800 0.376600
O O11 0.585328 0.677158 0.396319
O O12 0.573686 0.700977 0.750000
#
# Coordination Sequence:
#
# PCOD9438135 Si02
#       5
#     8   8   8   8   8
#     4  10  22  39  60  82 111 153 198 241 292 353
#     4  10  20  39  61  85 114 149 193 244 290 340
#     4   9  20  38  60  84 113 149 186 229 288 351
#     4  11  23  38  55  81 116 156 197 239 295 358
#     4  12  23  36  55  84 118 155 197 249 299 352
#
# _framework density 18.906573000000002
#
# number of rings (size 3 to 8) (size 9 to 14) (size 15 to 20)
#    0.000    1.600    0.000    6.600    0.000    4.800 
#    0.000    5.000    0.000    0.000    0.000    0.000 
#    0.000    0.000    0.000    0.000    0.000    0.000 
#
# Total GULP energy -223309.761756 kJ/mol
# GULP energy per Si atom -5582.744044 kJ/mol
# Density = 1.886354 g / cm^3
# Si number density = 18.906573 Si / 1000 Ang^3
#
#
#
# Elastic Constant Matrix: (Units=GPa)
#
#
# Indices 1 2 3 4 5 6 
#
# 1 118.2430 52.9657 55.7357 0.0000 0.0000 0.0000
# 2 52.9657 88.2777 25.8761 0.0000 0.0000 0.0000
# 3 55.7357 25.8761 108.6883 0.0000 0.0000 0.0000
# 4 0.0000 0.0000 0.0000 26.7345 0.0000 0.0000
# 5 0.0000 0.0000 0.0000 0.0000 11.9404 0.0000
# 6 0.0000 0.0000 0.0000 0.0000 0.0000 33.5246
#
#
#
# Elastic Compliance Matrix: (Units=1/GPa)
#
#
# Indices 1 2 3 4 5 6 
#
# 1 0.014190 -0.006860 -0.005644 0.000000 0.000000 0.000000
# 2 -0.006860 0.015494 -0.000171 0.000000 0.000000 0.000000
# 3 -0.005644 -0.000171 0.012135 0.000000 0.000000 0.000000
# 4 0.000000 0.000000 0.000000 0.037405 0.000000 0.000000
# 5 0.000000 0.000000 0.000000 0.000000 0.083750 0.000000
# 6 0.000000 0.000000 0.000000 0.000000 0.000000 0.029829
#
#
# Mechanical properties :
#
#
# Convention : Reuss Voigt Hill
#
# Bulk Modulus (GPa) = 60.71407 64.92933 62.82170
# Shear Modulus (GPa) = 22.35724 26.48200 24.41962
#
# Velocity S-wave (km/s) = 3.44250 3.74662 3.59777
# Velocity P-wave (km/s) = 6.92701 7.28924 7.11043
#
# Compressibility (1/GPa) = 0.01647065
#
# Stress axis : x y z
#
# Youngs Moduli (GPa) = 70.47187 64.54226 82.40359
#
# Poissons Ratio (x) = 0.44274 0.46505
# Poissons Ratio (y) = 0.48341 0.01409
# Poissons Ratio (z) = 0.39771 0.01104
#
# Static dielectric constant tensor:
#      x y z
#    x 1.645910 0.000000 0.000000 
#    y 0.000000 1.641150 0.000000 
#    z 0.000000 0.000000 1.705970 
# 
# From -- ./inp_files/18208.got.cif
#   From: 2010.05.17/outbox.cif.g08.bks.cpg/sg57_10_cif.got.tgz:18208.got - 2010.06.03 13:58:18.
