data_PCOD9438716
_publ_section_title
;
Structure prediction by ZEFSAII (Michael W. Deem and Ramdas Pophale) SiO2 
 PCOD9438716
Probable space group: P B C M
;
_chemical_formula_sum "Si O2"
_cell_formula_units_Z 56
_cell_length_a 24.129554
_cell_length_b 8.935100
_cell_length_c 14.576697
_cell_angle_alpha 90.000000
_cell_angle_beta 90.000000
_cell_angle_gamma 90.000000
_cell_volume 3142.735552
_symmetry_space_group_name_H-M "P B C M"
_symmetry_group_IT_number 57
_symmetry_cell_setting 'orthorhombic'
loop_
_space_group_symop_operation_xyz
x,y,z
-x,-y,1/2+z
x,1/2-y,-z
-x,1/2+y,1/2-z
-x,-y,-z
x,y,1/2-z
-x,1/2+y,z
x,1/2-y,1/2+z
loop_
_atom_site_type_symbol
_atom_site_label
_atom_site_fract_x
_atom_site_fract_y
_atom_site_fract_z
Si Si1 0.560671 0.428599 0.500000
Si Si2 0.356454 0.070565 0.857271
Si Si3 0.058823 0.073729 0.640676
Si Si4 0.356454 0.429434 0.857271
Si Si5 0.739099 0.928101 1.000000
Si Si6 0.941178 0.573729 0.359324
Si Si7 0.141001 0.571997 1.000000
O O1 0.557441 0.250000 0.500000
O O2 0.500000 0.500000 0.500000
O O3 0.595178 0.486425 0.588116
O O4 0.595178 0.486426 0.411884
O O5 0.353874 0.032722 0.750000
O O6 0.365691 0.250000 0.865739
O O7 0.299463 0.038389 0.911724
O O8 0.065648 0.056704 0.750000
O O9 0.057769 0.250000 0.619142
O O10 0.108034 0.994336 0.586837
O O11 0.000000 1.000000 0.615288
O O12 0.353875 0.467277 0.750000
O O13 0.299463 0.461611 0.911723
O O14 0.750836 0.750000 0.000000
O O15 0.795963 0.016782 1.000000
O O16 0.934352 0.556704 0.250000
O O17 0.891966 0.494335 0.413163
O O18 0.138049 0.750000 0.000000
#
# Coordination Sequence:
#
# PCOD9438716 Si02
#       7
#     8   8   8   8   8   8   8
#     4  11  22  36  56  84 118 151 185 226 269 318
#     4   9  19  38  62  84 109 144 184 227 276 326
#     4  10  21  38  59  81 107 140 179 224 274 329
#     4   9  19  38  62  84 109 144 184 227 276 326
#     4   9  19  36  56  81 111 143 183 226 271 325
#     4  10  21  38  59  81 107 140 179 224 274 329
#     4  12  24  36  54  81 113 146 181 224 272 323
#
# _framework density 17.818871000000001
#
# number of rings (size 3 to 8) (size 9 to 14) (size 15 to 20)
#    0.000    2.000    0.000    4.714    0.000    6.286 
#    0.000    2.857    0.000    0.000    0.000    0.000 
#    0.000    0.000    0.000    0.000    0.000    0.000 
#
# Total GULP energy -312827.162749 kJ/mol
# GULP energy per Si atom -5586.199335 kJ/mol
# Density = 1.777831 g / cm^3
# Si number density = 17.818871 Si / 1000 Ang^3
#
#
#
# Elastic Constant Matrix: (Units=GPa)
#
#
# Indices 1 2 3 4 5 6 
#
# 1 173.5201 107.0846 85.5652 0.0000 0.0000 0.0000
# 2 107.0846 132.4075 77.6126 0.0000 0.0000 0.0000
# 3 85.5652 77.6126 148.8034 0.0000 0.0000 0.0000
# 4 0.0000 0.0000 0.0000 25.7176 0.0000 0.0000
# 5 0.0000 0.0000 0.0000 0.0000 8.1655 0.0000
# 6 0.0000 0.0000 0.0000 0.0000 0.0000 38.2998
#
#
#
# Elastic Compliance Matrix: (Units=1/GPa)
#
#
# Indices 1 2 3 4 5 6 
#
# 1 0.012212 -0.008297 -0.002695 0.000000 0.000000 0.000000
# 2 -0.008297 0.016515 -0.003843 0.000000 0.000000 0.000000
# 3 -0.002695 -0.003843 0.010274 0.000000 0.000000 0.000000
# 4 0.000000 0.000000 0.000000 0.038884 0.000000 0.000000
# 5 0.000000 0.000000 0.000000 0.000000 0.122466 0.000000
# 6 0.000000 0.000000 0.000000 0.000000 0.000000 0.026110
#
#
# Mechanical properties :
#
#
# Convention : Reuss Voigt Hill
#
# Bulk Modulus (GPa) = 107.15661 110.58397 108.87029
# Shear Modulus (GPa) = 19.28699 26.73448 23.01073
#
# Velocity S-wave (km/s) = 3.29354 3.87763 3.59746
# Velocity P-wave (km/s) = 8.64467 9.06878 8.85927
#
# Compressibility (1/GPa) = 0.00933214
#
# Stress axis : x y z
#
# Youngs Moduli (GPa) = 81.88529 60.54970 97.33072
#
# Poissons Ratio (x) = 0.50239 0.26228
# Poissons Ratio (y) = 0.67941 0.37405
# Poissons Ratio (z) = 0.22066 0.23270
#
# Static dielectric constant tensor:
#      x y z
#    x 1.568540 0.000000 0.000000 
#    y 0.000000 1.591910 0.000000 
#    z 0.000000 0.000000 1.611340 
# 
# From -- ./inp_files/19329.got.cif
#   From: 2010.05.17/outbox.cif.g08.bks.cpg/sg57_10_cif.got.tgz:19329.got - 2010.06.03 13:58:18.
