data_PCOD9438547
_publ_section_title
;
Structure prediction by ZEFSAII (Michael W. Deem and Ramdas Pophale) SiO2 
 PCOD9438547
Probable space group: P B C M
;
_chemical_formula_sum "Si O2"
_cell_formula_units_Z 40
_cell_length_a 10.663562
_cell_length_b 7.428988
_cell_length_c 23.513507
_cell_angle_alpha 90.000000
_cell_angle_beta 90.000000
_cell_angle_gamma 90.000000
_cell_volume 1862.727660
_symmetry_space_group_name_H-M "P B C M"
_symmetry_group_IT_number 57
_symmetry_cell_setting 'orthorhombic'
loop_
_space_group_symop_operation_xyz
x,y,z
-x,-y,1/2+z
x,1/2-y,-z
-x,1/2+y,1/2-z
-x,-y,-z
x,y,1/2-z
-x,1/2+y,z
x,1/2-y,1/2+z
loop_
_atom_site_type_symbol
_atom_site_label
_atom_site_fract_x
_atom_site_fract_y
_atom_site_fract_z
Si Si1 0.802584 0.742530 0.314193
Si Si2 0.098924 0.366282 0.927468
Si Si3 0.415519 0.547624 0.684839
Si Si4 0.825981 0.470459 0.966502
Si Si5 0.331203 0.918461 0.864375
O O1 0.851171 0.743025 0.250000
O O2 0.889560 0.640367 0.359894
O O3 0.675489 0.624027 0.315796
O O4 0.766443 0.944353 0.334083
O O5 0.156315 0.176437 0.946372
O O6 0.955389 0.379158 0.946667
O O7 0.172837 0.515432 0.964963
O O8 0.461001 0.572688 0.750000
O O9 0.533053 0.508862 0.644457
O O10 0.341792 0.725339 0.665535
O O11 0.710627 0.399811 0.929915
#
# Coordination Sequence:
#
# PCOD9438547 Si02
#       5
#     8   8   8   8   8
#     4  10  21  37  58  83 116 153 191 238 288 346
#     4   9  19  39  60  84 115 148 193 240 297 345
#     4  11  21  35  57  83 116 157 194 230 286 350
#     4   9  20  37  63  84 112 151 195 242 289 352
#     4  11  21  36  60  86 113 152 198 236 283 344
#
# _framework density 21.473884000000002
#
# number of rings (size 3 to 8) (size 9 to 14) (size 15 to 20)
#    0.000    2.000    2.000    1.800    2.800    0.000 
#    0.000    7.000    4.400    0.000    0.000    0.000 
#    0.000    0.000    0.000    0.000    0.000    0.000 
#
# Total GULP energy -223230.169174 kJ/mol
# GULP energy per Si atom -5580.754229 kJ/mol
# Density = 2.142501 g / cm^3
# Si number density = 21.473884 Si / 1000 Ang^3
#
#
#
# Elastic Constant Matrix: (Units=GPa)
#
#
# Indices 1 2 3 4 5 6 
#
# 1 14.8968 14.2616 -0.5980 0.0000 0.0000 0.0000
# 2 14.2616 83.5846 34.1601 0.0000 0.0000 0.0000
# 3 -0.5980 34.1601 98.6095 0.0000 0.0000 0.0000
# 4 0.0000 0.0000 0.0000 15.2499 0.0000 0.0000
# 5 0.0000 0.0000 0.0000 0.0000 46.0185 0.0000
# 6 0.0000 0.0000 0.0000 0.0000 0.0000 25.6264
#
#
#
# Elastic Compliance Matrix: (Units=1/GPa)
#
#
# Indices 1 2 3 4 5 6 
#
# 1 0.083503 -0.016839 0.006340 0.000000 0.000000 0.000000
# 2 -0.016839 0.017333 -0.006106 0.000000 0.000000 0.000000
# 3 0.006340 -0.006106 0.012295 0.000000 0.000000 0.000000
# 4 0.000000 0.000000 0.000000 0.065574 0.000000 0.000000
# 5 0.000000 0.000000 0.000000 0.000000 0.021730 0.000000
# 6 0.000000 0.000000 0.000000 0.000000 0.000000 0.039022
#
#
# Mechanical properties :
#
#
# Convention : Reuss Voigt Hill
#
# Bulk Modulus (GPa) = 12.51253 32.52647 22.51950
# Shear Modulus (GPa) = 16.70516 27.33011 22.01763
#
# Velocity S-wave (km/s) = 2.79216 3.57138 3.20554
# Velocity P-wave (km/s) = 4.02919 5.67329 4.92040
#
# Compressibility (1/GPa) = 0.07991991
#
# Stress axis : x y z
#
# Youngs Moduli (GPa) = 11.97555 57.69451 81.33488
#
# Poissons Ratio (x) = 0.97150 -0.51563
# Poissons Ratio (y) = 0.20165 0.49667
# Poissons Ratio (z) = -0.07592 0.35231
#
# Static dielectric constant tensor:
#      x y z
#    x 1.744890 0.000000 0.000000 
#    y 0.000000 1.817530 0.000000 
#    z 0.000000 0.000000 1.860670 
# 
# From -- ./inp_files/24856.got.cif
#   From: 2010.05.17/outbox.cif.g08.bks.cpg/sg57_13_cif.got.tgz:24856.got - 2010.06.03 13:58:18.
