data_PCOD9438883
_publ_section_title
;
Structure prediction by ZEFSAII (Michael W. Deem and Ramdas Pophale) SiO2 
 PCOD9438883
Probable space group: P B C M
;
_chemical_formula_sum "Si O2"
_cell_formula_units_Z 56
_cell_length_a 5.260430
_cell_length_b 14.830171
_cell_length_c 31.252555
_cell_angle_alpha 90.000000
_cell_angle_beta 90.000000
_cell_angle_gamma 90.000000
_cell_volume 2438.107962
_symmetry_space_group_name_H-M "P B C M"
_symmetry_group_IT_number 57
_symmetry_cell_setting 'orthorhombic'
loop_
_space_group_symop_operation_xyz
x,y,z
-x,-y,1/2+z
x,1/2-y,-z
-x,1/2+y,1/2-z
-x,-y,-z
x,y,1/2-z
-x,1/2+y,z
x,1/2-y,1/2+z
loop_
_atom_site_type_symbol
_atom_site_label
_atom_site_fract_x
_atom_site_fract_y
_atom_site_fract_z
Si Si1 0.877296 0.461155 0.176014
Si Si2 0.686357 0.333620 0.914984
Si Si3 0.311093 0.584014 0.998989
Si Si4 0.435936 0.293746 0.750000
Si Si5 0.062237 0.631468 0.914343
Si Si6 0.684919 0.727522 0.959106
Si Si7 0.072648 0.819497 0.250000
Si Si8 0.628489 0.426229 0.676585
O O1 0.902785 0.425862 0.127651
O O2 0.588519 0.496761 0.179504
O O3 0.946614 0.380486 0.207898
O O4 0.090138 0.536531 0.186940
O O5 0.809231 0.232713 0.911451
O O6 0.402978 0.313164 0.932481
O O7 0.663888 0.384322 0.870588
O O8 0.799630 0.392454 0.954156
O O9 0.130191 0.578264 0.957904
O O10 0.475448 0.670604 0.984573
O O11 0.500000 0.500000 0.000000
O O12 0.147467 0.256812 0.750000
O O13 0.515846 0.352072 0.708728
O O14 0.638081 0.213722 0.750000
O O15 0.773989 0.658595 0.923001
O O16 0.867188 0.750000 0.000000
#
# Coordination Sequence:
#
# PCOD9438883 Si02
#       8
#     8   8   8   4   8   8   4   8
#     4  12  28  45  74 104 151 176 237 293 366 414
#     4  10  23  39  66  91 143 179 248 281 361 420
#     4  10  21  39  59  93 134 183 235 305 353 423
#     4  12  26  48  84 102 146 182 242 280 364 438
#     4  11  23  39  66  93 134 190 238 293 349 433
#     4   9  20  37  59  87 126 179 233 290 339 417
#     4  12  26  50  78 112 136 194 230 290 356 444
#     4  12  27  48  70 111 142 187 226 304 355 425
#
# _framework density 22.968630000000001
#
# number of rings (size 3 to 8) (size 9 to 14) (size 15 to 20)
#    0.000    1.143    0.000    6.429   10.000    0.571 
#    0.000    0.000    0.000    0.000    0.000    0.000 
#    0.000    0.000    0.000    0.000    0.000    0.000 
#
# Total GULP energy -312431.641093 kJ/mol
# GULP energy per Si atom -5579.136448 kJ/mol
# Density = 2.291635 g / cm^3
# Si number density = 22.968630 Si / 1000 Ang^3
#
#
#
# Elastic Constant Matrix: (Units=GPa)
#
#
# Indices 1 2 3 4 5 6 
#
# 1 48.7428 3.2072 -6.7091 0.0000 0.0000 0.0000
# 2 3.2072 69.2820 11.4304 0.0000 0.0000 0.0000
# 3 -6.7091 11.4304 115.9723 0.0000 0.0000 0.0000
# 4 0.0000 0.0000 0.0000 495.5648 0.0000 0.0000
# 5 0.0000 0.0000 0.0000 0.0000 14.9267 0.0000
# 6 0.0000 0.0000 0.0000 0.0000 0.0000 51.4328
#
#
#
# Elastic Compliance Matrix: (Units=1/GPa)
#
#
# Indices 1 2 3 4 5 6 
#
# 1 0.020775 -0.001179 0.001318 0.000000 0.000000 0.000000
# 2 -0.001179 0.014739 -0.001521 0.000000 0.000000 0.000000
# 3 0.001318 -0.001521 0.008849 0.000000 0.000000 0.000000
# 4 0.000000 0.000000 0.000000 0.002018 0.000000 0.000000
# 5 0.000000 0.000000 0.000000 0.000000 0.066994 0.000000
# 6 0.000000 0.000000 0.000000 0.000000 0.000000 0.019443
#
#
# Mechanical properties :
#
#
# Convention : Reuss Voigt Hill
#
# Bulk Modulus (GPa) = 24.03907 27.76157 25.90032
# Shear Modulus (GPa) = 33.45637 127.45610 80.45624
#
# Velocity S-wave (km/s) = 3.82070 7.45734 5.92493
# Velocity P-wave (km/s) = 5.47288 9.28774 7.62281
#
# Compressibility (1/GPa) = 0.04159894
#
# Stress axis : x y z
#
# Youngs Moduli (GPa) = 48.13509 67.84590 113.00835
#
# Poissons Ratio (x) = 0.08000 -0.14895
# Poissons Ratio (y) = 0.05676 0.17188
# Poissons Ratio (z) = -0.06344 0.10319
#
# Static dielectric constant tensor:
#      x y z
#    x 2.042060 0.000000 0.000000 
#    y 0.000000 1.900520 0.000000 
#    z 0.000000 0.000000 1.880040 
# 
# From -- ./inp_files/29198.got.cif
#   From: 2010.05.17/outbox.cif.g08.bks.cpg/sg57_15_cif.got.tgz:29198.got - 2010.06.03 13:58:18.
