data_PCOD9438820
_publ_section_title
;
Structure prediction by ZEFSAII (Michael W. Deem and Ramdas Pophale) SiO2 
 PCOD9438820
Probable space group: P B C M
;
_chemical_formula_sum "Si O2"
_cell_formula_units_Z 56
_cell_length_a 20.402683
_cell_length_b 8.884050
_cell_length_c 15.083918
_cell_angle_alpha 90.000000
_cell_angle_beta 90.000000
_cell_angle_gamma 90.000000
_cell_volume 2734.087686
_symmetry_space_group_name_H-M "P B C M"
_symmetry_group_IT_number 57
_symmetry_cell_setting 'orthorhombic'
loop_
_space_group_symop_operation_xyz
x,y,z
-x,-y,1/2+z
x,1/2-y,-z
-x,1/2+y,1/2-z
-x,-y,-z
x,y,1/2-z
-x,1/2+y,z
x,1/2-y,1/2+z
loop_
_atom_site_type_symbol
_atom_site_label
_atom_site_fract_x
_atom_site_fract_y
_atom_site_fract_z
Si Si1 0.450160 0.593497 0.146567
Si Si2 0.795793 0.925428 0.477023
Si Si3 0.890323 0.386251 0.849681
Si Si4 0.350118 0.073557 0.519259
Si Si5 0.029737 0.381711 0.567664
Si Si6 0.154718 0.956134 0.349412
Si Si7 0.411672 0.941048 0.353311
O O1 0.436502 0.560106 0.250000
O O2 0.404202 0.494283 0.084355
O O3 0.525706 0.549534 0.131570
O O4 0.435774 0.769752 0.131924
O O5 0.806036 0.750000 0.500000
O O6 0.722620 0.944970 0.439927
O O7 0.852049 0.002594 0.416765
O O8 0.796607 0.004945 0.572309
O O9 0.886380 0.448430 0.750000
O O10 0.857689 0.222100 0.852876
O O11 0.966259 0.350083 0.872157
O O12 0.359778 0.250000 0.500000
O O13 0.358576 0.987030 0.425883
O O14 0.049571 0.250000 0.500000
O O15 0.088611 0.452508 0.623616
O O16 0.000000 0.500000 0.500000
O O17 0.174455 0.998152 0.250000
O O18 0.391257 0.954784 0.250000
#
# Coordination Sequence:
#
# PCOD9438820 Si02
#       7
#     8   8   8   8   8   8   8
#     4  10  21  38  62  92 124 158 198 246 299 357
#     4  11  25  44  61  85 119 162 206 255 303 356
#     4  11  24  42  64  90 122 160 201 248 308 367
#     4  11  24  40  61  86 120 161 205 249 303 360
#     4  12  21  39  65  91 125 158 195 246 301 357
#     4  11  24  41  63  92 122 159 203 249 306 365
#     4  10  21  38  62  92 124 158 198 247 301 356
#
# _framework density 20.482151999999999
#
# number of rings (size 3 to 8) (size 9 to 14) (size 15 to 20)
#    0.000    1.143    2.857    3.000    0.000    5.714 
#    0.000    5.714    0.000    0.000    0.000    0.000 
#    0.000    0.000    0.000    0.000    0.000    0.000 
#
# Total GULP energy -312784.716531 kJ/mol
# GULP energy per Si atom -5585.441367 kJ/mol
# Density = 2.043553 g / cm^3
# Si number density = 20.482152 Si / 1000 Ang^3
#
#
#
# Elastic Constant Matrix: (Units=GPa)
#
#
# Indices 1 2 3 4 5 6 
#
# 1 74.4764 12.2454 27.2298 0.0000 0.0000 0.0000
# 2 12.2454 67.1400 26.0153 0.0000 0.0000 0.0000
# 3 27.2298 26.0153 94.6638 0.0000 0.0000 0.0000
# 4 0.0000 0.0000 0.0000 23.3251 0.0000 0.0000
# 5 0.0000 0.0000 0.0000 0.0000 9.2585 0.0000
# 6 0.0000 0.0000 0.0000 0.0000 0.0000 14.1648
#
#
#
# Elastic Compliance Matrix: (Units=1/GPa)
#
#
# Indices 1 2 3 4 5 6 
#
# 1 0.015091 -0.001198 -0.004012 0.000000 0.000000 0.000000
# 2 -0.001198 0.016764 -0.004263 0.000000 0.000000 0.000000
# 3 -0.004012 -0.004263 0.012889 0.000000 0.000000 0.000000
# 4 0.000000 0.000000 0.000000 0.042872 0.000000 0.000000
# 5 0.000000 0.000000 0.000000 0.000000 0.108009 0.000000
# 6 0.000000 0.000000 0.000000 0.000000 0.000000 0.070598
#
#
# Mechanical properties :
#
#
# Convention : Reuss Voigt Hill
#
# Bulk Modulus (GPa) = 38.75971 40.80679 39.78325
# Shear Modulus (GPa) = 17.02028 20.73565 18.87797
#
# Velocity S-wave (km/s) = 2.88580 3.18524 3.03921
# Velocity P-wave (km/s) = 5.48348 5.78740 5.63749
#
# Compressibility (1/GPa) = 0.02579999
#
# Stress axis : x y z
#
# Youngs Moduli (GPa) = 66.26583 59.65029 77.58523
#
# Poissons Ratio (x) = 0.07146 0.31124
# Poissons Ratio (y) = 0.07938 0.33071
# Poissons Ratio (z) = 0.26583 0.25426
#
# Static dielectric constant tensor:
#      x y z
#    x 1.722980 0.000000 0.000000 
#    y 0.000000 1.700960 0.000000 
#    z 0.000000 0.000000 1.730120 
# 
# From -- ./inp_files/19359.got.cif
#   From: 2010.05.17/outbox.cif.g08.bks.cpg/sg57_10_cif.got.tgz:19359.got - 2010.06.03 13:58:18.
