data_PCOD9438822
_publ_section_title
;
Structure prediction by ZEFSAII (Michael W. Deem and Ramdas Pophale) SiO2 
 PCOD9438822
Probable space group: P B C M
;
_chemical_formula_sum "Si O2"
_cell_formula_units_Z 60
_cell_length_a 16.367585
_cell_length_b 19.677569
_cell_length_c 9.313675
_cell_angle_alpha 90.000000
_cell_angle_beta 90.000000
_cell_angle_gamma 90.000000
_cell_volume 2999.695200
_symmetry_space_group_name_H-M "P B C M"
_symmetry_group_IT_number 57
_symmetry_cell_setting 'orthorhombic'
loop_
_space_group_symop_operation_xyz
x,y,z
-x,-y,1/2+z
x,1/2-y,-z
-x,1/2+y,1/2-z
-x,-y,-z
x,y,1/2-z
-x,1/2+y,z
x,1/2-y,1/2+z
loop_
_atom_site_type_symbol
_atom_site_label
_atom_site_fract_x
_atom_site_fract_y
_atom_site_fract_z
Si Si1 0.460870 0.681314 0.920792
Si Si2 0.283222 0.460302 0.088568
Si Si3 0.320794 0.617572 0.416353
Si Si4 0.149362 0.680717 0.422168
Si Si5 0.127791 0.370471 0.408969
Si Si6 0.013754 0.928005 0.920753
Si Si7 0.242271 0.250000 0.500000
Si Si8 0.622971 0.646237 0.411117
O O1 0.461183 0.687839 0.750000
O O2 0.433362 0.750000 0.000000
O O3 0.396685 0.626378 0.978143
O O4 0.551021 0.666503 0.981099
O O5 0.311231 0.439588 0.250000
O O6 0.289425 0.540456 0.078462
O O7 0.191281 0.432774 0.076450
O O8 0.336923 0.422419 0.970559
O O9 0.344575 0.631977 0.250000
O O10 0.243976 0.664682 0.455596
O O11 0.123238 0.750000 0.500000
O O12 0.142183 0.689069 0.250000
O O13 0.094757 0.614819 0.460695
O O14 0.089972 0.373342 0.250000
O O15 0.183067 0.303050 0.420783
O O16 0.060639 0.379233 0.530569
O O17 0.014416 0.939284 0.750000
O O18 0.000000 0.000000 0.000000
O O19 0.304742 0.297847 0.587118
O O20 0.590514 0.639989 0.250000
#
# Coordination Sequence:
#
# PCOD9438822 Si02
#       8
#     8   8   8   8   8   8   4   8
#     4  12  25  40  61  89 121 156 200 252 308 368
#     4   9  20  39  62  88 123 164 203 250 308 365
#     4  10  21  41  65  87 117 158 205 255 308 364
#     4  10  23  42  64  91 124 162 208 260 312 368
#     4  10  21  38  62  92 126 163 205 252 307 365
#     4  11  24  42  64  93 127 167 213 261 317 378
#     4  10  22  38  62  92 128 162 206 248 306 366
#     4  11  22  38  62  90 123 162 205 251 302 364
#
# _framework density 20.002032
#
# number of rings (size 3 to 8) (size 9 to 14) (size 15 to 20)
#    0.000    1.600    0.667    3.600    0.933    9.600 
#    0.000    1.333    0.000    0.000    0.000    0.000 
#    0.000    0.000    0.000    0.000    0.000    0.000 
#
# Total GULP energy -335083.163607 kJ/mol
# GULP energy per Si atom -5584.719393 kJ/mol
# Density = 1.995651 g / cm^3
# Si number density = 20.002032 Si / 1000 Ang^3
#
#
#
# Elastic Constant Matrix: (Units=GPa)
#
#
# Indices 1 2 3 4 5 6 
#
# 1 73.2191 24.0003 35.5142 0.0000 0.0000 0.0000
# 2 24.0003 71.5733 27.4173 0.0000 0.0000 0.0000
# 3 35.5142 27.4173 103.9524 0.0000 0.0000 0.0000
# 4 0.0000 0.0000 0.0000 16.8043 0.0000 0.0000
# 5 0.0000 0.0000 0.0000 0.0000 22.3760 0.0000
# 6 0.0000 0.0000 0.0000 0.0000 0.0000 21.2788
#
#
#
# Elastic Compliance Matrix: (Units=1/GPa)
#
#
# Indices 1 2 3 4 5 6 
#
# 1 0.017314 -0.003938 -0.004876 0.000000 0.000000 0.000000
# 2 -0.003938 0.016437 -0.002990 0.000000 0.000000 0.000000
# 3 -0.004876 -0.002990 0.012074 0.000000 0.000000 0.000000
# 4 0.000000 0.000000 0.000000 0.059509 0.000000 0.000000
# 5 0.000000 0.000000 0.000000 0.000000 0.044691 0.000000
# 6 0.000000 0.000000 0.000000 0.000000 0.000000 0.046995
#
#
# Mechanical properties :
#
#
# Convention : Reuss Voigt Hill
#
# Bulk Modulus (GPa) = 45.01042 46.95646 45.98344
# Shear Modulus (GPa) = 21.92654 22.87936 22.40295
#
# Velocity S-wave (km/s) = 3.31451 3.38576 3.35032
# Velocity P-wave (km/s) = 6.09916 6.22987 6.16486
#
# Compressibility (1/GPa) = 0.02221708
#
# Stress axis : x y z
#
# Youngs Moduli (GPa) = 57.75794 60.83655 82.81979
#
# Poissons Ratio (x) = 0.23955 0.40387
# Poissons Ratio (y) = 0.22743 0.24764
# Poissons Ratio (z) = 0.28165 0.18191
#
# Static dielectric constant tensor:
#      x y z
#    x 1.708260 0.000000 0.000000 
#    y 0.000000 1.720380 0.000000 
#    z 0.000000 0.000000 1.695580 
# 
# From -- ./inp_files/6870.got.cif
#   From: 2010.05.17/outbox.cif.g08.bks.cpg/sg57_4_cif.got.tgz:6870.got - 2010.06.03 13:58:18.
