data_PCOD9438877
_publ_section_title
;
Structure prediction by ZEFSAII (Michael W. Deem and Ramdas Pophale) SiO2 
 PCOD9438877
Probable space group: P B C M
;
_chemical_formula_sum "Si O2"
_cell_formula_units_Z 40
_cell_length_a 7.743775
_cell_length_b 19.136386
_cell_length_c 13.649066
_cell_angle_alpha 90.000000
_cell_angle_beta 90.000000
_cell_angle_gamma 90.000000
_cell_volume 2022.625984
_symmetry_space_group_name_H-M "P B C M"
_symmetry_group_IT_number 57
_symmetry_cell_setting 'orthorhombic'
loop_
_space_group_symop_operation_xyz
x,y,z
-x,-y,1/2+z
x,1/2-y,-z
-x,1/2+y,1/2-z
-x,-y,-z
x,y,1/2-z
-x,1/2+y,z
x,1/2-y,1/2+z
loop_
_atom_site_type_symbol
_atom_site_label
_atom_site_fract_x
_atom_site_fract_y
_atom_site_fract_z
Si Si1 0.095044 0.544392 0.134427
Si Si2 0.275415 0.029010 0.045828
Si Si3 0.895242 0.331262 0.486907
Si Si4 0.407056 0.899025 0.362656
Si Si5 0.295843 0.328836 0.034768
O O1 0.135677 0.541091 0.250000
O O2 0.895640 0.523627 0.114044
O O3 0.206952 0.494971 0.061953
O O4 0.112306 0.621972 0.086010
O O5 0.413777 0.974878 0.086806
O O6 0.332358 0.109658 0.044332
O O7 0.857204 0.250000 0.500000
O O8 0.754997 0.362848 0.414711
O O9 0.091134 0.335655 0.446425
O O10 0.374920 0.908501 0.250000
O O11 0.575881 0.852053 0.379990
O O12 0.329245 0.250000 0.000000
#
# Coordination Sequence:
#
# PCOD9438877 Si02
#       5
#     8   8   8   8   8
#     4   9  17  32  58  87 112 150 200 237 282 350
#     4   9  19  35  55  82 118 150 185 244 293 331
#     4   9  20  38  58  83 119 154 187 239 292 333
#     4  11  22  36  58  85 114 151 193 234 282 342
#     4  10  21  39  59  80 112 152 189 232 284 337
#
# _framework density 19.776273
#
# number of rings (size 3 to 8) (size 9 to 14) (size 15 to 20)
#    0.000    2.400    0.000    3.000    0.000    2.400 
#    0.000    9.000    0.000   10.800    0.000    0.000 
#    0.000    0.000    0.000    0.000    0.000    0.000 
#
# Total GULP energy -223146.096370 kJ/mol
# GULP energy per Si atom -5578.652409 kJ/mol
# Density = 1.973126 g / cm^3
# Si number density = 19.776273 Si / 1000 Ang^3
#
#
#
# Elastic Constant Matrix: (Units=GPa)
#
#
# Indices 1 2 3 4 5 6 
#
# 1 51.5150 38.6467 38.7513 0.0000 0.0000 0.0000
# 2 38.6467 161.5545 39.6782 0.0000 0.0000 0.0000
# 3 38.7513 39.6782 143.2767 0.0000 0.0000 0.0000
# 4 0.0000 0.0000 0.0000 6.0946 0.0000 0.0000
# 5 0.0000 0.0000 0.0000 0.0000 -11.8401 0.0000
# 6 0.0000 0.0000 0.0000 0.0000 0.0000 24.5132
#
#
#
# Elastic Compliance Matrix: (Units=1/GPa)
#
#
# Indices 1 2 3 4 5 6 
#
# 1 0.027887 -0.005170 -0.006111 0.000000 0.000000 0.000000
# 2 -0.005170 0.007600 -0.000706 0.000000 0.000000 0.000000
# 3 -0.006111 -0.000706 0.008828 0.000000 0.000000 0.000000
# 4 0.000000 0.000000 0.000000 0.164079 0.000000 0.000000
# 5 0.000000 0.000000 0.000000 0.000000 -0.084458 0.000000
# 6 0.000000 0.000000 0.000000 0.000000 0.000000 0.040794
#
#
# Mechanical properties :
#
#
# Convention : Reuss Voigt Hill
#
# Bulk Modulus (GPa) = 49.16286 65.61094 57.38690
# Shear Modulus (GPa) = 25.57745 19.70487 22.64116
#
# Velocity S-wave (km/s) = 3.60021 3.15999 3.38726
# Velocity P-wave (km/s) = 6.49580 6.82368 6.66176
#
# Compressibility (1/GPa) = 0.02034056
#
# Stress axis : x y z
#
# Youngs Moduli (GPa) = 35.85865 131.57591 113.27799
#
# Poissons Ratio (x) = 0.68029 0.69221
# Poissons Ratio (y) = 0.18540 0.08001
# Poissons Ratio (z) = 0.21912 0.09294
#
# Static dielectric constant tensor:
#      x y z
#    x 1.764780 0.000000 0.000000 
#    y 0.000000 1.755460 0.000000 
#    z 0.000000 0.000000 1.655940 
# 
# From -- ./inp_files/11564.got.cif
#   From: 2010.05.17/outbox.cif.g08.bks.cpg/sg57_6_cif.got.tgz:11564.got - 2010.06.03 13:58:18.
