data_PCOD9438091
_publ_section_title
;
Structure prediction by ZEFSAII (Michael W. Deem and Ramdas Pophale) SiO2 
 PCOD9438091
Probable space group: P B C M
;
_chemical_formula_sum "Si O2"
_cell_formula_units_Z 56
_cell_length_a 19.447142
_cell_length_b 9.317681
_cell_length_c 15.774763
_cell_angle_alpha 90.000000
_cell_angle_beta 90.000000
_cell_angle_gamma 90.000000
_cell_volume 2858.422794
_symmetry_space_group_name_H-M "P B C M"
_symmetry_group_IT_number 57
_symmetry_cell_setting 'orthorhombic'
loop_
_space_group_symop_operation_xyz
x,y,z
-x,-y,1/2+z
x,1/2-y,-z
-x,1/2+y,1/2-z
-x,-y,-z
x,y,1/2-z
-x,1/2+y,z
x,1/2-y,1/2+z
loop_
_atom_site_type_symbol
_atom_site_label
_atom_site_fract_x
_atom_site_fract_y
_atom_site_fract_z
Si Si1 0.688000 0.612851 0.049928
Si Si2 0.426833 0.741815 0.898224
Si Si3 0.180390 0.388339 0.652937
Si Si4 0.072634 0.421453 0.504568
Si Si5 0.286525 0.860169 0.928057
Si Si6 0.442148 0.414394 0.846321
Si Si7 0.832592 0.957667 0.345786
O O1 0.745675 0.564189 0.116823
O O2 0.616396 0.651643 0.093506
O O3 0.716479 0.750000 0.000000
O O4 0.678175 0.486566 0.982956
O O5 0.348100 0.783077 0.878230
O O6 0.442563 0.582921 0.866260
O O7 0.483276 0.848467 0.861323
O O8 0.432875 0.750000 0.000000
O O9 0.168722 0.433863 0.750000
O O10 0.121191 0.440580 0.587822
O O11 0.183796 0.213458 0.652656
O O12 0.062066 0.250000 0.500000
O O13 0.113737 0.473939 0.421799
O O14 0.000000 0.500000 0.500000
O O15 0.230656 0.939099 0.870493
O O16 0.258154 0.750000 0.000000
O O17 0.421088 0.389522 0.750000
O O18 0.856440 0.990142 0.250000
#
# Coordination Sequence:
#
# PCOD9438091 Si02
#       7
#     8   8   8   8   8   8   8
#     4  12  21  40  66  89 120 163 209 255 314 381
#     4  11  24  43  62  84 117 166 208 257 322 386
#     4  10  20  38  65  95 126 164 213 256 305 369
#     4  10  21  40  64  91 128 169 205 253 302 361
#     4  11  22  41  64  89 123 160 206 263 323 376
#     4  12  26  41  59  89 123 158 208 269 321 380
#     4  10  21  39  65  94 124 166 212 256 308 375
#
# _framework density 19.591224
#
# number of rings (size 3 to 8) (size 9 to 14) (size 15 to 20)
#    0.000    1.143    5.714    2.143    2.000    2.286 
#    0.000    0.000    0.000    0.000    0.000    0.000 
#    0.000    0.000    0.000    0.000    0.000    0.000 
#
# Total GULP energy -312690.117086 kJ/mol
# GULP energy per Si atom -5583.752091 kJ/mol
# Density = 1.954663 g / cm^3
# Si number density = 19.591224 Si / 1000 Ang^3
#
#
#
# Elastic Constant Matrix: (Units=GPa)
#
#
# Indices 1 2 3 4 5 6 
#
# 1 112.8871 24.6364 53.6726 0.0000 0.0000 0.0000
# 2 24.6364 23.9861 31.8760 0.0000 0.0000 0.0000
# 3 53.6726 31.8760 128.8941 0.0000 0.0000 0.0000
# 4 0.0000 0.0000 0.0000 22.7979 0.0000 0.0000
# 5 0.0000 0.0000 0.0000 0.0000 3.6122 0.0000
# 6 0.0000 0.0000 0.0000 0.0000 0.0000 189.0869
#
#
#
# Elastic Compliance Matrix: (Units=1/GPa)
#
#
# Indices 1 2 3 4 5 6 
#
# 1 0.012118 -0.008551 -0.002931 0.000000 0.000000 0.000000
# 2 -0.008551 0.068134 -0.013289 0.000000 0.000000 0.000000
# 3 -0.002931 -0.013289 0.012265 0.000000 0.000000 0.000000
# 4 0.000000 0.000000 0.000000 0.043864 0.000000 0.000000
# 5 0.000000 0.000000 0.000000 0.000000 0.276838 0.000000
# 6 0.000000 0.000000 0.000000 0.000000 0.000000 0.005289
#
#
# Mechanical properties :
#
#
# Convention : Reuss Voigt Hill
#
# Bulk Modulus (GPa) = 23.26958 54.01525 38.64242
# Shear Modulus (GPa) = 10.36535 53.47157 31.91846
#
# Velocity S-wave (km/s) = 2.30267 5.23000 4.04074
# Velocity P-wave (km/s) = 4.35581 8.00634 6.44494
#
# Compressibility (1/GPa) = 0.04297456
#
# Stress axis : x y z
#
# Youngs Moduli (GPa) = 82.51927 14.67694 81.53013
#
# Poissons Ratio (x) = 0.12551 0.23900
# Poissons Ratio (y) = 0.70564 1.08345
# Poissons Ratio (z) = 0.24190 0.19504
#
# Static dielectric constant tensor:
#      x y z
#    x 1.680700 0.000000 0.000000 
#    y 0.000000 1.708160 0.000000 
#    z 0.000000 0.000000 1.703710 
# 
# From -- ./inp_files/19331.got.cif
#   From: 2010.05.17/outbox.cif.g08.bks.cpg/sg57_10_cif.got.tgz:19331.got - 2010.06.03 13:58:18.
