data_PCOD9438516
_publ_section_title
;
Structure prediction by ZEFSAII (Michael W. Deem and Ramdas Pophale) SiO2 
 PCOD9438516
Probable space group: P B C M
;
_chemical_formula_sum "Si O2"
_cell_formula_units_Z 40
_cell_length_a 26.311510
_cell_length_b 9.506506
_cell_length_c 8.611806
_cell_angle_alpha 90.000000
_cell_angle_beta 90.000000
_cell_angle_gamma 90.000000
_cell_volume 2154.075579
_symmetry_space_group_name_H-M "P B C M"
_symmetry_group_IT_number 57
_symmetry_cell_setting 'orthorhombic'
loop_
_space_group_symop_operation_xyz
x,y,z
-x,-y,1/2+z
x,1/2-y,-z
-x,1/2+y,1/2-z
-x,-y,-z
x,y,1/2-z
-x,1/2+y,z
x,1/2-y,1/2+z
loop_
_atom_site_type_symbol
_atom_site_label
_atom_site_fract_x
_atom_site_fract_y
_atom_site_fract_z
Si Si1 0.546115 0.908601 0.935295
Si Si2 0.249039 0.593907 0.063562
Si Si3 0.860658 0.091084 0.935852
Si Si4 0.046952 0.408724 0.063929
Si Si5 0.653432 0.592731 0.935988
O O1 0.545027 0.905602 0.750000
O O2 0.541859 0.750000 0.000000
O O3 0.600913 0.964310 0.992633
O O4 0.500000 0.000000 0.000000
O O5 0.243023 0.598050 0.250000
O O6 0.296992 0.497306 0.024437
O O7 0.258594 0.750000 0.000000
O O8 0.195879 0.546613 0.988477
O O9 0.864235 0.093873 0.750000
O O10 0.868648 0.250000 0.000000
O O11 0.902247 0.986722 0.005969
O O12 0.045406 0.406010 0.250000
O O13 0.044439 0.250000 0.000000
O O14 0.000000 0.500000 0.000000
O O15 0.648113 0.597187 0.750000
O O16 0.659837 0.750000 0.000000
#
# Coordination Sequence:
#
# PCOD9438516 Si02
#       5
#     8   8   8   8   8
#     4  11  22  38  59  83 113 148 189 235 287 342
#     4  10  21  37  58  85 116 151 192 238 285 339
#     4  11  22  39  62  88 119 156 195 239 289 341
#     4  12  25  43  64  90 121 155 196 240 289 343
#     4  10  21  37  57  82 113 148 189 234 285 341
#
# _framework density 18.56945
#
# number of rings (size 3 to 8) (size 9 to 14) (size 15 to 20)
#    0.000    1.200    0.000    9.600    0.000    4.800 
#    0.000    4.000    0.000    0.000    0.000    0.000 
#    0.000    0.000    0.000    0.000    0.000    0.000 
#
# Total GULP energy -223681.965200 kJ/mol
# GULP energy per Si atom -5592.049130 kJ/mol
# Density = 1.852719 g / cm^3
# Si number density = 18.569450 Si / 1000 Ang^3
#
#
#
# Elastic Constant Matrix: (Units=GPa)
#
#
# Indices 1 2 3 4 5 6 
#
# 1 200.3700 112.4378 99.8558 0.0000 0.0000 0.0000
# 2 112.4378 99.3096 66.2527 0.0000 0.0000 0.0000
# 3 99.8558 66.2527 173.1977 0.0000 0.0000 0.0000
# 4 0.0000 0.0000 0.0000 35.5204 0.0000 0.0000
# 5 0.0000 0.0000 0.0000 0.0000 38.9582 0.0000
# 6 0.0000 0.0000 0.0000 0.0000 0.0000 27.8943
#
#
#
# Elastic Compliance Matrix: (Units=1/GPa)
#
#
# Indices 1 2 3 4 5 6 
#
# 1 0.014645 -0.014699 -0.002821 0.000000 0.000000 0.000000
# 2 -0.014699 0.028273 -0.002341 0.000000 0.000000 0.000000
# 3 -0.002821 -0.002341 0.008295 0.000000 0.000000 0.000000
# 4 0.000000 0.000000 0.000000 0.028153 0.000000 0.000000
# 5 0.000000 0.000000 0.000000 0.000000 0.025669 0.000000
# 6 0.000000 0.000000 0.000000 0.000000 0.000000 0.035850
#
#
# Mechanical properties :
#
#
# Convention : Reuss Voigt Hill
#
# Bulk Modulus (GPa) = 87.01109 114.44112 100.72610
# Shear Modulus (GPa) = 27.10969 33.42997 30.26983
#
# Velocity S-wave (km/s) = 3.82502 4.24756 4.04181
# Velocity P-wave (km/s) = 8.15270 9.26381 8.72596
#
# Compressibility (1/GPa) = 0.01149279
#
# Stress axis : x y z
#
# Youngs Moduli (GPa) = 68.28353 35.36912 120.55054
#
# Poissons Ratio (x) = 0.51989 0.34002
# Poissons Ratio (y) = 1.00371 0.28216
# Poissons Ratio (z) = 0.19260 0.08279
#
# Static dielectric constant tensor:
#      x y z
#    x 1.637730 0.000000 0.000000 
#    y 0.000000 1.608250 0.000000 
#    z 0.000000 0.000000 1.621530 
# 
# From -- ./inp_files/9644.got.cif
#   From: 2010.05.17/outbox.cif.g08.bks.cpg/sg57_5_cif.got.tgz:9644.got - 2010.06.03 13:58:18.
