data_PCOD9438997
_publ_section_title
;
Structure prediction by ZEFSAII (Michael W. Deem and Ramdas Pophale) SiO2 
 PCOD9438997
Probable space group: P B C M
;
_chemical_formula_sum "Si O2"
_cell_formula_units_Z 64
_cell_length_a 24.005767
_cell_length_b 15.472904
_cell_length_c 8.360231
_cell_angle_alpha 90.000000
_cell_angle_beta 90.000000
_cell_angle_gamma 90.000000
_cell_volume 3105.315242
_symmetry_space_group_name_H-M "P B C M"
_symmetry_group_IT_number 57
_symmetry_cell_setting 'orthorhombic'
loop_
_space_group_symop_operation_xyz
x,y,z
-x,-y,1/2+z
x,1/2-y,-z
-x,1/2+y,1/2-z
-x,-y,-z
x,y,1/2-z
-x,1/2+y,z
x,1/2-y,1/2+z
loop_
_atom_site_type_symbol
_atom_site_label
_atom_site_fract_x
_atom_site_fract_y
_atom_site_fract_z
Si Si1 0.115870 0.376006 0.434677
Si Si2 0.486797 0.350465 0.058678
Si Si3 0.239439 0.160367 0.557378
Si Si4 0.897917 0.056539 0.933266
Si Si5 0.419757 0.512250 0.940434
Si Si6 0.703847 0.484066 0.943091
Si Si7 0.202751 0.656766 0.058699
Si Si8 0.004331 0.656912 0.063490
O O1 0.108662 0.349058 0.250000
O O2 0.175194 0.344689 0.499102
O O3 0.117803 0.479377 0.448400
O O4 0.061475 0.349701 0.532268
O O5 0.488259 0.345182 0.250000
O O6 0.540577 0.408045 0.003063
O O7 0.483970 0.250000 0.000000
O O8 0.437836 0.418392 0.010552
O O9 0.264627 0.250000 0.500000
O O10 0.237179 0.157844 0.750000
O O11 0.273100 0.077040 0.502662
O O12 0.892089 0.028137 0.750000
O O13 0.854901 0.132514 0.972304
O O14 0.960597 0.086886 0.965937
O O15 0.426609 0.506320 0.750000
O O16 0.356445 0.532243 0.984811
O O17 0.698936 0.485156 0.750000
O O18 0.750484 0.413575 0.984119
O O19 0.194614 0.655514 0.250000
O O20 0.221359 0.750000 0.000000
O O21 0.016425 0.647132 0.250000
O O22 0.022613 0.750000 0.000000
#
# Coordination Sequence:
#
# PCOD9438997 Si02
#       8
#     8   8   8   8   8   8   8   8
#     4  11  22  41  63  86 118 154 197 250 310 375
#     4  10  21  39  64  94 130 170 212 256 310 364
#     4  10  22  40  62  88 119 159 203 250 307 366
#     4  12  24  40  62  88 116 154 200 250 311 375
#     4  10  22  39  62  94 129 167 212 261 309 362
#     4  10  22  42  63  87 126 170 208 255 312 364
#     4  11  23  42  64  89 122 162 207 258 313 373
#     4  12  25  41  59  85 117 152 196 248 309 376
#
# _framework density 20.609824
#
# number of rings (size 3 to 8) (size 9 to 14) (size 15 to 20)
#    0.000    1.250    1.250    4.875    0.000    6.000 
#    0.000    3.750    0.000    0.000    0.000    0.000 
#    0.000    0.000    0.000    0.000    0.000    0.000 
#
# Total GULP energy -357695.329895 kJ/mol
# GULP energy per Si atom -5588.989530 kJ/mol
# Density = 2.056292 g / cm^3
# Si number density = 20.609824 Si / 1000 Ang^3
#
#
#
# Elastic Constant Matrix: (Units=GPa)
#
#
# Indices 1 2 3 4 5 6 
#
# 1 68.1313 4.5186 14.9626 0.0000 0.0000 0.0000
# 2 4.5186 110.6647 13.0866 0.0000 0.0000 0.0000
# 3 14.9626 13.0866 50.6478 0.0000 0.0000 0.0000
# 4 0.0000 0.0000 0.0000 30.5296 0.0000 0.0000
# 5 0.0000 0.0000 0.0000 0.0000 61.9546 0.0000
# 6 0.0000 0.0000 0.0000 0.0000 0.0000 -12.1983
#
#
#
# Elastic Compliance Matrix: (Units=1/GPa)
#
#
# Indices 1 2 3 4 5 6 
#
# 1 0.015697 -0.000095 -0.004613 0.000000 0.000000 0.000000
# 2 -0.000095 0.009322 -0.002380 0.000000 0.000000 0.000000
# 3 -0.004613 -0.002380 0.021722 0.000000 0.000000 0.000000
# 4 0.000000 0.000000 0.000000 0.032755 0.000000 0.000000
# 5 0.000000 0.000000 0.000000 0.000000 0.016141 0.000000
# 6 0.000000 0.000000 0.000000 0.000000 0.000000 -0.081979
#
#
# Mechanical properties :
#
#
# Convention : Reuss Voigt Hill
#
# Bulk Modulus (GPa) = 30.70908 32.73103 31.72006
# Shear Modulus (GPa) = 129.23512 29.18223 79.20867
#
# Velocity S-wave (km/s) = 7.92728 3.76698 6.20612
# Velocity P-wave (km/s) = 9.93587 5.90220 8.17182
#
# Compressibility (1/GPa) = 0.03256365
#
# Stress axis : x y z
#
# Youngs Moduli (GPa) = 63.70701 107.27668 46.03646
#
# Poissons Ratio (x) = 0.01024 0.21235
# Poissons Ratio (y) = 0.00608 0.10958
# Poissons Ratio (z) = 0.29385 0.25536
#
# Static dielectric constant tensor:
#      x y z
#    x 1.717400 0.000000 0.000000 
#    y 0.000000 1.771170 0.000000 
#    z 0.000000 0.000000 1.678390 
# 
# From -- ./inp_files/9401.got.cif
#   From: 2010.05.17/outbox.cif.g08.bks.cpg/sg57_5_cif.got.tgz:9401.got - 2010.06.03 13:58:18.
