data_PCOD9438984
_publ_section_title
;
Structure prediction by ZEFSAII (Michael W. Deem and Ramdas Pophale) SiO2 
 PCOD9438984
Probable space group: P B C M
;
_chemical_formula_sum "Si O2"
_cell_formula_units_Z 48
_cell_length_a 31.656504
_cell_length_b 5.202224
_cell_length_c 14.447455
_cell_angle_alpha 90.000000
_cell_angle_beta 90.000000
_cell_angle_gamma 90.000000
_cell_volume 2379.267928
_symmetry_space_group_name_H-M "P B C M"
_symmetry_group_IT_number 57
_symmetry_cell_setting 'orthorhombic'
loop_
_space_group_symop_operation_xyz
x,y,z
-x,-y,1/2+z
x,1/2-y,-z
-x,1/2+y,1/2-z
-x,-y,-z
x,y,1/2-z
-x,1/2+y,z
x,1/2-y,1/2+z
loop_
_atom_site_type_symbol
_atom_site_label
_atom_site_fract_x
_atom_site_fract_y
_atom_site_fract_z
Si Si1 0.972993 0.387021 0.860322
Si Si2 0.412908 0.319917 0.250000
Si Si3 0.482731 0.029670 0.608029
Si Si4 0.099943 0.750000 0.500000
Si Si5 0.356570 0.679434 0.750000
Si Si6 0.771288 0.829802 0.356566
Si Si7 0.844529 0.750000 0.000000
Si Si8 0.283411 0.669172 0.602830
O O1 0.965501 0.377674 0.750000
O O2 0.993492 0.661897 0.883196
O O3 0.930688 0.331418 0.916218
O O4 0.440101 0.357554 0.345741
O O5 0.378094 0.543151 0.250000
O O6 0.391080 0.044110 0.250000
O O7 0.515390 0.241085 0.644259
O O8 0.500000 0.000000 0.500000
O O9 0.127804 0.500188 0.523927
O O10 0.325191 0.651362 0.663532
O O11 0.780462 0.772766 0.250000
O O12 0.813550 0.829160 0.416563
O O13 0.741329 0.600376 0.393373
O O14 0.747297 0.102098 0.362607
O O15 0.294938 0.750000 0.500000
#
# Coordination Sequence:
#
# PCOD9438984 Si02
#       8
#     8   4   8   4   4   8   4   8
#     4  10  21  39  64  89 120 171 221 258 323 414
#     4  12  24  43  66 100 138 162 218 280 318 387
#     4  10  21  41  68  91 123 176 219 251 308 384
#     4  12  24  39  60  92 134 164 204 290 342 379
#     4  12  26  43  68 106 134 170 210 278 354 369
#     4  12  23  43  71  93 125 178 231 267 320 418
#     4  12  26  39  62  96 130 166 220 280 338 379
#     4  12  23  45  71  94 131 173 220 272 331 406
#
# _framework density 20.174274
#
# number of rings (size 3 to 8) (size 9 to 14) (size 15 to 20)
#    0.000    0.667    3.333    5.000    0.000    1.333 
#    9.000    0.000    0.000    0.000    0.000    0.000 
#    0.000    0.000    0.000    0.000    0.000    0.000 
#
# Total GULP energy -267864.034718 kJ/mol
# GULP energy per Si atom -5580.500723 kJ/mol
# Density = 2.012836 g / cm^3
# Si number density = 20.174274 Si / 1000 Ang^3
#
#
#
# Elastic Constant Matrix: (Units=GPa)
#
#
# Indices 1 2 3 4 5 6 
#
# 1 78.0972 3.2315 29.2889 0.0000 0.0000 0.0000
# 2 3.2315 94.7664 -11.0888 0.0000 0.0000 0.0000
# 3 29.2889 -11.0888 115.5454 0.0000 0.0000 0.0000
# 4 0.0000 0.0000 0.0000 20.5413 0.0000 0.0000
# 5 0.0000 0.0000 0.0000 0.0000 -29.2763 0.0000
# 6 0.0000 0.0000 0.0000 0.0000 0.0000 28.3285
#
#
#
# Elastic Compliance Matrix: (Units=1/GPa)
#
#
# Indices 1 2 3 4 5 6 
#
# 1 0.014228 -0.000917 -0.003695 0.000000 0.000000 0.000000
# 2 -0.000917 0.010731 0.001262 0.000000 0.000000 0.000000
# 3 -0.003695 0.001262 0.009712 0.000000 0.000000 0.000000
# 4 0.000000 0.000000 0.000000 0.048682 0.000000 0.000000
# 5 0.000000 0.000000 0.000000 0.000000 -0.034157 0.000000
# 6 0.000000 0.000000 0.000000 0.000000 0.000000 0.035300
#
#
# Mechanical properties :
#
#
# Convention : Reuss Voigt Hill
#
# Bulk Modulus (GPa) = 35.74966 36.80801 36.27883
# Shear Modulus (GPa) = 49.74121 21.71721 35.72921
#
# Velocity S-wave (km/s) = 4.97084 3.28454 4.21292
# Velocity P-wave (km/s) = 7.12072 5.71567 6.45653
#
# Compressibility (1/GPa) = 0.02797230
#
# Stress axis : x y z
#
# Youngs Moduli (GPa) = 70.28331 93.18557 102.96222
#
# Poissons Ratio (x) = 0.08550 0.38041
# Poissons Ratio (y) = 0.06448 -0.12998
# Poissons Ratio (z) = 0.25967 -0.11764
#
# Static dielectric constant tensor:
#      x y z
#    x 1.684980 0.000000 0.000000 
#    y 0.000000 2.040180 0.000000 
#    z 0.000000 0.000000 1.733480 
# 
# From -- ./inp_files/19614.got.cif
#   From: 2010.05.17/outbox.cif.g08.bks.cpg/sg57_10_cif.got.tgz:19614.got - 2010.06.03 13:58:18.
