data_PCOD9438692
_publ_section_title
;
Structure prediction by ZEFSAII (Michael W. Deem and Ramdas Pophale) SiO2 
 PCOD9438692
Probable space group: P B C M
;
_chemical_formula_sum "Si O2"
_cell_formula_units_Z 64
_cell_length_a 22.672929
_cell_length_b 10.249686
_cell_length_c 14.615729
_cell_angle_alpha 90.000000
_cell_angle_beta 90.000000
_cell_angle_gamma 90.000000
_cell_volume 3396.555152
_symmetry_space_group_name_H-M "P B C M"
_symmetry_group_IT_number 57
_symmetry_cell_setting 'orthorhombic'
loop_
_space_group_symop_operation_xyz
x,y,z
-x,-y,1/2+z
x,1/2-y,-z
-x,1/2+y,1/2-z
-x,-y,-z
x,y,1/2-z
-x,1/2+y,z
x,1/2-y,1/2+z
loop_
_atom_site_type_symbol
_atom_site_label
_atom_site_fract_x
_atom_site_fract_y
_atom_site_fract_z
Si Si1 0.137209 0.475431 0.860021
Si Si2 0.860325 0.532994 0.639640
Si Si3 0.238193 0.100265 0.497473
Si Si4 0.345888 0.902535 0.003303
Si Si5 0.046269 0.246705 0.360605
Si Si6 0.088418 0.746964 0.138866
Si Si7 0.445602 0.584815 0.141324
Si Si8 0.451505 0.885569 0.358803
O O1 0.145387 0.469155 0.750000
O O2 0.080717 0.385849 0.883168
O O3 0.123412 0.623552 0.887940
O O4 0.193268 0.420543 0.913102
O O5 0.853639 0.540627 0.750000
O O6 0.801199 0.571463 0.587251
O O7 0.912239 0.633124 0.611615
O O8 0.880237 0.387459 0.613751
O O9 0.258505 0.250000 0.500000
O O10 0.291374 0.999040 0.490169
O O11 0.391934 0.916664 0.086853
O O12 0.327509 0.750000 0.000000
O O13 0.385403 0.932634 0.914029
O O14 0.043375 0.252482 0.250000
O O15 0.979276 0.251576 0.393364
O O16 0.086416 0.748448 0.250000
O O17 0.435886 0.572731 0.250000
O O18 0.495435 0.481145 0.114286
O O19 0.466029 0.733630 0.122390
O O20 0.442428 0.899445 0.250000
#
# Coordination Sequence:
#
# PCOD9438692 Si02
#       8
#     8   8   8   8   8   8   8   8
#     4  10  21  38  58  81 111 144 182 235 290 342
#     4  10  21  38  58  81 111 144 182 235 290 342
#     4  12  26  41  56  78 110 153 203 238 275 335
#     4  10  23  39  57  81 115 155 192 235 275 317
#     4   9  16  33  59  83 112 141 173 228 294 354
#     4   9  18  33  59  89 108 137 181 226 292 364
#     4   9  18  35  60  91 122 149 181 224 276 328
#     4   9  18  35  60  91 122 149 181 224 276 328
#
# _framework density 18.842618999999999
#
# number of rings (size 3 to 8) (size 9 to 14) (size 15 to 20)
#    0.000    2.250    1.250    1.125    1.750    5.000 
#    0.000    3.750    0.000    0.000    0.000    0.000 
#    0.000    0.000    0.000    0.000    0.000    0.000 
#
# Total GULP energy -357448.911482 kJ/mol
# GULP energy per Si atom -5585.139242 kJ/mol
# Density = 1.879973 g / cm^3
# Si number density = 18.842619 Si / 1000 Ang^3
#
#
#
# Elastic Constant Matrix: (Units=GPa)
#
#
# Indices 1 2 3 4 5 6 
#
# 1 55.7035 16.4595 -4.0619 0.0000 0.0000 0.0000
# 2 16.4595 81.4798 -11.0994 0.0000 0.0000 0.0000
# 3 -4.0619 -11.0994 51.7259 0.0000 0.0000 0.0000
# 4 0.0000 0.0000 0.0000 3.9668 0.0000 0.0000
# 5 0.0000 0.0000 0.0000 0.0000 -195.4493 0.0000
# 6 0.0000 0.0000 0.0000 0.0000 0.0000 42.9099
#
#
#
# Elastic Compliance Matrix: (Units=1/GPa)
#
#
# Indices 1 2 3 4 5 6 
#
# 1 0.019116 -0.003767 0.000693 0.000000 0.000000 0.000000
# 2 -0.003767 0.013385 0.002576 0.000000 0.000000 0.000000
# 3 0.000693 0.002576 0.019940 0.000000 0.000000 0.000000
# 4 0.000000 0.000000 0.000000 0.252094 0.000000 0.000000
# 5 0.000000 0.000000 0.000000 0.000000 -0.005116 0.000000
# 6 0.000000 0.000000 0.000000 0.000000 0.000000 0.023305
#
#
# Mechanical properties :
#
#
# Convention : Reuss Voigt Hill
#
# Bulk Modulus (GPa) = 19.43840 21.27838 20.35839
# Shear Modulus (GPa) = 14.66845 -17.20712 -1.26934
#
# Velocity S-wave (km/s) = 2.79314 -3.02520 -0.82165
# Velocity P-wave (km/s) = 4.55420 0.94088 3.15083
#
# Compressibility (1/GPa) = 0.05144456
#
# Stress axis : x y z
#
# Youngs Moduli (GPa) = 52.31261 74.71087 50.15065
#
# Poissons Ratio (x) = 0.28145 -0.03474
# Poissons Ratio (y) = 0.19707 -0.12920
# Poissons Ratio (z) = -0.03624 -0.19248
#
# Static dielectric constant tensor:
#      x y z
#    x 1.592010 0.000000 0.000000 
#    y 0.000000 1.646490 0.000000 
#    z 0.000000 0.000000 1.690800 
# 
# From -- ./inp_files/19487.got.cif
#   From: 2010.05.17/outbox.cif.g08.bks.cpg/sg57_10_cif.got.tgz:19487.got - 2010.06.03 13:58:18.
