data_PCOD9438023
_publ_section_title
;
Structure prediction by ZEFSAII (Michael W. Deem and Ramdas Pophale) SiO2 
 PCOD9438023
Probable space group: P B C M
;
_chemical_formula_sum "Si O2"
_cell_formula_units_Z 56
_cell_length_a 6.377226
_cell_length_b 13.829271
_cell_length_c 30.422240
_cell_angle_alpha 90.000000
_cell_angle_beta 90.000000
_cell_angle_gamma 90.000000
_cell_volume 2683.009951
_symmetry_space_group_name_H-M "P B C M"
_symmetry_group_IT_number 57
_symmetry_cell_setting 'orthorhombic'
loop_
_space_group_symop_operation_xyz
x,y,z
-x,-y,1/2+z
x,1/2-y,-z
-x,1/2+y,1/2-z
-x,-y,-z
x,y,1/2-z
-x,1/2+y,z
x,1/2-y,1/2+z
loop_
_atom_site_type_symbol
_atom_site_label
_atom_site_fract_x
_atom_site_fract_y
_atom_site_fract_z
Si Si1 0.422992 0.074014 0.669301
Si Si2 0.096144 0.915744 0.799644
Si Si3 0.705817 0.962946 0.524927
Si Si4 0.208042 0.454794 0.623720
Si Si5 0.772811 0.207143 0.702175
Si Si6 0.942502 0.857592 0.121150
Si Si7 0.025723 0.839895 0.473335
O O1 0.558329 0.147780 0.698098
O O2 0.299944 0.136609 0.633040
O O3 0.241738 0.009435 0.691744
O O4 0.592804 0.004449 0.646825
O O5 0.006012 0.922463 0.750000
O O6 0.246844 0.822367 0.800824
O O7 0.916545 0.899456 0.836918
O O8 0.708646 0.923478 0.575551
O O9 0.814082 0.879640 0.495887
O O10 0.500000 0.000000 0.500000
O O11 0.834320 0.063955 0.526022
O O12 0.029012 0.534343 0.612849
O O13 0.868397 0.184818 0.750000
O O14 0.924191 0.177450 0.662615
O O15 0.988008 0.803743 0.076187
O O16 0.115747 0.750000 0.500000
#
# Coordination Sequence:
#
# PCOD9438023 Si02
#       7
#     8   8   8   8   8   8   8
#     4  10  20  38  62  86 119 159 205 249 302 358
#     4  10  22  38  58  88 125 163 205 250 303 364
#     4  10  21  40  63  90 123 156 201 251 300 362
#     4   9  20  37  59  86 116 159 197 250 306 356
#     4  10  22  38  58  88 123 160 202 250 301 357
#     4   9  20  38  58  83 121 153 195 249 301 355
#     4  10  22  39  62  90 121 158 199 245 301 359
#
# _framework density 20.872081999999999
#
# number of rings (size 3 to 8) (size 9 to 14) (size 15 to 20)
#    0.000    2.286    0.000    1.286    2.000    9.143 
#    0.000    2.857    0.000    0.000    0.000    0.000 
#    0.000    0.000    0.000    0.000    0.000    0.000 
#
# Total GULP energy -311814.895854 kJ/mol
# GULP energy per Si atom -5568.123140 kJ/mol
# Density = 2.082458 g / cm^3
# Si number density = 20.872082 Si / 1000 Ang^3
#
#
#
# Elastic Constant Matrix: (Units=GPa)
#
#
# Indices 1 2 3 4 5 6 
#
# 1 66.3135 8.9138 50.2269 0.0000 0.0000 0.0000
# 2 8.9138 50.4789 28.7257 0.0000 0.0000 0.0000
# 3 50.2269 28.7257 177.8719 0.0000 0.0000 0.0000
# 4 0.0000 0.0000 0.0000 20.9735 0.0000 0.0000
# 5 0.0000 0.0000 0.0000 0.0000 18.5674 0.0000
# 6 0.0000 0.0000 0.0000 0.0000 0.0000 6.3496
#
#
#
# Elastic Compliance Matrix: (Units=1/GPa)
#
#
# Indices 1 2 3 4 5 6 
#
# 1 0.019188 -0.000336 -0.005364 0.000000 0.000000 0.000000
# 2 -0.000336 0.021821 -0.003429 0.000000 0.000000 0.000000
# 3 -0.005364 -0.003429 0.007690 0.000000 0.000000 0.000000
# 4 0.000000 0.000000 0.000000 0.047679 0.000000 0.000000
# 5 0.000000 0.000000 0.000000 0.000000 0.053858 0.000000
# 6 0.000000 0.000000 0.000000 0.000000 0.000000 0.157489
#
#
# Mechanical properties :
#
#
# Convention : Reuss Voigt Hill
#
# Bulk Modulus (GPa) = 32.85013 52.26637 42.55825
# Shear Modulus (GPa) = 14.87517 22.96464 18.91991
#
# Velocity S-wave (km/s) = 2.67251 3.32061 3.01403
# Velocity P-wave (km/s) = 5.02952 6.30853 5.70498
#
# Compressibility (1/GPa) = 0.03044128
#
# Stress axis : x y z
#
# Youngs Moduli (GPa) = 52.11655 45.82743 130.03094
#
# Poissons Ratio (x) = 0.01539 0.69748
# Poissons Ratio (y) = 0.01750 0.44590
# Poissons Ratio (z) = 0.27955 0.15715
#
# Static dielectric constant tensor:
#      x y z
#    x 1.736020 0.000000 0.000000 
#    y 0.000000 1.785680 0.000000 
#    z 0.000000 0.000000 1.528610 
# 
# From -- ./inp_files/29185.got.cif
#   From: 2010.05.17/outbox.cif.g08.bks.cpg/sg57_15_cif.got.tgz:29185.got - 2010.06.03 13:58:18.
