data_PCOD9438520
_publ_section_title
;
Structure prediction by ZEFSAII (Michael W. Deem and Ramdas Pophale) SiO2 
 PCOD9438520
Probable space group: P B C M
;
_chemical_formula_sum "Si O2"
_cell_formula_units_Z 48
_cell_length_a 15.477511
_cell_length_b 19.789525
_cell_length_c 8.492280
_cell_angle_alpha 90.000000
_cell_angle_beta 90.000000
_cell_angle_gamma 90.000000
_cell_volume 2601.122444
_symmetry_space_group_name_H-M "P B C M"
_symmetry_group_IT_number 57
_symmetry_cell_setting 'orthorhombic'
loop_
_space_group_symop_operation_xyz
x,y,z
-x,-y,1/2+z
x,1/2-y,-z
-x,1/2+y,1/2-z
-x,-y,-z
x,y,1/2-z
-x,1/2+y,z
x,1/2-y,1/2+z
loop_
_atom_site_type_symbol
_atom_site_label
_atom_site_fract_x
_atom_site_fract_y
_atom_site_fract_z
Si Si1 0.367824 0.324956 0.061440
Si Si2 0.726266 0.412084 0.442049
Si Si3 0.564816 0.325011 0.440222
Si Si4 0.765553 0.935498 0.940297
Si Si5 0.106122 0.826258 0.061069
Si Si6 0.036040 0.071531 0.439118
O O1 0.366664 0.323974 0.250000
O O2 0.466578 0.340568 0.009084
O O3 0.346704 0.250000 0.000000
O O4 0.300764 0.379921 0.000848
O O5 0.726287 0.412618 0.250000
O O6 0.636740 0.378171 0.494212
O O7 0.739435 0.489110 0.493851
O O8 0.807370 0.366056 0.491284
O O9 0.586673 0.250000 0.500000
O O10 0.565946 0.323887 0.250000
O O11 0.763761 0.935112 0.750000
O O12 0.864200 0.921249 0.989473
O O13 0.105419 0.825700 0.250000
O O14 0.105926 0.750000 0.000000
O O15 0.024292 0.868764 0.001619
O O16 0.033529 0.070844 0.250000
O O17 0.000000 0.000000 0.500000
#
# Coordination Sequence:
#
# PCOD9438520 Si02
#       6
#     8   8   8   8   8   8
#     4  10  21  37  57  83 111 146 189 236 281 330
#     4   9  18  35  57  82 115 151 184 226 282 339
#     4   9  18  34  56  80 112 149 187 229 279 332
#     4  10  21  38  59  82 111 150 186 226 284 340
#     4  11  22  38  59  87 118 152 192 236 284 337
#     4  11  22  39  61  84 112 151 191 232 286 343
#
# _framework density 18.453572000000001
#
# number of rings (size 3 to 8) (size 9 to 14) (size 15 to 20)
#    0.000    2.000    1.667    2.000    0.000    3.333 
#    0.000    1.667    0.000    0.000    0.000    0.000 
#    0.000    0.000    0.000    0.000    0.000    0.000 
#
# Total GULP energy -268052.452964 kJ/mol
# GULP energy per Si atom -5584.426103 kJ/mol
# Density = 1.841157 g / cm^3
# Si number density = 18.453572 Si / 1000 Ang^3
#
#
#
# Elastic Constant Matrix: (Units=GPa)
#
#
# Indices 1 2 3 4 5 6 
#
# 1 177.4479 136.7765 32.4448 0.0000 0.0000 0.0000
# 2 136.7765 190.2296 32.1441 0.0000 0.0000 0.0000
# 3 32.4448 32.1441 26.7636 0.0000 0.0000 0.0000
# 4 0.0000 0.0000 0.0000 33.5035 0.0000 0.0000
# 5 0.0000 0.0000 0.0000 0.0000 18.8748 0.0000
# 6 0.0000 0.0000 0.0000 0.0000 0.0000 42.0736
#
#
#
# Elastic Compliance Matrix: (Units=1/GPa)
#
#
# Indices 1 2 3 4 5 6 
#
# 1 0.013330 -0.008599 -0.005832 0.000000 0.000000 0.000000
# 2 -0.008599 0.012142 -0.004159 0.000000 0.000000 0.000000
# 3 -0.005832 -0.004159 0.049429 0.000000 0.000000 0.000000
# 4 0.000000 0.000000 0.000000 0.029848 0.000000 0.000000
# 5 0.000000 0.000000 0.000000 0.000000 0.052981 0.000000
# 6 0.000000 0.000000 0.000000 0.000000 0.000000 0.023768
#
#
# Mechanical properties :
#
#
# Convention : Reuss Voigt Hill
#
# Bulk Modulus (GPa) = 26.50994 88.57465 57.54229
# Shear Modulus (GPa) = 21.62160 31.76211 26.69186
#
# Velocity S-wave (km/s) = 3.42669 4.15322 3.80733
# Velocity P-wave (km/s) = 5.48208 8.43219 7.11179
#
# Compressibility (1/GPa) = 0.03772170
#
# Stress axis : x y z
#
# Youngs Moduli (GPa) = 75.02139 82.35822 20.23088
#
# Poissons Ratio (x) = 0.70817 0.11798
# Poissons Ratio (y) = 0.64508 0.08415
# Poissons Ratio (z) = 0.43751 0.34255
#
# Static dielectric constant tensor:
#      x y z
#    x 1.634090 0.000000 0.000000 
#    y 0.000000 1.592550 0.000000 
#    z 0.000000 0.000000 1.639090 
# 
# From -- ./inp_files/4612.got.cif
#   From: 2010.05.17/outbox.cif.g08.bks.cpg/sg57_3_cif.got.tgz:4612.got - 2010.06.03 13:58:18.
