data_PCOD9438415
_publ_section_title
;
Structure prediction by ZEFSAII (Michael W. Deem and Ramdas Pophale) SiO2 
 PCOD9438415
Probable space group: P B C M
;
_chemical_formula_sum "Si O2"
_cell_formula_units_Z 40
_cell_length_a 5.116379
_cell_length_b 26.902649
_cell_length_c 14.990722
_cell_angle_alpha 90.000000
_cell_angle_beta 90.000000
_cell_angle_gamma 90.000000
_cell_volume 2063.385163
_symmetry_space_group_name_H-M "P B C M"
_symmetry_group_IT_number 57
_symmetry_cell_setting 'orthorhombic'
loop_
_space_group_symop_operation_xyz
x,y,z
-x,-y,1/2+z
x,1/2-y,-z
-x,1/2+y,1/2-z
-x,-y,-z
x,y,1/2-z
-x,1/2+y,z
x,1/2-y,1/2+z
loop_
_atom_site_type_symbol
_atom_site_label
_atom_site_fract_x
_atom_site_fract_y
_atom_site_fract_z
Si Si1 0.291310 0.852346 0.014865
Si Si2 0.928984 0.277431 0.347465
Si Si3 0.429614 0.223252 0.095838
Si Si4 0.575151 0.581199 0.853904
Si Si5 0.910548 0.452453 0.445769
O O1 0.096947 0.814613 0.067476
O O2 0.498384 0.869274 0.091182
O O3 0.141065 0.903443 0.993600
O O4 0.449962 0.829765 0.932313
O O5 0.976218 0.301644 0.250000
O O6 0.649613 0.250781 0.347449
O O7 0.148538 0.235297 0.363521
O O8 0.425636 0.250000 0.000000
O O9 0.539784 0.588952 0.750000
O O10 0.862906 0.563424 0.877795
O O11 0.361861 0.542170 0.892706
O O12 0.000000 0.500000 0.500000
#
# Coordination Sequence:
#
# PCOD9438415 Si02
#       5
#     8   8   8   8   8
#     4   9  23  36  63  87 123 157 203 249 307 365
#     4  11  22  35  55  84 118 154 197 249 295 342
#     4  10  21  36  54  81 117 156 196 230 294 363
#     4  10  21  36  62  93 120 148 193 256 311 351
#     4  10  22  38  61  89 121 160 198 245 311 372
#
# _framework density 19.385618000000001
#
# number of rings (size 3 to 8) (size 9 to 14) (size 15 to 20)
#    1.200    0.800    0.000    4.200    8.400    0.000 
#    0.000    0.000    0.000    7.200    0.000    0.000 
#    0.000    0.000    0.000    0.000    0.000    0.000 
#
# Total GULP energy -222717.209760 kJ/mol
# GULP energy per Si atom -5567.930244 kJ/mol
# Density = 1.934150 g / cm^3
# Si number density = 19.385618 Si / 1000 Ang^3
#
#
#
# Elastic Constant Matrix: (Units=GPa)
#
#
# Indices 1 2 3 4 5 6 
#
# 1 71.2281 -10.0058 5.5571 0.0000 0.0000 0.0000
# 2 -10.0058 61.5883 18.8912 0.0000 0.0000 0.0000
# 3 5.5571 18.8912 34.1823 0.0000 0.0000 0.0000
# 4 0.0000 0.0000 0.0000 10.2810 0.0000 0.0000
# 5 0.0000 0.0000 0.0000 0.0000 16.5236 0.0000
# 6 0.0000 0.0000 0.0000 0.0000 0.0000 17.4399
#
#
#
# Elastic Compliance Matrix: (Units=1/GPa)
#
#
# Indices 1 2 3 4 5 6 
#
# 1 0.014930 0.003817 -0.004537 0.000000 0.000000 0.000000
# 2 0.003817 0.020527 -0.011965 0.000000 0.000000 0.000000
# 3 -0.004537 -0.011965 0.036605 0.000000 0.000000 0.000000
# 4 0.000000 0.000000 0.000000 0.097266 0.000000 0.000000
# 5 0.000000 0.000000 0.000000 0.000000 0.060519 0.000000
# 6 0.000000 0.000000 0.000000 0.000000 0.000000 0.057340
#
#
# Mechanical properties :
#
#
# Convention : Reuss Voigt Hill
#
# Bulk Modulus (GPa) = 21.41678 21.76485 21.59081
# Shear Modulus (GPa) = 15.23830 19.01933 17.12881
#
# Velocity S-wave (km/s) = 2.80672 3.13566 2.97574
# Velocity P-wave (km/s) = 4.64493 4.93574 4.79254
#
# Compressibility (1/GPa) = 0.04669236
#
# Stress axis : x y z
#
# Youngs Moduli (GPa) = 66.98127 48.71619 27.31860
#
# Poissons Ratio (x) = -0.18595 0.12394
# Poissons Ratio (y) = -0.25567 0.32687
# Poissons Ratio (z) = 0.30387 0.58289
#
# Static dielectric constant tensor:
#      x y z
#    x 1.711880 0.000000 0.000000 
#    y 0.000000 1.730970 0.000000 
#    z 0.000000 0.000000 1.691800 
# 
# From -- ./inp_files/15022.got.cif
#   From: 2010.05.17/outbox.cif.g08.bks.cpg/sg57_8_cif.got.tgz:15022.got - 2010.06.03 13:58:18.
