data_PCOD9438063
_publ_section_title
;
Structure prediction by ZEFSAII (Michael W. Deem and Ramdas Pophale) SiO2 
 PCOD9438063
Probable space group: P B C M
;
_chemical_formula_sum "Si O2"
_cell_formula_units_Z 48
_cell_length_a 16.059583
_cell_length_b 7.998707
_cell_length_c 14.860199
_cell_angle_alpha 90.000000
_cell_angle_beta 90.000000
_cell_angle_gamma 90.000000
_cell_volume 1908.880221
_symmetry_space_group_name_H-M "P B C M"
_symmetry_group_IT_number 57
_symmetry_cell_setting 'orthorhombic'
loop_
_space_group_symop_operation_xyz
x,y,z
-x,-y,1/2+z
x,1/2-y,-z
-x,1/2+y,1/2-z
-x,-y,-z
x,y,1/2-z
-x,1/2+y,z
x,1/2-y,1/2+z
loop_
_atom_site_type_symbol
_atom_site_label
_atom_site_fract_x
_atom_site_fract_y
_atom_site_fract_z
Si Si1 0.463192 0.859748 0.650774
Si Si2 0.849882 0.326707 0.852249
Si Si3 0.687293 0.173688 0.900089
Si Si4 0.625169 0.822834 0.402808
Si Si5 0.095788 0.505888 0.528224
Si Si6 0.781643 0.666040 0.146291
O O1 0.449871 0.929534 0.750000
O O2 0.405382 0.697593 0.635564
O O3 0.556791 0.799899 0.640458
O O4 0.421847 0.000238 0.588517
O O5 0.881545 0.358518 0.750000
O O6 0.752623 0.285414 0.845726
O O7 0.890093 0.162224 0.901993
O O8 0.860710 0.461509 0.931691
O O9 0.723939 0.989572 0.887210
O O10 0.692404 0.250000 0.000000
O O11 0.640438 0.750000 0.500000
O O12 0.715809 0.818111 0.357731
O O13 0.137761 0.352901 0.582735
O O14 0.000000 0.500000 0.500000
O O15 0.806297 0.641676 0.250000
#
# Coordination Sequence:
#
# PCOD9438063 Si02
#       6
#     8   8   8   8   8   8
#     4  12  24  40  63  96 133 178 233 288 338 406
#     4  10  20  38  63  94 126 165 217 275 338 408
#     4  11  19  38  66  95 125 170 221 281 341 399
#     4  12  26  44  64  95 137 183 231 287 349 409
#     4  10  21  40  65  94 129 169 217 278 340 418
#     4  11  22  42  69  97 133 182 230 285 349 417
#
# _framework density 25.145633
#
# number of rings (size 3 to 8) (size 9 to 14) (size 15 to 20)
#    0.000    1.000    3.333    7.500    0.000    1.333 
#    3.000    0.000    0.000    0.000    0.000    0.000 
#    0.000    0.000    0.000    0.000    0.000    0.000 
#
# Total GULP energy -268403.320793 kJ/mol
# GULP energy per Si atom -5591.735850 kJ/mol
# Density = 2.508840 g / cm^3
# Si number density = 25.145633 Si / 1000 Ang^3
#
#
#
# Elastic Constant Matrix: (Units=GPa)
#
#
# Indices 1 2 3 4 5 6 
#
# 1 171.3227 23.1465 44.3780 0.0000 0.0000 0.0000
# 2 23.1465 91.7696 8.8391 0.0000 0.0000 0.0000
# 3 44.3780 8.8391 194.3891 0.0000 0.0000 0.0000
# 4 0.0000 0.0000 0.0000 39.0981 0.0000 0.0000
# 5 0.0000 0.0000 0.0000 0.0000 18.0594 0.0000
# 6 0.0000 0.0000 0.0000 0.0000 0.0000 21.1433
#
#
#
# Elastic Compliance Matrix: (Units=1/GPa)
#
#
# Indices 1 2 3 4 5 6 
#
# 1 0.006398 -0.001479 -0.001393 0.000000 0.000000 0.000000
# 2 -0.001479 0.011287 -0.000175 0.000000 0.000000 0.000000
# 3 -0.001393 -0.000175 0.005470 0.000000 0.000000 0.000000
# 4 0.000000 0.000000 0.000000 0.025577 0.000000 0.000000
# 5 0.000000 0.000000 0.000000 0.000000 0.055373 0.000000
# 6 0.000000 0.000000 0.000000 0.000000 0.000000 0.047296
#
#
# Mechanical properties :
#
#
# Convention : Reuss Voigt Hill
#
# Bulk Modulus (GPa) = 58.62158 67.80095 63.21127
# Shear Modulus (GPa) = 30.64032 41.06799 35.85416
#
# Velocity S-wave (km/s) = 3.49451 4.04568 3.78015
# Velocity P-wave (km/s) = 6.29647 6.98893 6.65172
#
# Compressibility (1/GPa) = 0.01705856
#
# Stress axis : x y z
#
# Youngs Moduli (GPa) = 156.30552 88.59818 182.80252
#
# Poissons Ratio (x) = 0.13108 0.25470
# Poissons Ratio (y) = 0.23125 0.03208
# Poissons Ratio (z) = 0.21778 0.01555
#
# Static dielectric constant tensor:
#      x y z
#    x 1.988660 0.000000 0.000000 
#    y 0.000000 2.164150 0.000000 
#    z 0.000000 0.000000 1.983520 
# 
# From -- ./inp_files/18936.got.cif
#   From: 2010.05.17/outbox.cif.g08.bks.cpg/sg57_10_cif.got.tgz:18936.got - 2010.06.03 13:58:18.
