data_PCOD9438367
_publ_section_title
;
Structure prediction by ZEFSAII (Michael W. Deem and Ramdas Pophale) SiO2 
 PCOD9438367
Probable space group: P B C M
;
_chemical_formula_sum "Si O2"
_cell_formula_units_Z 64
_cell_length_a 10.353611
_cell_length_b 39.781832
_cell_length_c 7.415525
_cell_angle_alpha 90.000000
_cell_angle_beta 90.000000
_cell_angle_gamma 90.000000
_cell_volume 3054.348063
_symmetry_space_group_name_H-M "P B C M"
_symmetry_group_IT_number 57
_symmetry_cell_setting 'orthorhombic'
loop_
_space_group_symop_operation_xyz
x,y,z
-x,-y,1/2+z
x,1/2-y,-z
-x,1/2+y,1/2-z
-x,-y,-z
x,y,1/2-z
-x,1/2+y,z
x,1/2-y,1/2+z
loop_
_atom_site_type_symbol
_atom_site_label
_atom_site_fract_x
_atom_site_fract_y
_atom_site_fract_z
Si Si1 0.662468 0.288056 0.465665
Si Si2 0.262059 0.639241 0.970435
Si Si3 0.477221 0.397839 0.030397
Si Si4 0.003855 0.602554 0.529398
Si Si5 0.100392 0.030063 0.534278
Si Si6 0.232979 0.147012 0.969488
Si Si7 0.603804 0.970970 0.034263
Si Si8 0.366486 0.212533 0.534966
O O1 0.710792 0.250000 0.500000
O O2 0.656778 0.290793 0.250000
O O3 0.737158 0.321531 0.528377
O O4 0.513981 0.290215 0.534852
O O5 0.260155 0.639467 0.750000
O O6 0.394209 0.621239 0.028183
O O7 0.142277 0.616430 0.028729
O O8 0.482002 0.398293 0.250000
O O9 0.352039 0.376653 0.979638
O O10 0.455647 0.435798 0.967699
O O11 0.005063 0.601497 0.750000
O O12 0.958980 0.565543 0.468794
O O13 0.898081 0.629807 0.471029
O O14 0.110313 0.033151 0.750000
O O15 0.248048 0.024053 0.467710
O O16 0.000000 0.000000 0.500000
O O17 0.227154 0.147537 0.750000
O O18 0.270666 0.184024 0.033054
O O19 0.614484 0.968073 0.250000
O O20 0.500000 0.000000 0.000000
O O21 0.320051 0.250000 0.500000
O O22 0.376486 0.207836 0.750000
#
# Coordination Sequence:
#
# PCOD9438367 Si02
#       8
#     8   8   8   8   8   8   8   8
#     4   9  16  27  44  67  94 122 153 192 236 283
#     4   9  16  26  44  71  94 119 163 207 239 279
#     4   9  15  27  47  69  94 124 161 205 243 278
#     4   9  17  29  47  71  96 123 161 205 243 283
#     4  10  21  36  53  76 105 136 169 207 254 309
#     4   9  14  26  46  66  90 121 157 199 241 276
#     4  10  21  35  53  78 106 134 167 210 257 304
#     4   9  16  26  44  68  93 121 152 190 236 283
#
# _framework density 20.953735000000002
#
# number of rings (size 3 to 8) (size 9 to 14) (size 15 to 20)
#    0.000    2.750    2.500    0.000    1.750    0.500 
#    0.000    0.625    0.000    3.000    0.000    0.000 
#    0.000    0.000    0.000    0.000    0.000    0.000 
#
# Total GULP energy -357044.560387 kJ/mol
# GULP energy per Si atom -5578.821256 kJ/mol
# Density = 2.090604 g / cm^3
# Si number density = 20.953735 Si / 1000 Ang^3
#
#
#
# Elastic Constant Matrix: (Units=GPa)
#
#
# Indices 1 2 3 4 5 6 
#
# 1 111.5786 53.8381 0.8190 0.0000 0.0000 0.0000
# 2 53.8381 160.1117 -1.7064 0.0000 0.0000 0.0000
# 3 0.8190 -1.7064 66.9285 0.0000 0.0000 0.0000
# 4 0.0000 0.0000 0.0000 17.2621 0.0000 0.0000
# 5 0.0000 0.0000 0.0000 0.0000 -10.8647 0.0000
# 6 0.0000 0.0000 0.0000 0.0000 0.0000 23.8268
#
#
#
# Elastic Compliance Matrix: (Units=1/GPa)
#
#
# Indices 1 2 3 4 5 6 
#
# 1 0.010701 -0.003601 -0.000223 0.000000 0.000000 0.000000
# 2 -0.003601 0.007459 0.000234 0.000000 0.000000 0.000000
# 3 -0.000223 0.000234 0.014950 0.000000 0.000000 0.000000
# 4 0.000000 0.000000 0.000000 0.057930 0.000000 0.000000
# 5 0.000000 0.000000 0.000000 0.000000 -0.092041 0.000000
# 6 0.000000 0.000000 0.000000 0.000000 0.000000 0.041970
#
#
# Mechanical properties :
#
#
# Convention : Reuss Voigt Hill
#
# Bulk Modulus (GPa) = 38.56280 49.39114 43.97697
# Shear Modulus (GPa) = 88.04176 25.08938 56.56557
#
# Velocity S-wave (km/s) = 6.48910 3.46406 5.20135
# Velocity P-wave (km/s) = 8.63645 6.29462 7.55681
#
# Compressibility (1/GPa) = 0.02593172
#
# Stress axis : x y z
#
# Youngs Moduli (GPa) = 93.44637 134.06819 66.88955
#
# Poissons Ratio (x) = 0.48274 0.01490
# Poissons Ratio (y) = 0.33647 -0.01567
# Poissons Ratio (z) = 0.02082 -0.03140
#
# Static dielectric constant tensor:
#      x y z
#    x 1.717200 0.000000 0.000000 
#    y 0.000000 1.667020 0.000000 
#    z 0.000000 0.000000 1.828300 
# 
# From -- ./inp_files/12315.got.cif
#   From: 2010.05.17/outbox.cif.g08.bks.cpg/sg57_7_cif.got.tgz:12315.got - 2010.06.03 13:58:18.
