data_PCOD9438277
_publ_section_title
;
Structure prediction by ZEFSAII (Michael W. Deem and Ramdas Pophale) SiO2 
 PCOD9438277
Probable space group: P B C M
;
_chemical_formula_sum "Si O2"
_cell_formula_units_Z 40
_cell_length_a 8.437969
_cell_length_b 16.093980
_cell_length_c 14.406605
_cell_angle_alpha 90.000000
_cell_angle_beta 90.000000
_cell_angle_gamma 90.000000
_cell_volume 1956.424225
_symmetry_space_group_name_H-M "P B C M"
_symmetry_group_IT_number 57
_symmetry_cell_setting 'orthorhombic'
loop_
_space_group_symop_operation_xyz
x,y,z
-x,-y,1/2+z
x,1/2-y,-z
-x,1/2+y,1/2-z
-x,-y,-z
x,y,1/2-z
-x,1/2+y,z
x,1/2-y,1/2+z
loop_
_atom_site_type_symbol
_atom_site_label
_atom_site_fract_x
_atom_site_fract_y
_atom_site_fract_z
Si Si1 0.332285 0.145284 0.145221
Si Si2 0.122222 0.203895 0.597726
Si Si3 0.649950 0.129979 0.470836
Si Si4 0.824380 0.962221 0.500689
Si Si5 0.230299 0.727383 0.645275
O O1 0.379956 0.124230 0.250000
O O2 0.247920 0.235070 0.144788
O O3 0.478622 0.143951 0.073913
O O4 0.212225 0.078534 0.100739
O O5 0.089710 0.250000 0.500000
O O6 0.184826 0.112944 0.572785
O O7 0.951853 0.198499 0.645620
O O8 0.763814 0.181256 0.400896
O O9 0.672605 0.171013 0.572291
O O10 0.701702 0.035080 0.477999
O O11 0.000000 0.000000 0.500000
O O12 0.293372 0.727427 0.750000
#
# Coordination Sequence:
#
# PCOD9438277 Si02
#       5
#     8   8   8   8   8
#     4  11  25  44  68 100 138 183 225 272 342 416
#     4  10  20  41  68  94 129 177 223 276 332 395
#     4  11  23  43  66  99 140 172 219 285 340 398
#     4  11  22  43  70  95 135 184 222 283 342 387
#     4  11  22  40  68  96 129 178 226 269 333 402
#
# _framework density 20.445463
#
# number of rings (size 3 to 8) (size 9 to 14) (size 15 to 20)
#    0.000    1.200    4.000    3.000    8.400    0.800 
#    0.000    5.000    0.000    1.200    0.000    0.000 
#    0.000    0.000    0.000    0.000    0.000    0.000 
#
# Total GULP energy -223469.097096 kJ/mol
# GULP energy per Si atom -5586.727427 kJ/mol
# Density = 2.039893 g / cm^3
# Si number density = 20.445463 Si / 1000 Ang^3
#
#
#
# Elastic Constant Matrix: (Units=GPa)
#
#
# Indices 1 2 3 4 5 6 
#
# 1 86.7256 40.9085 41.6332 0.0000 0.0000 0.0000
# 2 40.9085 148.0526 54.6943 0.0000 0.0000 0.0000
# 3 41.6332 54.6943 161.2015 0.0000 0.0000 0.0000
# 4 0.0000 0.0000 0.0000 9.8414 0.0000 0.0000
# 5 0.0000 0.0000 0.0000 0.0000 13.8001 0.0000
# 6 0.0000 0.0000 0.0000 0.0000 0.0000 29.3949
#
#
#
# Elastic Compliance Matrix: (Units=1/GPa)
#
#
# Indices 1 2 3 4 5 6 
#
# 1 0.014198 -0.002936 -0.002671 0.000000 0.000000 0.000000
# 2 -0.002936 0.008330 -0.002068 0.000000 0.000000 0.000000
# 3 -0.002671 -0.002068 0.007595 0.000000 0.000000 0.000000
# 4 0.000000 0.000000 0.000000 0.101612 0.000000 0.000000
# 5 0.000000 0.000000 0.000000 0.000000 0.072463 0.000000
# 6 0.000000 0.000000 0.000000 0.000000 0.000000 0.034020
#
#
# Mechanical properties :
#
#
# Convention : Reuss Voigt Hill
#
# Bulk Modulus (GPa) = 67.69288 74.49462 71.09375
# Shear Modulus (GPa) = 19.34306 27.85684 23.59995
#
# Velocity S-wave (km/s) = 3.07918 3.69520 3.40117
# Velocity P-wave (km/s) = 6.76924 7.39736 7.09026
#
# Compressibility (1/GPa) = 0.01477260
#
# Stress axis : x y z
#
# Youngs Moduli (GPa) = 70.43379 120.05362 131.67066
#
# Poissons Ratio (x) = 0.35253 0.35163
# Poissons Ratio (y) = 0.20682 0.27227
# Poissons Ratio (z) = 0.18809 0.24824
#
# Static dielectric constant tensor:
#      x y z
#    x 1.780890 0.000000 0.000000 
#    y 0.000000 1.729950 0.000000 
#    z 0.000000 0.000000 1.723750 
# 
# From -- ./inp_files/15915.got.cif
#   From: 2010.05.17/outbox.cif.g08.bks.cpg/sg57_8_cif.got.tgz:15915.got - 2010.06.03 13:58:18.
