data_PCOD9438106
_publ_section_title
;
Structure prediction by ZEFSAII (Michael W. Deem and Ramdas Pophale) SiO2 
 PCOD9438106
Probable space group: P B C M
;
_chemical_formula_sum "Si O2"
_cell_formula_units_Z 40
_cell_length_a 8.839239
_cell_length_b 18.245130
_cell_length_c 11.003372
_cell_angle_alpha 90.000000
_cell_angle_beta 90.000000
_cell_angle_gamma 90.000000
_cell_volume 1774.547524
_symmetry_space_group_name_H-M "P B C M"
_symmetry_group_IT_number 57
_symmetry_cell_setting 'orthorhombic'
loop_
_space_group_symop_operation_xyz
x,y,z
-x,-y,1/2+z
x,1/2-y,-z
-x,1/2+y,1/2-z
-x,-y,-z
x,y,1/2-z
-x,1/2+y,z
x,1/2-y,1/2+z
loop_
_atom_site_type_symbol
_atom_site_label
_atom_site_fract_x
_atom_site_fract_y
_atom_site_fract_z
Si Si1 0.314999 0.195319 0.389855
Si Si2 0.948844 0.625626 0.971583
Si Si3 0.852821 0.484900 0.876750
Si Si4 0.749500 0.193014 0.611240
Si Si5 0.560573 0.079428 0.035884
O O1 0.358217 0.250000 0.500000
O O2 0.317063 0.222765 0.250000
O O3 0.146627 0.169820 0.429530
O O4 0.431317 0.128248 0.403294
O O5 0.832869 0.571586 0.901943
O O6 0.071417 0.671815 0.896548
O O7 0.053120 0.564091 0.031594
O O8 0.938284 0.481058 0.750000
O O9 0.696539 0.441897 0.875497
O O10 0.726376 0.250000 0.500000
O O11 0.716707 0.217779 0.750000
O O12 0.640599 0.124885 0.574298
O O13 0.500000 0.000000 0.000000
#
# Coordination Sequence:
#
# PCOD9438106 Si02
#       5
#     8   8   8   8   8
#     4  12  27  46  69 102 142 185 233 288 348 415
#     4  10  22  41  66 100 136 177 229 282 340 410
#     4  10  20  38  66  98 133 173 220 278 344 406
#     4  11  26  46  72 102 141 186 235 286 347 417
#     4  11  24  46  68 101 134 179 229 286 344 409
#
# _framework density 22.540956000000001
#
# number of rings (size 3 to 8) (size 9 to 14) (size 15 to 20)
#    0.000    1.200    2.000    3.000    0.000   12.000 
#    0.000    0.000    0.000    0.000    0.000    0.000 
#    0.000    0.000    0.000    0.000    0.000    0.000 
#
# Total GULP energy -222906.299102 kJ/mol
# GULP energy per Si atom -5572.657478 kJ/mol
# Density = 2.248965 g / cm^3
# Si number density = 22.540956 Si / 1000 Ang^3
#
#
#
# Elastic Constant Matrix: (Units=GPa)
#
#
# Indices 1 2 3 4 5 6 
#
# 1 88.9833 29.2118 15.6356 0.0000 0.0000 0.0000
# 2 29.2118 111.6484 55.8441 0.0000 0.0000 0.0000
# 3 15.6356 55.8441 157.6111 0.0000 0.0000 0.0000
# 4 0.0000 0.0000 0.0000 11.9158 0.0000 0.0000
# 5 0.0000 0.0000 0.0000 0.0000 234.0405 0.0000
# 6 0.0000 0.0000 0.0000 0.0000 0.0000 37.7210
#
#
#
# Elastic Compliance Matrix: (Units=1/GPa)
#
#
# Indices 1 2 3 4 5 6 
#
# 1 0.012295 -0.003168 -0.000097 0.000000 0.000000 0.000000
# 2 -0.003168 0.011702 -0.003832 0.000000 0.000000 0.000000
# 3 -0.000097 -0.003832 0.007712 0.000000 0.000000 0.000000
# 4 0.000000 0.000000 0.000000 0.083922 0.000000 0.000000
# 5 0.000000 0.000000 0.000000 0.000000 0.004273 0.000000
# 6 0.000000 0.000000 0.000000 0.000000 0.000000 0.026510
#
#
# Mechanical properties :
#
#
# Convention : Reuss Voigt Hill
#
# Bulk Modulus (GPa) = 57.09491 62.18066 59.63779
# Shear Modulus (GPa) = 30.03940 73.90555 51.97248
#
# Velocity S-wave (km/s) = 3.65452 5.73223 4.80697
# Velocity P-wave (km/s) = 6.57204 8.45321 7.57128
#
# Compressibility (1/GPa) = 0.01751469
#
# Stress axis : x y z
#
# Youngs Moduli (GPa) = 81.33219 85.45289 129.66622
#
# Poissons Ratio (x) = 0.27075 0.01260
# Poissons Ratio (y) = 0.25769 0.49688
# Poissons Ratio (z) = 0.00790 0.32746
#
# Static dielectric constant tensor:
#      x y z
#    x 1.986150 0.000000 0.000000 
#    y 0.000000 1.895210 0.000000 
#    z 0.000000 0.000000 1.858210 
# 
# From -- ./inp_files/11559.got.cif
#   From: 2010.05.17/outbox.cif.g08.bks.cpg/sg57_6_cif.got.tgz:11559.got - 2010.06.03 13:58:18.
