data_PCOD9438017
_publ_section_title
;
Structure prediction by ZEFSAII (Michael W. Deem and Ramdas Pophale) SiO2 
 PCOD9438017
Probable space group: P B C M
;
_chemical_formula_sum "Si O2"
_cell_formula_units_Z 64
_cell_length_a 12.339277
_cell_length_b 15.477652
_cell_length_c 17.043470
_cell_angle_alpha 90.000000
_cell_angle_beta 90.000000
_cell_angle_gamma 90.000000
_cell_volume 3255.013633
_symmetry_space_group_name_H-M "P B C M"
_symmetry_group_IT_number 57
_symmetry_cell_setting 'orthorhombic'
loop_
_space_group_symop_operation_xyz
x,y,z
-x,-y,1/2+z
x,1/2-y,-z
-x,1/2+y,1/2-z
-x,-y,-z
x,y,1/2-z
-x,1/2+y,z
x,1/2-y,1/2+z
loop_
_atom_site_type_symbol
_atom_site_label
_atom_site_fract_x
_atom_site_fract_y
_atom_site_fract_z
Si Si1 0.261030 0.977298 0.584312
Si Si2 0.863414 0.368368 0.342841
Si Si3 0.502629 0.787057 0.342729
Si Si4 0.268550 0.030901 0.098399
Si Si5 0.710075 0.278428 0.912141
Si Si6 0.501102 0.977010 0.407712
Si Si7 0.259175 0.281986 0.655449
Si Si8 0.110846 0.119969 0.655440
O O1 0.264891 0.007997 0.493753
O O2 0.244051 0.874999 0.587802
O O3 0.379939 0.996144 0.621111
O O4 0.170406 0.034306 0.625824
O O5 0.865203 0.353089 0.250000
O O6 0.802759 0.458246 0.359631
O O7 0.795854 0.291194 0.381378
O O8 0.987011 0.373118 0.372010
O O9 0.504857 0.807856 0.250000
O O10 0.399782 0.727891 0.361835
O O11 0.488681 0.875481 0.391165
O O12 0.617063 0.744028 0.363846
O O13 0.393920 0.022138 0.126288
O O14 0.230813 0.127489 0.115759
O O15 0.680362 0.250000 0.000000
O O16 0.500000 0.000000 0.500000
O O17 0.252008 0.291756 0.750000
O O18 0.181433 0.203317 0.631257
O O19 0.110425 0.118265 0.750000
#
# Coordination Sequence:
#
# PCOD9438017 Si02
#       8
#     8   8   8   8   8   8   8   8
#     4  11  23  41  65  95 128 170 207 262 330 386
#     4  11  24  44  68  92 125 172 222 270 317 374
#     4  11  22  39  67  96 128 171 214 263 321 393
#     4  11  22  40  63  99 127 165 212 261 325 388
#     4  12  23  43  64  94 134 168 208 268 326 388
#     4  10  20  38  61  94 133 164 202 256 324 386
#     4  10  22  41  63  92 129 166 211 266 321 382
#     4  10  24  45  64  91 129 171 221 271 317 377
#
# _framework density 19.661977
#
# number of rings (size 3 to 8) (size 9 to 14) (size 15 to 20)
#    0.000    1.250    3.750    2.250    0.000    4.500 
#    2.250    2.500    0.000    0.000    0.000    0.000 
#    0.000    0.000    0.000    0.000    0.000    0.000 
#
# Total GULP energy -357689.073304 kJ/mol
# GULP energy per Si atom -5588.891770 kJ/mol
# Density = 1.961723 g / cm^3
# Si number density = 19.661977 Si / 1000 Ang^3
#
#
#
# Elastic Constant Matrix: (Units=GPa)
#
#
# Indices 1 2 3 4 5 6 
#
# 1 125.6391 22.6294 23.8867 0.0000 0.0000 0.0000
# 2 22.6294 123.0633 31.3052 0.0000 0.0000 0.0000
# 3 23.8867 31.3052 35.7492 0.0000 0.0000 0.0000
# 4 0.0000 0.0000 0.0000 47.7074 0.0000 0.0000
# 5 0.0000 0.0000 0.0000 0.0000 19.3704 0.0000
# 6 0.0000 0.0000 0.0000 0.0000 0.0000 -0.0424
#
#
#
# Elastic Compliance Matrix: (Units=1/GPa)
#
#
# Indices 1 2 3 4 5 6 
#
# 1 0.009120 -0.000163 -0.005951 0.000000 0.000000 0.000000
# 2 -0.000163 0.010458 -0.009049 0.000000 0.000000 0.000000
# 3 -0.005951 -0.009049 0.039873 0.000000 0.000000 0.000000
# 4 0.000000 0.000000 0.000000 0.020961 0.000000 0.000000
# 5 0.000000 0.000000 0.000000 0.000000 0.051625 0.000000
# 6 0.000000 0.000000 0.000000 0.000000 0.000000-23.580692
#
#
# Mechanical properties :
#
#
# Convention : Reuss Voigt Hill
#
# Bulk Modulus (GPa) = 34.33480 48.89935 41.61708
# Shear Modulus (GPa) = -0.21360 27.18242 13.48441
#
# Velocity S-wave (km/s) = -0.32995 3.72221 2.62164
# Velocity P-wave (km/s) = 4.16597 6.58765 5.51146
#
# Compressibility (1/GPa) = 0.02912497
#
# Stress axis : x y z
#
# Youngs Moduli (GPa) = 109.64797 95.62293 25.07986
#
# Poissons Ratio (x) = 0.01561 0.14925
# Poissons Ratio (y) = 0.01790 0.22694
# Poissons Ratio (z) = 0.65250 0.86526
#
# Static dielectric constant tensor:
#      x y z
#    x 1.868920 0.000000 0.000000 
#    y 0.000000 1.577250 0.000000 
#    z 0.000000 0.000000 1.708990 
# 
# From -- ./inp_files/21990.got.cif
#   From: 2010.05.17/outbox.cif.g08.bks.cpg/sg57_11_cif.got.tgz:21990.got - 2010.06.03 13:58:18.
