data_PCOD9438537
_publ_section_title
;
Structure prediction by ZEFSAII (Michael W. Deem and Ramdas Pophale) SiO2 
 PCOD9438537
Probable space group: P B C M
;
_chemical_formula_sum "Si O2"
_cell_formula_units_Z 40
_cell_length_a 26.173610
_cell_length_b 9.614002
_cell_length_c 8.744129
_cell_angle_alpha 90.000000
_cell_angle_beta 90.000000
_cell_angle_gamma 90.000000
_cell_volume 2200.312627
_symmetry_space_group_name_H-M "P B C M"
_symmetry_group_IT_number 57
_symmetry_cell_setting 'orthorhombic'
loop_
_space_group_symop_operation_xyz
x,y,z
-x,-y,1/2+z
x,1/2-y,-z
-x,1/2+y,1/2-z
-x,-y,-z
x,y,1/2-z
-x,1/2+y,z
x,1/2-y,1/2+z
loop_
_atom_site_type_symbol
_atom_site_label
_atom_site_fract_x
_atom_site_fract_y
_atom_site_fract_z
Si Si1 0.045343 0.594424 0.066789
Si Si2 0.544066 0.095577 0.432646
Si Si3 0.252063 0.403823 0.932828
Si Si4 0.659489 0.405073 0.566528
Si Si5 0.857574 0.903659 0.433432
O O1 0.040264 0.602038 0.250000
O O2 0.098028 0.513422 0.030875
O O3 0.044337 0.750000 0.000000
O O4 0.000000 0.500000 0.000000
O O5 0.539246 0.250000 0.500000
O O6 0.539637 0.101612 0.250000
O O7 0.601704 0.044809 0.469452
O O8 0.500000 0.000000 0.500000
O O9 0.250987 0.399476 0.750000
O O10 0.260350 0.250000 0.000000
O O11 0.297082 0.501227 0.992352
O O12 0.196569 0.448664 0.995787
O O13 0.663733 0.250000 0.500000
O O14 0.665184 0.402435 0.750000
O O15 0.869684 0.750000 0.500000
O O16 0.852735 0.891718 0.250000
#
# Coordination Sequence:
#
# PCOD9438537 Si02
#       5
#     8   8   8   8   8
#     4  11  24  40  61  87 117 152 191 234 281 333
#     4  10  21  37  58  82 111 146 185 230 280 333
#     4  11  22  37  59  85 114 150 189 233 280 331
#     4  10  21  38  58  82 112 147 186 230 280 335
#     4  10  21  38  59  84 114 149 188 233 282 334
#
# _framework density 18.179234000000001
#
# number of rings (size 3 to 8) (size 9 to 14) (size 15 to 20)
#    0.000    1.600    0.000    6.000    0.000    8.800 
#    0.000    2.000    0.000    0.000    0.000    0.000 
#    0.000    0.000    0.000    0.000    0.000    0.000 
#
# Total GULP energy -223530.282821 kJ/mol
# GULP energy per Si atom -5588.257071 kJ/mol
# Density = 1.813786 g / cm^3
# Si number density = 18.179234 Si / 1000 Ang^3
#
#
#
# Elastic Constant Matrix: (Units=GPa)
#
#
# Indices 1 2 3 4 5 6 
#
# 1 199.9481 125.7790 100.6919 0.0000 0.0000 0.0000
# 2 125.7790 114.4449 68.2580 0.0000 0.0000 0.0000
# 3 100.6919 68.2580 115.5531 0.0000 0.0000 0.0000
# 4 0.0000 0.0000 0.0000 38.2691 0.0000 0.0000
# 5 0.0000 0.0000 0.0000 0.0000 32.5512 0.0000
# 6 0.0000 0.0000 0.0000 0.0000 0.0000 35.1440
#
#
#
# Elastic Compliance Matrix: (Units=1/GPa)
#
#
# Indices 1 2 3 4 5 6 
#
# 1 0.018902 -0.016906 -0.006484 0.000000 0.000000 0.000000
# 2 -0.016906 0.028612 -0.002170 0.000000 0.000000 0.000000
# 3 -0.006484 -0.002170 0.015586 0.000000 0.000000 0.000000
# 4 0.000000 0.000000 0.000000 0.026131 0.000000 0.000000
# 5 0.000000 0.000000 0.000000 0.000000 0.030721 0.000000
# 6 0.000000 0.000000 0.000000 0.000000 0.000000 0.028454
#
#
# Mechanical properties :
#
#
# Convention : Reuss Voigt Hill
#
# Bulk Modulus (GPa) = 83.47252 113.26709 98.36980
# Shear Modulus (GPa) = 24.56774 30.20735 27.38755
#
# Velocity S-wave (km/s) = 3.68015 4.08074 3.88561
# Velocity P-wave (km/s) = 8.00463 9.20023 8.62318
#
# Compressibility (1/GPa) = 0.01197999
#
# Stress axis : x y z
#
# Youngs Moduli (GPa) = 52.90538 34.94982 64.16125
#
# Poissons Ratio (x) = 0.59087 0.41602
# Poissons Ratio (y) = 0.89444 0.13920
# Poissons Ratio (z) = 0.34304 0.07583
#
# Static dielectric constant tensor:
#      x y z
#    x 1.622760 0.000000 0.000000 
#    y 0.000000 1.598560 0.000000 
#    z 0.000000 0.000000 1.605610 
# 
# From -- ./inp_files/8871.got.cif
#   From: 2010.05.17/outbox.cif.g08.bks.cpg/sg57_5_cif.got.tgz:8871.got - 2010.06.03 13:58:18.
