data_PCOD9438864
_publ_section_title
;
Structure prediction by ZEFSAII (Michael W. Deem and Ramdas Pophale) SiO2 
 PCOD9438864
Probable space group: P B C M
;
_chemical_formula_sum "Si O2"
_cell_formula_units_Z 48
_cell_length_a 19.650117
_cell_length_b 8.885568
_cell_length_c 14.234050
_cell_angle_alpha 90.000000
_cell_angle_beta 90.000000
_cell_angle_gamma 90.000000
_cell_volume 2485.300015
_symmetry_space_group_name_H-M "P B C M"
_symmetry_group_IT_number 57
_symmetry_cell_setting 'orthorhombic'
loop_
_space_group_symop_operation_xyz
x,y,z
-x,-y,1/2+z
x,1/2-y,-z
-x,1/2+y,1/2-z
-x,-y,-z
x,y,1/2-z
-x,1/2+y,z
x,1/2-y,1/2+z
loop_
_atom_site_type_symbol
_atom_site_label
_atom_site_fract_x
_atom_site_fract_y
_atom_site_fract_z
Si Si1 0.563065 0.089524 0.046555
Si Si2 0.678408 0.588390 0.448159
Si Si3 0.087831 0.566697 0.361383
Si Si4 0.166900 0.072649 0.018258
Si Si5 0.052616 0.587295 0.638036
Si Si6 0.538318 0.288614 0.750000
Si Si7 0.399332 0.444136 0.750000
O O1 0.560432 0.120710 0.157133
O O2 0.557717 0.250000 0.000000
O O3 0.500000 0.000000 0.000000
O O4 0.632912 0.015790 0.014452
O O5 0.675296 0.750000 0.500000
O O6 0.757378 0.543112 0.444525
O O7 0.644574 0.577855 0.344844
O O8 0.099330 0.553072 0.250000
O O9 0.151905 0.514565 0.421410
O O10 0.067090 0.738220 0.382588
O O11 0.023474 0.462589 0.388547
O O12 0.109088 0.013646 0.088313
O O13 0.159776 0.250000 0.000000
O O14 0.057378 0.565979 0.750000
O O15 0.456729 0.313203 0.750000
O O16 0.565787 0.114244 0.750000
#
# Coordination Sequence:
#
# PCOD9438864 Si02
#       7
#     8   8   8   8   8   4   4
#     4  12  23  42  67  98 134 165 220 272 324 396
#     4  11  27  46  65  96 135 177 218 277 329 404
#     4  10  21  40  64  95 128 166 222 279 324 387
#     4  11  24  42  61  89 128 176 213 262 336 390
#     4  10  21  38  66  96 125 168 219 278 328 384
#     4  12  24  42  74 102 128 179 215 274 338 382
#     4  12  26  46  72 102 132 171 225 270 344 402
#
# _framework density 19.313562999999998
#
# number of rings (size 3 to 8) (size 9 to 14) (size 15 to 20)
#    0.000    1.000    3.333    2.500    3.500    3.333 
#    6.000    0.000    0.000    0.000    0.000    0.000 
#    0.000    0.000    0.000    0.000    0.000    0.000 
#
# Total GULP energy -268203.875640 kJ/mol
# GULP energy per Si atom -5587.580743 kJ/mol
# Density = 1.926960 g / cm^3
# Si number density = 19.313563 Si / 1000 Ang^3
#
#
#
# Elastic Constant Matrix: (Units=GPa)
#
#
# Indices 1 2 3 4 5 6 
#
# 1 109.3307 42.5698 55.2770 0.0000 0.0000 0.0000
# 2 42.5698 83.7735 32.0932 0.0000 0.0000 0.0000
# 3 55.2770 32.0932 149.3399 0.0000 0.0000 0.0000
# 4 0.0000 0.0000 0.0000 28.4161 0.0000 0.0000
# 5 0.0000 0.0000 0.0000 0.0000 28.1834 0.0000
# 6 0.0000 0.0000 0.0000 0.0000 0.0000 24.5630
#
#
#
# Elastic Compliance Matrix: (Units=1/GPa)
#
#
# Indices 1 2 3 4 5 6 
#
# 1 0.013052 -0.005211 -0.003711 0.000000 0.000000 0.000000
# 2 -0.005211 0.015088 -0.001314 0.000000 0.000000 0.000000
# 3 -0.003711 -0.001314 0.008352 0.000000 0.000000 0.000000
# 4 0.000000 0.000000 0.000000 0.035191 0.000000 0.000000
# 5 0.000000 0.000000 0.000000 0.000000 0.035482 0.000000
# 6 0.000000 0.000000 0.000000 0.000000 0.000000 0.040712
#
#
# Mechanical properties :
#
#
# Convention : Reuss Voigt Hill
#
# Bulk Modulus (GPa) = 62.41897 66.92492 64.67194
# Shear Modulus (GPa) = 28.78722 30.39944 29.59333
#
# Velocity S-wave (km/s) = 3.86491 3.97166 3.91865
# Velocity P-wave (km/s) = 7.23226 7.46721 7.35067
#
# Compressibility (1/GPa) = 0.01602077
#
# Stress axis : x y z
#
# Youngs Moduli (GPa) = 76.61793 66.27779 119.72942
#
# Poissons Ratio (x) = 0.34534 0.44435
# Poissons Ratio (y) = 0.39922 0.15730
# Poissons Ratio (z) = 0.28435 0.08707
#
# Static dielectric constant tensor:
#      x y z
#    x 1.676900 0.000000 0.000000 
#    y 0.000000 1.658300 0.000000 
#    z 0.000000 0.000000 1.692780 
# 
# From -- ./inp_files/19023.got.cif
#   From: 2010.05.17/outbox.cif.g08.bks.cpg/sg57_10_cif.got.tgz:19023.got - 2010.06.03 13:58:18.
