data_PCOD9438464
_publ_section_title
;
Structure prediction by ZEFSAII (Michael W. Deem and Ramdas Pophale) SiO2 
 PCOD9438464
Probable space group: P B C M
;
_chemical_formula_sum "Si O2"
_cell_formula_units_Z 40
_cell_length_a 17.808447
_cell_length_b 5.268384
_cell_length_c 19.027823
_cell_angle_alpha 90.000000
_cell_angle_beta 90.000000
_cell_angle_gamma 90.000000
_cell_volume 1785.223410
_symmetry_space_group_name_H-M "P B C M"
_symmetry_group_IT_number 57
_symmetry_cell_setting 'orthorhombic'
loop_
_space_group_symop_operation_xyz
x,y,z
-x,-y,1/2+z
x,1/2-y,-z
-x,1/2+y,1/2-z
-x,-y,-z
x,y,1/2-z
-x,1/2+y,z
x,1/2-y,1/2+z
loop_
_atom_site_type_symbol
_atom_site_label
_atom_site_fract_x
_atom_site_fract_y
_atom_site_fract_z
Si Si1 0.550501 0.342340 0.671248
Si Si2 0.347596 0.383301 0.433101
Si Si3 0.255256 0.078478 0.168524
Si Si4 0.197515 0.561422 0.398266
Si Si5 0.971001 0.195884 0.421071
O O1 0.585786 0.360222 0.750000
O O2 0.490749 0.573426 0.666730
O O3 0.606772 0.403128 0.607876
O O4 0.383709 0.250000 0.500000
O O5 0.264801 0.494702 0.452705
O O6 0.327693 0.168330 0.375579
O O7 0.272281 0.070986 0.250000
O O8 0.223848 0.811102 0.142854
O O9 0.198569 0.310751 0.150603
O O10 0.115155 0.612863 0.426473
O O11 0.001189 0.250000 0.500000
O O12 0.982667 0.469069 0.386080
#
# Coordination Sequence:
#
# PCOD9438464 Si02
#       5
#     8   8   8   8   8
#     4  10  23  43  65  91 126 171 215 254 305 382
#     4  10  25  40  65  99 130 164 206 269 328 372
#     4  10  22  39  62  89 120 165 213 258 313 379
#     4  10  23  37  64  90 128 158 215 267 314 370
#     4  10  21  36  60  89 127 170 208 255 315 381
#
# _framework density 22.406158999999999
#
# number of rings (size 3 to 8) (size 9 to 14) (size 15 to 20)
#    1.200    0.800    0.000    2.400    5.600    1.600 
#    0.000    0.000    0.000   12.000    0.000    0.000 
#    0.000    0.000    0.000    0.000    0.000    0.000 
#
# Total GULP energy -223201.971683 kJ/mol
# GULP energy per Si atom -5580.049292 kJ/mol
# Density = 2.235516 g / cm^3
# Si number density = 22.406159 Si / 1000 Ang^3
#
#
#
# Elastic Constant Matrix: (Units=GPa)
#
#
# Indices 1 2 3 4 5 6 
#
# 1 75.6303 24.2896 4.4913 0.0000 0.0000 0.0000
# 2 24.2896 163.8978 18.3318 0.0000 0.0000 0.0000
# 3 4.4913 18.3318 53.2169 0.0000 0.0000 0.0000
# 4 0.0000 0.0000 0.0000 17.1053 0.0000 0.0000
# 5 0.0000 0.0000 0.0000 0.0000 -488.3062 0.0000
# 6 0.0000 0.0000 0.0000 0.0000 0.0000 26.4503
#
#
#
# Elastic Compliance Matrix: (Units=1/GPa)
#
#
# Indices 1 2 3 4 5 6 
#
# 1 0.013895 -0.002005 -0.000482 0.000000 0.000000 0.000000
# 2 -0.002005 0.006635 -0.002116 0.000000 0.000000 0.000000
# 3 -0.000482 -0.002116 0.019561 0.000000 0.000000 0.000000
# 4 0.000000 0.000000 0.000000 0.058461 0.000000 0.000000
# 5 0.000000 0.000000 0.000000 0.000000 -0.002048 0.000000
# 6 0.000000 0.000000 0.000000 0.000000 0.000000 0.037807
#
#
# Mechanical properties :
#
#
# Convention : Reuss Voigt Hill
#
# Bulk Modulus (GPa) = 32.37966 42.99673 37.68820
# Shear Modulus (GPa) = 32.50702 -72.57464 -20.03381
#
# Velocity S-wave (km/s) = 3.81308 -5.69744 -2.99343
# Velocity P-wave (km/s) = 5.81968 4.90405 2.21574
#
# Compressibility (1/GPa) = 0.03088358
#
# Stress axis : x y z
#
# Youngs Moduli (GPa) = 71.96906 150.70976 51.12282
#
# Poissons Ratio (x) = 0.30222 0.02464
# Poissons Ratio (y) = 0.14432 0.10820
# Poissons Ratio (z) = 0.03468 0.31897
#
# Static dielectric constant tensor:
#      x y z
#    x 1.860880 0.000000 0.000000 
#    y 0.000000 1.894590 0.000000 
#    z 0.000000 0.000000 1.800830 
# 
# From -- ./inp_files/22983.got.cif
#   From: 2010.05.17/outbox.cif.g08.bks.cpg/sg57_12_cif.got.tgz:22983.got - 2010.06.03 13:58:18.
