data_PCOD9438733
_publ_section_title
;
Structure prediction by ZEFSAII (Michael W. Deem and Ramdas Pophale) SiO2 
 PCOD9438733
Probable space group: P B C M
;
_chemical_formula_sum "Si O2"
_cell_formula_units_Z 48
_cell_length_a 4.933969
_cell_length_b 18.952453
_cell_length_c 22.299279
_cell_angle_alpha 90.000000
_cell_angle_beta 90.000000
_cell_angle_gamma 90.000000
_cell_volume 2085.223766
_symmetry_space_group_name_H-M "P B C M"
_symmetry_group_IT_number 57
_symmetry_cell_setting 'orthorhombic'
loop_
_space_group_symop_operation_xyz
x,y,z
-x,-y,1/2+z
x,1/2-y,-z
-x,1/2+y,1/2-z
-x,-y,-z
x,y,1/2-z
-x,1/2+y,z
x,1/2-y,1/2+z
loop_
_atom_site_type_symbol
_atom_site_label
_atom_site_fract_x
_atom_site_fract_y
_atom_site_fract_z
Si Si1 0.889530 0.653428 0.123200
Si Si2 0.531260 0.967557 0.098571
Si Si3 0.157931 0.882810 0.317836
Si Si4 0.339594 0.213276 0.818251
Si Si5 0.378273 0.916282 0.679599
Si Si6 0.794668 0.564617 0.487591
O O1 0.763435 0.729972 0.134347
O O2 0.684110 0.602743 0.160460
O O3 0.905830 0.626651 0.054543
O O4 0.181908 0.643071 0.152694
O O5 0.275827 0.933511 0.131567
O O6 0.699840 0.009481 0.148568
O O7 0.437404 0.030180 0.053961
O O8 0.679621 0.915058 0.052669
O O9 0.198389 0.911582 0.250000
O O10 0.354684 0.814144 0.322861
O O11 0.853263 0.855301 0.323104
O O12 0.301313 0.241993 0.750000
O O13 0.351937 0.920237 0.750000
O O14 0.000000 0.500000 0.500000
#
# Coordination Sequence:
#
# PCOD9438733 Si02
#       6
#     8   8   8   8   8   8
#     4  11  22  38  61  86 121 158 201 245 298 354
#     4  10  22  38  60  87 120 155 200 242 303 355
#     4  10  22  39  62  89 122 158 194 242 298 355
#     4  10  21  38  59  86 119 158 195 240 298 354
#     4  11  21  34  59  92 118 149 194 253 306 357
#     4  10  21  40  62  84 116 161 196 248 296 346
#
# _framework density 23.019112
#
# number of rings (size 3 to 8) (size 9 to 14) (size 15 to 20)
#    0.000    1.667    1.667    3.000    2.333    1.333 
#    0.000    4.167    0.000    0.000    0.000    0.000 
#    0.000    0.000    0.000    0.000    0.000    0.000 
#
# Total GULP energy -268277.504934 kJ/mol
# GULP energy per Si atom -5589.114686 kJ/mol
# Density = 2.296672 g / cm^3
# Si number density = 23.019112 Si / 1000 Ang^3
#
#
#
# Elastic Constant Matrix: (Units=GPa)
#
#
# Indices 1 2 3 4 5 6 
#
# 1 62.8285 -12.0997 2.3487 0.0000 0.0000 0.0000
# 2 -12.0997 47.0045 9.2885 0.0000 0.0000 0.0000
# 3 2.3487 9.2885 106.8590 0.0000 0.0000 0.0000
# 4 0.0000 0.0000 0.0000 39.5028 0.0000 0.0000
# 5 0.0000 0.0000 0.0000 0.0000 22.9660 0.0000
# 6 0.0000 0.0000 0.0000 0.0000 0.0000 26.9456
#
#
#
# Elastic Compliance Matrix: (Units=1/GPa)
#
#
# Indices 1 2 3 4 5 6 
#
# 1 0.016807 0.004476 -0.000758 0.000000 0.000000 0.000000
# 2 0.004476 0.022839 -0.002084 0.000000 0.000000 0.000000
# 3 -0.000758 -0.002084 0.009556 0.000000 0.000000 0.000000
# 4 0.000000 0.000000 0.000000 0.025315 0.000000 0.000000
# 5 0.000000 0.000000 0.000000 0.000000 0.043543 0.000000
# 6 0.000000 0.000000 0.000000 0.000000 0.000000 0.037112
#
#
# Mechanical properties :
#
#
# Convention : Reuss Voigt Hill
#
# Bulk Modulus (GPa) = 19.05870 23.97410 21.51640
# Shear Modulus (GPa) = 29.51738 32.35986 30.93862
#
# Velocity S-wave (km/s) = 3.58480 3.75344 3.67009
# Velocity P-wave (km/s) = 5.04301 5.40573 5.22752
#
# Compressibility (1/GPa) = 0.05246947
#
# Stress axis : x y z
#
# Youngs Moduli (GPa) = 59.49990 43.78568 104.64728
#
# Poissons Ratio (x) = -0.19599 0.07937
# Poissons Ratio (y) = -0.26633 0.21804
# Poissons Ratio (z) = 0.04513 0.09123
#
# Static dielectric constant tensor:
#      x y z
#    x 1.888180 0.000000 0.000000 
#    y 0.000000 1.940830 0.000000 
#    z 0.000000 0.000000 1.890900 
# 
# From -- ./inp_files/23675.got.cif
#   From: 2010.05.17/outbox.cif.g08.bks.cpg/sg57_12_cif.got.tgz:23675.got - 2010.06.03 13:58:18.
