data_PCOD9438919
_publ_section_title
;
Structure prediction by ZEFSAII (Michael W. Deem and Ramdas Pophale) SiO2 
 PCOD9438919
Probable space group: P B C M
;
_chemical_formula_sum "Si O2"
_cell_formula_units_Z 40
_cell_length_a 8.853027
_cell_length_b 8.459125
_cell_length_c 22.528752
_cell_angle_alpha 90.000000
_cell_angle_beta 90.000000
_cell_angle_gamma 90.000000
_cell_volume 1687.152600
_symmetry_space_group_name_H-M "P B C M"
_symmetry_group_IT_number 57
_symmetry_cell_setting 'orthorhombic'
loop_
_space_group_symop_operation_xyz
x,y,z
-x,-y,1/2+z
x,1/2-y,-z
-x,1/2+y,1/2-z
-x,-y,-z
x,y,1/2-z
-x,1/2+y,z
x,1/2-y,1/2+z
loop_
_atom_site_type_symbol
_atom_site_label
_atom_site_fract_x
_atom_site_fract_y
_atom_site_fract_z
Si Si1 0.285049 0.728786 0.929334
Si Si2 0.443787 0.459363 0.433329
Si Si3 0.574570 0.679085 0.250000
Si Si4 0.931020 0.065165 0.641799
Si Si5 0.770109 0.726777 0.637871
Si Si6 0.273200 0.660846 0.750000
O O1 0.398747 0.594158 0.904996
O O2 0.119991 0.668789 0.914561
O O3 0.358030 0.890913 0.906638
O O4 0.293634 0.750000 0.000000
O O5 0.500000 0.500000 0.500000
O O6 0.326531 0.316165 0.421250
O O7 0.652084 0.755110 0.308360
O O8 0.624695 0.497105 0.250000
O O9 0.395041 0.700715 0.250000
O O10 0.869347 0.887345 0.635865
O O11 0.838093 0.149315 0.694304
O O12 0.108141 0.088591 0.650234
#
# Coordination Sequence:
#
# PCOD9438919 Si02
#       6
#     8   8   4   8   8   4
#     4  10  21  39  61  89 122 164 213 264 317 375
#     4  10  21  39  62  89 122 164 213 264 317 377
#     4  10  23  40  64  96 130 168 215 260 315 386
#     4  11  23  41  64  95 133 172 214 267 329 390
#     4  11  23  41  64  95 131 171 213 264 323 387
#     4  10  23  40  64  96 130 170 215 262 321 392
#
# _framework density 23.708583999999998
#
# number of rings (size 3 to 8) (size 9 to 14) (size 15 to 20)
#    0.000    1.600    0.000    4.200    0.000    8.000 
#    0.000   12.000    0.000    0.000    0.000    0.000 
#    0.000    0.000    0.000    0.000    0.000    0.000 
#
# Total GULP energy -223404.343299 kJ/mol
# GULP energy per Si atom -5585.108582 kJ/mol
# Density = 2.365462 g / cm^3
# Si number density = 23.708584 Si / 1000 Ang^3
#
#
#
# Elastic Constant Matrix: (Units=GPa)
#
#
# Indices 1 2 3 4 5 6 
#
# 1 85.6363 2.0416 32.0748 0.0000 0.0000 0.0000
# 2 2.0416 52.4387 25.7140 0.0000 0.0000 0.0000
# 3 32.0748 25.7140 73.8051 0.0000 0.0000 0.0000
# 4 0.0000 0.0000 0.0000 22.6709 0.0000 0.0000
# 5 0.0000 0.0000 0.0000 0.0000 29.3115 0.0000
# 6 0.0000 0.0000 0.0000 0.0000 0.0000 53.0846
#
#
#
# Elastic Compliance Matrix: (Units=1/GPa)
#
#
# Indices 1 2 3 4 5 6 
#
# 1 0.014331 0.003010 -0.007277 0.000000 0.000000 0.000000
# 2 0.003010 0.023632 -0.009542 0.000000 0.000000 0.000000
# 3 -0.007277 -0.009542 0.020036 0.000000 0.000000 0.000000
# 4 0.000000 0.000000 0.000000 0.044109 0.000000 0.000000
# 5 0.000000 0.000000 0.000000 0.000000 0.034116 0.000000
# 6 0.000000 0.000000 0.000000 0.000000 0.000000 0.018838
#
#
# Mechanical properties :
#
#
# Convention : Reuss Voigt Hill
#
# Bulk Modulus (GPa) = 32.91390 36.83789 34.87590
# Shear Modulus (GPa) = 25.93281 31.15004 28.54142
#
# Velocity S-wave (km/s) = 3.31088 3.62867 3.47341
# Velocity P-wave (km/s) = 5.34123 5.75568 5.55232
#
# Compressibility (1/GPa) = 0.03038230
#
# Stress axis : x y z
#
# Youngs Moduli (GPa) = 69.77841 42.31633 49.91016
#
# Poissons Ratio (x) = -0.12739 0.36319
# Poissons Ratio (y) = -0.21006 0.47622
# Poissons Ratio (z) = 0.50777 0.40377
#
# Static dielectric constant tensor:
#      x y z
#    x 1.861260 0.000000 0.000000 
#    y 0.000000 2.008190 0.000000 
#    z 0.000000 0.000000 2.028830 
# 
# From -- ./inp_files/26550.got.cif
#   From: 2010.05.17/outbox.cif.g08.bks.cpg/sg57_14_cif.got.tgz:26550.got - 2010.06.03 13:58:18.
