data_PCOD9438621
_publ_section_title
;
Structure prediction by ZEFSAII (Michael W. Deem and Ramdas Pophale) SiO2 
 PCOD9438621
Probable space group: P B C M
;
_chemical_formula_sum "Si O2"
_cell_formula_units_Z 36
_cell_length_a 11.352427
_cell_length_b 9.308381
_cell_length_c 13.919508
_cell_angle_alpha 90.000000
_cell_angle_beta 90.000000
_cell_angle_gamma 90.000000
_cell_volume 1470.912213
_symmetry_space_group_name_H-M "P B C M"
_symmetry_group_IT_number 57
_symmetry_cell_setting 'orthorhombic'
loop_
_space_group_symop_operation_xyz
x,y,z
-x,-y,1/2+z
x,1/2-y,-z
-x,1/2+y,1/2-z
-x,-y,-z
x,y,1/2-z
-x,1/2+y,z
x,1/2-y,1/2+z
loop_
_atom_site_type_symbol
_atom_site_label
_atom_site_fract_x
_atom_site_fract_y
_atom_site_fract_z
Si Si1 0.325916 0.094616 0.493662
Si Si2 0.748325 0.353195 0.141431
Si Si3 0.018126 0.011373 0.750000
Si Si4 0.991037 0.756794 0.612973
Si Si5 0.557866 0.395917 0.862174
O O1 0.268786 0.250000 0.500000
O O2 0.441020 0.116156 0.425694
O O3 0.253165 0.971923 0.440289
O O4 0.370104 0.029639 0.594019
O O5 0.739869 0.413135 0.250000
O O6 0.869281 0.265206 0.138829
O O7 0.638957 0.245444 0.126785
O O8 0.067315 0.122272 0.833667
O O9 0.963651 0.904757 0.665963
O O10 0.981307 0.750000 0.500000
O O11 0.532365 0.415696 0.750000
#
# Coordination Sequence:
#
# PCOD9438621 Si02
#       5
#     8   8   4   8   8
#     4  11  22  36  56  92 132 164 215 262 308 360
#     4  11  22  42  68  89 126 172 215 255 311 381
#     4  10  22  42  66 106 128 166 208 270 332 406
#     4  11  22  43  73  99 132 168 215 267 332 402
#     4  10  21  37  60  89 124 176 217 255 305 367
#
# _framework density 24.474608
#
# number of rings (size 3 to 8) (size 9 to 14) (size 15 to 20)
#    0.000    1.333    2.222    6.000    0.000    3.556 
#    0.000   10.000    0.000    0.000    0.000    0.000 
#    0.000    0.000    0.000    0.000    0.000    0.000 
#
# Total GULP energy -200673.996733 kJ/mol
# GULP energy per Si atom -5574.277687 kJ/mol
# Density = 2.441890 g / cm^3
# Si number density = 24.474608 Si / 1000 Ang^3
#
#
#
# Elastic Constant Matrix: (Units=GPa)
#
#
# Indices 1 2 3 4 5 6 
#
# 1 77.2711 -22.4195 -14.6577 0.0000 0.0000 0.0000
# 2 -22.4195 99.8024 43.6553 0.0000 0.0000 0.0000
# 3 -14.6577 43.6553 203.0257 0.0000 0.0000 0.0000
# 4 0.0000 0.0000 0.0000 28.3716 0.0000 0.0000
# 5 0.0000 0.0000 0.0000 0.0000 29.2197 0.0000
# 6 0.0000 0.0000 0.0000 0.0000 0.0000 10.7144
#
#
#
# Elastic Compliance Matrix: (Units=1/GPa)
#
#
# Indices 1 2 3 4 5 6 
#
# 1 0.013868 0.002955 0.000366 0.000000 0.000000 0.000000
# 2 0.002955 0.011690 -0.002300 0.000000 0.000000 0.000000
# 3 0.000366 -0.002300 0.005446 0.000000 0.000000 0.000000
# 4 0.000000 0.000000 0.000000 0.035247 0.000000 0.000000
# 5 0.000000 0.000000 0.000000 0.000000 0.034223 0.000000
# 6 0.000000 0.000000 0.000000 0.000000 0.000000 0.093333
#
#
# Mechanical properties :
#
#
# Convention : Reuss Voigt Hill
#
# Bulk Modulus (GPa) = 30.26041 43.69504 36.97773
# Shear Modulus (GPa) = 24.65716 38.56255 31.60985
#
# Velocity S-wave (km/s) = 3.17749 3.97371 3.59769
# Velocity P-wave (km/s) = 5.08456 6.24065 5.69204
#
# Compressibility (1/GPa) = 0.03304648
#
# Stress axis : x y z
#
# Youngs Moduli (GPa) = 72.10688 85.54428 183.60433
#
# Poissons Ratio (x) = -0.25282 -0.06716
# Poissons Ratio (y) = -0.21310 0.42233
# Poissons Ratio (z) = -0.02637 0.19677
#
# Static dielectric constant tensor:
#      x y z
#    x 2.002190 0.000000 0.000000 
#    y 0.000000 1.953100 0.000000 
#    z 0.000000 0.000000 1.892910 
# 
# From -- ./inp_files/18130.got.cif
#   From: 2010.05.17/outbox.cif.g08.bks.cpg/sg57_10_cif.got.tgz:18130.got - 2010.06.03 13:58:18.
