data_PCOD9438045
_publ_section_title
;
Structure prediction by ZEFSAII (Michael W. Deem and Ramdas Pophale) SiO2 
 PCOD9438045
Probable space group: P B C M
;
_chemical_formula_sum "Si O2"
_cell_formula_units_Z 64
_cell_length_a 12.276931
_cell_length_b 31.723664
_cell_length_c 8.375183
_cell_angle_alpha 90.000000
_cell_angle_beta 90.000000
_cell_angle_gamma 90.000000
_cell_volume 3261.876108
_symmetry_space_group_name_H-M "P B C M"
_symmetry_group_IT_number 57
_symmetry_cell_setting 'orthorhombic'
loop_
_space_group_symop_operation_xyz
x,y,z
-x,-y,1/2+z
x,1/2-y,-z
-x,1/2+y,1/2-z
-x,-y,-z
x,y,1/2-z
-x,1/2+y,z
x,1/2-y,1/2+z
loop_
_atom_site_type_symbol
_atom_site_label
_atom_site_fract_x
_atom_site_fract_y
_atom_site_fract_z
Si Si1 0.873465 0.375406 0.058706
Si Si2 0.978534 0.952997 0.057723
Si Si3 0.487588 0.294741 0.557025
Si Si4 0.472464 0.046638 0.441973
Si Si5 0.749505 0.913135 0.059085
Si Si6 0.989846 0.704862 0.058600
Si Si7 0.249540 0.181791 0.059462
Si Si8 0.373910 0.623735 0.442945
O O1 0.877844 0.375014 0.250000
O O2 0.934549 0.417968 0.001492
O O3 0.748828 0.374979 0.004200
O O4 0.938582 0.334521 0.997993
O O5 0.981812 0.953259 0.250000
O O6 0.858830 0.937300 0.008921
O O7 0.000000 0.000000 0.000000
O O8 0.532541 0.250000 0.500000
O O9 0.485648 0.295390 0.750000
O O10 0.362826 0.299258 0.496543
O O11 0.557637 0.335125 0.504351
O O12 0.466876 0.047334 0.250000
O O13 0.357248 0.061289 0.511490
O O14 0.562395 0.081347 0.492447
O O15 0.500000 0.000000 0.500000
O O16 0.752879 0.907043 0.250000
O O17 0.746900 0.867758 0.976520
O O18 0.987820 0.704514 0.250000
O O19 0.865226 0.699305 0.996267
O O20 0.032114 0.750000 0.000000
O O21 0.249212 0.188260 0.250000
O O22 0.371659 0.624254 0.250000
#
# Coordination Sequence:
#
# PCOD9438045 Si02
#       8
#     8   8   8   8   8   8   8   8
#     4  11  24  43  63  89 124 160 207 258 305 364
#     4  10  24  42  62  91 124 161 204 253 306 363
#     4  10  21  39  61  89 122 156 198 245 300 358
#     4  11  24  43  65  92 126 162 205 254 305 365
#     4  11  22  39  64  94 126 160 202 252 308 363
#     4  11  23  39  64  93 124 163 206 252 310 369
#     4  10  20  38  62  91 125 162 200 247 307 364
#     4  10  23  43  63  85 122 164 203 251 304 362
#
# _framework density 19.620611
#
# number of rings (size 3 to 8) (size 9 to 14) (size 15 to 20)
#    0.000    1.500    2.500    1.875    1.750    5.000 
#    0.000    1.250    0.000    0.000    0.000    0.000 
#    0.000    0.000    0.000    0.000    0.000    0.000 
#
# Total GULP energy -357702.561769 kJ/mol
# GULP energy per Si atom -5589.102528 kJ/mol
# Density = 1.957595 g / cm^3
# Si number density = 19.620611 Si / 1000 Ang^3
#
#
#
# Elastic Constant Matrix: (Units=GPa)
#
#
# Indices 1 2 3 4 5 6 
#
# 1 154.8721 82.0912 20.8794 0.0000 0.0000 0.0000
# 2 82.0912 179.6159 8.4785 0.0000 0.0000 0.0000
# 3 20.8794 8.4785 12.7745 0.0000 0.0000 0.0000
# 4 0.0000 0.0000 0.0000 33.4542 0.0000 0.0000
# 5 0.0000 0.0000 0.0000 0.0000 14.4297 0.0000
# 6 0.0000 0.0000 0.0000 0.0000 0.0000 38.8448
#
#
#
# Elastic Compliance Matrix: (Units=1/GPa)
#
#
# Indices 1 2 3 4 5 6 
#
# 1 0.010640 -0.004173 -0.014621 0.000000 0.000000 0.000000
# 2 -0.004173 0.007384 0.001919 0.000000 0.000000 0.000000
# 3 -0.014621 0.001919 0.100904 0.000000 0.000000 0.000000
# 4 0.000000 0.000000 0.000000 0.029892 0.000000 0.000000
# 5 0.000000 0.000000 0.000000 0.000000 0.069301 0.000000
# 6 0.000000 0.000000 0.000000 0.000000 0.000000 0.025743
#
#
# Mechanical properties :
#
#
# Convention : Reuss Voigt Hill
#
# Bulk Modulus (GPa) = 11.73991 63.35117 37.54554
# Shear Modulus (GPa) = 16.33952 33.06663 24.70308
#
# Velocity S-wave (km/s) = 2.88891 4.10970 3.55214
# Velocity P-wave (km/s) = 4.13814 7.40794 6.00008
#
# Compressibility (1/GPa) = 0.08517956
#
# Stress axis : x y z
#
# Youngs Moduli (GPa) = 93.98646 135.42987 9.91037
#
# Poissons Ratio (x) = 0.56510 0.14490
# Poissons Ratio (y) = 0.39217 -0.01902
# Poissons Ratio (z) = 1.37417 -0.25993
#
# Static dielectric constant tensor:
#      x y z
#    x 1.675030 0.000000 0.000000 
#    y 0.000000 1.660230 0.000000 
#    z 0.000000 0.000000 1.679630 
# 
# From -- ./inp_files/3875.got.cif
#   From: 2010.05.17/outbox.cif.g08.bks.cpg/sg57_2_cif.got.tgz:3875.got - 2010.06.03 13:58:18.
