data_PCOD9438298
_publ_section_title
;
Structure prediction by ZEFSAII (Michael W. Deem and Ramdas Pophale) SiO2 
 PCOD9438298
Probable space group: P B C M
;
_chemical_formula_sum "Si O2"
_cell_formula_units_Z 32
_cell_length_a 5.598143
_cell_length_b 8.636684
_cell_length_c 26.402532
_cell_angle_alpha 90.000000
_cell_angle_beta 90.000000
_cell_angle_gamma 90.000000
_cell_volume 1276.546372
_symmetry_space_group_name_H-M "P B C M"
_symmetry_group_IT_number 57
_symmetry_cell_setting 'orthorhombic'
loop_
_space_group_symop_operation_xyz
x,y,z
-x,-y,1/2+z
x,1/2-y,-z
-x,1/2+y,1/2-z
-x,-y,-z
x,y,1/2-z
-x,1/2+y,z
x,1/2-y,1/2+z
loop_
_atom_site_type_symbol
_atom_site_label
_atom_site_fract_x
_atom_site_fract_y
_atom_site_fract_z
Si Si1 0.309005 0.517618 0.432744
Si Si2 0.376198 0.250000 0.000000
Si Si3 0.648291 0.461523 0.157529
Si Si4 0.033147 0.826672 0.843632
Si Si5 0.682380 0.487117 0.750000
O O1 0.451119 0.643528 0.465726
O O2 0.225947 0.374039 0.467338
O O3 0.500357 0.446563 0.393412
O O4 0.117811 0.600309 0.396889
O O5 0.874553 0.347860 0.157187
O O6 0.488011 0.435034 0.206042
O O7 0.754414 0.635543 0.161044
O O8 0.159313 0.903539 0.795037
#
# Coordination Sequence:
#
# PCOD9438298 Si02
#       5
#     8   4   8   8   4
#     4  10  22  42  66  94 130 170 212 264 316 374
#     4  10  20  42  70  88 126 174 216 262 318 370
#     4  11  24  41  65  98 129 167 212 261 317 379
#     4  11  24  41  65  98 129 167 212 261 317 379
#     4  10  24  42  66  90 128 166 208 254 316 378
#
# _framework density 25.067637000000001
#
# number of rings (size 3 to 8) (size 9 to 14) (size 15 to 20)
#    0.000    1.500    2.500    1.500    3.500    4.000 
#    0.000    7.500    0.000    0.000    0.000    0.000 
#    0.000    0.000    0.000    0.000    0.000    0.000 
#
# Total GULP energy -178226.492045 kJ/mol
# GULP energy per Si atom -5569.577876 kJ/mol
# Density = 2.501058 g / cm^3
# Si number density = 25.067637 Si / 1000 Ang^3
#
#
#
# Elastic Constant Matrix: (Units=GPa)
#
#
# Indices 1 2 3 4 5 6 
#
# 1 12.0239 18.3629 6.0386 0.0000 0.0000 0.0000
# 2 18.3629 102.2045 61.7755 0.0000 0.0000 0.0000
# 3 6.0386 61.7755 167.5490 0.0000 0.0000 0.0000
# 4 0.0000 0.0000 0.0000 -8.2882 0.0000 0.0000
# 5 0.0000 0.0000 0.0000 0.0000 2.8874 0.0000
# 6 0.0000 0.0000 0.0000 0.0000 0.0000 35.3273
#
#
#
# Elastic Compliance Matrix: (Units=1/GPa)
#
#
# Indices 1 2 3 4 5 6 
#
# 1 0.117261 -0.023823 0.004557 0.000000 0.000000 0.000000
# 2 -0.023823 0.017430 -0.005568 0.000000 0.000000 0.000000
# 3 0.004557 -0.005568 0.007857 0.000000 0.000000 0.000000
# 4 0.000000 0.000000 0.000000 -0.120654 0.000000 0.000000
# 5 0.000000 0.000000 0.000000 0.000000 0.346334 0.000000
# 6 0.000000 0.000000 0.000000 0.000000 0.000000 0.028307
#
#
# Mechanical properties :
#
#
# Convention : Reuss Voigt Hill
#
# Bulk Modulus (GPa) = 10.76643 50.45905 30.61274
# Shear Modulus (GPa) = 10.47864 19.02532 14.75198
#
# Velocity S-wave (km/s) = 2.04676 2.75791 2.42851
# Velocity P-wave (km/s) = 3.14482 5.50584 4.48354
#
# Compressibility (1/GPa) = 0.09288133
#
# Stress axis : x y z
#
# Youngs Moduli (GPa) = 8.52800 57.37296 127.27484
#
# Poissons Ratio (x) = 1.36677 -0.58002
# Poissons Ratio (y) = 0.20316 0.70864
# Poissons Ratio (z) = -0.03886 0.31944
#
# Static dielectric constant tensor:
#      x y z
#    x 2.135650 0.000000 0.000000 
#    y 0.000000 2.030530 0.000000 
#    z 0.000000 0.000000 1.887260 
# 
# From -- ./inp_files/27772.got.cif
#   From: 2010.05.17/outbox.cif.g08.bks.cpg/sg57_14_cif.got.tgz:27772.got - 2010.06.03 13:58:18.
