data_PCOD9438880
_publ_section_title
;
Structure prediction by ZEFSAII (Michael W. Deem and Ramdas Pophale) SiO2 
 PCOD9438880
Probable space group: P B C M
;
_chemical_formula_sum "Si O2"
_cell_formula_units_Z 64
_cell_length_a 14.792414
_cell_length_b 25.935250
_cell_length_c 8.688168
_cell_angle_alpha 90.000000
_cell_angle_beta 90.000000
_cell_angle_gamma 90.000000
_cell_volume 3333.171823
_symmetry_space_group_name_H-M "P B C M"
_symmetry_group_IT_number 57
_symmetry_cell_setting 'orthorhombic'
loop_
_space_group_symop_operation_xyz
x,y,z
-x,-y,1/2+z
x,1/2-y,-z
-x,1/2+y,1/2-z
-x,-y,-z
x,y,1/2-z
-x,1/2+y,z
x,1/2-y,1/2+z
loop_
_atom_site_type_symbol
_atom_site_label
_atom_site_fract_x
_atom_site_fract_y
_atom_site_fract_z
Si Si1 0.409520 0.307628 0.065735
Si Si2 0.881018 0.101596 0.063708
Si Si3 0.214948 0.193128 0.065119
Si Si4 0.762101 0.193847 0.566510
Si Si5 0.211339 0.493114 0.435658
Si Si6 0.910068 0.598533 0.064887
Si Si7 0.593790 0.479484 0.934723
Si Si8 0.585618 0.140785 0.065449
O O1 0.409550 0.193679 0.750000
O O2 0.311237 0.324131 0.004285
O O3 0.489401 0.343064 0.002977
O O4 0.424434 0.250000 0.000000
O O5 0.876747 0.106594 0.250000
O O6 0.829342 0.048926 0.021783
O O7 0.985601 0.097321 0.015876
O O8 0.832286 0.150721 0.990952
O O9 0.222793 0.195938 0.250000
O O10 0.138323 0.152145 0.022880
O O11 0.196118 0.250000 0.000000
O O12 0.784365 0.250000 0.500000
O O13 0.760373 0.195810 0.750000
O O14 0.664153 0.176147 0.504140
O O15 0.210842 0.490301 0.250000
O O16 0.148629 0.448200 0.499457
O O17 0.315784 0.491098 0.488497
O O18 0.909063 0.594704 0.250000
O O19 0.590189 0.483727 0.750000
O O20 0.604853 0.418957 0.971532
O O21 0.500000 0.500000 0.000000
O O22 0.584913 0.146574 0.250000
#
# Coordination Sequence:
#
# PCOD9438880 Si02
#       8
#     8   8   8   8   8   8   8   8
#     4  11  22  37  58  86 116 153 197 241 291 351
#     4  10  21  43  65  88 124 161 203 258 310 360
#     4  10  21  39  59  86 120 157 199 246 303 359
#     4  12  25  41  64  94 125 164 209 255 311 373
#     4  10  21  40  64  90 123 162 203 249 306 363
#     4  10  23  39  63  93 121 158 203 253 309 367
#     4  10  23  40  60  89 123 163 200 246 303 360
#     4  11  22  41  63  86 122 161 200 249 303 359
#
# _framework density 19.20093
#
# number of rings (size 3 to 8) (size 9 to 14) (size 15 to 20)
#    0.000    1.500    1.250    4.500    1.750    4.000 
#    0.000    1.250    0.000    0.000    0.000    0.000 
#    0.000    0.000    0.000    0.000    0.000    0.000 
#
# Total GULP energy -357811.721646 kJ/mol
# GULP energy per Si atom -5590.808151 kJ/mol
# Density = 1.915723 g / cm^3
# Si number density = 19.200930 Si / 1000 Ang^3
#
#
#
# Elastic Constant Matrix: (Units=GPa)
#
#
# Indices 1 2 3 4 5 6 
#
# 1 159.4208 72.7742 36.8981 0.0000 0.0000 0.0000
# 2 72.7742 99.4652 37.2319 0.0000 0.0000 0.0000
# 3 36.8981 37.2319 60.4007 0.0000 0.0000 0.0000
# 4 0.0000 0.0000 0.0000 33.1547 0.0000 0.0000
# 5 0.0000 0.0000 0.0000 0.0000 -134.1562 0.0000
# 6 0.0000 0.0000 0.0000 0.0000 0.0000 129.4633
#
#
#
# Elastic Compliance Matrix: (Units=1/GPa)
#
#
# Indices 1 2 3 4 5 6 
#
# 1 0.009600 -0.006277 -0.001995 0.000000 0.000000 0.000000
# 2 -0.006277 0.017174 -0.006752 0.000000 0.000000 0.000000
# 3 -0.001995 -0.006752 0.021937 0.000000 0.000000 0.000000
# 4 0.000000 0.000000 0.000000 0.030162 0.000000 0.000000
# 5 0.000000 0.000000 0.000000 0.000000 -0.007454 0.000000
# 6 0.000000 0.000000 0.000000 0.000000 0.000000 0.007724
#
#
# Mechanical properties :
#
#
# Convention : Reuss Voigt Hill
#
# Bulk Modulus (GPa) = 53.58278 68.12167 60.85223
# Shear Modulus (GPa) = 43.32368 17.18453 30.25411
#
# Velocity S-wave (km/s) = 4.75524 2.99487 3.97376
# Velocity P-wave (km/s) = 7.62343 6.89307 7.26743
#
# Compressibility (1/GPa) = 0.01866271
#
# Stress axis : x y z
#
# Youngs Moduli (GPa) = 104.16804 58.22906 45.58565
#
# Poissons Ratio (x) = 0.36550 0.09096
# Poissons Ratio (y) = 0.65386 0.30777
# Poissons Ratio (z) = 0.20784 0.39314
#
# Static dielectric constant tensor:
#      x y z
#    x 1.658800 0.000000 0.000000 
#    y 0.000000 1.648530 0.000000 
#    z 0.000000 0.000000 1.647920 
# 
# From -- ./inp_files/5574.got.cif
#   From: 2010.05.17/outbox.cif.g08.bks.cpg/sg57_3_cif.got.tgz:5574.got - 2010.06.03 13:58:18.
