data_PCOD9438087
_publ_section_title
;
Structure prediction by ZEFSAII (Michael W. Deem and Ramdas Pophale) SiO2 
 PCOD9438087
Probable space group: P B C M
;
_chemical_formula_sum "Si O2"
_cell_formula_units_Z 48
_cell_length_a 16.321131
_cell_length_b 8.460462
_cell_length_c 17.219962
_cell_angle_alpha 90.000000
_cell_angle_beta 90.000000
_cell_angle_gamma 90.000000
_cell_volume 2377.806547
_symmetry_space_group_name_H-M "P B C M"
_symmetry_group_IT_number 57
_symmetry_cell_setting 'orthorhombic'
loop_
_space_group_symop_operation_xyz
x,y,z
-x,-y,1/2+z
x,1/2-y,-z
-x,1/2+y,1/2-z
-x,-y,-z
x,y,1/2-z
-x,1/2+y,z
x,1/2-y,1/2+z
loop_
_atom_site_type_symbol
_atom_site_label
_atom_site_fract_x
_atom_site_fract_y
_atom_site_fract_z
Si Si1 0.859761 0.091980 0.044510
Si Si2 0.016504 0.750290 0.162222
Si Si3 0.886211 0.950156 0.615680
Si Si4 0.591132 0.436284 0.484208
Si Si5 0.721071 0.636086 0.925907
Si Si6 0.302591 0.056398 0.339889
O O1 0.929650 0.154118 0.100504
O O2 0.791866 0.990585 0.088255
O O3 0.825945 0.250000 0.000000
O O4 0.892521 0.981368 0.975657
O O5 0.029464 0.697777 0.250000
O O6 0.921855 0.719704 0.139751
O O7 0.052265 0.925673 0.155113
O O8 0.792880 0.984891 0.640832
O O9 0.594153 0.250000 0.500000
O O10 0.500000 0.500000 0.500000
O O11 0.645791 0.533224 0.544867
O O12 0.633938 0.476912 0.400713
O O13 0.697343 0.755872 0.858212
O O14 0.743914 0.750000 0.000000
O O15 0.319806 0.021699 0.250000
#
# Coordination Sequence:
#
# PCOD9438087 Si02
#       6
#     8   8   8   8   8   8
#     4  10  21  38  60  88 122 168 225 275 327 405
#     4  11  24  37  55  85 125 171 225 284 341 388
#     4  11  23  42  59  86 129 178 228 282 339 401
#     4  11  23  45  75 104 134 176 219 266 333 414
#     4  10  20  38  65  93 126 168 216 262 325 403
#     4  11  24  43  68 100 140 177 222 286 345 393
#
# _framework density 20.186672000000002
#
# number of rings (size 3 to 8) (size 9 to 14) (size 15 to 20)
#    0.000    1.333    3.333    4.000    4.667    0.667 
#    0.000    4.167    0.000    0.000    0.000    0.000 
#    0.000    0.000    0.000    0.000    0.000    0.000 
#
# Total GULP energy -268033.474644 kJ/mol
# GULP energy per Si atom -5584.030722 kJ/mol
# Density = 2.014073 g / cm^3
# Si number density = 20.186672 Si / 1000 Ang^3
#
#
#
# Elastic Constant Matrix: (Units=GPa)
#
#
# Indices 1 2 3 4 5 6 
#
# 1 112.8267 61.3845 40.5643 0.0000 0.0000 0.0000
# 2 61.3845 112.8086 36.1808 0.0000 0.0000 0.0000
# 3 40.5643 36.1808 109.6996 0.0000 0.0000 0.0000
# 4 0.0000 0.0000 0.0000 25.7311 0.0000 0.0000
# 5 0.0000 0.0000 0.0000 0.0000 14.3966 0.0000
# 6 0.0000 0.0000 0.0000 0.0000 0.0000 43.4620
#
#
#
# Elastic Compliance Matrix: (Units=1/GPa)
#
#
# Indices 1 2 3 4 5 6 
#
# 1 0.013337 -0.006347 -0.002838 0.000000 0.000000 0.000000
# 2 -0.006347 0.012934 -0.001919 0.000000 0.000000 0.000000
# 3 -0.002838 -0.001919 0.010798 0.000000 0.000000 0.000000
# 4 0.000000 0.000000 0.000000 0.038863 0.000000 0.000000
# 5 0.000000 0.000000 0.000000 0.000000 0.069461 0.000000
# 6 0.000000 0.000000 0.000000 0.000000 0.000000 0.023009
#
#
# Mechanical properties :
#
#
# Convention : Reuss Voigt Hill
#
# Bulk Modulus (GPa) = 67.29198 67.95489 67.62344
# Shear Modulus (GPa) = 25.56727 29.86497 27.71612
#
# Velocity S-wave (km/s) = 3.56271 3.85052 3.70941
# Velocity P-wave (km/s) = 7.09444 7.31471 7.20542
#
# Compressibility (1/GPa) = 0.01486061
#
# Stress axis : x y z
#
# Youngs Moduli (GPa) = 74.98152 77.31819 92.60806
#
# Poissons Ratio (x) = 0.49072 0.26285
# Poissons Ratio (y) = 0.47589 0.17770
# Poissons Ratio (z) = 0.21282 0.14836
#
# Static dielectric constant tensor:
#      x y z
#    x 1.746840 0.000000 0.000000 
#    y 0.000000 1.786370 0.000000 
#    z 0.000000 0.000000 1.711150 
# 
# From -- ./inp_files/22458.got.cif
#   From: 2010.05.17/outbox.cif.g08.bks.cpg/sg57_12_cif.got.tgz:22458.got - 2010.06.03 13:58:18.
