data_PCOD9438587
_publ_section_title
;
Structure prediction by ZEFSAII (Michael W. Deem and Ramdas Pophale) SiO2 
 PCOD9438587
Probable space group: P B C M
;
_chemical_formula_sum "Si O2"
_cell_formula_units_Z 40
_cell_length_a 26.293465
_cell_length_b 9.220653
_cell_length_c 8.600487
_cell_angle_alpha 90.000000
_cell_angle_beta 90.000000
_cell_angle_gamma 90.000000
_cell_volume 2085.127155
_symmetry_space_group_name_H-M "P B C M"
_symmetry_group_IT_number 57
_symmetry_cell_setting 'orthorhombic'
loop_
_space_group_symop_operation_xyz
x,y,z
-x,-y,1/2+z
x,1/2-y,-z
-x,1/2+y,1/2-z
-x,-y,-z
x,y,1/2-z
-x,1/2+y,z
x,1/2-y,1/2+z
loop_
_atom_site_type_symbol
_atom_site_label
_atom_site_fract_x
_atom_site_fract_y
_atom_site_fract_z
Si Si1 0.242924 0.587001 0.563995
Si Si2 0.452725 0.411800 0.064515
Si Si3 0.048799 0.586202 0.936606
Si Si4 0.661440 0.585481 0.562707
Si Si5 0.146198 0.086423 0.563566
O O1 0.238934 0.750000 0.500000
O O2 0.239051 0.587704 0.750000
O O3 0.295917 0.515636 0.511203
O O4 0.197686 0.490469 0.493250
O O5 0.455423 0.409408 0.250000
O O6 0.395918 0.465624 0.022119
O O7 0.456193 0.250000 0.000000
O O8 0.500000 0.500000 0.000000
O O9 0.048174 0.587765 0.750000
O O10 0.048131 0.750000 0.000000
O O11 0.098917 0.504398 0.996959
O O12 0.000000 0.500000 0.000000
O O13 0.667245 0.750000 0.500000
O O14 0.666569 0.586958 0.750000
O O15 0.144115 0.250000 0.500000
O O16 0.144200 0.087923 0.750000
#
# Coordination Sequence:
#
# PCOD9438587 Si02
#       5
#     8   8   8   8   8
#     4  12  25  42  63  90 122 159 200 249 302 359
#     4  10  21  37  59  85 117 154 197 244 297 355
#     4  12  25  44  67  96 130 168 210 256 307 362
#     4  10  21  39  61  87 117 155 198 245 297 357
#     4  12  25  44  67  94 126 164 206 252 303 361
#
# _framework density 19.183484
#
# number of rings (size 3 to 8) (size 9 to 14) (size 15 to 20)
#    0.000    0.800    0.000    8.400    0.000    3.200 
#    0.000    0.000    0.000    0.000    0.000    0.000 
#    0.000    0.000    0.000    0.000    0.000    0.000 
#
# Total GULP energy -223875.059082 kJ/mol
# GULP energy per Si atom -5596.876477 kJ/mol
# Density = 1.913982 g / cm^3
# Si number density = 19.183484 Si / 1000 Ang^3
#
#
#
# Elastic Constant Matrix: (Units=GPa)
#
#
# Indices 1 2 3 4 5 6 
#
# 1 198.3062 111.6262 89.2861 0.0000 0.0000 0.0000
# 2 111.6262 164.8325 78.8129 0.0000 0.0000 0.0000
# 3 89.2861 78.8129 189.6793 0.0000 0.0000 0.0000
# 4 0.0000 0.0000 0.0000 42.1006 0.0000 0.0000
# 5 0.0000 0.0000 0.0000 0.0000 40.6389 0.0000
# 6 0.0000 0.0000 0.0000 0.0000 0.0000 44.4087
#
#
#
# Elastic Compliance Matrix: (Units=1/GPa)
#
#
# Indices 1 2 3 4 5 6 
#
# 1 0.008755 -0.004940 -0.002068 0.000000 0.000000 0.000000
# 2 -0.004940 0.010358 -0.001979 0.000000 0.000000 0.000000
# 3 -0.002068 -0.001979 0.007068 0.000000 0.000000 0.000000
# 4 0.000000 0.000000 0.000000 0.023753 0.000000 0.000000
# 5 0.000000 0.000000 0.000000 0.000000 0.024607 0.000000
# 6 0.000000 0.000000 0.000000 0.000000 0.000000 0.022518
#
#
# Mechanical properties :
#
#
# Convention : Reuss Voigt Hill
#
# Bulk Modulus (GPa) = 121.84869 123.58538 122.71704
# Shear Modulus (GPa) = 42.45662 43.63583 43.04622
#
# Velocity S-wave (km/s) = 4.70955 4.77451 4.74214
# Velocity P-wave (km/s) = 9.65550 9.74460 9.70015
#
# Compressibility (1/GPa) = 0.00820690
#
# Stress axis : x y z
#
# Youngs Moduli (GPa) = 114.22635 96.54376 141.48528
#
# Poissons Ratio (x) = 0.47689 0.29266
# Poissons Ratio (y) = 0.56424 0.27995
# Poissons Ratio (z) = 0.23628 0.19102
#
# Static dielectric constant tensor:
#      x y z
#    x 1.661120 0.000000 0.000000 
#    y 0.000000 1.620680 0.000000 
#    z 0.000000 0.000000 1.640280 
# 
# From -- ./inp_files/8884.got.cif
#   From: 2010.05.17/outbox.cif.g08.bks.cpg/sg57_5_cif.got.tgz:8884.got - 2010.06.03 13:58:18.
