data_PCOD9438934
_publ_section_title
;
Structure prediction by ZEFSAII (Michael W. Deem and Ramdas Pophale) SiO2 
 PCOD9438934
Probable space group: P B C M
;
_chemical_formula_sum "Si O2"
_cell_formula_units_Z 48
_cell_length_a 15.366161
_cell_length_b 19.572541
_cell_length_c 8.670002
_cell_angle_alpha 90.000000
_cell_angle_beta 90.000000
_cell_angle_gamma 90.000000
_cell_volume 2607.544858
_symmetry_space_group_name_H-M "P B C M"
_symmetry_group_IT_number 57
_symmetry_cell_setting 'orthorhombic'
loop_
_space_group_symop_operation_xyz
x,y,z
-x,-y,1/2+z
x,1/2-y,-z
-x,1/2+y,1/2-z
-x,-y,-z
x,y,1/2-z
-x,1/2+y,z
x,1/2-y,1/2+z
loop_
_atom_site_type_symbol
_atom_site_label
_atom_site_fract_x
_atom_site_fract_y
_atom_site_fract_z
Si Si1 0.625336 0.324744 0.933888
Si Si2 0.276058 0.090305 0.065136
Si Si3 0.038540 0.570448 0.564184
Si Si4 0.238584 0.567784 0.564088
Si Si5 0.434528 0.325350 0.065600
Si Si6 0.888005 0.826265 0.064631
O O1 0.618385 0.320827 0.750000
O O2 0.648441 0.250000 0.000000
O O3 0.696140 0.379815 0.984918
O O4 0.530703 0.342455 0.003664
O O5 0.278605 0.097356 0.250000
O O6 0.263369 0.010491 0.027917
O O7 0.363337 0.121441 0.993543
O O8 0.194425 0.132568 0.000394
O O9 0.038220 0.565859 0.750000
O O10 0.138502 0.579564 0.515646
O O11 0.000000 0.500000 0.500000
O O12 0.974876 0.632139 0.519170
O O13 0.244066 0.576193 0.750000
O O14 0.435367 0.322539 0.250000
O O15 0.412471 0.250000 0.000000
O O16 0.882627 0.824495 0.250000
O O17 0.888744 0.750000 0.000000
#
# Coordination Sequence:
#
# PCOD9438934 Si02
#       6
#     8   8   8   8   8   8
#     4  11  23  41  64  89 119 156 200 248 299 356
#     4  11  22  38  61  88 122 159 198 245 299 357
#     4  10  21  39  62  87 118 157 200 246 298 355
#     4  10  22  40  62  89 121 158 199 246 300 356
#     4  11  22  39  62  87 120 158 200 247 299 357
#     4  11  23  38  59  88 122 157 202 249 298 356
#
# _framework density 18.40812
#
# number of rings (size 3 to 8) (size 9 to 14) (size 15 to 20)
#    0.000    1.333    1.667    5.500    0.000    4.000 
#    0.000    1.667    0.000    0.000    0.000    0.000 
#    0.000    0.000    0.000    0.000    0.000    0.000 
#
# Total GULP energy -268387.848731 kJ/mol
# GULP energy per Si atom -5591.413515 kJ/mol
# Density = 1.836622 g / cm^3
# Si number density = 18.408120 Si / 1000 Ang^3
#
#
#
# Elastic Constant Matrix: (Units=GPa)
#
#
# Indices 1 2 3 4 5 6 
#
# 1 162.6486 125.1273 74.2055 0.0000 0.0000 0.0000
# 2 125.1273 159.1758 79.7028 0.0000 0.0000 0.0000
# 3 74.2055 79.7028 102.6713 0.0000 0.0000 0.0000
# 4 0.0000 0.0000 0.0000 29.8185 0.0000 0.0000
# 5 0.0000 0.0000 0.0000 0.0000 3.0710 0.0000
# 6 0.0000 0.0000 0.0000 0.0000 0.0000 39.6038
#
#
#
# Elastic Compliance Matrix: (Units=1/GPa)
#
#
# Indices 1 2 3 4 5 6 
#
# 1 0.016087 -0.011164 -0.002961 0.000000 0.000000 0.000000
# 2 -0.011164 0.018024 -0.005923 0.000000 0.000000 0.000000
# 3 -0.002961 -0.005923 0.016478 0.000000 0.000000 0.000000
# 4 0.000000 0.000000 0.000000 0.033536 0.000000 0.000000
# 5 0.000000 0.000000 0.000000 0.000000 0.325629 0.000000
# 6 0.000000 0.000000 0.000000 0.000000 0.000000 0.025250
#
#
# Mechanical properties :
#
#
# Convention : Reuss Voigt Hill
#
# Bulk Modulus (GPa) = 95.29581 109.17409 102.23495
# Shear Modulus (GPa) = 10.44718 24.19600 17.32159
#
# Velocity S-wave (km/s) = 2.38488 3.62943 3.07086
# Velocity P-wave (km/s) = 7.71131 8.77496 8.26027
#
# Compressibility (1/GPa) = 0.01049364
#
# Stress axis : x y z
#
# Youngs Moduli (GPa) = 62.16067 55.48166 60.68664
#
# Poissons Ratio (x) = 0.61937 0.17969
# Poissons Ratio (y) = 0.69394 0.35947
# Poissons Ratio (z) = 0.18405 0.32864
#
# Static dielectric constant tensor:
#      x y z
#    x 1.616310 0.000000 0.000000 
#    y 0.000000 1.597890 0.000000 
#    z 0.000000 0.000000 1.630720 
# 
# From -- ./inp_files/4688.got.cif
#   From: 2010.05.17/outbox.cif.g08.bks.cpg/sg57_3_cif.got.tgz:4688.got - 2010.06.03 13:58:18.
