data_PCOD9438372
_publ_section_title
;
Structure prediction by ZEFSAII (Michael W. Deem and Ramdas Pophale) SiO2 
 PCOD9438372
Probable space group: P B C M
;
_chemical_formula_sum "Si O2"
_cell_formula_units_Z 64
_cell_length_a 28.808252
_cell_length_b 5.439209
_cell_length_c 19.130435
_cell_angle_alpha 90.000000
_cell_angle_beta 90.000000
_cell_angle_gamma 90.000000
_cell_volume 2997.626363
_symmetry_space_group_name_H-M "P B C M"
_symmetry_group_IT_number 57
_symmetry_cell_setting 'orthorhombic'
loop_
_space_group_symop_operation_xyz
x,y,z
-x,-y,1/2+z
x,1/2-y,-z
-x,1/2+y,1/2-z
-x,-y,-z
x,y,1/2-z
-x,1/2+y,z
x,1/2-y,1/2+z
loop_
_atom_site_type_symbol
_atom_site_label
_atom_site_fract_x
_atom_site_fract_y
_atom_site_fract_z
Si Si1 0.970441 0.842188 0.431165
Si Si2 0.473827 0.102568 0.664583
Si Si3 0.193142 0.038509 0.671820
Si Si4 0.367711 0.124448 0.833915
Si Si5 0.148191 0.857245 0.428209
Si Si6 0.902131 0.841406 0.826837
Si Si7 0.757758 0.868499 0.571523
Si Si8 0.687772 0.372107 0.164977
O O1 0.941671 0.750000 0.500000
O O2 0.939216 0.833599 0.362305
O O3 0.007130 0.613271 0.432155
O O4 0.473521 0.102633 0.750000
O O5 0.499209 0.850371 0.643199
O O6 0.420549 0.109521 0.639885
O O7 0.204762 0.953935 0.750000
O O8 0.174557 0.831457 0.621465
O O9 0.149032 0.221772 0.677491
O O10 0.235371 0.172649 0.633974
O O11 0.370575 0.114729 0.750000
O O12 0.338221 0.882088 0.852538
O O13 0.344079 0.386676 0.849276
O O14 0.130702 0.750000 0.500000
O O15 0.105533 0.946076 0.382282
O O16 0.189767 0.045252 0.446777
O O17 0.915948 0.923120 0.750000
O O18 0.738197 0.750000 0.500000
O O19 0.729674 0.084418 0.610244
O O20 0.698838 0.373987 0.250000
#
# Coordination Sequence:
#
# PCOD9438372 Si02
#       8
#     8   8   8   8   8   8   8   8
#     4  10  24  43  66  96 129 168 210 252 304 368
#     4   9  15  24  43  70 104 144 183 233 294 357
#     4  10  22  40  61  89 121 152 196 250 304 365
#     4   9  18  32  48  75 111 150 195 237 296 366
#     4  11  23  38  65  90 119 160 200 256 310 365
#     4  10  24  41  63  94 125 161 205 257 312 370
#     4  11  23  39  56  85 115 153 204 249 300 359
#     4  10  21  35  54  77 112 157 194 241 297 356
#
# _framework density 21.350227
#
# number of rings (size 3 to 8) (size 9 to 14) (size 15 to 20)
#    0.000    2.000    1.250    1.500    5.250    5.500 
#    0.000    0.000    0.000    0.000    0.000    0.000 
#    0.000   10.000    0.000    0.000    0.000    0.000 
#
# Total GULP energy -357059.156806 kJ/mol
# GULP energy per Si atom -5579.049325 kJ/mol
# Density = 2.130163 g / cm^3
# Si number density = 21.350227 Si / 1000 Ang^3
#
#
#
# Elastic Constant Matrix: (Units=GPa)
#
#
# Indices 1 2 3 4 5 6 
#
# 1 47.8306 23.4595 24.0284 0.0000 0.0000 0.0000
# 2 23.4595 105.0179 24.8649 0.0000 0.0000 0.0000
# 3 24.0284 24.8649 120.2825 0.0000 0.0000 0.0000
# 4 0.0000 0.0000 0.0000 18.5769 0.0000 0.0000
# 5 0.0000 0.0000 0.0000 0.0000 14.5369 0.0000
# 6 0.0000 0.0000 0.0000 0.0000 0.0000 37.6100
#
#
#
# Elastic Compliance Matrix: (Units=1/GPa)
#
#
# Indices 1 2 3 4 5 6 
#
# 1 0.025248 -0.004675 -0.004077 0.000000 0.000000 0.000000
# 2 -0.004675 0.010878 -0.001315 0.000000 0.000000 0.000000
# 3 -0.004077 -0.001315 0.009400 0.000000 0.000000 0.000000
# 4 0.000000 0.000000 0.000000 0.053830 0.000000 0.000000
# 5 0.000000 0.000000 0.000000 0.000000 0.068790 0.000000
# 6 0.000000 0.000000 0.000000 0.000000 0.000000 0.026589
#
#
# Mechanical properties :
#
#
# Convention : Reuss Voigt Hill
#
# Bulk Modulus (GPa) = 39.38204 46.42628 42.90416
# Shear Modulus (GPa) = 22.38806 27.52998 24.95902
#
# Velocity S-wave (km/s) = 3.24174 3.59478 3.42281
# Velocity P-wave (km/s) = 5.70067 6.24678 5.97996
#
# Compressibility (1/GPa) = 0.02539229
#
# Stress axis : x y z
#
# Youngs Moduli (GPa) = 39.60671 91.93082 106.38198
#
# Poissons Ratio (x) = 0.42975 0.43376
# Poissons Ratio (y) = 0.18515 0.13987
# Poissons Ratio (z) = 0.16149 0.12087
#
# Static dielectric constant tensor:
#      x y z
#    x 1.822060 0.000000 0.000000 
#    y 0.000000 1.821940 0.000000 
#    z 0.000000 0.000000 1.736650 
# 
# From -- ./inp_files/25903.got.cif
#   From: 2010.05.17/outbox.cif.g08.bks.cpg/sg57_13_cif.got.tgz:25903.got - 2010.06.03 13:58:18.
