data_PCOD9438709
_publ_section_title
;
Structure prediction by ZEFSAII (Michael W. Deem and Ramdas Pophale) SiO2 
 PCOD9438709
Probable space group: P B C M
;
_chemical_formula_sum "Si O2"
_cell_formula_units_Z 32
_cell_length_a 7.192081
_cell_length_b 10.027965
_cell_length_c 18.752138
_cell_angle_alpha 90.000000
_cell_angle_beta 90.000000
_cell_angle_gamma 90.000000
_cell_volume 1352.440507
_symmetry_space_group_name_H-M "P B C M"
_symmetry_group_IT_number 57
_symmetry_cell_setting 'orthorhombic'
loop_
_space_group_symop_operation_xyz
x,y,z
-x,-y,1/2+z
x,1/2-y,-z
-x,1/2+y,1/2-z
-x,-y,-z
x,y,1/2-z
-x,1/2+y,z
x,1/2-y,1/2+z
loop_
_atom_site_type_symbol
_atom_site_label
_atom_site_fract_x
_atom_site_fract_y
_atom_site_fract_z
Si Si1 0.016616 0.750000 0.500000
Si Si2 0.128057 0.316480 0.750000
Si Si3 0.000000 0.000000 0.500000
Si Si4 0.788090 0.512807 0.750000
Si Si5 0.697336 0.841991 0.596261
Si Si6 0.634025 0.967308 0.095413
O O1 0.881916 0.853762 0.544962
O O2 0.089760 0.864373 0.450999
O O3 0.237534 0.352947 0.822469
O O4 0.935025 0.393961 0.750000
O O5 0.108562 0.156297 0.750000
O O6 0.181459 0.982601 0.556328
O O7 0.664890 0.509425 0.820622
O O8 0.545171 0.948047 0.574765
O O9 0.624004 0.692014 0.583685
#
# Coordination Sequence:
#
# PCOD9438709 Si02
#       6
#     4   4   4   4   8   8
#     4  10  22  38  56  86 116 152 196 242 292 354
#     4  10  21  38  58  86 118 152 197 244 292 356
#     4  10  22  38  58  84 118 154 198 242 294 352
#     4  10  21  38  60  86 120 156 197 244 296 350
#     4  10  22  38  58  85 117 150 197 245 293 351
#     4  10  22  39  60  88 119 156 198 245 296 352
#
# _framework density 23.660931999999999
#
# number of rings (size 3 to 8) (size 9 to 14) (size 15 to 20)
#    0.000    2.000    0.000    2.250    0.000    9.000 
#    0.000    0.000    0.000    0.000    0.000    0.000 
#    0.000    0.000    0.000    0.000    0.000    0.000 
#
# Total GULP energy -178342.601464 kJ/mol
# GULP energy per Si atom -5573.206296 kJ/mol
# Density = 2.360708 g / cm^3
# Si number density = 23.660932 Si / 1000 Ang^3
#
#
#
# Elastic Constant Matrix: (Units=GPa)
#
#
# Indices 1 2 3 4 5 6 
#
# 1 109.6419 78.8074 38.5034 0.0000 0.0000 0.0000
# 2 78.8074 139.8810 7.1398 0.0000 0.0000 0.0000
# 3 38.5034 7.1398 132.9228 0.0000 0.0000 0.0000
# 4 0.0000 0.0000 0.0000 32.9760 0.0000 0.0000
# 5 0.0000 0.0000 0.0000 0.0000 23.1235 0.0000
# 6 0.0000 0.0000 0.0000 0.0000 0.0000 49.2819
#
#
#
# Elastic Compliance Matrix: (Units=1/GPa)
#
#
# Indices 1 2 3 4 5 6 
#
# 1 0.017770 -0.009776 -0.004622 0.000000 0.000000 0.000000
# 2 -0.009776 0.012546 0.002158 0.000000 0.000000 0.000000
# 3 -0.004622 0.002158 0.008746 0.000000 0.000000 0.000000
# 4 0.000000 0.000000 0.000000 0.030325 0.000000 0.000000
# 5 0.000000 0.000000 0.000000 0.000000 0.043246 0.000000
# 6 0.000000 0.000000 0.000000 0.000000 0.000000 0.020291
#
#
# Mechanical properties :
#
#
# Convention : Reuss Voigt Hill
#
# Bulk Modulus (GPa) = 68.57638 70.14967 69.36303
# Shear Modulus (GPa) = 30.81345 38.27595 34.54470
#
# Velocity S-wave (km/s) = 3.61264 4.02641 3.82513
# Velocity P-wave (km/s) = 6.81524 7.16437 6.99198
#
# Compressibility (1/GPa) = 0.01458228
#
# Stress axis : x y z
#
# Youngs Moduli (GPa) = 56.27353 79.70475 114.33506
#
# Poissons Ratio (x) = 0.77917 0.52850
# Poissons Ratio (y) = 0.55011 -0.24671
# Poissons Ratio (z) = 0.26012 -0.17199
#
# Static dielectric constant tensor:
#      x y z
#    x 1.985790 0.000000 0.000000 
#    y 0.000000 2.152360 0.000000 
#    z 0.000000 0.000000 1.941700 
# 
# From -- ./inp_files/23403.got.cif
#   From: 2010.05.17/outbox.cif.g08.bks.cpg/sg57_12_cif.got.tgz:23403.got - 2010.06.03 13:58:18.
