data_PCOD9438118
_publ_section_title
;
Structure prediction by ZEFSAII (Michael W. Deem and Ramdas Pophale) SiO2 
 PCOD9438118
Probable space group: P B C M
;
_chemical_formula_sum "Si O2"
_cell_formula_units_Z 52
_cell_length_a 7.906032
_cell_length_b 21.964650
_cell_length_c 14.467110
_cell_angle_alpha 90.000000
_cell_angle_beta 90.000000
_cell_angle_gamma 90.000000
_cell_volume 2512.260319
_symmetry_space_group_name_H-M "P B C M"
_symmetry_group_IT_number 57
_symmetry_cell_setting 'orthorhombic'
loop_
_space_group_symop_operation_xyz
x,y,z
-x,-y,1/2+z
x,1/2-y,-z
-x,1/2+y,1/2-z
-x,-y,-z
x,y,1/2-z
-x,1/2+y,z
x,1/2-y,1/2+z
loop_
_atom_site_type_symbol
_atom_site_label
_atom_site_fract_x
_atom_site_fract_y
_atom_site_fract_z
Si Si1 0.950134 0.085640 0.750000
Si Si2 0.844155 0.619123 0.060991
Si Si3 0.082666 0.449559 0.750000
Si Si4 0.435973 0.827231 0.138601
Si Si5 0.738056 0.992382 0.250000
Si Si6 0.767014 0.754668 0.639676
Si Si7 0.415840 0.451480 0.066727
Si Si8 0.916707 0.326593 0.077645
O O1 0.915706 0.123181 0.841298
O O2 0.149640 0.069693 0.750000
O O3 0.860033 0.020195 0.750000
O O4 0.863657 0.582744 0.156129
O O5 0.748828 0.681501 0.087397
O O6 0.743915 0.579127 0.985881
O O7 0.021605 0.640524 0.015595
O O8 0.878422 0.455303 0.750000
O O9 0.407885 0.829078 0.250000
O O10 0.605102 0.787901 0.124222
O O11 0.470311 0.894833 0.099727
O O12 0.272107 0.800945 0.085914
O O13 0.634761 0.989076 0.342755
O O14 0.784497 0.764718 0.750000
O O15 0.936892 0.721307 0.604172
O O16 0.500000 0.500000 0.000000
#
# Coordination Sequence:
#
# PCOD9438118 Si02
#       8
#     4   8   4   8   4   8   8   8
#     4  10  20  38  72  99 135 173 235 292 340 427
#     4  12  25  47  69 101 145 190 232 301 364 417
#     4  10  26  40  68  99 138 188 233 283 364 418
#     4  11  24  43  73 106 137 185 239 292 355 427
#     4  10  22  46  66  98 147 185 234 293 346 437
#     4  11  23  48  73  99 146 186 237 298 360 421
#     4  12  27  42  71 102 144 189 234 294 364 431
#     4  12  23  42  75 106 130 185 243 290 345 434
#
# _framework density 20.698492000000002
#
# number of rings (size 3 to 8) (size 9 to 14) (size 15 to 20)
#    0.462    0.308    6.154    0.462    4.308    1.846 
#    5.538    0.000    0.000    0.000    0.000    0.000 
#    0.000    0.000    0.000    0.000    0.000    0.000 
#
# Total GULP energy -290640.483572 kJ/mol
# GULP energy per Si atom -5589.240069 kJ/mol
# Density = 2.065138 g / cm^3
# Si number density = 20.698492 Si / 1000 Ang^3
#
#
#
# Elastic Constant Matrix: (Units=GPa)
#
#
# Indices 1 2 3 4 5 6 
#
# 1 101.9049 20.5345 27.1517 0.0000 0.0000 0.0000
# 2 20.5345 95.8444 39.6307 0.0000 0.0000 0.0000
# 3 27.1517 39.6307 136.4604 0.0000 0.0000 0.0000
# 4 0.0000 0.0000 0.0000 21.7960 0.0000 0.0000
# 5 0.0000 0.0000 0.0000 0.0000 1.4363 0.0000
# 6 0.0000 0.0000 0.0000 0.0000 0.0000 12.8857
#
#
#
# Elastic Compliance Matrix: (Units=1/GPa)
#
#
# Indices 1 2 3 4 5 6 
#
# 1 0.010570 -0.001585 -0.001643 0.000000 0.000000 0.000000
# 2 -0.001585 0.012095 -0.003197 0.000000 0.000000 0.000000
# 3 -0.001643 -0.003197 0.008584 0.000000 0.000000 0.000000
# 4 0.000000 0.000000 0.000000 0.045880 0.000000 0.000000
# 5 0.000000 0.000000 0.000000 0.000000 0.696238 0.000000
# 6 0.000000 0.000000 0.000000 0.000000 0.000000 0.077605
#
#
# Mechanical properties :
#
#
# Convention : Reuss Voigt Hill
#
# Bulk Modulus (GPa) = 54.35297 56.53818 55.44557
# Shear Modulus (GPa) = 5.74742 23.68313 14.71527
#
# Velocity S-wave (km/s) = 1.66816 3.38627 2.66923
# Velocity P-wave (km/s) = 5.47967 6.53173 6.02869
#
# Compressibility (1/GPa) = 0.01839826
#
# Stress axis : x y z
#
# Youngs Moduli (GPa) = 94.60532 82.67686 116.50206
#
# Poissons Ratio (x) = 0.13108 0.19138
# Poissons Ratio (y) = 0.14999 0.37249
# Poissons Ratio (z) = 0.15541 0.26434
#
# Static dielectric constant tensor:
#      x y z
#    x 1.788380 0.000000 0.000000 
#    y 0.000000 1.720780 0.000000 
#    z 0.000000 0.000000 1.737870 
# 
# From -- ./inp_files/16680.got.cif
#   From: 2010.05.17/outbox.cif.g08.bks.cpg/sg57_9_cif.got.tgz:16680.got - 2010.06.03 13:58:18.
