data_PCOD9438518
_publ_section_title
;
Structure prediction by ZEFSAII (Michael W. Deem and Ramdas Pophale) SiO2 
 PCOD9438518
Probable space group: P B C M
;
_chemical_formula_sum "Si O2"
_cell_formula_units_Z 64
_cell_length_a 15.489374
_cell_length_b 23.876543
_cell_length_c 8.699299
_cell_angle_alpha 90.000000
_cell_angle_beta 90.000000
_cell_angle_gamma 90.000000
_cell_volume 3217.285275
_symmetry_space_group_name_H-M "P B C M"
_symmetry_group_IT_number 57
_symmetry_cell_setting 'orthorhombic'
loop_
_space_group_symop_operation_xyz
x,y,z
-x,-y,1/2+z
x,1/2-y,-z
-x,1/2+y,1/2-z
-x,-y,-z
x,y,1/2-z
-x,1/2+y,z
x,1/2-y,1/2+z
loop_
_atom_site_type_symbol
_atom_site_label
_atom_site_fract_x
_atom_site_fract_y
_atom_site_fract_z
Si Si1 0.475387 0.812717 0.431760
Si Si2 0.205216 0.188650 0.429862
Si Si3 0.316661 0.878016 0.930837
Si Si4 0.095476 0.993896 0.427658
Si Si5 0.626596 0.888624 0.929197
Si Si6 0.032952 0.187997 0.932958
Si Si7 0.278391 0.492398 0.066296
Si Si8 0.876132 0.377149 0.570849
O O1 0.481819 0.750000 0.500000
O O2 0.483848 0.808125 0.250000
O O3 0.385408 0.842276 0.476668
O O4 0.549167 0.854132 0.495315
O O5 0.224292 0.250000 0.500000
O O6 0.181573 0.195105 0.250000
O O7 0.288984 0.150522 0.440764
O O8 0.124818 0.161489 0.520594
O O9 0.340418 0.876743 0.750000
O O10 0.219977 0.853306 0.945620
O O11 0.307027 0.943852 0.976000
O O12 0.091270 0.010051 0.250000
O O13 0.115047 0.928668 0.455193
O O14 0.181847 0.020557 0.502082
O O15 0.000000 0.000000 0.500000
O O16 0.606976 0.898126 0.750000
O O17 0.653344 0.947166 0.006254
O O18 0.020123 0.186515 0.750000
O O19 0.042248 0.250000 0.000000
O O20 0.953522 0.162544 0.024981
O O21 0.273210 0.490855 0.250000
O O22 0.883657 0.396047 0.750000
#
# Coordination Sequence:
#
# PCOD9438518 Si02
#       8
#     8   8   8   8   8   8   8   8
#     4  12  26  44  69  97 126 162 206 260 318 383
#     4  10  21  37  57  82 116 158 203 254 311 369
#     4   9  21  43  67  91 124 163 205 259 314 373
#     4  11  22  37  58  86 122 164 209 256 305 361
#     4  11  24  41  64  93 127 165 208 259 313 378
#     4  11  22  36  56  83 117 159 204 252 306 369
#     4  10  22  41  64  93 128 167 212 259 315 375
#     4  10  21  39  61  86 119 157 201 254 307 364
#
# _framework density 19.892548000000001
#
# number of rings (size 3 to 8) (size 9 to 14) (size 15 to 20)
#    0.000    1.500    0.000    6.750    1.750    7.000 
#    0.000    0.000    0.000    0.000    0.000    0.000 
#    0.000    0.000    0.000    0.000    0.000    0.000 
#
# Total GULP energy -357412.414923 kJ/mol
# GULP energy per Si atom -5584.568983 kJ/mol
# Density = 1.984727 g / cm^3
# Si number density = 19.892548 Si / 1000 Ang^3
#
#
#
# Elastic Constant Matrix: (Units=GPa)
#
#
# Indices 1 2 3 4 5 6 
#
# 1 85.3324 8.2652 36.0612 0.0000 0.0000 0.0000
# 2 8.2652 22.7949 11.4970 0.0000 0.0000 0.0000
# 3 36.0612 11.4970 102.5966 0.0000 0.0000 0.0000
# 4 0.0000 0.0000 0.0000 30.9045 0.0000 0.0000
# 5 0.0000 0.0000 0.0000 0.0000 37.6558 0.0000
# 6 0.0000 0.0000 0.0000 0.0000 0.0000 31.7195
#
#
#
# Elastic Compliance Matrix: (Units=1/GPa)
#
#
# Indices 1 2 3 4 5 6 
#
# 1 0.013922 -0.002735 -0.004587 0.000000 0.000000 0.000000
# 2 -0.002735 0.047035 -0.004310 0.000000 0.000000 0.000000
# 3 -0.004587 -0.004310 0.011842 0.000000 0.000000 0.000000
# 4 0.000000 0.000000 0.000000 0.032358 0.000000 0.000000
# 5 0.000000 0.000000 0.000000 0.000000 0.026556 0.000000
# 6 0.000000 0.000000 0.000000 0.000000 0.000000 0.031526
#
#
# Mechanical properties :
#
#
# Convention : Reuss Voigt Hill
#
# Bulk Modulus (GPa) = 20.18707 35.81896 28.00302
# Shear Modulus (GPa) = 24.62889 30.38267 27.50578
#
# Velocity S-wave (km/s) = 3.52248 3.91236 3.72253
# Velocity P-wave (km/s) = 5.16855 6.20113 5.70824
#
# Compressibility (1/GPa) = 0.04953666
#
# Stress axis : x y z
#
# Youngs Moduli (GPa) = 71.82775 21.26098 84.44446
#
# Poissons Ratio (x) = 0.05814 0.38735
# Poissons Ratio (y) = 0.19641 0.36392
# Poissons Ratio (z) = 0.32947 0.09163
#
# Static dielectric constant tensor:
#      x y z
#    x 1.734050 0.000000 0.000000 
#    y 0.000000 1.743050 0.000000 
#    z 0.000000 0.000000 1.687240 
# 
# From -- ./inp_files/5757.got.cif
#   From: 2010.05.17/outbox.cif.g08.bks.cpg/sg57_3_cif.got.tgz:5757.got - 2010.06.03 13:58:18.
