data_PCOD9438276
_publ_section_title
;
Structure prediction by ZEFSAII (Michael W. Deem and Ramdas Pophale) SiO2 
 PCOD9438276
Probable space group: P B C M
;
_chemical_formula_sum "Si O2"
_cell_formula_units_Z 64
_cell_length_a 12.020655
_cell_length_b 15.105216
_cell_length_c 18.331385
_cell_angle_alpha 90.000000
_cell_angle_beta 90.000000
_cell_angle_gamma 90.000000
_cell_volume 3328.513720
_symmetry_space_group_name_H-M "P B C M"
_symmetry_group_IT_number 57
_symmetry_cell_setting 'orthorhombic'
loop_
_space_group_symop_operation_xyz
x,y,z
-x,-y,1/2+z
x,1/2-y,-z
-x,1/2+y,1/2-z
-x,-y,-z
x,y,1/2-z
-x,1/2+y,z
x,1/2-y,1/2+z
loop_
_atom_site_type_symbol
_atom_site_label
_atom_site_fract_x
_atom_site_fract_y
_atom_site_fract_z
Si Si1 0.245141 0.243867 0.667938
Si Si2 0.042281 0.558080 0.664598
Si Si3 0.497296 0.695450 0.836748
Si Si4 0.480808 0.991423 0.414376
Si Si5 0.357273 0.871509 0.837764
Si Si6 0.270132 0.451717 0.831319
Si Si7 0.970618 0.772393 0.415350
Si Si8 0.901541 0.386181 0.662616
O O1 0.217875 0.211429 0.750000
O O2 0.373506 0.221922 0.653689
O O3 0.235050 0.349806 0.667798
O O4 0.155726 0.209976 0.610768
O O5 0.027034 0.584717 0.750000
O O6 0.162175 0.511726 0.659297
O O7 0.035745 0.640956 0.611291
O O8 0.950548 0.483367 0.646140
O O9 0.480301 0.676968 0.750000
O O10 0.477783 0.608760 0.884684
O O11 0.418364 0.778627 0.856184
O O12 0.500000 0.000000 0.500000
O O13 0.575833 0.048118 0.373769
O O14 0.363114 0.032370 0.390926
O O15 0.363859 0.880562 0.750000
O O16 0.227425 0.874161 0.858722
O O17 0.318291 0.469433 0.750000
O O18 0.975753 0.750000 0.500000
O O19 0.022578 0.688614 0.373456
O O20 0.909110 0.375702 0.750000
#
# Coordination Sequence:
#
# PCOD9438276 Si02
#       8
#     8   8   8   8   8   8   8   8
#     4  10  20  41  68  90 119 160 215 268 302 355
#     4  10  22  41  69  96 120 164 222 267 307 365
#     4  10  22  41  68  94 119 164 222 267 308 366
#     4  12  26  40  60  95 134 170 199 254 323 393
#     4  10  22  43  66  91 125 165 216 270 310 361
#     4  10  20  41  69  90 117 162 219 268 301 357
#     4  12  26  40  60  95 134 170 199 254 321 391
#     4  10  22  43  66  91 125 165 217 271 310 359
#
# _framework density 19.227800999999999
#
# number of rings (size 3 to 8) (size 9 to 14) (size 15 to 20)
#    0.000    1.500    2.500    2.250    3.500    3.000 
#    0.000    0.000    0.000    0.000    0.000    0.000 
#    0.000    0.000    0.000    0.000    0.000    0.000 
#
# Total GULP energy -357611.750141 kJ/mol
# GULP energy per Si atom -5587.683596 kJ/mol
# Density = 1.918404 g / cm^3
# Si number density = 19.227801 Si / 1000 Ang^3
#
#
#
# Elastic Constant Matrix: (Units=GPa)
#
#
# Indices 1 2 3 4 5 6 
#
# 1 67.9771 -10.1783 19.8051 0.0000 0.0000 0.0000
# 2 -10.1783 36.4559 19.1439 0.0000 0.0000 0.0000
# 3 19.8051 19.1439 45.2366 0.0000 0.0000 0.0000
# 4 0.0000 0.0000 0.0000 57.9699 0.0000 0.0000
# 5 0.0000 0.0000 0.0000 0.0000 14.5074 0.0000
# 6 0.0000 0.0000 0.0000 0.0000 0.0000 25.5797
#
#
#
# Elastic Compliance Matrix: (Units=1/GPa)
#
#
# Indices 1 2 3 4 5 6 
#
# 1 0.021205 0.013880 -0.015158 0.000000 0.000000 0.000000
# 2 0.013880 0.044354 -0.024847 0.000000 0.000000 0.000000
# 3 -0.015158 -0.024847 0.039258 0.000000 0.000000 0.000000
# 4 0.000000 0.000000 0.000000 0.017250 0.000000 0.000000
# 5 0.000000 0.000000 0.000000 0.000000 0.068930 0.000000
# 6 0.000000 0.000000 0.000000 0.000000 0.000000 0.039093
#
#
# Mechanical properties :
#
#
# Convention : Reuss Voigt Hill
#
# Bulk Modulus (GPa) = 19.02340 23.02343 21.02342
# Shear Modulus (GPa) = 16.67428 27.67133 22.17281
#
# Velocity S-wave (km/s) = 2.94801 3.79770 3.39951
# Velocity P-wave (km/s) = 4.63712 5.58839 5.13483
#
# Compressibility (1/GPa) = 0.05256683
#
# Stress axis : x y z
#
# Youngs Moduli (GPa) = 47.15765 22.54606 25.47276
#
# Poissons Ratio (x) = -0.31295 0.38612
# Poissons Ratio (y) = -0.65457 0.63293
# Poissons Ratio (z) = 0.71482 0.56021
#
# Static dielectric constant tensor:
#      x y z
#    x 1.677820 0.000000 0.000000 
#    y 0.000000 1.655960 0.000000 
#    z 0.000000 0.000000 1.645080 
# 
# From -- ./inp_files/22088.got.cif
#   From: 2010.05.17/outbox.cif.g08.bks.cpg/sg57_12_cif.got.tgz:22088.got - 2010.06.03 13:58:18.
