data_PCOD9438121
_publ_section_title
;
Structure prediction by ZEFSAII (Michael W. Deem and Ramdas Pophale) SiO2 
 PCOD9438121
Probable space group: P B C M
;
_chemical_formula_sum "Si O2"
_cell_formula_units_Z 40
_cell_length_a 22.857968
_cell_length_b 8.531613
_cell_length_c 10.255754
_cell_angle_alpha 90.000000
_cell_angle_beta 90.000000
_cell_angle_gamma 90.000000
_cell_volume 2000.029322
_symmetry_space_group_name_H-M "P B C M"
_symmetry_group_IT_number 57
_symmetry_cell_setting 'orthorhombic'
loop_
_space_group_symop_operation_xyz
x,y,z
-x,-y,1/2+z
x,1/2-y,-z
-x,1/2+y,1/2-z
-x,-y,-z
x,y,1/2-z
-x,1/2+y,z
x,1/2-y,1/2+z
loop_
_atom_site_type_symbol
_atom_site_label
_atom_site_fract_x
_atom_site_fract_y
_atom_site_fract_z
Si Si1 0.919559 0.011314 0.250000
Si Si2 0.625743 0.562152 0.018201
Si Si3 0.752572 0.609418 0.101793
Si Si4 0.548810 0.427560 0.250000
Si Si5 0.868099 0.064425 0.521510
Si Si6 0.420445 0.938105 0.750000
Si Si7 0.952929 0.119532 0.750000
O O1 0.883286 0.987182 0.382475
O O2 0.939202 0.194709 0.250000
O O3 0.978429 0.910762 0.250000
O O4 0.690716 0.526986 0.071356
O O5 0.578489 0.504322 0.122861
O O6 0.621202 0.750000 0.000000
O O7 0.614748 0.481451 0.879870
O O8 0.750386 0.668071 0.250000
O O9 0.808922 0.501822 0.082024
O O10 0.757621 0.750000 0.000000
O O11 0.561950 0.243411 0.250000
O O12 0.480039 0.461075 0.250000
O O13 0.860953 0.250000 0.500000
O O14 0.921664 0.046859 0.622700
#
# Coordination Sequence:
#
# PCOD9438121 Si02
#       7
#     4   8   8   4   8   4   4
#     4  10  22  35  60  91 121 166 208 256 319 382
#     4  11  24  44  68  95 133 174 215 269 328 383
#     4  11  25  44  68  95 128 166 213 264 319 380
#     4  12  24  45  66 101 135 172 222 266 325 386
#     4  10  22  40  63  90 127 167 208 262 320 377
#     4  12  26  41  70  99 133 174 218 270 321 390
#     4  10  20  39  58  87 127 162 210 260 317 374
#
# _framework density 19.999706
#
# number of rings (size 3 to 8) (size 9 to 14) (size 15 to 20)
#    0.000    1.200    2.000    3.600    5.600    3.200 
#    0.000    0.000    0.000    0.000    0.000    0.000 
#    0.000    0.000    0.000    0.000    0.000    0.000 
#
# Total GULP energy -223746.114550 kJ/mol
# GULP energy per Si atom -5593.652864 kJ/mol
# Density = 1.995419 g / cm^3
# Si number density = 19.999706 Si / 1000 Ang^3
#
#
#
# Elastic Constant Matrix: (Units=GPa)
#
#
# Indices 1 2 3 4 5 6 
#
# 1 76.9610 10.3144 33.1370 0.0000 0.0000 0.0000
# 2 10.3144 47.9525 20.7730 0.0000 0.0000 0.0000
# 3 33.1370 20.7730 164.9257 0.0000 0.0000 0.0000
# 4 0.0000 0.0000 0.0000 34.0761 0.0000 0.0000
# 5 0.0000 0.0000 0.0000 0.0000 86.7482 0.0000
# 6 0.0000 0.0000 0.0000 0.0000 0.0000 18.2885
#
#
#
# Elastic Compliance Matrix: (Units=1/GPa)
#
#
# Indices 1 2 3 4 5 6 
#
# 1 0.014394 -0.001950 -0.002647 0.000000 0.000000 0.000000
# 2 -0.001950 0.022322 -0.002420 0.000000 0.000000 0.000000
# 3 -0.002647 -0.002420 0.006900 0.000000 0.000000 0.000000
# 4 0.000000 0.000000 0.000000 0.029346 0.000000 0.000000
# 5 0.000000 0.000000 0.000000 0.000000 0.011528 0.000000
# 6 0.000000 0.000000 0.000000 0.000000 0.000000 0.054679
#
#
# Mechanical properties :
#
#
# Convention : Reuss Voigt Hill
#
# Bulk Modulus (GPa) = 33.80223 46.47644 40.13933
# Shear Modulus (GPa) = 30.66318 42.86354 36.76336
#
# Velocity S-wave (km/s) = 3.91983 4.63450 4.29207
# Velocity P-wave (km/s) = 6.11759 7.20605 6.68401
#
# Compressibility (1/GPa) = 0.02958385
#
# Stress axis : x y z
#
# Youngs Moduli (GPa) = 69.47133 44.79974 144.93038
#
# Poissons Ratio (x) = 0.08735 0.38357
# Poissons Ratio (y) = 0.13545 0.35070
# Poissons Ratio (z) = 0.18386 0.10840
#
# Static dielectric constant tensor:
#      x y z
#    x 1.677980 0.000000 0.000000 
#    y 0.000000 1.683170 0.000000 
#    z 0.000000 0.000000 1.694250 
# 
# From -- ./inp_files/6314.got.cif
#   From: 2010.05.17/outbox.cif.g08.bks.cpg/sg57_4_cif.got.tgz:6314.got - 2010.06.03 13:58:18.
