data_PCOD9438708
_publ_section_title
;
Structure prediction by ZEFSAII (Michael W. Deem and Ramdas Pophale) SiO2 
 PCOD9438708
Probable space group: P B C M
;
_chemical_formula_sum "Si O2"
_cell_formula_units_Z 48
_cell_length_a 31.739597
_cell_length_b 9.145985
_cell_length_c 8.564571
_cell_angle_alpha 90.000000
_cell_angle_beta 90.000000
_cell_angle_gamma 90.000000
_cell_volume 2486.208271
_symmetry_space_group_name_H-M "P B C M"
_symmetry_group_IT_number 57
_symmetry_cell_setting 'orthorhombic'
loop_
_space_group_symop_operation_xyz
x,y,z
-x,-y,1/2+z
x,1/2-y,-z
-x,1/2+y,1/2-z
-x,-y,-z
x,y,1/2-z
-x,1/2+y,z
x,1/2-y,1/2+z
loop_
_atom_site_type_symbol
_atom_site_label
_atom_site_fract_x
_atom_site_fract_y
_atom_site_fract_z
Si Si1 0.040759 0.585005 0.063233
Si Si2 0.625068 0.085422 0.561473
Si Si3 0.206974 0.585455 0.938377
Si Si4 0.877782 0.584988 0.438027
Si Si5 0.459355 0.085280 0.437668
Si Si6 0.709095 0.585312 0.061133
O O1 0.039889 0.586712 0.250000
O O2 0.040671 0.750000 0.000000
O O3 0.082382 0.502144 0.004477
O O4 0.000000 0.500000 0.000000
O O5 0.624762 0.250000 0.500000
O O6 0.625352 0.089658 0.750000
O O7 0.583122 0.998880 0.512147
O O8 0.667034 0.999880 0.509891
O O9 0.207509 0.590156 0.750000
O O10 0.165270 0.496733 0.985928
O O11 0.249144 0.501443 0.990605
O O12 0.205979 0.750000 0.000000
O O13 0.877882 0.750000 0.500000
O O14 0.880074 0.586267 0.250000
O O15 0.459092 0.250000 0.500000
O O16 0.460574 0.087653 0.250000
O O17 0.500000 0.000000 0.500000
O O18 0.709163 0.589070 0.250000
O O19 0.709316 0.750000 0.000000
#
# Coordination Sequence:
#
# PCOD9438708 Si02
#       6
#     8   8   8   8   8   8
#     4  12  25  43  65  91 122 158 198 244 294 348
#     4  10  22  38  58  84 115 149 191 237 287 343
#     4  10  22  38  59  86 118 153 194 239 288 343
#     4  11  23  40  61  89 121 157 198 242 291 347
#     4  11  23  39  59  85 115 151 192 239 290 347
#     4  10  21  38  58  85 116 150 191 237 286 342
#
# _framework density 19.306508000000001
#
# number of rings (size 3 to 8) (size 9 to 14) (size 15 to 20)
#    0.000    1.333    0.000    5.500    0.000    6.667 
#    0.000    0.000    0.000    0.000    0.000    0.000 
#    0.000    0.000    0.000    0.000    0.000    0.000 
#
# Total GULP energy -268541.826469 kJ/mol
# GULP energy per Si atom -5594.621385 kJ/mol
# Density = 1.926257 g / cm^3
# Si number density = 19.306508 Si / 1000 Ang^3
#
#
#
# Elastic Constant Matrix: (Units=GPa)
#
#
# Indices 1 2 3 4 5 6 
#
# 1 244.6257 148.9990 59.2120 0.0000 0.0000 0.0000
# 2 148.9990 243.4176 52.5050 0.0000 0.0000 0.0000
# 3 59.2120 52.5050 61.7982 0.0000 0.0000 0.0000
# 4 0.0000 0.0000 0.0000 44.2552 0.0000 0.0000
# 5 0.0000 0.0000 0.0000 0.0000 25.2939 0.0000
# 6 0.0000 0.0000 0.0000 0.0000 0.0000 46.4890
#
#
#
# Elastic Compliance Matrix: (Units=1/GPa)
#
#
# Indices 1 2 3 4 5 6 
#
# 1 0.007199 -0.003574 -0.003862 0.000000 0.000000 0.000000
# 2 -0.003574 0.006804 -0.002357 0.000000 0.000000 0.000000
# 3 -0.003862 -0.002357 0.021884 0.000000 0.000000 0.000000
# 4 0.000000 0.000000 0.000000 0.022596 0.000000 0.000000
# 5 0.000000 0.000000 0.000000 0.000000 0.039535 0.000000
# 6 0.000000 0.000000 0.000000 0.000000 0.000000 0.021510
#
#
# Mechanical properties :
#
#
# Convention : Reuss Voigt Hill
#
# Bulk Modulus (GPa) = 61.33764 119.03037 90.18401
# Shear Modulus (GPa) = 34.59055 42.48265 38.53660
#
# Velocity S-wave (km/s) = 4.23738 4.69596 4.47256
# Velocity P-wave (km/s) = 7.46860 9.54932 8.57233
#
# Compressibility (1/GPa) = 0.01630320
#
# Stress axis : x y z
#
# Youngs Moduli (GPa) = 138.89991 146.97006 45.69554
#
# Poissons Ratio (x) = 0.52526 0.17646
# Poissons Ratio (y) = 0.49641 0.10768
# Poissons Ratio (z) = 0.53639 0.34635
#
# Static dielectric constant tensor:
#      x y z
#    x 1.658940 0.000000 0.000000 
#    y 0.000000 1.612510 0.000000 
#    z 0.000000 0.000000 1.661300 
# 
# From -- ./inp_files/9977.got.cif
#   From: 2010.05.17/outbox.cif.g08.bks.cpg/sg57_5_cif.got.tgz:9977.got - 2010.06.03 13:58:18.
