data_PCOD9438253
_publ_section_title
;
Structure prediction by ZEFSAII (Michael W. Deem and Ramdas Pophale) SiO2 
 PCOD9438253
Probable space group: P B C M
;
_chemical_formula_sum "Si O2"
_cell_formula_units_Z 44
_cell_length_a 10.637914
_cell_length_b 11.473160
_cell_length_c 16.193654
_cell_angle_alpha 90.000000
_cell_angle_beta 90.000000
_cell_angle_gamma 90.000000
_cell_volume 1976.443396
_symmetry_space_group_name_H-M "P B C M"
_symmetry_group_IT_number 57
_symmetry_cell_setting 'orthorhombic'
loop_
_space_group_symop_operation_xyz
x,y,z
-x,-y,1/2+z
x,1/2-y,-z
-x,1/2+y,1/2-z
-x,-y,-z
x,y,1/2-z
-x,1/2+y,z
x,1/2-y,1/2+z
loop_
_atom_site_type_symbol
_atom_site_label
_atom_site_fract_x
_atom_site_fract_y
_atom_site_fract_z
Si Si1 0.771708 0.370871 0.047953
Si Si2 0.317866 0.025395 0.903233
Si Si3 0.827193 0.409741 0.750000
Si Si4 0.590457 0.498089 0.152477
Si Si5 0.262806 0.234863 0.347667
Si Si6 0.976708 0.291927 0.339475
O O1 0.665227 0.386915 0.117940
O O2 0.906014 0.369158 0.093574
O O3 0.757612 0.250000 0.000000
O O4 0.748317 0.473237 0.983099
O O5 0.239707 0.986208 0.823159
O O6 0.459867 0.980093 0.893474
O O7 0.326214 0.164848 0.901167
O O8 0.891115 0.320480 0.680008
O O9 0.565659 0.485159 0.250000
O O10 0.681996 0.607596 0.138953
O O11 0.284733 0.258116 0.250000
O O12 0.114055 0.247529 0.362587
O O13 0.987477 0.357347 0.250000
#
# Coordination Sequence:
#
# PCOD9438253 Si02
#       6
#     8   8   4   8   8   8
#     4  12  25  44  68 105 139 182 234 288 356 416
#     4  12  24  44  72 101 141 184 230 296 352 421
#     4  10  20  40  68  96 128 190 222 278 348 404
#     4  11  26  46  72 104 139 189 235 287 352 429
#     4  10  23  45  70 105 138 185 240 292 348 414
#     4   9  21  44  69 100 140 182 234 283 347 423
#
# _framework density 22.262211000000001
#
# number of rings (size 3 to 8) (size 9 to 14) (size 15 to 20)
#    0.545    0.727    3.636    1.091    2.545    2.909 
#    3.273    0.000    0.000    0.000    0.000    0.000 
#    0.000    0.000    0.000    0.000    0.000    0.000 
#
# Total GULP energy -244995.132007 kJ/mol
# GULP energy per Si atom -5568.071182 kJ/mol
# Density = 2.221154 g / cm^3
# Si number density = 22.262211 Si / 1000 Ang^3
#
#
#
# Elastic Constant Matrix: (Units=GPa)
#
#
# Indices 1 2 3 4 5 6 
#
# 1 89.8286 39.8455 53.4664 0.0000 0.0000 0.0000
# 2 39.8455 43.4278 40.4846 0.0000 0.0000 0.0000
# 3 53.4664 40.4846 90.4175 0.0000 0.0000 0.0000
# 4 0.0000 0.0000 0.0000 35.5220 0.0000 0.0000
# 5 0.0000 0.0000 0.0000 0.0000 -14.6911 0.0000
# 6 0.0000 0.0000 0.0000 0.0000 0.0000 25.1796
#
#
#
# Elastic Compliance Matrix: (Units=1/GPa)
#
#
# Indices 1 2 3 4 5 6 
#
# 1 0.020741 -0.013039 -0.006426 0.000000 0.000000 0.000000
# 2 -0.013039 0.047722 -0.013657 0.000000 0.000000 0.000000
# 3 -0.006426 -0.013657 0.020975 0.000000 0.000000 0.000000
# 4 0.000000 0.000000 0.000000 0.028152 0.000000 0.000000
# 5 0.000000 0.000000 0.000000 0.000000 -0.068068 0.000000
# 6 0.000000 0.000000 0.000000 0.000000 0.000000 0.039715
#
#
# Mechanical properties :
#
#
# Convention : Reuss Voigt Hill
#
# Bulk Modulus (GPa) = 43.11772 54.58523 48.85147
# Shear Modulus (GPa) = 30.63483 15.19392 22.91438
#
# Velocity S-wave (km/s) = 3.71359 2.61530 3.21174
# Velocity P-wave (km/s) = 6.14800 5.80450 5.97872
#
# Compressibility (1/GPa) = 0.02319232
#
# Stress axis : x y z
#
# Youngs Moduli (GPa) = 48.21291 20.95471 47.67605
#
# Poissons Ratio (x) = 0.27324 0.30639
# Poissons Ratio (y) = 0.62867 0.65111
# Poissons Ratio (z) = 0.30984 0.28618
#
# Static dielectric constant tensor:
#      x y z
#    x 1.823860 0.000000 0.000000 
#    y 0.000000 1.822900 0.000000 
#    z 0.000000 0.000000 1.862900 
# 
# From -- ./inp_files/21747.got.cif
#   From: 2010.05.17/outbox.cif.g08.bks.cpg/sg57_11_cif.got.tgz:21747.got - 2010.06.03 13:58:18.
