data_PCOD9438918
_publ_section_title
;
Structure prediction by ZEFSAII (Michael W. Deem and Ramdas Pophale) SiO2 
 PCOD9438918
Probable space group: P B C M
;
_chemical_formula_sum "Si O2"
_cell_formula_units_Z 64
_cell_length_a 8.951746
_cell_length_b 21.609520
_cell_length_c 17.595640
_cell_angle_alpha 90.000000
_cell_angle_beta 90.000000
_cell_angle_gamma 90.000000
_cell_volume 3403.752231
_symmetry_space_group_name_H-M "P B C M"
_symmetry_group_IT_number 57
_symmetry_cell_setting 'orthorhombic'
loop_
_space_group_symop_operation_xyz
x,y,z
-x,-y,1/2+z
x,1/2-y,-z
-x,1/2+y,1/2-z
-x,-y,-z
x,y,1/2-z
-x,1/2+y,z
x,1/2-y,1/2+z
loop_
_atom_site_type_symbol
_atom_site_label
_atom_site_fract_x
_atom_site_fract_y
_atom_site_fract_z
Si Si1 0.377613 0.355483 0.470488
Si Si2 0.116265 0.013836 0.340231
Si Si3 0.123114 0.906862 0.568757
Si Si4 0.907726 0.130349 0.661654
Si Si5 0.412870 0.817316 0.160536
Si Si6 0.061228 0.186167 0.968942
Si Si7 0.359224 0.800092 0.568075
Si Si8 0.677075 0.989353 0.984656
O O1 0.456721 0.345844 0.390052
O O2 0.236499 0.312359 0.479694
O O3 0.501283 0.338804 0.533894
O O4 0.306704 0.422796 0.477439
O O5 0.149473 0.023969 0.250000
O O6 0.984289 0.059232 0.370034
O O7 0.063837 0.942441 0.348460
O O8 0.258941 0.017392 0.398097
O O9 0.234546 0.850450 0.590785
O O10 0.223021 0.958385 0.525639
O O11 0.012598 0.871845 0.511323
O O12 0.913349 0.144138 0.750000
O O13 0.739681 0.147679 0.635899
O O14 0.019817 0.174193 0.617618
O O15 0.433851 0.825372 0.250000
O O16 0.397799 0.745419 0.137344
O O17 0.997343 0.250000 0.000000
O O18 0.324664 0.750000 0.500000
O O19 0.500000 0.000000 0.000000
#
# Coordination Sequence:
#
# PCOD9438918 Si02
#       8
#     8   8   8   8   8   8   8   8
#     4  11  22  39  61  92 125 159 213 265 311 379
#     4  11  24  42  63  95 135 168 204 268 331 376
#     4  12  22  39  65  94 125 167 215 263 312 385
#     4  10  21  39  61  89 122 162 208 260 320 376
#     4  10  21  40  64  88 124 167 209 264 316 370
#     4  12  22  37  63  93 122 162 212 260 317 384
#     4  10  21  39  62  92 123 164 216 261 303 378
#     4  12  22  41  70  93 122 168 220 262 317 385
#
# _framework density 18.802779999999998
#
# number of rings (size 3 to 8) (size 9 to 14) (size 15 to 20)
#    0.000    1.000    3.750    5.625    0.000    1.000 
#    0.000    2.500    0.000    0.000    0.000    0.000 
#    0.000    0.000    0.000    0.000    0.000    0.000 
#
# Total GULP energy -356859.573004 kJ/mol
# GULP energy per Si atom -5575.930828 kJ/mol
# Density = 1.875998 g / cm^3
# Si number density = 18.802780 Si / 1000 Ang^3
#
#
#
# Elastic Constant Matrix: (Units=GPa)
#
#
# Indices 1 2 3 4 5 6 
#
# 1 101.2937 34.9649 36.6801 0.0000 0.0000 0.0000
# 2 34.9649 121.7535 44.9382 0.0000 0.0000 0.0000
# 3 36.6801 44.9382 74.2831 0.0000 0.0000 0.0000
# 4 0.0000 0.0000 0.0000 21.4277 0.0000 0.0000
# 5 0.0000 0.0000 0.0000 0.0000 26.5559 0.0000
# 6 0.0000 0.0000 0.0000 0.0000 0.0000 29.2300
#
#
#
# Elastic Compliance Matrix: (Units=1/GPa)
#
#
# Indices 1 2 3 4 5 6 
#
# 1 0.012277 -0.001658 -0.005059 0.000000 0.000000 0.000000
# 2 -0.001658 0.010798 -0.005714 0.000000 0.000000 0.000000
# 3 -0.005059 -0.005714 0.019417 0.000000 0.000000 0.000000
# 4 0.000000 0.000000 0.000000 0.046668 0.000000 0.000000
# 5 0.000000 0.000000 0.000000 0.000000 0.037656 0.000000
# 6 0.000000 0.000000 0.000000 0.000000 0.000000 0.034211
#
#
# Mechanical properties :
#
#
# Convention : Reuss Voigt Hill
#
# Bulk Modulus (GPa) = 56.72216 58.94409 57.83313
# Shear Modulus (GPa) = 26.07340 27.49254 26.78297
#
# Velocity S-wave (km/s) = 3.72785 3.82796 3.77824
# Velocity P-wave (km/s) = 6.98295 7.13823 7.06102
#
# Compressibility (1/GPa) = 0.01762979
#
# Stress axis : x y z
#
# Youngs Moduli (GPa) = 81.45577 92.60582 51.50249
#
# Poissons Ratio (x) = 0.15358 0.26054
# Poissons Ratio (y) = 0.13509 0.29427
# Poissons Ratio (z) = 0.41207 0.52912
#
# Static dielectric constant tensor:
#      x y z
#    x 1.698400 0.000000 0.000000 
#    y 0.000000 1.710750 0.000000 
#    z 0.000000 0.000000 1.655290 
# 
# From -- ./inp_files/21460.got.cif
#   From: 2010.05.17/outbox.cif.g08.bks.cpg/sg57_11_cif.got.tgz:21460.got - 2010.06.03 13:58:18.
