data_PCOD9438810
_publ_section_title
;
Structure prediction by ZEFSAII (Michael W. Deem and Ramdas Pophale) SiO2 
 PCOD9438810
Probable space group: P B C M
;
_chemical_formula_sum "Si O2"
_cell_formula_units_Z 48
_cell_length_a 8.576639
_cell_length_b 18.930409
_cell_length_c 13.772121
_cell_angle_alpha 90.000000
_cell_angle_beta 90.000000
_cell_angle_gamma 90.000000
_cell_volume 2236.031706
_symmetry_space_group_name_H-M "P B C M"
_symmetry_group_IT_number 57
_symmetry_cell_setting 'orthorhombic'
loop_
_space_group_symop_operation_xyz
x,y,z
-x,-y,1/2+z
x,1/2-y,-z
-x,1/2+y,1/2-z
-x,-y,-z
x,y,1/2-z
-x,1/2+y,z
x,1/2-y,1/2+z
loop_
_atom_site_type_symbol
_atom_site_label
_atom_site_fract_x
_atom_site_fract_y
_atom_site_fract_z
Si Si1 0.629801 0.360212 0.044969
Si Si2 0.130949 0.949951 0.955930
Si Si3 0.087341 0.213470 0.635113
Si Si4 0.142596 0.371547 0.636926
Si Si5 0.739193 0.268945 0.861509
Si Si6 0.286619 0.416298 0.451493
O O1 0.635232 0.300871 0.126787
O O2 0.466108 0.397800 0.056601
O O3 0.774653 0.413354 0.042587
O O4 0.663343 0.322271 0.939801
O O5 0.035785 0.893765 0.891080
O O6 0.244349 0.007476 0.906531
O O7 0.000000 0.000000 0.000000
O O8 0.087032 0.200186 0.750000
O O9 0.172716 0.288382 0.616919
O O10 0.170757 0.146295 0.586533
O O11 0.909299 0.235981 0.609575
O O12 0.165026 0.384188 0.750000
O O13 0.251759 0.416179 0.566848
O O14 0.745980 0.293804 0.750000
#
# Coordination Sequence:
#
# PCOD9438810 Si02
#       6
#     8   8   8   8   8   8
#     4  11  23  39  61  94 131 164 205 263 324 381
#     4  10  21  41  64  87 121 168 214 254 308 377
#     4  10  21  39  63  91 121 165 218 263 305 367
#     4  10  21  38  62  89 122 165 217 260 305 372
#     4  10  22  39  62  89 122 165 215 263 309 370
#     4  11  24  38  62  94 130 166 202 264 329 383
#
# _framework density 21.4666
#
# number of rings (size 3 to 8) (size 9 to 14) (size 15 to 20)
#    0.000    1.667    1.667    3.000    7.000    2.000 
#    0.000    5.000    0.000    6.000    0.000    0.000 
#    0.000    0.000    0.000    0.000    0.000    0.000 
#
# Total GULP energy -267538.738839 kJ/mol
# GULP energy per Si atom -5573.723726 kJ/mol
# Density = 2.141774 g / cm^3
# Si number density = 21.466600 Si / 1000 Ang^3
#
#
#
# Elastic Constant Matrix: (Units=GPa)
#
#
# Indices 1 2 3 4 5 6 
#
# 1 46.4783 -8.2578 -21.7567 0.0000 0.0000 0.0000
# 2 -8.2578 75.0671 -2.0868 0.0000 0.0000 0.0000
# 3 -21.7567 -2.0868 59.9499 0.0000 0.0000 0.0000
# 4 0.0000 0.0000 0.0000 13.0543 0.0000 0.0000
# 5 0.0000 0.0000 0.0000 0.0000 16.8454 0.0000
# 6 0.0000 0.0000 0.0000 0.0000 0.0000 31.9766
#
#
#
# Elastic Compliance Matrix: (Units=1/GPa)
#
#
# Indices 1 2 3 4 5 6 
#
# 1 0.026668 0.003206 0.009790 0.000000 0.000000 0.000000
# 2 0.003206 0.013720 0.001641 0.000000 0.000000 0.000000
# 3 0.009790 0.001641 0.020291 0.000000 0.000000 0.000000
# 4 0.000000 0.000000 0.000000 0.076603 0.000000 0.000000
# 5 0.000000 0.000000 0.000000 0.000000 0.059364 0.000000
# 6 0.000000 0.000000 0.000000 0.000000 0.000000 0.031273
#
#
# Mechanical properties :
#
#
# Convention : Reuss Voigt Hill
#
# Bulk Modulus (GPa) = 11.11723 13.03252 12.07488
# Shear Modulus (GPa) = 21.86955 26.61501 24.24228
#
# Velocity S-wave (km/s) = 3.19528 3.52495 3.36416
# Velocity P-wave (km/s) = 4.33627 4.75933 4.55272
#
# Compressibility (1/GPa) = 0.08995044
#
# Stress axis : x y z
#
# Youngs Moduli (GPa) = 37.49876 72.88798 49.28409
#
# Poissons Ratio (x) = -0.23366 -0.48247
# Poissons Ratio (y) = -0.12021 -0.08087
# Poissons Ratio (z) = -0.36710 -0.11961
#
# Static dielectric constant tensor:
#      x y z
#    x 1.833460 0.000000 0.000000 
#    y 0.000000 1.894660 0.000000 
#    z 0.000000 0.000000 1.758700 
# 
# From -- ./inp_files/16572.got.cif
#   From: 2010.05.17/outbox.cif.g08.bks.cpg/sg57_9_cif.got.tgz:16572.got - 2010.06.03 13:58:18.
