data_PCOD9438648
_publ_section_title
;
Structure prediction by ZEFSAII (Michael W. Deem and Ramdas Pophale) SiO2 
 PCOD9438648
Probable space group: P B C M
;
_chemical_formula_sum "Si O2"
_cell_formula_units_Z 64
_cell_length_a 15.840779
_cell_length_b 24.303183
_cell_length_c 8.591406
_cell_angle_alpha 90.000000
_cell_angle_beta 90.000000
_cell_angle_gamma 90.000000
_cell_volume 3307.531088
_symmetry_space_group_name_H-M "P B C M"
_symmetry_group_IT_number 57
_symmetry_cell_setting 'orthorhombic'
loop_
_space_group_symop_operation_xyz
x,y,z
-x,-y,1/2+z
x,1/2-y,-z
-x,1/2+y,1/2-z
-x,-y,-z
x,y,1/2-z
-x,1/2+y,z
x,1/2-y,1/2+z
loop_
_atom_site_type_symbol
_atom_site_label
_atom_site_fract_x
_atom_site_fract_y
_atom_site_fract_z
Si Si1 0.254210 0.811587 0.935072
Si Si2 0.903969 0.377888 0.064033
Si Si3 0.590740 0.117052 0.936157
Si Si4 0.339296 0.001402 0.062321
Si Si5 0.749729 0.688440 0.936905
Si Si6 0.150300 0.505383 0.436177
Si Si7 0.908101 0.614915 0.560732
Si Si8 0.408146 0.378968 0.936009
O O1 0.260081 0.810753 0.750000
O O2 0.256524 0.750000 0.000000
O O3 0.167595 0.841133 0.985500
O O4 0.332137 0.846559 0.002308
O O5 0.897543 0.371311 0.250000
O O6 0.999520 0.364660 0.012681
O O7 0.886438 0.441299 0.020527
O O8 0.588469 0.120497 0.750000
O O9 0.609389 0.053458 0.979828
O O10 0.501066 0.134967 0.003839
O O11 0.326271 0.000839 0.250000
O O12 0.386257 0.057814 0.020552
O O13 0.248841 0.999374 0.979562
O O14 0.750292 0.689186 0.750000
O O15 0.830172 0.652403 0.991715
O O16 0.755240 0.750000 0.000000
O O17 0.664387 0.659333 0.993805
O O18 0.141171 0.511662 0.250000
O O19 0.106742 0.448359 0.486683
O O20 0.906949 0.614910 0.750000
O O21 0.405888 0.374695 0.750000
#
# Coordination Sequence:
#
# PCOD9438648 Si02
#       8
#     8   8   8   8   8   8   8   8
#     4  12  26  45  66  91 121 161 209 259 309 365
#     4  11  22  40  63  92 129 165 203 253 308 367
#     4  11  23  41  65  94 127 165 201 249 308 365
#     4  10  21  37  61  92 128 164 201 245 305 367
#     4  11  23  43  64  88 120 161 208 259 310 362
#     4  11  20  35  61  93 126 165 206 249 305 367
#     4   9  21  39  62  91 126 164 205 254 308 363
#     4  11  23  40  63  95 127 163 206 251 302 367
#
# _framework density 19.349779999999999
#
# number of rings (size 3 to 8) (size 9 to 14) (size 15 to 20)
#    0.000    1.250    2.500    3.750    0.000    2.000 
#    0.000    8.125    0.000    0.000    0.000    0.000 
#    0.000    0.000    0.000    0.000    0.000    0.000 
#
# Total GULP energy -357916.041421 kJ/mol
# GULP energy per Si atom -5592.438147 kJ/mol
# Density = 1.930574 g / cm^3
# Si number density = 19.349780 Si / 1000 Ang^3
#
#
#
# Elastic Constant Matrix: (Units=GPa)
#
#
# Indices 1 2 3 4 5 6 
#
# 1 103.4735 10.6530 11.3303 0.0000 0.0000 0.0000
# 2 10.6530 90.2299 11.0041 0.0000 0.0000 0.0000
# 3 11.3303 11.0041 42.2651 0.0000 0.0000 0.0000
# 4 0.0000 0.0000 0.0000 18.2131 0.0000 0.0000
# 5 0.0000 0.0000 0.0000 0.0000 19.3831 0.0000
# 6 0.0000 0.0000 0.0000 0.0000 0.0000 -2.8762
#
#
#
# Elastic Compliance Matrix: (Units=1/GPa)
#
#
# Indices 1 2 3 4 5 6 
#
# 1 0.010024 -0.000884 -0.002457 0.000000 0.000000 0.000000
# 2 -0.000884 0.011524 -0.002763 0.000000 0.000000 0.000000
# 3 -0.002457 -0.002763 0.025038 0.000000 0.000000 0.000000
# 4 0.000000 0.000000 0.000000 0.054906 0.000000 0.000000
# 5 0.000000 0.000000 0.000000 0.000000 0.051591 0.000000
# 6 0.000000 0.000000 0.000000 0.000000 0.000000 -0.347676
#
#
# Mechanical properties :
#
#
# Convention : Reuss Voigt Hill
#
# Bulk Modulus (GPa) = 29.08843 33.54924 31.31883
# Shear Modulus (GPa) = -29.25284 20.47607 -4.38839
#
# Velocity S-wave (km/s) = -3.89240 3.25654 -1.50760
# Velocity P-wave (km/s) = 2.26614 5.61391 3.63185
#
# Compressibility (1/GPa) = 0.03437793
#
# Stress axis : x y z
#
# Youngs Moduli (GPa) = 99.75689 86.77406 39.93863
#
# Poissons Ratio (x) = 0.07670 0.09814
# Poissons Ratio (y) = 0.08817 0.11037
# Poissons Ratio (z) = 0.24512 0.23980
#
# Static dielectric constant tensor:
#      x y z
#    x 1.656440 0.000000 0.000000 
#    y 0.000000 1.652670 0.000000 
#    z 0.000000 0.000000 1.650800 
# 
# From -- ./inp_files/5655.got.cif
#   From: 2010.05.17/outbox.cif.g08.bks.cpg/sg57_3_cif.got.tgz:5655.got - 2010.06.03 13:58:18.
