data_PCOD9438813
_publ_section_title
;
Structure prediction by ZEFSAII (Michael W. Deem and Ramdas Pophale) SiO2 
 PCOD9438813
Probable space group: P B C M
;
_chemical_formula_sum "Si O2"
_cell_formula_units_Z 48
_cell_length_a 11.938252
_cell_length_b 25.705662
_cell_length_c 8.752940
_cell_angle_alpha 90.000000
_cell_angle_beta 90.000000
_cell_angle_gamma 90.000000
_cell_volume 2686.108099
_symmetry_space_group_name_H-M "P B C M"
_symmetry_group_IT_number 57
_symmetry_cell_setting 'orthorhombic'
loop_
_space_group_symop_operation_xyz
x,y,z
-x,-y,1/2+z
x,1/2-y,-z
-x,1/2+y,1/2-z
-x,-y,-z
x,y,1/2-z
-x,1/2+y,z
x,1/2-y,1/2+z
loop_
_atom_site_type_symbol
_atom_site_label
_atom_site_fract_x
_atom_site_fract_y
_atom_site_fract_z
Si Si1 0.128681 0.692737 0.432839
Si Si2 0.500186 0.941590 0.932425
Si Si3 0.132229 0.192760 0.066985
Si Si4 0.269387 0.097761 0.932369
Si Si5 0.270979 0.900838 0.068807
Si Si6 0.123540 0.495732 0.568436
O O1 0.150632 0.750000 0.500000
O O2 0.140878 0.693663 0.250000
O O3 0.209416 0.649893 0.504790
O O4 0.998255 0.679775 0.467943
O O5 0.505845 0.944827 0.750000
O O6 0.608789 0.912188 0.996387
O O7 0.387270 0.913157 0.985505
O O8 0.500000 0.000000 0.000000
O O9 0.144826 0.193154 0.250000
O O10 0.153703 0.250000 0.000000
O O11 0.212855 0.150328 0.993215
O O12 0.276457 0.098207 0.750000
O O13 0.191399 0.050242 0.987603
O O14 0.290525 0.895738 0.250000
O O15 0.190068 0.950481 0.044936
O O16 0.118304 0.485389 0.750000
O O17 0.000000 0.500000 0.500000
#
# Coordination Sequence:
#
# PCOD9438813 Si02
#       6
#     8   8   8   8   8   8
#     4  10  21  38  62  90 122 160 201 247 300 357
#     4  12  24  41  63  87 118 159 204 248 301 359
#     4  10  21  39  63  91 124 160 203 248 301 360
#     4  12  24  39  61  88 121 159 202 248 301 359
#     4  11  23  39  60  87 120 158 201 247 299 357
#     4  11  23  37  57  86 122 157 196 246 302 361
#
# _framework density 17.869720000000001
#
# number of rings (size 3 to 8) (size 9 to 14) (size 15 to 20)
#    0.000    1.000    1.667    6.000    0.000    6.667 
#    0.000    0.833    0.000    0.000    0.000    0.000 
#    0.000    0.000    0.000    0.000    0.000    0.000 
#
# Total GULP energy -268539.927889 kJ/mol
# GULP energy per Si atom -5594.581831 kJ/mol
# Density = 1.782905 g / cm^3
# Si number density = 17.869720 Si / 1000 Ang^3
#
#
#
# Elastic Constant Matrix: (Units=GPa)
#
#
# Indices 1 2 3 4 5 6 
#
# 1 166.8874 98.2694 105.2829 0.0000 0.0000 0.0000
# 2 98.2694 137.1515 91.5107 0.0000 0.0000 0.0000
# 3 105.2829 91.5107 156.0297 0.0000 0.0000 0.0000
# 4 0.0000 0.0000 0.0000 37.6032 0.0000 0.0000
# 5 0.0000 0.0000 0.0000 0.0000 34.3830 0.0000
# 6 0.0000 0.0000 0.0000 0.0000 0.0000 -22.1303
#
#
#
# Elastic Compliance Matrix: (Units=1/GPa)
#
#
# Indices 1 2 3 4 5 6 
#
# 1 0.012521 -0.005478 -0.005236 0.000000 0.000000 0.000000
# 2 -0.005478 0.014375 -0.004735 0.000000 0.000000 0.000000
# 3 -0.005236 -0.004735 0.012719 0.000000 0.000000 0.000000
# 4 0.000000 0.000000 0.000000 0.026593 0.000000 0.000000
# 5 0.000000 0.000000 0.000000 0.000000 0.029084 0.000000
# 6 0.000000 0.000000 0.000000 0.000000 0.000000 -0.045187
#
#
# Mechanical properties :
#
#
# Convention : Reuss Voigt Hill
#
# Bulk Modulus (GPa) = 114.70412 116.68829 115.69621
# Shear Modulus (GPa) = 59.58913 20.97154 40.28034
#
# Velocity S-wave (km/s) = 5.78090 3.42947 4.75290
# Velocity P-wave (km/s) = 10.43489 9.00683 9.74705
#
# Compressibility (1/GPa) = 0.00871808
#
# Stress axis : x y z
#
# Youngs Moduli (GPa) = 79.86896 69.56466 78.62263
#
# Poissons Ratio (x) = 0.38104 0.41165
# Poissons Ratio (y) = 0.43748 0.37227
# Poissons Ratio (z) = 0.41818 0.32938
#
# Static dielectric constant tensor:
#      x y z
#    x 1.585670 0.000000 0.000000 
#    y 0.000000 1.576480 0.000000 
#    z 0.000000 0.000000 1.594210 
# 
# From -- ./inp_files/3085.got.cif
#   From: 2010.05.17/outbox.cif.g08.bks.cpg/sg57_2_cif.got.tgz:3085.got - 2010.06.03 13:58:18.
