data_PCOD9438462
_publ_section_title
;
Structure prediction by ZEFSAII (Michael W. Deem and Ramdas Pophale) SiO2 
 PCOD9438462
Probable space group: P B C M
;
_chemical_formula_sum "Si O2"
_cell_formula_units_Z 40
_cell_length_a 10.070114
_cell_length_b 13.570332
_cell_length_c 12.921158
_cell_angle_alpha 90.000000
_cell_angle_beta 90.000000
_cell_angle_gamma 90.000000
_cell_volume 1765.738136
_symmetry_space_group_name_H-M "P B C M"
_symmetry_group_IT_number 57
_symmetry_cell_setting 'orthorhombic'
loop_
_space_group_symop_operation_xyz
x,y,z
-x,-y,1/2+z
x,1/2-y,-z
-x,1/2+y,1/2-z
-x,-y,-z
x,y,1/2-z
-x,1/2+y,z
x,1/2-y,1/2+z
loop_
_atom_site_type_symbol
_atom_site_label
_atom_site_fract_x
_atom_site_fract_y
_atom_site_fract_z
Si Si1 0.367898 0.974948 0.369657
Si Si2 0.060329 0.892752 0.871746
Si Si3 0.402457 0.354401 0.037346
Si Si4 0.115437 0.109926 0.932421
Si Si5 0.163247 0.810475 0.131288
O O1 0.346471 0.001596 0.250000
O O2 0.500459 0.909870 0.384447
O O3 0.250658 0.901832 0.407650
O O4 0.382139 0.070315 0.441611
O O5 0.028739 0.882728 0.750000
O O6 0.156941 0.802912 0.905071
O O7 0.124956 0.998493 0.892148
O O8 0.933033 0.889080 0.947560
O O9 0.458823 0.250000 0.000000
O O10 0.255185 0.337977 0.082103
O O11 0.990706 0.158199 0.875155
O O12 0.208296 0.802753 0.250000
#
# Coordination Sequence:
#
# PCOD9438462 Si02
#       5
#     8   8   8   8   8
#     4  10  24  45  65  88 122 164 208 251 299 364
#     4  10  21  36  59  90 122 160 205 251 302 363
#     4  11  25  42  63  93 125 159 201 253 312 364
#     4  11  22  37  60  91 125 157 199 256 308 359
#     4  10  21  39  64  91 121 162 207 250 303 363
#
# _framework density 22.653417999999999
#
# number of rings (size 3 to 8) (size 9 to 14) (size 15 to 20)
#    0.000    1.600    0.000    4.800    0.000    9.600 
#    0.000    2.000    0.000    0.000    0.000    0.000 
#    0.000    0.000    0.000    0.000    0.000    0.000 
#
# Total GULP energy -223571.827893 kJ/mol
# GULP energy per Si atom -5589.295697 kJ/mol
# Density = 2.260186 g / cm^3
# Si number density = 22.653418 Si / 1000 Ang^3
#
#
#
# Elastic Constant Matrix: (Units=GPa)
#
#
# Indices 1 2 3 4 5 6 
#
# 1 55.9514 -5.5711 -1.0095 0.0000 0.0000 0.0000
# 2 -5.5711 143.3561 21.3522 0.0000 0.0000 0.0000
# 3 -1.0095 21.3522 88.2885 0.0000 0.0000 0.0000
# 4 0.0000 0.0000 0.0000 31.3174 0.0000 0.0000
# 5 0.0000 0.0000 0.0000 0.0000 3.2296 0.0000
# 6 0.0000 0.0000 0.0000 0.0000 0.0000 22.7891
#
#
#
# Elastic Compliance Matrix: (Units=1/GPa)
#
#
# Indices 1 2 3 4 5 6 
#
# 1 0.017942 0.000692 0.000038 0.000000 0.000000 0.000000
# 2 0.000692 0.007263 -0.001749 0.000000 0.000000 0.000000
# 3 0.000038 -0.001749 0.011750 0.000000 0.000000 0.000000
# 4 0.000000 0.000000 0.000000 0.031931 0.000000 0.000000
# 5 0.000000 0.000000 0.000000 0.000000 0.309640 0.000000
# 6 0.000000 0.000000 0.000000 0.000000 0.000000 0.043881
#
#
# Mechanical properties :
#
#
# Convention : Reuss Voigt Hill
#
# Bulk Modulus (GPa) = 28.63952 35.23770 31.93861
# Shear Modulus (GPa) = 11.46568 29.65552 20.56060
#
# Velocity S-wave (km/s) = 2.25218 3.62207 3.01593
# Velocity P-wave (km/s) = 4.40829 5.75165 5.12418
#
# Compressibility (1/GPa) = 0.03491678
#
# Stress axis : x y z
#
# Youngs Moduli (GPa) = 55.73455 137.68495 85.10762
#
# Poissons Ratio (x) = -0.09523 -0.00322
# Poissons Ratio (y) = -0.03855 0.14882
# Poissons Ratio (z) = -0.00211 0.24076
#
# Static dielectric constant tensor:
#      x y z
#    x 1.826820 0.000000 0.000000 
#    y 0.000000 1.853450 0.000000 
#    z 0.000000 0.000000 1.935460 
# 
# From -- ./inp_files/15879.got.cif
#   From: 2010.05.17/outbox.cif.g08.bks.cpg/sg57_8_cif.got.tgz:15879.got - 2010.06.03 13:58:18.
