data_PCOD9438303
_publ_section_title
;
Structure prediction by ZEFSAII (Michael W. Deem and Ramdas Pophale) SiO2 
 PCOD9438303
Probable space group: P B C M
;
_chemical_formula_sum "Si O2"
_cell_formula_units_Z 52
_cell_length_a 9.030260
_cell_length_b 11.697333
_cell_length_c 24.457379
_cell_angle_alpha 90.000000
_cell_angle_beta 90.000000
_cell_angle_gamma 90.000000
_cell_volume 2583.431924
_symmetry_space_group_name_H-M "P B C M"
_symmetry_group_IT_number 57
_symmetry_cell_setting 'orthorhombic'
loop_
_space_group_symop_operation_xyz
x,y,z
-x,-y,1/2+z
x,1/2-y,-z
-x,1/2+y,1/2-z
-x,-y,-z
x,y,1/2-z
-x,1/2+y,z
x,1/2-y,1/2+z
loop_
_atom_site_type_symbol
_atom_site_label
_atom_site_fract_x
_atom_site_fract_y
_atom_site_fract_z
Si Si1 0.197954 0.754637 0.369752
Si Si2 0.373719 0.250000 0.000000
Si Si3 0.961816 0.901232 0.425401
Si Si4 0.065283 0.750427 0.750000
Si Si5 0.299136 0.998353 0.865494
Si Si6 0.573114 0.086706 0.572135
Si Si7 0.171968 0.422038 0.956712
Si Si8 0.853103 0.517898 0.750000
O O1 0.153752 0.768009 0.306378
O O2 0.243947 0.626509 0.382128
O O3 0.334861 0.832030 0.387701
O O4 0.058270 0.795619 0.405490
O O5 0.476357 0.157900 0.970578
O O6 0.269066 0.307898 0.953840
O O7 0.923861 0.900618 0.489069
O O8 0.809066 0.912420 0.394541
O O9 0.061494 0.016182 0.414441
O O10 0.048912 0.895397 0.750000
O O11 0.944148 0.641526 0.750000
O O12 0.256009 0.011905 0.802167
O O13 0.462902 0.014785 0.889245
O O14 0.697396 0.016369 0.538984
#
# Coordination Sequence:
#
# PCOD9438303 Si02
#       8
#     8   4   8   4   8   8   8   4
#     4  10  23  40  64  89 124 165 208 265 326 381
#     4  12  22  36  60  82 122 164 208 258 306 376
#     4  10  21  39  58  87 121 157 208 255 309 373
#     4  10  20  43  66  96 126 166 210 275 330 390
#     4  11  22  40  66  92 126 164 211 269 326 386
#     4  11  24  40  58  89 126 169 209 255 315 386
#     4  10  23  38  54  85 121 163 208 251 303 380
#     4  10  22  41  70  98 130 162 218 271 338 386
#
# _framework density 20.128264000000001
#
# number of rings (size 3 to 8) (size 9 to 14) (size 15 to 20)
#    0.000    1.538    3.077    1.385    4.308    0.615 
#    0.000    1.538    0.000    0.000    0.000    0.000 
#    0.000    0.000    0.000    0.000    0.000    0.000 
#
# Total GULP energy -289645.787511 kJ/mol
# GULP energy per Si atom -5570.111298 kJ/mol
# Density = 2.008245 g / cm^3
# Si number density = 20.128264 Si / 1000 Ang^3
#
#
#
# Elastic Constant Matrix: (Units=GPa)
#
#
# Indices 1 2 3 4 5 6 
#
# 1 89.8557 38.9863 20.9526 0.0000 0.0000 0.0000
# 2 38.9863 108.6731 29.9870 0.0000 0.0000 0.0000
# 3 20.9526 29.9870 66.9779 0.0000 0.0000 0.0000
# 4 0.0000 0.0000 0.0000 35.2466 0.0000 0.0000
# 5 0.0000 0.0000 0.0000 0.0000 34.2672 0.0000
# 6 0.0000 0.0000 0.0000 0.0000 0.0000 26.0093
#
#
#
# Elastic Compliance Matrix: (Units=1/GPa)
#
#
# Indices 1 2 3 4 5 6 
#
# 1 0.013495 -0.004195 -0.002344 0.000000 0.000000 0.000000
# 2 -0.004195 0.011803 -0.003972 0.000000 0.000000 0.000000
# 3 -0.002344 -0.003972 0.017442 0.000000 0.000000 0.000000
# 4 0.000000 0.000000 0.000000 0.028372 0.000000 0.000000
# 5 0.000000 0.000000 0.000000 0.000000 0.029182 0.000000
# 6 0.000000 0.000000 0.000000 0.000000 0.000000 0.038448
#
#
# Mechanical properties :
#
#
# Convention : Reuss Voigt Hill
#
# Bulk Modulus (GPa) = 46.04252 49.48428 47.76340
# Shear Modulus (GPa) = 29.93965 30.81001 30.37483
#
# Velocity S-wave (km/s) = 3.86092 3.91664 3.88888
# Velocity P-wave (km/s) = 6.54216 6.71500 6.62914
#
# Compressibility (1/GPa) = 0.02171905
#
# Stress axis : x y z
#
# Youngs Moduli (GPa) = 74.09896 84.72560 57.33348
#
# Poissons Ratio (x) = 0.35540 0.13437
# Poissons Ratio (y) = 0.31083 0.22773
# Poissons Ratio (z) = 0.17367 0.33653
#
# Static dielectric constant tensor:
#      x y z
#    x 1.732970 0.000000 0.000000 
#    y 0.000000 1.806730 0.000000 
#    z 0.000000 0.000000 1.710710 
# 
# From -- ./inp_files/28360.got.cif
#   From: 2010.05.17/outbox.cif.g08.bks.cpg/sg57_15_cif.got.tgz:28360.got - 2010.06.03 13:58:18.
