data_PCOD9438494
_publ_section_title
;
Structure prediction by ZEFSAII (Michael W. Deem and Ramdas Pophale) SiO2 
 PCOD9438494
Probable space group: P B C M
;
_chemical_formula_sum "Si O2"
_cell_formula_units_Z 48
_cell_length_a 12.033475
_cell_length_b 25.869610
_cell_length_c 8.859411
_cell_angle_alpha 90.000000
_cell_angle_beta 90.000000
_cell_angle_gamma 90.000000
_cell_volume 2757.946208
_symmetry_space_group_name_H-M "P B C M"
_symmetry_group_IT_number 57
_symmetry_cell_setting 'orthorhombic'
loop_
_space_group_symop_operation_xyz
x,y,z
-x,-y,1/2+z
x,1/2-y,-z
-x,1/2+y,1/2-z
-x,-y,-z
x,y,1/2-z
-x,1/2+y,z
x,1/2-y,1/2+z
loop_
_atom_site_type_symbol
_atom_site_label
_atom_site_fract_x
_atom_site_fract_y
_atom_site_fract_z
Si Si1 0.498277 0.442588 0.931831
Si Si2 0.877833 0.003236 0.930588
Si Si3 0.132376 0.693712 0.930980
Si Si4 0.738358 0.600735 0.069280
Si Si5 0.740047 0.402008 0.931219
Si Si6 0.125721 0.306054 0.069915
O O1 0.493855 0.447649 0.750000
O O2 0.387238 0.412360 0.979705
O O3 0.611667 0.413039 0.971283
O O4 0.500000 0.500000 0.000000
O O5 0.883662 0.010268 0.750000
O O6 0.811869 0.950206 0.961685
O O7 0.811606 0.050616 0.003639
O O8 0.000000 0.000000 0.000000
O O9 0.142176 0.695233 0.750000
O O10 0.003157 0.681087 0.968959
O O11 0.155894 0.750000 0.000000
O O12 0.211798 0.650409 0.999553
O O13 0.738412 0.608918 0.250000
O O14 0.793532 0.649920 0.991632
O O15 0.749758 0.400722 0.750000
O O16 0.133337 0.302893 0.250000
O O17 0.150420 0.250000 0.000000
#
# Coordination Sequence:
#
# PCOD9438494 Si02
#       6
#     8   8   8   8   8   8
#     4  10  21  38  58  81 111 151 193 235 280 332
#     4  11  22  35  54  81 115 149 184 231 286 340
#     4  10  21  38  60  85 115 149 188 233 285 341
#     4  10  21  37  56  80 112 148 187 231 279 331
#     4  11  22  36  57  84 114 148 190 235 282 338
#     4  10  21  37  59  85 112 146 185 229 281 336
#
# _framework density 17.404254000000002
#
# number of rings (size 3 to 8) (size 9 to 14) (size 15 to 20)
#    0.000    1.667    1.667    3.000    0.000    7.333 
#    0.000    0.833    0.000    0.000    0.000    0.000 
#    0.000    0.000    0.000    0.000    0.000    0.000 
#
# Total GULP energy -268193.757014 kJ/mol
# GULP energy per Si atom -5587.369938 kJ/mol
# Density = 1.736464 g / cm^3
# Si number density = 17.404254 Si / 1000 Ang^3
#
#
#
# Elastic Constant Matrix: (Units=GPa)
#
#
# Indices 1 2 3 4 5 6 
#
# 1 182.2197 116.0999 71.0619 0.0000 0.0000 0.0000
# 2 116.0999 158.0215 69.0227 0.0000 0.0000 0.0000
# 3 71.0619 69.0227 55.2980 0.0000 0.0000 0.0000
# 4 0.0000 0.0000 0.0000 38.9723 0.0000 0.0000
# 5 0.0000 0.0000 0.0000 0.0000 26.5231 0.0000
# 6 0.0000 0.0000 0.0000 0.0000 0.0000 9.0596
#
#
#
# Elastic Compliance Matrix: (Units=1/GPa)
#
#
# Indices 1 2 3 4 5 6 
#
# 1 0.012430 -0.004739 -0.010058 0.000000 0.000000 0.000000
# 2 -0.004739 0.015721 -0.013533 0.000000 0.000000 0.000000
# 3 -0.010058 -0.013533 0.047901 0.000000 0.000000 0.000000
# 4 0.000000 0.000000 0.000000 0.025659 0.000000 0.000000
# 5 0.000000 0.000000 0.000000 0.000000 0.037703 0.000000
# 6 0.000000 0.000000 0.000000 0.000000 0.000000 0.110380
#
#
# Mechanical properties :
#
#
# Convention : Reuss Voigt Hill
#
# Bulk Modulus (GPa) = 51.56830 100.87869 76.22350
# Shear Modulus (GPa) = 15.97864 24.20134 20.08999
#
# Velocity S-wave (km/s) = 3.03328 3.73304 3.40121
# Velocity P-wave (km/s) = 6.47779 8.75607 7.70164
#
# Compressibility (1/GPa) = 0.01939176
#
# Stress axis : x y z
#
# Youngs Moduli (GPa) = 80.45307 63.60820 20.87647
#
# Poissons Ratio (x) = 0.30144 0.20997
# Poissons Ratio (y) = 0.38127 0.28253
# Poissons Ratio (z) = 0.80918 0.86082
#
# Static dielectric constant tensor:
#      x y z
#    x 1.585640 0.000000 0.000000 
#    y 0.000000 1.549710 0.000000 
#    z 0.000000 0.000000 1.583000 
# 
# From -- ./inp_files/3084.got.cif
#   From: 2010.05.17/outbox.cif.g08.bks.cpg/sg57_2_cif.got.tgz:3084.got - 2010.06.03 13:58:18.
