data_PCOD9438493
_publ_section_title
;
Structure prediction by ZEFSAII (Michael W. Deem and Ramdas Pophale) SiO2 
 PCOD9438493
Probable space group: P B C M
;
_chemical_formula_sum "Si O2"
_cell_formula_units_Z 64
_cell_length_a 15.698711
_cell_length_b 25.555084
_cell_length_c 8.377837
_cell_angle_alpha 90.000000
_cell_angle_beta 90.000000
_cell_angle_gamma 90.000000
_cell_volume 3361.036384
_symmetry_space_group_name_H-M "P B C M"
_symmetry_group_IT_number 57
_symmetry_cell_setting 'orthorhombic'
loop_
_space_group_symop_operation_xyz
x,y,z
-x,-y,1/2+z
x,1/2-y,-z
-x,1/2+y,1/2-z
-x,-y,-z
x,y,1/2-z
-x,1/2+y,z
x,1/2-y,1/2+z
loop_
_atom_site_type_symbol
_atom_site_label
_atom_site_fract_x
_atom_site_fract_y
_atom_site_fract_z
Si Si1 0.253213 0.501578 0.432351
Si Si2 0.772083 0.614920 0.438800
Si Si3 0.919310 0.806894 0.941972
Si Si4 0.715996 0.384188 0.557982
Si Si5 0.626091 0.691170 0.558204
Si Si6 0.092154 0.643183 0.056634
Si Si7 0.077579 0.532233 0.564422
Si Si8 0.431331 0.808652 0.440794
O O1 0.281808 0.496924 0.250000
O O2 0.252265 0.443380 0.503338
O O3 0.293809 0.555475 0.503415
O O4 0.155271 0.518267 0.449496
O O5 0.782814 0.610767 0.250000
O O6 0.857825 0.645334 0.499708
O O7 0.693951 0.652359 0.483122
O O8 0.914206 0.807201 0.750000
O O9 0.019663 0.814376 0.984001
O O10 0.889196 0.750000 0.000000
O O11 0.717780 0.387818 0.750000
O O12 0.806910 0.356772 0.512320
O O13 0.637890 0.348824 0.505214
O O14 0.643139 0.750000 0.500000
O O15 0.631945 0.689049 0.750000
O O16 0.528512 0.678393 0.510221
O O17 0.089118 0.636532 0.250000
O O18 0.059025 0.592528 0.964222
O O19 0.097441 0.521255 0.750000
O O20 0.000000 0.500000 0.500000
O O21 0.412672 0.750000 0.500000
O O22 0.428481 0.808762 0.250000
#
# Coordination Sequence:
#
# PCOD9438493 Si02
#       8
#     8   8   8   8   8   8   8   8
#     4  10  21  37  56  80 111 147 185 230 280 333
#     4  11  22  36  57  84 112 148 189 232 281 337
#     4  10  22  37  53  76 109 145 184 228 276 329
#     4   9  19  36  58  83 114 148 182 226 281 332
#     4  10  21  38  59  84 112 144 184 233 285 338
#     4   9  19  36  53  74 106 142 178 220 268 320
#     4  11  20  31  50  75 102 137 181 227 271 319
#     4  10  21  37  60  86 112 143 182 228 280 336
#
# _framework density 19.041744000000001
#
# number of rings (size 3 to 8) (size 9 to 14) (size 15 to 20)
#    0.000    2.000    0.000    4.500    0.000    8.000 
#    0.000    1.875    0.000    0.000    0.000    0.000 
#    0.000    0.000    0.000    0.000    0.000    0.000 
#
# Total GULP energy -356557.064661 kJ/mol
# GULP energy per Si atom -5571.204135 kJ/mol
# Density = 1.899840 g / cm^3
# Si number density = 19.041744 Si / 1000 Ang^3
#
#
#
# Elastic Constant Matrix: (Units=GPa)
#
#
# Indices 1 2 3 4 5 6 
#
# 1 77.3150 72.0956 6.3755 0.0000 0.0000 0.0000
# 2 72.0956 117.4055 12.1707 0.0000 0.0000 0.0000
# 3 6.3755 12.1707 9.8922 0.0000 0.0000 0.0000
# 4 0.0000 0.0000 0.0000 32.3310 0.0000 0.0000
# 5 0.0000 0.0000 0.0000 0.0000 35.8253 0.0000
# 6 0.0000 0.0000 0.0000 0.0000 0.0000 32.5291
#
#
#
# Elastic Compliance Matrix: (Units=1/GPa)
#
#
# Indices 1 2 3 4 5 6 
#
# 1 0.030392 -0.019064 0.003867 0.000000 0.000000 0.000000
# 2 -0.019064 0.021721 -0.014437 0.000000 0.000000 0.000000
# 3 0.003867 -0.014437 0.116359 0.000000 0.000000 0.000000
# 4 0.000000 0.000000 0.000000 0.030930 0.000000 0.000000
# 5 0.000000 0.000000 0.000000 0.000000 0.027913 0.000000
# 6 0.000000 0.000000 0.000000 0.000000 0.000000 0.030742
#
#
# Mechanical properties :
#
#
# Convention : Reuss Voigt Hill
#
# Bulk Modulus (GPa) = 9.15710 42.87737 26.01723
# Shear Modulus (GPa) = 14.13523 27.73514 20.93519
#
# Velocity S-wave (km/s) = 2.72753 3.82061 3.31937
# Velocity P-wave (km/s) = 3.83909 6.48299 5.32765
#
# Compressibility (1/GPa) = 0.10920490
#
# Stress axis : x y z
#
# Youngs Moduli (GPa) = 32.90327 46.03899 8.59407
#
# Poissons Ratio (x) = 0.87768 -0.03324
# Poissons Ratio (y) = 0.62726 0.12407
# Poissons Ratio (z) = -0.12725 0.66467
#
# Static dielectric constant tensor:
#      x y z
#    x 1.668610 0.000000 0.000000 
#    y 0.000000 1.782310 0.000000 
#    z 0.000000 0.000000 1.636490 
# 
# From -- ./inp_files/5745.got.cif
#   From: 2010.05.17/outbox.cif.g08.bks.cpg/sg57_3_cif.got.tgz:5745.got - 2010.06.03 13:58:18.
