data_PCOD9438642
_publ_section_title
;
Structure prediction by ZEFSAII (Michael W. Deem and Ramdas Pophale) SiO2 
 PCOD9438642
Probable space group: P B C M
;
_chemical_formula_sum "Si O2"
_cell_formula_units_Z 64
_cell_length_a 22.728096
_cell_length_b 8.384704
_cell_length_c 15.590953
_cell_angle_alpha 90.000000
_cell_angle_beta 90.000000
_cell_angle_gamma 90.000000
_cell_volume 2971.142304
_symmetry_space_group_name_H-M "P B C M"
_symmetry_group_IT_number 57
_symmetry_cell_setting 'orthorhombic'
loop_
_space_group_symop_operation_xyz
x,y,z
-x,-y,1/2+z
x,1/2-y,-z
-x,1/2+y,1/2-z
-x,-y,-z
x,y,1/2-z
-x,1/2+y,z
x,1/2-y,1/2+z
loop_
_atom_site_type_symbol
_atom_site_label
_atom_site_fract_x
_atom_site_fract_y
_atom_site_fract_z
Si Si1 0.310811 0.028936 0.656147
Si Si2 0.634617 0.659946 0.090356
Si Si3 0.579156 0.165505 0.091262
Si Si4 0.264812 0.561376 0.517518
Si Si5 0.519980 0.022824 0.652288
Si Si6 0.134588 0.562696 0.517933
Si Si7 0.044885 0.080792 0.347194
Si Si8 0.917409 0.948921 0.347188
O O1 0.286220 0.997613 0.750000
O O2 0.339308 0.204075 0.651242
O O3 0.361909 0.900380 0.634002
O O4 0.267074 0.017698 0.576645
O O5 0.575302 0.586891 0.127509
O O6 0.624101 0.750000 0.000000
O O7 0.682583 0.520914 0.070779
O O8 0.534254 0.016742 0.089805
O O9 0.544116 0.298906 0.143610
O O10 0.589708 0.250000 0.000000
O O11 0.272276 0.750000 0.500000
O O12 0.200023 0.531666 0.554501
O O13 0.500533 0.996774 0.750000
O O14 0.129986 0.750000 0.500000
O O15 0.084632 0.507034 0.583226
O O16 0.125769 0.478723 0.425982
O O17 0.056266 0.020716 0.250000
O O18 0.975773 0.054836 0.362987
O O19 0.060981 0.266549 0.349883
O O20 0.895524 0.981747 0.250000
#
# Coordination Sequence:
#
# PCOD9438642 Si02
#       8
#     8   8   8   8   8   8   8   8
#     4  11  22  39  62  89 118 152 195 249 301 353
#     4  10  21  39  61  84 114 152 190 235 292 353
#     4  12  24  40  61  86 119 157 195 237 296 364
#     4  10  23  43  62  83 115 157 203 244 293 355
#     4  12  23  37  58  87 117 148 189 241 293 351
#     4  11  23  39  61  87 120 161 203 250 301 357
#     4  10  21  38  60  90 124 161 201 247 298 355
#     4  10  21  37  61  90 124 160 200 247 301 360
#
# _framework density 21.540537
#
# number of rings (size 3 to 8) (size 9 to 14) (size 15 to 20)
#    0.000    1.250    0.000    7.125    0.000    5.000 
#    0.000    5.000    0.000    0.000    0.000    0.000 
#    0.000    0.000    0.000    0.000    0.000    0.000 
#
# Total GULP energy -357979.221453 kJ/mol
# GULP energy per Si atom -5593.425335 kJ/mol
# Density = 2.149151 g / cm^3
# Si number density = 21.540537 Si / 1000 Ang^3
#
#
#
# Elastic Constant Matrix: (Units=GPa)
#
#
# Indices 1 2 3 4 5 6 
#
# 1 56.7982 3.5785 7.0850 0.0000 0.0000 0.0000
# 2 3.5785 64.8671 -0.2065 0.0000 0.0000 0.0000
# 3 7.0850 -0.2065 70.5233 0.0000 0.0000 0.0000
# 4 0.0000 0.0000 0.0000 25.6597 0.0000 0.0000
# 5 0.0000 0.0000 0.0000 0.0000-1608.9812 0.0000
# 6 0.0000 0.0000 0.0000 0.0000 0.0000 13.8246
#
#
#
# Elastic Compliance Matrix: (Units=1/GPa)
#
#
# Indices 1 2 3 4 5 6 
#
# 1 0.017893 -0.000993 -0.001801 0.000000 0.000000 0.000000
# 2 -0.000993 0.015471 0.000145 0.000000 0.000000 0.000000
# 3 -0.001801 0.000145 0.014361 0.000000 0.000000 0.000000
# 4 0.000000 0.000000 0.000000 0.038972 0.000000 0.000000
# 5 0.000000 0.000000 0.000000 0.000000 -0.000622 0.000000
# 6 0.000000 0.000000 0.000000 0.000000 0.000000 0.072335
#
#
# Mechanical properties :
#
#
# Convention : Reuss Voigt Hill
#
# Bulk Modulus (GPa) = 23.56876 23.67808 23.62342
# Shear Modulus (GPa) = 28.11356 -301.78393 -136.83518
#
# Velocity S-wave (km/s) = 3.61660 -11.84925 -7.97887
# Velocity P-wave (km/s) = 5.32964 13.27366 8.59607
#
# Compressibility (1/GPa) = 0.04242905
#
# Stress axis : x y z
#
# Youngs Moduli (GPa) = 55.88672 64.63554 69.63288
#
# Poissons Ratio (x) = 0.06417 0.12538
# Poissons Ratio (y) = 0.05549 -0.01010
# Poissons Ratio (z) = 0.10063 -0.00937
#
# Static dielectric constant tensor:
#      x y z
#    x 1.763350 0.000000 0.000000 
#    y 0.000000 1.829740 0.000000 
#    z 0.000000 0.000000 1.782000 
# 
# From -- ./inp_files/19520.got.cif
#   From: 2010.05.17/outbox.cif.g08.bks.cpg/sg57_10_cif.got.tgz:19520.got - 2010.06.03 13:58:18.
