data_PCOD9438866
_publ_section_title
;
Structure prediction by ZEFSAII (Michael W. Deem and Ramdas Pophale) SiO2 
 PCOD9438866
Probable space group: P B C M
;
_chemical_formula_sum "Si O2"
_cell_formula_units_Z 64
_cell_length_a 9.361438
_cell_length_b 22.207367
_cell_length_c 14.562752
_cell_angle_alpha 90.000000
_cell_angle_beta 90.000000
_cell_angle_gamma 90.000000
_cell_volume 3027.492590
_symmetry_space_group_name_H-M "P B C M"
_symmetry_group_IT_number 57
_symmetry_cell_setting 'orthorhombic'
loop_
_space_group_symop_operation_xyz
x,y,z
-x,-y,1/2+z
x,1/2-y,-z
-x,1/2+y,1/2-z
-x,-y,-z
x,y,1/2-z
-x,1/2+y,z
x,1/2-y,1/2+z
loop_
_atom_site_type_symbol
_atom_site_label
_atom_site_fract_x
_atom_site_fract_y
_atom_site_fract_z
Si Si1 0.682136 0.550233 0.358366
Si Si2 0.213626 0.333146 0.953679
Si Si3 0.344241 0.123924 0.646529
Si Si4 0.855421 0.463263 0.483960
Si Si5 0.101627 0.671463 0.983332
Si Si6 0.529813 0.747042 0.896152
Si Si7 0.770996 0.275219 0.648101
Si Si8 0.630900 0.482003 0.857467
O O1 0.683726 0.542282 0.250000
O O2 0.765691 0.610188 0.387416
O O3 0.758856 0.495707 0.408615
O O4 0.515214 0.551215 0.386907
O O5 0.318849 0.282333 0.908975
O O6 0.258405 0.358561 0.054468
O O7 0.053514 0.312813 0.973907
O O8 0.278018 0.127663 0.750000
O O9 0.455362 0.179281 0.641035
O O10 0.394058 0.054864 0.636301
O O11 0.896839 0.396873 0.451264
O O12 0.761436 0.465826 0.576784
O O13 0.000000 0.500000 0.500000
O O14 0.164317 0.716469 0.906021
O O15 0.196934 0.673329 0.074903
O O16 0.399743 0.775527 0.842951
O O17 0.474232 0.750000 0.000000
O O18 0.834213 0.280601 0.750000
O O19 0.659358 0.468632 0.750000
#
# Coordination Sequence:
#
# PCOD9438866 Si02
#       8
#     8   8   8   8   8   8   8   8
#     4  11  25  42  66 101 135 181 234 281 338 404
#     4  11  24  45  68  94 138 181 226 280 338 412
#     4  10  21  38  66  99 129 168 224 279 336 396
#     4  12  24  45  70  97 138 180 223 279 343 410
#     4  11  26  46  68  99 138 179 223 272 347 406
#     4  10  22  40  69  95 130 176 225 285 337 400
#     4  11  26  46  69 101 135 176 229 283 341 403
#     4  10  23  41  67  99 134 176 228 282 338 403
#
# _framework density 21.139606000000001
#
# number of rings (size 3 to 8) (size 9 to 14) (size 15 to 20)
#    0.000    1.250    3.750    0.750    8.750    3.500 
#    0.000    0.000    0.000    0.000    0.000    0.000 
#    0.000    0.000    0.000    0.000    0.000    0.000 
#
# Total GULP energy -356774.576527 kJ/mol
# GULP energy per Si atom -5574.602758 kJ/mol
# Density = 2.109149 g / cm^3
# Si number density = 21.139606 Si / 1000 Ang^3
#
#
#
# Elastic Constant Matrix: (Units=GPa)
#
#
# Indices 1 2 3 4 5 6 
#
# 1 101.0741 -0.6071 14.4561 0.0000 0.0000 0.0000
# 2 -0.6071 81.0975 -4.2996 0.0000 0.0000 0.0000
# 3 14.4561 -4.2996 97.0194 0.0000 0.0000 0.0000
# 4 0.0000 0.0000 0.0000 -9.7591 0.0000 0.0000
# 5 0.0000 0.0000 0.0000 0.0000 16.7531 0.0000
# 6 0.0000 0.0000 0.0000 0.0000 0.0000 0.9441
#
#
#
# Elastic Compliance Matrix: (Units=1/GPa)
#
#
# Indices 1 2 3 4 5 6 
#
# 1 0.010109 -0.000004 -0.001506 0.000000 0.000000 0.000000
# 2 -0.000004 0.012360 0.000548 0.000000 0.000000 0.000000
# 3 -0.001506 0.000548 0.010556 0.000000 0.000000 0.000000
# 4 0.000000 0.000000 0.000000 -0.102469 0.000000 0.000000
# 5 0.000000 0.000000 0.000000 0.000000 0.059691 0.000000
# 6 0.000000 0.000000 0.000000 0.000000 0.000000 1.059190
#
#
# Mechanical properties :
#
#
# Convention : Reuss Voigt Hill
#
# Bulk Modulus (GPa) = 32.15386 33.14331 32.64858
# Shear Modulus (GPa) = 4.70930 19.56373 12.13652
#
# Velocity S-wave (km/s) = 1.49417 3.04543 2.39866
# Velocity P-wave (km/s) = 4.26849 5.29892 4.81137
#
# Compressibility (1/GPa) = 0.03110046
#
# Stress axis : x y z
#
# Youngs Moduli (GPa) = 98.92013 80.90695 94.73291
#
# Poissons Ratio (x) = 0.00034 0.14271
# Poissons Ratio (y) = 0.00041 -0.05195
# Poissons Ratio (z) = 0.14902 -0.04437
#
# Static dielectric constant tensor:
#      x y z
#    x 1.798900 0.000000 0.000000 
#    y 0.000000 1.797620 0.000000 
#    z 0.000000 0.000000 1.779450 
# 
# From -- ./inp_files/16923.got.cif
#   From: 2010.05.17/outbox.cif.g08.bks.cpg/sg57_9_cif.got.tgz:16923.got - 2010.06.03 13:58:18.
