data_PCOD9438311
_publ_section_title
;
Structure prediction by ZEFSAII (Michael W. Deem and Ramdas Pophale) SiO2 
 PCOD9438311
Probable space group: P B C M
;
_chemical_formula_sum "Si O2"
_cell_formula_units_Z 48
_cell_length_a 13.420696
_cell_length_b 20.314869
_cell_length_c 9.955130
_cell_angle_alpha 90.000000
_cell_angle_beta 90.000000
_cell_angle_gamma 90.000000
_cell_volume 2714.163469
_symmetry_space_group_name_H-M "P B C M"
_symmetry_group_IT_number 57
_symmetry_cell_setting 'orthorhombic'
loop_
_space_group_symop_operation_xyz
x,y,z
-x,-y,1/2+z
x,1/2-y,-z
-x,1/2+y,1/2-z
-x,-y,-z
x,y,1/2-z
-x,1/2+y,z
x,1/2-y,1/2+z
loop_
_atom_site_type_symbol
_atom_site_label
_atom_site_fract_x
_atom_site_fract_y
_atom_site_fract_z
Si Si1 0.891866 0.047450 0.250000
Si Si2 0.025536 0.397643 0.250000
Si Si3 0.148843 0.173192 0.976829
Si Si4 0.888920 0.598208 0.250000
Si Si5 0.493500 0.565648 0.406469
Si Si6 0.194527 0.549819 0.750000
Si Si7 0.345576 0.104828 0.596526
Si Si8 0.276855 0.545096 0.039425
O O1 0.822272 0.061010 0.377806
O O2 0.992170 0.088978 0.250000
O O3 0.925174 0.970685 0.250000
O O4 0.067080 0.358888 0.378700
O O5 0.906889 0.407615 0.250000
O O6 0.144012 0.136213 0.118150
O O7 0.133160 0.250000 0.000000
O O8 0.257346 0.157273 0.915539
O O9 0.841653 0.525874 0.250000
O O10 0.500000 0.500000 0.500000
O O11 0.521959 0.555112 0.250000
O O12 0.568830 0.613551 0.484761
O O13 0.376328 0.581883 0.411398
O O14 0.257862 0.558943 0.615862
O O15 0.384111 0.103089 0.750000
O O16 0.296898 0.032765 0.567273
#
# Coordination Sequence:
#
# PCOD9438311 Si02
#       8
#     4   4   8   4   8   4   8   8
#     4  11  18  36  58  76 118 151 180 229 293 341
#     4  11  21  40  51  81 116 151 187 229 286 335
#     4  12  23  38  57  79 114 150 190 236 280 337
#     4  11  23  34  55  87 106 151 195 231 278 345
#     4  10  21  31  51  78 115 147 179 220 272 334
#     4  11  22  30  58  82 116 149 184 233 281 353
#     4  11  21  36  52  77 115 151 185 227 279 341
#     4  11  18  33  51  82 114 148 176 222 285 340
#
# _framework density 17.685006999999999
#
# number of rings (size 3 to 8) (size 9 to 14) (size 15 to 20)
#    0.000    1.000    5.833    3.000    7.000    2.667 
#    0.000    0.000    0.000    0.000    0.000    7.000 
#    0.000    0.000    0.000    0.000    0.000    0.000 
#
# Total GULP energy -267935.783872 kJ/mol
# GULP energy per Si atom -5581.995497 kJ/mol
# Density = 1.764476 g / cm^3
# Si number density = 17.685007 Si / 1000 Ang^3
#
#
#
# Elastic Constant Matrix: (Units=GPa)
#
#
# Indices 1 2 3 4 5 6 
#
# 1 69.6036 11.5260 31.3377 0.0000 0.0000 0.0000
# 2 11.5260 45.3699 16.5620 0.0000 0.0000 0.0000
# 3 31.3377 16.5620 164.5272 0.0000 0.0000 0.0000
# 4 0.0000 0.0000 0.0000 -1.9320 0.0000 0.0000
# 5 0.0000 0.0000 0.0000 0.0000 109.7217 0.0000
# 6 0.0000 0.0000 0.0000 0.0000 0.0000 9.7194
#
#
#
# Elastic Compliance Matrix: (Units=1/GPa)
#
#
# Indices 1 2 3 4 5 6 
#
# 1 0.016121 -0.003088 -0.002760 0.000000 0.000000 0.000000
# 2 -0.003088 0.023473 -0.001775 0.000000 0.000000 0.000000
# 3 -0.002760 -0.001775 0.006782 0.000000 0.000000 0.000000
# 4 0.000000 0.000000 0.000000 -0.517609 0.000000 0.000000
# 5 0.000000 0.000000 0.000000 0.000000 0.009114 0.000000
# 6 0.000000 0.000000 0.000000 0.000000 0.000000 0.102887
#
#
# Mechanical properties :
#
#
# Convention : Reuss Voigt Hill
#
# Bulk Modulus (GPa) = 32.12163 44.26134 38.19148
# Shear Modulus (GPa) = -14.98758 38.17350 11.59296
#
# Velocity S-wave (km/s) = -2.91430 4.65103 2.56310
# Velocity P-wave (km/s) = 2.62268 7.34335 5.51376
#
# Compressibility (1/GPa) = 0.03113167
#
# Stress axis : x y z
#
# Youngs Moduli (GPa) = 62.03109 42.60144 147.44211
#
# Poissons Ratio (x) = 0.13155 0.40690
# Poissons Ratio (y) = 0.19155 0.26167
# Poissons Ratio (z) = 0.17119 0.07561
#
# Static dielectric constant tensor:
#      x y z
#    x 1.639330 0.000000 0.000000 
#    y 0.000000 1.573320 0.000000 
#    z 0.000000 0.000000 1.635040 
# 
# From -- ./inp_files/4789.got.cif
#   From: 2010.05.17/outbox.cif.g08.bks.cpg/sg57_3_cif.got.tgz:4789.got - 2010.06.03 13:58:18.
