data_PCOD9438601
_publ_section_title
;
Structure prediction by ZEFSAII (Michael W. Deem and Ramdas Pophale) SiO2 
 PCOD9438601
Probable space group: P B C M
;
_chemical_formula_sum "Si O2"
_cell_formula_units_Z 40
_cell_length_a 10.136879
_cell_length_b 23.033622
_cell_length_c 8.642584
_cell_angle_alpha 90.000000
_cell_angle_beta 90.000000
_cell_angle_gamma 90.000000
_cell_volume 2017.948634
_symmetry_space_group_name_H-M "P B C M"
_symmetry_group_IT_number 57
_symmetry_cell_setting 'orthorhombic'
loop_
_space_group_symop_operation_xyz
x,y,z
-x,-y,1/2+z
x,1/2-y,-z
-x,1/2+y,1/2-z
-x,-y,-z
x,y,1/2-z
-x,1/2+y,z
x,1/2-y,1/2+z
loop_
_atom_site_type_symbol
_atom_site_label
_atom_site_fract_x
_atom_site_fract_y
_atom_site_fract_z
Si Si1 0.854265 0.516315 0.563283
Si Si2 0.278006 0.898172 0.563695
Si Si3 0.774415 0.858255 0.563550
Si Si4 0.052028 0.810249 0.564813
Si Si5 0.501855 0.313521 0.434025
O O1 0.861903 0.519730 0.750000
O O2 0.752082 0.464629 0.522245
O O3 0.802803 0.576513 0.493769
O O4 0.000000 0.500000 0.500000
O O5 0.293121 0.895151 0.750000
O O6 0.146319 0.862786 0.519106
O O7 0.398585 0.863917 0.488740
O O8 0.766656 0.857798 0.750000
O O9 0.642590 0.831125 0.494550
O O10 0.903044 0.821941 0.512911
O O11 0.103475 0.750000 0.500000
O O12 0.051917 0.807691 0.750000
O O13 0.538656 0.250000 0.500000
O O14 0.501948 0.310033 0.250000
#
# Coordination Sequence:
#
# PCOD9438601 Si02
#       5
#     8   8   8   8   8
#     4  11  22  40  66  96 131 167 211 265 321 379
#     4  10  22  42  64  91 126 167 211 261 315 376
#     4  11  23  42  65  92 127 169 213 264 318 377
#     4  10  21  37  59  89 121 158 208 259 312 371
#     4  12  26  44  65  94 128 170 214 261 320 382
#
# _framework density 19.822109999999999
#
# number of rings (size 3 to 8) (size 9 to 14) (size 15 to 20)
#    0.000    1.200    2.000    4.200    0.000    8.000 
#    0.000    0.000    0.000    0.000    0.000    0.000 
#    0.000    0.000    0.000    0.000    0.000    0.000 
#
# Total GULP energy -223657.785550 kJ/mol
# GULP energy per Si atom -5591.444639 kJ/mol
# Density = 1.977699 g / cm^3
# Si number density = 19.822110 Si / 1000 Ang^3
#
#
#
# Elastic Constant Matrix: (Units=GPa)
#
#
# Indices 1 2 3 4 5 6 
#
# 1 63.1308 -13.1771 12.3319 0.0000 0.0000 0.0000
# 2 -13.1771 87.1827 11.4719 0.0000 0.0000 0.0000
# 3 12.3319 11.4719 54.9303 0.0000 0.0000 0.0000
# 4 0.0000 0.0000 0.0000 34.4773 0.0000 0.0000
# 5 0.0000 0.0000 0.0000 0.0000 17.9387 0.0000
# 6 0.0000 0.0000 0.0000 0.0000 0.0000 7.9745
#
#
#
# Elastic Compliance Matrix: (Units=1/GPa)
#
#
# Indices 1 2 3 4 5 6 
#
# 1 0.017411 0.003235 -0.004584 0.000000 0.000000 0.000000
# 2 0.003235 0.012395 -0.003315 0.000000 0.000000 0.000000
# 3 -0.004584 -0.003315 0.019926 0.000000 0.000000 0.000000
# 4 0.000000 0.000000 0.000000 0.029005 0.000000 0.000000
# 5 0.000000 0.000000 0.000000 0.000000 0.055745 0.000000
# 6 0.000000 0.000000 0.000000 0.000000 0.000000 0.125399
#
#
# Mechanical properties :
#
#
# Convention : Reuss Voigt Hill
#
# Bulk Modulus (GPa) = 24.75029 25.16636 24.95832
# Shear Modulus (GPa) = 17.68795 25.05259 21.37027
#
# Velocity S-wave (km/s) = 2.99044 3.55895 3.28701
# Velocity P-wave (km/s) = 4.94337 5.44168 5.19850
#
# Compressibility (1/GPa) = 0.04040356
#
# Stress axis : x y z
#
# Youngs Moduli (GPa) = 57.43554 80.67600 50.18480
#
# Poissons Ratio (x) = -0.26097 0.23006
# Poissons Ratio (y) = -0.18579 0.16636
# Poissons Ratio (z) = 0.26330 0.26743
#
# Static dielectric constant tensor:
#      x y z
#    x 1.684970 0.000000 0.000000 
#    y 0.000000 1.326850 0.000000 
#    z 0.000000 0.000000 1.665310 
# 
# From -- ./inp_files/1508.got.cif
#   From: 2010.05.17/outbox.cif.g08.bks.cpg/sg57_1_cif.got.tgz:1508.got - 2010.06.03 13:58:18.
