data_PCOD9438133
_publ_section_title
;
Structure prediction by ZEFSAII (Michael W. Deem and Ramdas Pophale) SiO2 
 PCOD9438133
Probable space group: P B C M
;
_chemical_formula_sum "Si O2"
_cell_formula_units_Z 64
_cell_length_a 9.817256
_cell_length_b 10.444979
_cell_length_c 30.625253
_cell_angle_alpha 90.000000
_cell_angle_beta 90.000000
_cell_angle_gamma 90.000000
_cell_volume 3140.345071
_symmetry_space_group_name_H-M "P B C M"
_symmetry_group_IT_number 57
_symmetry_cell_setting 'orthorhombic'
loop_
_space_group_symop_operation_xyz
x,y,z
-x,-y,1/2+z
x,1/2-y,-z
-x,1/2+y,1/2-z
-x,-y,-z
x,y,1/2-z
-x,1/2+y,z
x,1/2-y,1/2+z
loop_
_atom_site_type_symbol
_atom_site_label
_atom_site_fract_x
_atom_site_fract_y
_atom_site_fract_z
Si Si1 0.425545 0.150266 0.140361
Si Si2 0.038125 0.910537 0.087924
Si Si3 0.793518 0.782081 0.198450
Si Si4 0.707950 0.041228 0.148383
Si Si5 0.987602 0.165712 0.358653
Si Si6 0.162705 0.124138 0.983769
Si Si7 0.314102 0.525182 0.938835
Si Si8 0.591740 0.624808 0.574537
O O1 0.318650 0.189594 0.176935
O O2 0.456646 0.277322 0.111848
O O3 0.561329 0.094669 0.162321
O O4 0.358241 0.057457 0.103854
O O5 0.978816 0.780262 0.107788
O O6 0.194017 0.881290 0.076217
O O7 0.942994 0.949707 0.047168
O O8 0.036111 0.029664 0.121570
O O9 0.782627 0.794398 0.250000
O O10 0.765113 0.920033 0.175604
O O11 0.935190 0.715858 0.184163
O O12 0.667761 0.990816 0.099882
O O13 0.826933 0.145337 0.147982
O O14 0.288476 0.178288 0.955029
O O15 0.084836 0.250000 0.000000
O O16 0.237045 0.047560 0.022129
O O17 0.458249 0.585466 0.952207
#
# Coordination Sequence:
#
# PCOD9438133 Si02
#       8
#     8   8   8   8   8   8   8   8
#     4  10  20  41  67  90 127 173 215 270 335 401
#     4  12  24  41  66  93 130 176 228 271 330 397
#     4  11  24  43  69 100 132 167 212 274 342 407
#     4  10  22  41  69  94 130 169 224 267 330 397
#     4  12  22  45  69  95 132 178 220 273 333 408
#     4  12  22  39  59  89 134 173 221 286 327 377
#     4  11  22  36  60  88 126 169 223 265 328 387
#     4  10  20  39  60  93 123 174 219 273 328 388
#
# _framework density 20.379926000000001
#
# number of rings (size 3 to 8) (size 9 to 14) (size 15 to 20)
#    0.000    1.000    5.000    3.000    0.000    1.000 
#    0.000    0.625    0.000    0.000    0.000    0.000 
#    0.000    0.000    0.000    0.000    0.000    0.000 
#
# Total GULP energy -356989.679883 kJ/mol
# GULP energy per Si atom -5577.963748 kJ/mol
# Density = 2.033354 g / cm^3
# Si number density = 20.379926 Si / 1000 Ang^3
#
#
#
# Elastic Constant Matrix: (Units=GPa)
#
#
# Indices 1 2 3 4 5 6 
#
# 1 130.9709 22.6189 35.8829 0.0000 0.0000 0.0000
# 2 22.6189 51.7347 9.0819 0.0000 0.0000 0.0000
# 3 35.8829 9.0819 62.7954 0.0000 0.0000 0.0000
# 4 0.0000 0.0000 0.0000 16.3524 0.0000 0.0000
# 5 0.0000 0.0000 0.0000 0.0000 15.5928 0.0000
# 6 0.0000 0.0000 0.0000 0.0000 0.0000 32.5116
#
#
#
# Elastic Compliance Matrix: (Units=1/GPa)
#
#
# Indices 1 2 3 4 5 6 
#
# 1 0.009575 -0.003310 -0.004993 0.000000 0.000000 0.000000
# 2 -0.003310 0.020977 -0.001143 0.000000 0.000000 0.000000
# 3 -0.004993 -0.001143 0.018943 0.000000 0.000000 0.000000
# 4 0.000000 0.000000 0.000000 0.061153 0.000000 0.000000
# 5 0.000000 0.000000 0.000000 0.000000 0.064132 0.000000
# 6 0.000000 0.000000 0.000000 0.000000 0.000000 0.030758
#
#
# Mechanical properties :
#
#
# Convention : Reuss Voigt Hill
#
# Bulk Modulus (GPa) = 32.67457 42.29651 37.48554
# Shear Modulus (GPa) = 21.31023 24.75254 23.03138
#
# Velocity S-wave (km/s) = 3.23716 3.48883 3.36535
# Velocity P-wave (km/s) = 5.48085 6.08509 5.79086
#
# Compressibility (1/GPa) = 0.03060484
#
# Stress axis : x y z
#
# Youngs Moduli (GPa) = 104.44167 47.67126 52.79036
#
# Poissons Ratio (x) = 0.15778 0.26356
# Poissons Ratio (y) = 0.34567 0.06032
# Poissons Ratio (z) = 0.52143 0.05447
#
# Static dielectric constant tensor:
#      x y z
#    x 1.752740 0.000000 0.000000 
#    y 0.000000 1.756540 0.000000 
#    z 0.000000 0.000000 1.733930 
# 
# From -- ./inp_files/29624.got.cif
#   From: 2010.05.17/outbox.cif.g08.bks.cpg/sg57_15_cif.got.tgz:29624.got - 2010.06.03 13:58:18.
