data_PCOD9438792
_publ_section_title
;
Structure prediction by ZEFSAII (Michael W. Deem and Ramdas Pophale) SiO2 
 PCOD9438792
Probable space group: P B C M
;
_chemical_formula_sum "Si O2"
_cell_formula_units_Z 56
_cell_length_a 14.939817
_cell_length_b 20.230399
_cell_length_c 9.048781
_cell_angle_alpha 90.000000
_cell_angle_beta 90.000000
_cell_angle_gamma 90.000000
_cell_volume 2734.889624
_symmetry_space_group_name_H-M "P B C M"
_symmetry_group_IT_number 57
_symmetry_cell_setting 'orthorhombic'
loop_
_space_group_symop_operation_xyz
x,y,z
-x,-y,1/2+z
x,1/2-y,-z
-x,1/2+y,1/2-z
-x,-y,-z
x,y,1/2-z
-x,1/2+y,z
x,1/2-y,1/2+z
loop_
_atom_site_type_symbol
_atom_site_label
_atom_site_fract_x
_atom_site_fract_y
_atom_site_fract_z
Si Si1 0.522885 0.317017 0.081062
Si Si2 0.306933 0.182975 0.580241
Si Si3 0.077252 0.457428 0.927136
Si Si4 0.360620 0.921941 0.573118
Si Si5 0.003308 0.180911 0.427091
Si Si6 0.795915 0.180158 0.426856
Si Si7 0.722119 0.956341 0.926711
O O1 0.555691 0.318383 0.250000
O O2 0.415389 0.315038 0.083889
O O3 0.553641 0.250000 0.000000
O O4 0.557352 0.380699 0.993523
O O5 0.275743 0.250000 0.500000
O O6 0.275179 0.179863 0.750000
O O7 0.284230 0.117398 0.489746
O O8 0.067102 0.460197 0.750000
O O9 0.177095 0.480204 0.963880
O O10 0.063137 0.381104 0.972281
O O11 0.000000 0.500000 0.000000
O O12 0.367152 0.926725 0.750000
O O13 0.273690 0.877044 0.533349
O O14 0.346866 0.993608 0.502270
O O15 0.028486 0.250000 0.500000
O O16 0.007686 0.187736 0.250000
O O17 0.899355 0.165633 0.467144
O O18 0.772179 0.250000 0.500000
O O19 0.792347 0.187578 0.250000
O O20 0.711094 0.955979 0.750000
#
# Coordination Sequence:
#
# PCOD9438792 Si02
#       7
#     8   8   8   8   8   8   8
#     4  10  21  38  61  89 119 153 193 236 284 340
#     4  10  22  42  66  89 116 152 193 239 291 345
#     4  10  22  39  59  83 113 150 192 238 288 344
#     4  11  22  36  56  83 116 155 196 238 288 345
#     4   9  18  34  53  76 106 139 180 228 277 331
#     4   9  18  31  50  76 108 146 185 227 276 333
#     4  11  24  40  59  86 117 151 194 243 294 347
#
# _framework density 20.476146
#
# number of rings (size 3 to 8) (size 9 to 14) (size 15 to 20)
#    0.000    2.000    0.000    3.000    0.000    8.000 
#    0.000    4.286    0.000    0.000    0.000    0.000 
#    0.000    0.000    0.000    0.000    0.000    0.000 
#
# Total GULP energy -312990.864574 kJ/mol
# GULP energy per Si atom -5589.122582 kJ/mol
# Density = 2.042954 g / cm^3
# Si number density = 20.476146 Si / 1000 Ang^3
#
#
#
# Elastic Constant Matrix: (Units=GPa)
#
#
# Indices 1 2 3 4 5 6 
#
# 1 19.0974 0.9316 17.0554 0.0000 0.0000 0.0000
# 2 0.9316 99.0596 35.5924 0.0000 0.0000 0.0000
# 3 17.0554 35.5924 68.5174 0.0000 0.0000 0.0000
# 4 0.0000 0.0000 0.0000 40.6860 0.0000 0.0000
# 5 0.0000 0.0000 0.0000 0.0000 20.2855 0.0000
# 6 0.0000 0.0000 0.0000 0.0000 0.0000 28.2188
#
#
#
# Elastic Compliance Matrix: (Units=1/GPa)
#
#
# Indices 1 2 3 4 5 6 
#
# 1 0.071064 0.006993 -0.021322 0.000000 0.000000 0.000000
# 2 0.006993 0.013100 -0.008545 0.000000 0.000000 0.000000
# 3 -0.021322 -0.008545 0.024341 0.000000 0.000000 0.000000
# 4 0.000000 0.000000 0.000000 0.024578 0.000000 0.000000
# 5 0.000000 0.000000 0.000000 0.000000 0.049296 0.000000
# 6 0.000000 0.000000 0.000000 0.000000 0.000000 0.035437
#
#
# Mechanical properties :
#
#
# Convention : Reuss Voigt Hill
#
# Bulk Modulus (GPa) = 15.93481 32.64813 24.29147
# Shear Modulus (GPa) = 17.57570 26.71107 22.14339
#
# Velocity S-wave (km/s) = 2.93294 3.61570 3.29207
# Velocity P-wave (km/s) = 4.38959 5.78015 5.13219
#
# Compressibility (1/GPa) = 0.06275570
#
# Stress axis : x y z
#
# Youngs Moduli (GPa) = 14.07189 76.33862 41.08258
#
# Poissons Ratio (x) = -0.53380 0.87595
# Poissons Ratio (y) = -0.09840 0.35106
# Poissons Ratio (z) = 0.30003 0.65234
#
# Static dielectric constant tensor:
#      x y z
#    x 1.758490 0.000000 0.000000 
#    y 0.000000 1.702510 0.000000 
#    z 0.000000 0.000000 1.689360 
# 
# From -- ./inp_files/5211.got.cif
#   From: 2010.05.17/outbox.cif.g08.bks.cpg/sg57_3_cif.got.tgz:5211.got - 2010.06.03 13:58:18.
