data_PCOD9438892
_publ_section_title
;
Structure prediction by ZEFSAII (Michael W. Deem and Ramdas Pophale) SiO2 
 PCOD9438892
Probable space group: P B C M
;
_chemical_formula_sum "Si O2"
_cell_formula_units_Z 48
_cell_length_a 15.322028
_cell_length_b 19.647101
_cell_length_c 8.657496
_cell_angle_alpha 90.000000
_cell_angle_beta 90.000000
_cell_angle_gamma 90.000000
_cell_volume 2606.195730
_symmetry_space_group_name_H-M "P B C M"
_symmetry_group_IT_number 57
_symmetry_cell_setting 'orthorhombic'
loop_
_space_group_symop_operation_xyz
x,y,z
-x,-y,1/2+z
x,1/2-y,-z
-x,1/2+y,1/2-z
-x,-y,-z
x,y,1/2-z
-x,1/2+y,z
x,1/2-y,1/2+z
loop_
_atom_site_type_symbol
_atom_site_label
_atom_site_fract_x
_atom_site_fract_y
_atom_site_fract_z
Si Si1 0.063304 0.324657 0.565714
Si Si2 0.220380 0.089280 0.563654
Si Si3 0.608068 0.674179 0.935967
Si Si4 0.871468 0.175124 0.565352
Si Si5 0.735409 0.433422 0.564502
Si Si6 0.541378 0.069618 0.936036
O O1 0.087504 0.250000 0.500000
O O2 0.057924 0.320794 0.750000
O O3 0.135400 0.378477 0.513169
O O4 0.968161 0.341675 0.497620
O O5 0.212134 0.094133 0.750000
O O6 0.305450 0.132722 0.516117
O O7 0.235919 0.010470 0.524321
O O8 0.608974 0.677010 0.750000
O O9 0.522922 0.631098 0.982331
O O10 0.608202 0.750000 0.000000
O O11 0.849680 0.250000 0.500000
O O12 0.873455 0.177575 0.750000
O O13 0.802178 0.120399 0.506687
O O14 0.735335 0.427682 0.750000
O O15 0.638086 0.421908 0.501820
O O16 0.543877 0.066396 0.750000
O O17 0.500000 0.000000 0.000000
#
# Coordination Sequence:
#
# PCOD9438892 Si02
#       6
#     8   8   8   8   8   8
#     4  11  22  38  61  89 121 161 203 249 304 360
#     4  10  21  39  60  87 123 160 199 248 302 361
#     4  10  22  39  59  88 121 157 200 249 299 354
#     4  11  23  42  65  90 120 159 204 252 303 362
#     4  11  23  41  64  91 123 159 199 253 309 361
#     4  11  22  40  62  87 120 161 206 250 304 364
#
# _framework density 18.417650999999999
#
# number of rings (size 3 to 8) (size 9 to 14) (size 15 to 20)
#    0.000    1.333    1.667    5.500    0.000    6.000 
#    0.000    1.667    0.000    0.000    0.000    0.000 
#    0.000    0.000    0.000    0.000    0.000    0.000 
#
# Total GULP energy -268393.686343 kJ/mol
# GULP energy per Si atom -5591.535132 kJ/mol
# Density = 1.837573 g / cm^3
# Si number density = 18.417651 Si / 1000 Ang^3
#
#
#
# Elastic Constant Matrix: (Units=GPa)
#
#
# Indices 1 2 3 4 5 6 
#
# 1 167.5438 133.2380 74.3879 0.0000 0.0000 0.0000
# 2 133.2380 174.5280 75.3494 0.0000 0.0000 0.0000
# 3 74.3879 75.3494 101.7074 0.0000 0.0000 0.0000
# 4 0.0000 0.0000 0.0000 31.9574 0.0000 0.0000
# 5 0.0000 0.0000 0.0000 0.0000 32.3649 0.0000
# 6 0.0000 0.0000 0.0000 0.0000 0.0000 40.9575
#
#
#
# Elastic Compliance Matrix: (Units=1/GPa)
#
#
# Indices 1 2 3 4 5 6 
#
# 1 0.016203 -0.010664 -0.003950 0.000000 0.000000 0.000000
# 2 -0.010664 0.015443 -0.003641 0.000000 0.000000 0.000000
# 3 -0.003950 -0.003641 0.015419 0.000000 0.000000 0.000000
# 4 0.000000 0.000000 0.000000 0.031292 0.000000 0.000000
# 5 0.000000 0.000000 0.000000 0.000000 0.030898 0.000000
# 6 0.000000 0.000000 0.000000 0.000000 0.000000 0.024416
#
#
# Mechanical properties :
#
#
# Convention : Reuss Voigt Hill
#
# Bulk Modulus (GPa) = 94.75388 112.19219 103.47303
# Shear Modulus (GPa) = 28.78531 31.77619 30.28075
#
# Velocity S-wave (km/s) = 3.95767 4.15819 4.05917
# Velocity P-wave (km/s) = 8.51136 9.17071 8.84718
#
# Compressibility (1/GPa) = 0.01055366
#
# Stress axis : x y z
#
# Youngs Moduli (GPa) = 61.71592 64.75356 64.85589
#
# Poissons Ratio (x) = 0.69056 0.25620
# Poissons Ratio (y) = 0.65817 0.23615
# Poissons Ratio (z) = 0.24379 0.23577
#
# Static dielectric constant tensor:
#      x y z
#    x 1.607630 0.000000 0.000000 
#    y 0.000000 1.605960 0.000000 
#    z 0.000000 0.000000 1.579650 
# 
# From -- ./inp_files/4654.got.cif
#   From: 2010.05.17/outbox.cif.g08.bks.cpg/sg57_3_cif.got.tgz:4654.got - 2010.06.03 13:58:18.
