data_PCOD9438355
_publ_section_title
;
Structure prediction by ZEFSAII (Michael W. Deem and Ramdas Pophale) SiO2 
 PCOD9438355
Probable space group: P B C M
;
_chemical_formula_sum "Si O2"
_cell_formula_units_Z 64
_cell_length_a 12.384865
_cell_length_b 11.583025
_cell_length_c 24.791347
_cell_angle_alpha 90.000000
_cell_angle_beta 90.000000
_cell_angle_gamma 90.000000
_cell_volume 3556.422874
_symmetry_space_group_name_H-M "P B C M"
_symmetry_group_IT_number 57
_symmetry_cell_setting 'orthorhombic'
loop_
_space_group_symop_operation_xyz
x,y,z
-x,-y,1/2+z
x,1/2-y,-z
-x,1/2+y,1/2-z
-x,-y,-z
x,y,1/2-z
-x,1/2+y,z
x,1/2-y,1/2+z
loop_
_atom_site_type_symbol
_atom_site_label
_atom_site_fract_x
_atom_site_fract_y
_atom_site_fract_z
Si Si1 0.294424 0.413987 0.148056
Si Si2 0.902961 0.450581 0.685278
Si Si3 0.365257 0.372632 0.473389
Si Si4 0.851783 0.520701 0.184494
Si Si5 0.426942 0.863293 0.634493
Si Si6 0.757248 0.227028 0.814323
Si Si7 0.391069 0.876206 0.992844
Si Si8 0.346384 0.326816 0.811630
O O1 0.172212 0.454669 0.157143
O O2 0.318601 0.377532 0.086702
O O3 0.369767 0.524254 0.159766
O O4 0.324063 0.308575 0.185843
O O5 0.900454 0.471092 0.750000
O O6 0.844394 0.328205 0.675746
O O7 0.026511 0.454073 0.666481
O O8 0.333798 0.250000 0.500000
O O9 0.497000 0.372556 0.473565
O O10 0.337368 0.497177 0.501558
O O11 0.855402 0.526488 0.250000
O O12 0.809715 0.393963 0.169918
O O13 0.760657 0.610483 0.166861
O O14 0.352160 0.757368 0.654037
O O15 0.421574 0.877213 0.570420
O O16 0.548361 0.852688 0.653799
O O17 0.734056 0.225292 0.750000
O O18 0.335291 0.750000 0.000000
O O19 0.365545 0.364693 0.750000
#
# Coordination Sequence:
#
# PCOD9438355 Si02
#       8
#     8   8   8   8   8   8   8   8
#     4  10  21  35  53  77 105 141 178 218 268 326
#     4   9  18  34  56  75 100 139 183 224 262 307
#     4   9  17  32  50  75 105 130 169 219 271 317
#     4   9  20  34  50  75 104 139 183 226 256 293
#     4  10  21  35  51  77 111 144 175 213 268 326
#     4   9  18  34  52  73 106 144 175 213 265 312
#     4   9  17  32  53  74 102 138 175 218 261 321
#     4  11  22  32  48  76 111 144 179 214 257 316
#
# _framework density 17.995609999999999
#
# number of rings (size 3 to 8) (size 9 to 14) (size 15 to 20)
#    0.000    2.500    0.000    2.250    3.500    1.500 
#    2.250    0.000    0.000    0.000    0.000    4.375 
#    0.000    0.000    0.000    0.000    0.000    0.000 
#
# Total GULP energy -356726.520970 kJ/mol
# GULP energy per Si atom -5573.851890 kJ/mol
# Density = 1.795465 g / cm^3
# Si number density = 17.995610 Si / 1000 Ang^3
#
#
#
# Elastic Constant Matrix: (Units=GPa)
#
#
# Indices 1 2 3 4 5 6 
#
# 1 125.3864 33.3604 27.7772 0.0000 0.0000 0.0000
# 2 33.3604 98.9247 14.6610 0.0000 0.0000 0.0000
# 3 27.7772 14.6610 34.8102 0.0000 0.0000 0.0000
# 4 0.0000 0.0000 0.0000 17.6698 0.0000 0.0000
# 5 0.0000 0.0000 0.0000 0.0000 5.7983 0.0000
# 6 0.0000 0.0000 0.0000 0.0000 0.0000 12.6900
#
#
#
# Elastic Compliance Matrix: (Units=1/GPa)
#
#
# Indices 1 2 3 4 5 6 
#
# 1 0.010187 -0.002379 -0.007127 0.000000 0.000000 0.000000
# 2 -0.002379 0.011337 -0.002876 0.000000 0.000000 0.000000
# 3 -0.007127 -0.002876 0.035626 0.000000 0.000000 0.000000
# 4 0.000000 0.000000 0.000000 0.056594 0.000000 0.000000
# 5 0.000000 0.000000 0.000000 0.000000 0.172463 0.000000
# 6 0.000000 0.000000 0.000000 0.000000 0.000000 0.078802
#
#
# Mechanical properties :
#
#
# Convention : Reuss Voigt Hill
#
# Bulk Modulus (GPa) = 30.87839 45.63536 38.25687
# Shear Modulus (GPa) = 12.48222 19.45314 15.96768
#
# Velocity S-wave (km/s) = 2.63653 3.29141 2.98201
# Velocity P-wave (km/s) = 5.14437 6.31338 5.75861
#
# Compressibility (1/GPa) = 0.03238511
#
# Stress axis : x y z
#
# Youngs Moduli (GPa) = 98.16230 88.20412 28.06959
#
# Poissons Ratio (x) = 0.20985 0.20005
# Poissons Ratio (y) = 0.23355 0.08074
# Poissons Ratio (z) = 0.69960 0.25371
#
# Static dielectric constant tensor:
#      x y z
#    x 1.585780 0.000000 0.000000 
#    y 0.000000 1.676820 0.000000 
#    z 0.000000 0.000000 1.617460 
# 
# From -- ./inp_files/27283.got.cif
#   From: 2010.05.17/outbox.cif.g08.bks.cpg/sg57_14_cif.got.tgz:27283.got - 2010.06.03 13:58:18.
