data_PCOD9438153
_publ_section_title
;
Structure prediction by ZEFSAII (Michael W. Deem and Ramdas Pophale) SiO2 
 PCOD9438153
Probable space group: P B C M
;
_chemical_formula_sum "Si O2"
_cell_formula_units_Z 48
_cell_length_a 11.572103
_cell_length_b 9.651355
_cell_length_c 23.279969
_cell_angle_alpha 90.000000
_cell_angle_beta 90.000000
_cell_angle_gamma 90.000000
_cell_volume 2600.057656
_symmetry_space_group_name_H-M "P B C M"
_symmetry_group_IT_number 57
_symmetry_cell_setting 'orthorhombic'
loop_
_space_group_symop_operation_xyz
x,y,z
-x,-y,1/2+z
x,1/2-y,-z
-x,1/2+y,1/2-z
-x,-y,-z
x,y,1/2-z
-x,1/2+y,z
x,1/2-y,1/2+z
loop_
_atom_site_type_symbol
_atom_site_label
_atom_site_fract_x
_atom_site_fract_y
_atom_site_fract_z
Si Si1 0.345583 0.373708 0.750000
Si Si2 0.455425 0.877199 0.958296
Si Si3 0.569202 0.557376 0.750000
Si Si4 0.059950 0.424379 0.181676
Si Si5 0.706798 0.001758 0.365772
Si Si6 0.697569 0.786291 0.932884
Si Si7 0.146801 0.381935 0.653931
O O1 0.439362 0.496990 0.750000
O O2 0.411360 0.224528 0.750000
O O3 0.257713 0.381140 0.696155
O O4 0.352021 0.904626 0.914398
O O5 0.570766 0.846226 0.922355
O O6 0.428267 0.750000 0.000000
O O7 0.500000 0.000000 0.000000
O O8 0.632685 0.501924 0.692612
O O9 0.077471 0.430985 0.250000
O O10 0.159782 0.516919 0.151761
O O11 0.079195 0.263629 0.164326
O O12 0.937201 0.490822 0.166648
O O13 0.703091 0.851698 0.395559
O O14 0.799696 0.882317 0.909807
O O15 0.706909 0.750000 0.000000
#
# Coordination Sequence:
#
# PCOD9438153 Si02
#       7
#     4   8   4   8   8   8   8
#     4  12  22  43  61  93 135 164 205 262 324 390
#     4  11  21  39  65  90 123 172 210 252 320 385
#     4  12  24  39  65  97 131 164 201 268 328 376
#     4  11  20  42  66  86 124 170 207 259 322 368
#     4  11  21  40  62  93 127 163 207 261 317 380
#     4  10  20  39  63  85 123 170 202 255 321 366
#     4  11  22  42  65  88 123 166 215 259 313 380
#
# _framework density 18.461129
#
# number of rings (size 3 to 8) (size 9 to 14) (size 15 to 20)
#    0.000    1.000    9.167    1.000    0.000    0.000 
#    6.000    4.167    0.000    0.000    0.000    0.000 
#    0.000    0.000    0.000    0.000    0.000    0.000 
#
# Total GULP energy -267694.543218 kJ/mol
# GULP energy per Si atom -5576.969650 kJ/mol
# Density = 1.841911 g / cm^3
# Si number density = 18.461129 Si / 1000 Ang^3
#
#
#
# Elastic Constant Matrix: (Units=GPa)
#
#
# Indices 1 2 3 4 5 6 
#
# 1 79.0429 20.8391 -4.0485 0.0000 0.0000 0.0000
# 2 20.8391 33.6848 -9.6186 0.0000 0.0000 0.0000
# 3 -4.0485 -9.6186 40.8226 0.0000 0.0000 0.0000
# 4 0.0000 0.0000 0.0000 23.0836 0.0000 0.0000
# 5 0.0000 0.0000 0.0000 0.0000 28.2763 0.0000
# 6 0.0000 0.0000 0.0000 0.0000 0.0000 35.3521
#
#
#
# Elastic Compliance Matrix: (Units=1/GPa)
#
#
# Indices 1 2 3 4 5 6 
#
# 1 0.015139 -0.009581 -0.000756 0.000000 0.000000 0.000000
# 2 -0.009581 0.037893 0.007978 0.000000 0.000000 0.000000
# 3 -0.000756 0.007978 0.026301 0.000000 0.000000 0.000000
# 4 0.000000 0.000000 0.000000 0.043321 0.000000 0.000000
# 5 0.000000 0.000000 0.000000 0.000000 0.035365 0.000000
# 6 0.000000 0.000000 0.000000 0.000000 0.000000 0.028287
#
#
# Mechanical properties :
#
#
# Convention : Reuss Voigt Hill
#
# Bulk Modulus (GPa) = 13.40249 18.65493 16.02871
# Shear Modulus (GPa) = 23.15934 27.10097 25.13015
#
# Velocity S-wave (km/s) = 3.54572 3.83561 3.69351
# Velocity P-wave (km/s) = 4.90290 5.45369 5.18562
#
# Compressibility (1/GPa) = 0.07461301
#
# Stress axis : x y z
#
# Youngs Moduli (GPa) = 66.05584 26.39034 38.02131
#
# Poissons Ratio (x) = 0.25286 0.02875
# Poissons Ratio (y) = 0.63291 -0.30334
# Poissons Ratio (z) = 0.04995 -0.21054
#
# Static dielectric constant tensor:
#      x y z
#    x 1.664940 0.000000 0.000000 
#    y 0.000000 1.677120 0.000000 
#    z 0.000000 0.000000 1.679970 
# 
# From -- ./inp_files/27132.got.cif
#   From: 2010.05.17/outbox.cif.g08.bks.cpg/sg57_14_cif.got.tgz:27132.got - 2010.06.03 13:58:18.
