data_PCOD9438805
_publ_section_title
;
Structure prediction by ZEFSAII (Michael W. Deem and Ramdas Pophale) SiO2 
 PCOD9438805
Probable space group: P B C M
;
_chemical_formula_sum "Si O2"
_cell_formula_units_Z 48
_cell_length_a 9.807644
_cell_length_b 31.136078
_cell_length_c 8.929758
_cell_angle_alpha 90.000000
_cell_angle_beta 90.000000
_cell_angle_gamma 90.000000
_cell_volume 2726.894208
_symmetry_space_group_name_H-M "P B C M"
_symmetry_group_IT_number 57
_symmetry_cell_setting 'orthorhombic'
loop_
_space_group_symop_operation_xyz
x,y,z
-x,-y,1/2+z
x,1/2-y,-z
-x,1/2+y,1/2-z
-x,-y,-z
x,y,1/2-z
-x,1/2+y,z
x,1/2-y,1/2+z
loop_
_atom_site_type_symbol
_atom_site_label
_atom_site_fract_x
_atom_site_fract_y
_atom_site_fract_z
Si Si1 0.905286 0.855726 0.572315
Si Si2 0.309161 0.431904 0.572418
Si Si3 0.804334 0.107991 0.429785
Si Si4 0.856692 0.484842 0.069691
Si Si5 0.522202 0.128543 0.571376
Si Si6 0.689540 0.703729 0.571670
O O1 0.899537 0.846893 0.750000
O O2 0.817378 0.899186 0.546527
O O3 0.828978 0.817940 0.486092
O O4 0.060589 0.865027 0.529313
O O5 0.340487 0.430559 0.750000
O O6 0.256968 0.479203 0.532852
O O7 0.435664 0.412912 0.481660
O O8 0.802185 0.103738 0.250000
O O9 0.818583 0.061143 0.503357
O O10 0.666298 0.128907 0.489469
O O11 0.868755 0.483082 0.250000
O O12 0.000000 0.500000 0.000000
O O13 0.540069 0.127399 0.750000
O O14 0.429755 0.169847 0.531205
O O15 0.668093 0.750000 0.500000
O O16 0.692864 0.707357 0.750000
#
# Coordination Sequence:
#
# PCOD9438805 Si02
#       6
#     8   8   8   8   8   8
#     4   9  18  35  57  81 110 142 183 226 272 327
#     4   9  18  35  55  77 107 148 192 232 274 325
#     4  11  22  37  56  82 114 152 189 229 283 332
#     4  11  21  34  54  81 113 150 195 240 281 326
#     4  10  22  38  56  83 113 147 188 231 280 334
#     4  10  21  38  62  88 111 139 180 224 276 337
#
# _framework density 17.602442
#
# number of rings (size 3 to 8) (size 9 to 14) (size 15 to 20)
#    0.000    2.000    1.667    2.000    0.000    5.333 
#    0.000    0.833    0.000    2.000    0.000    0.000 
#    0.000    0.000    0.000    0.000    0.000    0.000 
#
# Total GULP energy -268027.878539 kJ/mol
# GULP energy per Si atom -5583.914136 kJ/mol
# Density = 1.756238 g / cm^3
# Si number density = 17.602442 Si / 1000 Ang^3
#
#
#
# Elastic Constant Matrix: (Units=GPa)
#
#
# Indices 1 2 3 4 5 6 
#
# 1 125.7939 48.8526 50.5491 0.0000 0.0000 0.0000
# 2 48.8526 102.6170 44.5988 0.0000 0.0000 0.0000
# 3 50.5491 44.5988 51.1802 0.0000 0.0000 0.0000
# 4 0.0000 0.0000 0.0000 30.5260 0.0000 0.0000
# 5 0.0000 0.0000 0.0000 0.0000 32.4520 0.0000
# 6 0.0000 0.0000 0.0000 0.0000 0.0000 13.8678
#
#
#
# Elastic Compliance Matrix: (Units=1/GPa)
#
#
# Indices 1 2 3 4 5 6 
#
# 1 0.013244 -0.000998 -0.012211 0.000000 0.000000 0.000000
# 2 -0.000998 0.015761 -0.012748 0.000000 0.000000 0.000000
# 3 -0.012211 -0.012748 0.042708 0.000000 0.000000 0.000000
# 4 0.000000 0.000000 0.000000 0.032759 0.000000 0.000000
# 5 0.000000 0.000000 0.000000 0.000000 0.030815 0.000000
# 6 0.000000 0.000000 0.000000 0.000000 0.000000 0.072109
#
#
# Mechanical properties :
#
#
# Convention : Reuss Voigt Hill
#
# Bulk Modulus (GPa) = 50.50947 63.06579 56.78763
# Shear Modulus (GPa) = 18.80334 24.40855 21.60595
#
# Velocity S-wave (km/s) = 3.27191 3.72782 3.50729
# Velocity P-wave (km/s) = 6.55978 7.37798 6.98088
#
# Compressibility (1/GPa) = 0.01979827
#
# Stress axis : x y z
#
# Youngs Moduli (GPa) = 75.50617 63.44903 23.41464
#
# Poissons Ratio (x) = 0.06332 0.28592
# Poissons Ratio (y) = 0.07535 0.29850
# Poissons Ratio (z) = 0.92201 0.80887
#
# Static dielectric constant tensor:
#      x y z
#    x 1.590680 0.000000 0.000000 
#    y 0.000000 1.579670 0.000000 
#    z 0.000000 0.000000 1.584370 
# 
# From -- ./inp_files/2043.got.cif
#   From: 2010.05.17/outbox.cif.g08.bks.cpg/sg57_2_cif.got.tgz:2043.got - 2010.06.03 13:58:18.
