data_PCOD9438384
_publ_section_title
;
Structure prediction by ZEFSAII (Michael W. Deem and Ramdas Pophale) SiO2 
 PCOD9438384
Probable space group: P B C M
;
_chemical_formula_sum "Si O2"
_cell_formula_units_Z 40
_cell_length_a 9.384494
_cell_length_b 9.594672
_cell_length_c 24.057356
_cell_angle_alpha 90.000000
_cell_angle_beta 90.000000
_cell_angle_gamma 90.000000
_cell_volume 2166.151803
_symmetry_space_group_name_H-M "P B C M"
_symmetry_group_IT_number 57
_symmetry_cell_setting 'orthorhombic'
loop_
_space_group_symop_operation_xyz
x,y,z
-x,-y,1/2+z
x,1/2-y,-z
-x,1/2+y,1/2-z
-x,-y,-z
x,y,1/2-z
-x,1/2+y,z
x,1/2-y,1/2+z
loop_
_atom_site_type_symbol
_atom_site_label
_atom_site_fract_x
_atom_site_fract_y
_atom_site_fract_z
Si Si1 0.398394 0.612855 0.470801
Si Si2 0.393466 0.333499 0.874443
Si Si3 0.847447 0.482426 0.601820
Si Si4 0.607756 0.965528 0.183957
Si Si5 0.100922 0.218215 0.433177
O O1 0.336992 0.750000 0.500000
O O2 0.500000 0.500000 0.500000
O O3 0.492837 0.685004 0.423320
O O4 0.271377 0.523526 0.446099
O O5 0.464742 0.459188 0.839411
O O6 0.387834 0.193719 0.837733
O O7 0.243754 0.351753 0.906827
O O8 0.749722 0.463902 0.656781
O O9 0.913017 0.635022 0.598487
O O10 0.967019 0.373431 0.585067
O O11 0.610520 0.972629 0.250000
O O12 0.108466 0.250000 0.500000
#
# Coordination Sequence:
#
# PCOD9438384 Si02
#       5
#     8   8   8   8   8
#     4  11  20  35  56  84 117 151 188 233 286 347
#     4  10  21  35  58  85 111 146 191 235 287 351
#     4  10  23  36  54  81 113 151 190 230 282 349
#     4  10  21  40  59  80 109 147 198 255 294 331
#     4  11  21  36  55  84 120 151 181 227 287 354
#
# _framework density 18.465927000000001
#
# number of rings (size 3 to 8) (size 9 to 14) (size 15 to 20)
#    0.000    1.600    0.000    7.200    0.000    4.800 
#    0.000    5.000    0.000    0.000    0.000    0.000 
#    0.000    0.000    0.000    0.000    0.000    0.000 
#
# Total GULP energy -222876.205028 kJ/mol
# GULP energy per Si atom -5571.905126 kJ/mol
# Density = 1.842390 g / cm^3
# Si number density = 18.465927 Si / 1000 Ang^3
#
#
#
# Elastic Constant Matrix: (Units=GPa)
#
#
# Indices 1 2 3 4 5 6 
#
# 1 130.6616 42.8407 43.7217 0.0000 0.0000 0.0000
# 2 42.8407 51.7371 20.5794 0.0000 0.0000 0.0000
# 3 43.7217 20.5794 102.2849 0.0000 0.0000 0.0000
# 4 0.0000 0.0000 0.0000 26.9573 0.0000 0.0000
# 5 0.0000 0.0000 0.0000 0.0000 14.4517 0.0000
# 6 0.0000 0.0000 0.0000 0.0000 0.0000 39.0040
#
#
#
# Elastic Compliance Matrix: (Units=1/GPa)
#
#
# Indices 1 2 3 4 5 6 
#
# 1 0.011413 -0.008163 -0.003236 0.000000 0.000000 0.000000
# 2 -0.008163 0.026849 -0.001913 0.000000 0.000000 0.000000
# 3 -0.003236 -0.001913 0.011545 0.000000 0.000000 0.000000
# 4 0.000000 0.000000 0.000000 0.037096 0.000000 0.000000
# 5 0.000000 0.000000 0.000000 0.000000 0.069196 0.000000
# 6 0.000000 0.000000 0.000000 0.000000 0.000000 0.025638
#
#
# Mechanical properties :
#
#
# Convention : Reuss Voigt Hill
#
# Bulk Modulus (GPa) = 43.13548 55.44080 49.28814
# Shear Modulus (GPa) = 23.13886 27.91871 25.52878
#
# Velocity S-wave (km/s) = 3.54369 3.89254 3.72221
# Velocity P-wave (km/s) = 6.33671 7.09161 6.72476
#
# Compressibility (1/GPa) = 0.02318277
#
# Stress axis : x y z
#
# Youngs Moduli (GPa) = 87.62236 37.24585 86.62036
#
# Poissons Ratio (x) = 0.30404 0.28030
# Poissons Ratio (y) = 0.71526 0.16567
# Poissons Ratio (z) = 0.28354 0.07124
#
# Static dielectric constant tensor:
#      x y z
#    x 1.605680 0.000000 0.000000 
#    y 0.000000 1.634360 0.000000 
#    z 0.000000 0.000000 1.655470 
# 
# From -- ./inp_files/26500.got.cif
#   From: 2010.05.17/outbox.cif.g08.bks.cpg/sg57_14_cif.got.tgz:26500.got - 2010.06.03 13:58:18.
