data_PCOD9438913
_publ_section_title
;
Structure prediction by ZEFSAII (Michael W. Deem and Ramdas Pophale) SiO2 
 PCOD9438913
Probable space group: P B C M
;
_chemical_formula_sum "Si O2"
_cell_formula_units_Z 48
_cell_length_a 15.279523
_cell_length_b 9.390498
_cell_length_c 16.795965
_cell_angle_alpha 90.000000
_cell_angle_beta 90.000000
_cell_angle_gamma 90.000000
_cell_volume 2409.924196
_symmetry_space_group_name_H-M "P B C M"
_symmetry_group_IT_number 57
_symmetry_cell_setting 'orthorhombic'
loop_
_space_group_symop_operation_xyz
x,y,z
-x,-y,1/2+z
x,1/2-y,-z
-x,1/2+y,1/2-z
-x,-y,-z
x,y,1/2-z
-x,1/2+y,z
x,1/2-y,1/2+z
loop_
_atom_site_type_symbol
_atom_site_label
_atom_site_fract_x
_atom_site_fract_y
_atom_site_fract_z
Si Si1 0.433416 0.541576 0.157992
Si Si2 0.050463 0.046312 0.080303
Si Si3 0.745273 0.546092 0.073278
Si Si4 0.599225 0.360398 0.347522
Si Si5 0.266752 0.128966 0.610304
Si Si6 0.926963 0.657479 0.839807
O O1 0.456088 0.566596 0.250000
O O2 0.415643 0.698299 0.124564
O O3 0.515934 0.454618 0.125456
O O4 0.346304 0.446892 0.153878
O O5 0.152540 0.006708 0.078058
O O6 0.051815 0.214474 0.099228
O O7 0.998901 0.963346 0.148683
O O8 0.000000 0.000000 0.000000
O O9 0.684480 0.429194 0.113360
O O10 0.728396 0.699433 0.114830
O O11 0.726171 0.577091 0.980801
O O12 0.606400 0.362832 0.250000
O O13 0.169197 0.095627 0.640888
O O14 0.926085 0.713510 0.750000
#
# Coordination Sequence:
#
# PCOD9438913 Si02
#       6
#     8   8   8   8   8   8
#     4  10  21  39  62  89 125 164 203 259 317 368
#     4  11  22  42  63  87 127 169 208 256 320 381
#     4  10  22  39  62  87 118 164 206 253 311 374
#     4  10  22  39  61  91 123 161 209 255 311 374
#     4  10  21  39  61  88 120 159 208 252 311 377
#     4  11  23  39  63  94 123 161 213 264 313 374
#
# _framework density 19.917639999999999
#
# number of rings (size 3 to 8) (size 9 to 14) (size 15 to 20)
#    0.000    1.667    1.667    2.500    0.000    8.000 
#    3.000    1.667    0.000    0.000    0.000    0.000 
#    0.000    0.000    0.000    0.000    0.000    0.000 
#
# Total GULP energy -268015.455433 kJ/mol
# GULP energy per Si atom -5583.655322 kJ/mol
# Density = 1.987231 g / cm^3
# Si number density = 19.917640 Si / 1000 Ang^3
#
#
#
# Elastic Constant Matrix: (Units=GPa)
#
#
# Indices 1 2 3 4 5 6 
#
# 1 141.1835 84.9054 21.3142 0.0000 0.0000 0.0000
# 2 84.9054 87.1876 24.9530 0.0000 0.0000 0.0000
# 3 21.3142 24.9530 49.3513 0.0000 0.0000 0.0000
# 4 0.0000 0.0000 0.0000 25.9218 0.0000 0.0000
# 5 0.0000 0.0000 0.0000 0.0000 31.7534 0.0000
# 6 0.0000 0.0000 0.0000 0.0000 0.0000 34.2188
#
#
#
# Elastic Compliance Matrix: (Units=1/GPa)
#
#
# Indices 1 2 3 4 5 6 
#
# 1 0.017156 -0.017054 0.001213 0.000000 0.000000 0.000000
# 2 -0.017054 0.030363 -0.007987 0.000000 0.000000 0.000000
# 3 0.001213 -0.007987 0.023777 0.000000 0.000000 0.000000
# 4 0.000000 0.000000 0.000000 0.038578 0.000000 0.000000
# 5 0.000000 0.000000 0.000000 0.000000 0.031493 0.000000
# 6 0.000000 0.000000 0.000000 0.000000 0.000000 0.029224
#
#
# Mechanical properties :
#
#
# Convention : Reuss Voigt Hill
#
# Bulk Modulus (GPa) = 42.29884 60.00750 51.15317
# Shear Modulus (GPa) = 22.11170 28.14879 25.13025
#
# Velocity S-wave (km/s) = 3.33552 3.76341 3.55591
# Velocity P-wave (km/s) = 6.00976 7.00554 6.52667
#
# Compressibility (1/GPa) = 0.02364131
#
# Stress axis : x y z
#
# Youngs Moduli (GPa) = 58.28932 32.93488 42.05738
#
# Poissons Ratio (x) = 0.56167 -0.05104
# Poissons Ratio (y) = 0.99407 0.33590
# Poissons Ratio (z) = -0.07073 0.26304
#
# Static dielectric constant tensor:
#      x y z
#    x 1.666650 0.000000 0.000000 
#    y 0.000000 1.691870 0.000000 
#    z 0.000000 0.000000 1.761440 
# 
# From -- ./inp_files/22475.got.cif
#   From: 2010.05.17/outbox.cif.g08.bks.cpg/sg57_12_cif.got.tgz:22475.got - 2010.06.03 13:58:18.
