data_PCOD9438407
_publ_section_title
;
Structure prediction by ZEFSAII (Michael W. Deem and Ramdas Pophale) SiO2 
 PCOD9438407
Probable space group: P B C M
;
_chemical_formula_sum "Si O2"
_cell_formula_units_Z 56
_cell_length_a 31.693228
_cell_length_b 5.328628
_cell_length_c 14.749476
_cell_angle_alpha 90.000000
_cell_angle_beta 90.000000
_cell_angle_gamma 90.000000
_cell_volume 2490.912483
_symmetry_space_group_name_H-M "P B C M"
_symmetry_group_IT_number 57
_symmetry_cell_setting 'orthorhombic'
loop_
_space_group_symop_operation_xyz
x,y,z
-x,-y,1/2+z
x,1/2-y,-z
-x,1/2+y,1/2-z
-x,-y,-z
x,y,1/2-z
-x,1/2+y,z
x,1/2-y,1/2+z
loop_
_atom_site_type_symbol
_atom_site_label
_atom_site_fract_x
_atom_site_fract_y
_atom_site_fract_z
Si Si1 0.654155 0.294852 0.604450
Si Si2 0.524177 0.924805 0.859922
Si Si3 0.798732 0.890692 0.640644
Si Si4 0.750347 0.108576 0.360177
Si Si5 0.022279 0.618491 0.641162
Si Si6 0.889080 0.997506 0.557217
Si Si7 0.619682 0.706168 0.104190
O O1 0.641262 0.250000 0.500000
O O2 0.702159 0.385548 0.608548
O O3 0.626222 0.518136 0.645559
O O4 0.647303 0.018792 0.645544
O O5 0.525578 0.924235 0.750000
O O6 0.495443 0.689547 0.888811
O O7 0.571545 0.880979 0.892882
O O8 0.798070 0.886363 0.750000
O O9 0.776638 0.634019 0.608776
O O10 0.846660 0.921609 0.609507
O O11 0.772633 0.134353 0.610538
O O12 0.749734 0.104281 0.250000
O O13 0.017966 0.625017 0.750000
O O14 0.070600 0.565198 0.617763
O O15 0.993679 0.387746 0.606533
O O16 0.900538 0.750000 0.500000
O O17 0.880238 0.250000 0.500000
O O18 0.633172 0.750000 0.000000
#
# Coordination Sequence:
#
# PCOD9438407 Si02
#       7
#     8   8   8   8   8   8   8
#     4  10  21  36  54  80 112 143 177 225 279 330
#     4  10  21  36  54  78 106 137 176 223 273 320
#     4  10  22  41  60  82 116 154 193 237 284 343
#     4  10  21  37  60  85 109 146 193 235 279 335
#     4  10  22  41  64  88 118 160 202 239 290 353
#     4  12  25  39  60  91 122 154 195 244 296 344
#     4  10  21  36  54  78 108 143 181 218 268 332
#
# _framework density 22.481721
#
# number of rings (size 3 to 8) (size 9 to 14) (size 15 to 20)
#    0.000    1.714    0.000    3.857    0.000    5.143 
#    0.000    5.714    0.000    0.000    0.000    0.000 
#    0.000    0.000    0.000    0.000    0.000    0.000 
#
# Total GULP energy -313244.058780 kJ/mol
# GULP energy per Si atom -5593.643907 kJ/mol
# Density = 2.243055 g / cm^3
# Si number density = 22.481721 Si / 1000 Ang^3
#
#
#
# Elastic Constant Matrix: (Units=GPa)
#
#
# Indices 1 2 3 4 5 6 
#
# 1 81.1199 9.9165 -3.3074 0.0000 0.0000 0.0000
# 2 9.9165 142.1212 37.9843 0.0000 0.0000 0.0000
# 3 -3.3074 37.9843 44.2215 0.0000 0.0000 0.0000
# 4 0.0000 0.0000 0.0000 -0.3489 0.0000 0.0000
# 5 0.0000 0.0000 0.0000 0.0000 17.4374 0.0000
# 6 0.0000 0.0000 0.0000 0.0000 0.0000 46.9851
#
#
#
# Elastic Compliance Matrix: (Units=1/GPa)
#
#
# Indices 1 2 3 4 5 6 
#
# 1 0.012597 -0.001468 0.002203 0.000000 0.000000 0.000000
# 2 -0.001468 0.009304 -0.008101 0.000000 0.000000 0.000000
# 3 0.002203 -0.008101 0.029737 0.000000 0.000000 0.000000
# 4 0.000000 0.000000 0.000000 -2.866154 0.000000 0.000000
# 5 0.000000 0.000000 0.000000 0.000000 0.057348 0.000000
# 6 0.000000 0.000000 0.000000 0.000000 0.000000 0.021283
#
#
# Mechanical properties :
#
#
# Convention : Reuss Voigt Hill
#
# Bulk Modulus (GPa) = 27.09664 39.62772 33.36218
# Shear Modulus (GPa) = -1.84580 27.67266 12.91343
#
# Velocity S-wave (km/s) = -0.90709 3.51222 2.39926
# Velocity P-wave (km/s) = 3.31389 5.84059 4.74838
#
# Compressibility (1/GPa) = 0.03690494
#
# Stress axis : x y z
#
# Youngs Moduli (GPa) = 79.38610 107.48183 33.62818
#
# Poissons Ratio (x) = 0.15775 -0.07408
# Poissons Ratio (y) = 0.11651 0.27244
# Poissons Ratio (z) = -0.17487 0.87075
#
# Static dielectric constant tensor:
#      x y z
#    x 1.758410 0.000000 0.000000 
#    y 0.000000 1.870000 0.000000 
#    z 0.000000 0.000000 1.844210 
# 
# From -- ./inp_files/19649.got.cif
#   From: 2010.05.17/outbox.cif.g08.bks.cpg/sg57_10_cif.got.tgz:19649.got - 2010.06.03 13:58:18.
