data_PCOD9438389
_publ_section_title
;
Structure prediction by ZEFSAII (Michael W. Deem and Ramdas Pophale) SiO2 
 PCOD9438389
Probable space group: P B C M
;
_chemical_formula_sum "Si O2"
_cell_formula_units_Z 48
_cell_length_a 12.261340
_cell_length_b 12.185805
_cell_length_c 15.968347
_cell_angle_alpha 90.000000
_cell_angle_beta 90.000000
_cell_angle_gamma 90.000000
_cell_volume 2385.899362
_symmetry_space_group_name_H-M "P B C M"
_symmetry_group_IT_number 57
_symmetry_cell_setting 'orthorhombic'
loop_
_space_group_symop_operation_xyz
x,y,z
-x,-y,1/2+z
x,1/2-y,-z
-x,1/2+y,1/2-z
-x,-y,-z
x,y,1/2-z
-x,1/2+y,z
x,1/2-y,1/2+z
loop_
_atom_site_type_symbol
_atom_site_label
_atom_site_fract_x
_atom_site_fract_y
_atom_site_fract_z
Si Si1 0.724977 0.688101 0.147508
Si Si2 0.416808 0.983525 0.350669
Si Si3 0.794733 0.146212 0.890716
Si Si4 0.832492 0.108668 0.412924
Si Si5 0.659738 0.930972 0.351538
Si Si6 0.935642 0.941558 0.653669
O O1 0.725074 0.686403 0.250000
O O2 0.636352 0.597887 0.119237
O O3 0.696870 0.810184 0.119797
O O4 0.843875 0.643899 0.121992
O O5 0.423987 0.991523 0.250000
O O6 0.328476 0.889542 0.369804
O O7 0.537769 0.958719 0.382109
O O8 0.818457 0.272233 0.869916
O O9 0.876408 0.059509 0.848335
O O10 0.812255 0.127800 0.989274
O O11 0.953845 0.064464 0.397705
O O12 0.744922 0.022254 0.379800
O O13 0.658018 0.928842 0.250000
O O14 0.962252 0.915031 0.750000
#
# Coordination Sequence:
#
# PCOD9438389 Si02
#       6
#     8   8   8   8   8   8
#     4   8  17  35  55  84 116 145 186 238 295 340
#     4   9  19  37  62  85 114 155 195 243 295 343
#     4  10  23  42  58  83 121 160 193 237 296 357
#     4  11  24  38  58  88 120 156 195 241 291 351
#     4  10  21  35  59  91 117 147 198 250 285 341
#     4  10  21  39  63  85 115 155 197 243 291 347
#
# _framework density 20.118200000000002
#
# number of rings (size 3 to 8) (size 9 to 14) (size 15 to 20)
#    0.000    2.333    0.000    2.500    4.667    3.333 
#    0.000    2.500    0.000    0.000    0.000    0.000 
#    0.000    0.000    0.000    0.000    0.000    0.000 
#
# Total GULP energy -268091.320883 kJ/mol
# GULP energy per Si atom -5585.235852 kJ/mol
# Density = 2.007241 g / cm^3
# Si number density = 20.118200 Si / 1000 Ang^3
#
#
#
# Elastic Constant Matrix: (Units=GPa)
#
#
# Indices 1 2 3 4 5 6 
#
# 1 175.5505 76.1664 7.4541 0.0000 0.0000 0.0000
# 2 76.1664 117.9397 6.6875 0.0000 0.0000 0.0000
# 3 7.4541 6.6875 10.3278 0.0000 0.0000 0.0000
# 4 0.0000 0.0000 0.0000 30.7836 0.0000 0.0000
# 5 0.0000 0.0000 0.0000 0.0000 -48.2131 0.0000
# 6 0.0000 0.0000 0.0000 0.0000 0.0000 9.9011
#
#
#
# Elastic Compliance Matrix: (Units=1/GPa)
#
#
# Indices 1 2 3 4 5 6 
#
# 1 0.007976 -0.005009 -0.002514 0.000000 0.000000 0.000000
# 2 -0.005009 0.011947 -0.004121 0.000000 0.000000 0.000000
# 3 -0.002514 -0.004121 0.101309 0.000000 0.000000 0.000000
# 4 0.000000 0.000000 0.000000 0.032485 0.000000 0.000000
# 5 0.000000 0.000000 0.000000 0.000000 -0.020741 0.000000
# 6 0.000000 0.000000 0.000000 0.000000 0.000000 0.100999
#
#
# Mechanical properties :
#
#
# Convention : Reuss Voigt Hill
#
# Bulk Modulus (GPa) = 10.20974 53.82600 32.01787
# Shear Modulus (GPa) = 17.24673 12.72832 14.98753
#
# Velocity S-wave (km/s) = 2.93109 2.51804 2.73238
# Velocity P-wave (km/s) = 4.06706 5.93860 5.08959
#
# Compressibility (1/GPa) = 0.09794571
#
# Stress axis : x y z
#
# Youngs Moduli (GPa) = 125.37357 83.70198 9.87078
#
# Poissons Ratio (x) = 0.41922 0.02481
# Poissons Ratio (y) = 0.62794 0.04068
# Poissons Ratio (z) = 0.31514 0.34495
#
# Static dielectric constant tensor:
#      x y z
#    x 1.673530 0.000000 0.000000 
#    y 0.000000 1.701460 0.000000 
#    z 0.000000 0.000000 1.733570 
# 
# From -- ./inp_files/21797.got.cif
#   From: 2010.05.17/outbox.cif.g08.bks.cpg/sg57_11_cif.got.tgz:21797.got - 2010.06.03 13:58:18.
