data_PCOD9438626
_publ_section_title
;
Structure prediction by ZEFSAII (Michael W. Deem and Ramdas Pophale) SiO2 
 PCOD9438626
Probable space group: P B C M
;
_chemical_formula_sum "Si O2"
_cell_formula_units_Z 56
_cell_length_a 11.965555
_cell_length_b 15.899865
_cell_length_c 13.252061
_cell_angle_alpha 90.000000
_cell_angle_beta 90.000000
_cell_angle_gamma 90.000000
_cell_volume 2521.214003
_symmetry_space_group_name_H-M "P B C M"
_symmetry_group_IT_number 57
_symmetry_cell_setting 'orthorhombic'
loop_
_space_group_symop_operation_xyz
x,y,z
-x,-y,1/2+z
x,1/2-y,-z
-x,1/2+y,1/2-z
-x,-y,-z
x,y,1/2-z
-x,1/2+y,z
x,1/2-y,1/2+z
loop_
_atom_site_type_symbol
_atom_site_label
_atom_site_fract_x
_atom_site_fract_y
_atom_site_fract_z
Si Si1 0.427241 0.651976 0.868989
Si Si2 0.692935 0.036538 0.995739
Si Si3 0.911026 0.798681 0.127740
Si Si4 0.671625 0.871493 0.128987
Si Si5 0.927235 0.044955 0.627054
Si Si6 0.973577 0.136348 0.371753
Si Si7 0.273023 0.692180 0.129102
O O1 0.417785 0.646016 0.750000
O O2 0.399754 0.560988 0.914114
O O3 0.554874 0.675284 0.892481
O O4 0.334295 0.721103 0.899064
O O5 0.811511 0.041635 0.935556
O O6 0.675562 0.110830 0.077152
O O7 0.679881 0.951876 0.057091
O O8 0.921807 0.797131 0.250000
O O9 0.783859 0.821248 0.107416
O O10 0.935998 0.703973 0.093280
O O11 0.999687 0.872367 0.100015
O O12 0.672592 0.893272 0.250000
O O13 0.906206 0.046872 0.750000
O O14 0.998560 0.960252 0.603641
O O15 0.972150 0.134525 0.250000
O O16 0.856547 0.180216 0.399817
O O17 0.280522 0.686165 0.250000
#
# Coordination Sequence:
#
# PCOD9438626 Si02
#       7
#     8   8   8   8   8   8   8
#     4  10  22  41  61  82 113 155 203 250 298 351
#     4  12  22  37  61  90 120 153 194 245 302 363
#     4   9  18  36  60  84 118 161 200 244 300 358
#     4  10  22  40  60  82 113 154 198 247 300 355
#     4  10  21  37  60  93 129 161 197 246 305 369
#     4   9  18  35  59  87 120 158 199 242 295 361
#     4  10  21  38  62  89 117 153 198 246 294 352
#
# _framework density 22.211521000000001
#
# number of rings (size 3 to 8) (size 9 to 14) (size 15 to 20)
#    0.000    2.000    0.000    3.429    0.000    6.857 
#    0.000    6.429    0.000    6.857    0.000    0.000 
#    0.000    0.000    0.000    0.000    0.000    0.000 
#
# Total GULP energy -312828.662203 kJ/mol
# GULP energy per Si atom -5586.226111 kJ/mol
# Density = 2.216097 g / cm^3
# Si number density = 22.211521 Si / 1000 Ang^3
#
#
#
# Elastic Constant Matrix: (Units=GPa)
#
#
# Indices 1 2 3 4 5 6 
#
# 1 111.0572 42.5130 36.5542 0.0000 0.0000 0.0000
# 2 42.5130 127.6752 39.5981 0.0000 0.0000 0.0000
# 3 36.5542 39.5981 84.5129 0.0000 0.0000 0.0000
# 4 0.0000 0.0000 0.0000 42.2293 0.0000 0.0000
# 5 0.0000 0.0000 0.0000 0.0000 19.3317 0.0000
# 6 0.0000 0.0000 0.0000 0.0000 0.0000 16.7989
#
#
#
# Elastic Compliance Matrix: (Units=1/GPa)
#
#
# Indices 1 2 3 4 5 6 
#
# 1 0.011193 -0.002604 -0.003621 0.000000 0.000000 0.000000
# 2 -0.002604 0.009770 -0.003451 0.000000 0.000000 0.000000
# 3 -0.003621 -0.003451 0.015016 0.000000 0.000000 0.000000
# 4 0.000000 0.000000 0.000000 0.023680 0.000000 0.000000
# 5 0.000000 0.000000 0.000000 0.000000 0.051728 0.000000
# 6 0.000000 0.000000 0.000000 0.000000 0.000000 0.059528
#
#
# Mechanical properties :
#
#
# Convention : Reuss Voigt Hill
#
# Bulk Modulus (GPa) = 60.14755 62.28622 61.21688
# Shear Modulus (GPa) = 25.53493 29.31066 27.42279
#
# Velocity S-wave (km/s) = 3.39429 3.63659 3.51753
# Velocity P-wave (km/s) = 6.51919 6.76286 6.64214
#
# Compressibility (1/GPa) = 0.01662578
#
# Stress axis : x y z
#
# Youngs Moduli (GPa) = 89.34086 102.35572 66.59596
#
# Poissons Ratio (x) = 0.26653 0.24116
# Poissons Ratio (y) = 0.23264 0.22985
# Poissons Ratio (z) = 0.32353 0.35327
#
# Static dielectric constant tensor:
#      x y z
#    x 1.827360 0.000000 0.000000 
#    y 0.000000 1.797460 0.000000 
#    z 0.000000 0.000000 1.898340 
# 
# From -- ./inp_files/17718.got.cif
#   From: 2010.05.17/outbox.cif.g08.bks.cpg/sg57_9_cif.got.tgz:17718.got - 2010.06.03 13:58:18.
