data_PCOD9438289
_publ_section_title
;
Structure prediction by ZEFSAII (Michael W. Deem and Ramdas Pophale) SiO2 
 PCOD9438289
Probable space group: P B C M
;
_chemical_formula_sum "Si O2"
_cell_formula_units_Z 32
_cell_length_a 4.942044
_cell_length_b 12.989875
_cell_length_c 23.396741
_cell_angle_alpha 90.000000
_cell_angle_beta 90.000000
_cell_angle_gamma 90.000000
_cell_volume 1501.989675
_symmetry_space_group_name_H-M "P B C M"
_symmetry_group_IT_number 57
_symmetry_cell_setting 'orthorhombic'
loop_
_space_group_symop_operation_xyz
x,y,z
-x,-y,1/2+z
x,1/2-y,-z
-x,1/2+y,1/2-z
-x,-y,-z
x,y,1/2-z
-x,1/2+y,z
x,1/2-y,1/2+z
loop_
_atom_site_type_symbol
_atom_site_label
_atom_site_fract_x
_atom_site_fract_y
_atom_site_fract_z
Si Si1 0.462986 0.427622 0.554386
Si Si2 0.241412 0.303442 0.183173
Si Si3 0.226026 0.608350 0.874600
Si Si4 0.009939 0.699768 0.081197
O O1 0.500000 0.500000 0.500000
O O2 0.334253 0.502004 0.602152
O O3 0.743765 0.377882 0.573720
O O4 0.242107 0.338708 0.544586
O O5 0.254367 0.284129 0.250000
O O6 0.531253 0.332321 0.157223
O O7 0.031284 0.395264 0.167334
O O8 0.110663 0.211508 0.145700
O O9 0.125007 0.683995 0.926151
#
# Coordination Sequence:
#
# PCOD9438289 Si02
#       4
#     8   8   8   8
#     4  12  24  42  64  95 128 166 211 257 311 375
#     4  10  20  42  66  87 126 167 203 259 318 364
#     4  10  22  41  65  90 130 159 211 259 306 377
#     4  10  22  43  61  93 130 158 214 256 304 379
#
# _framework density 21.305071999999999
#
# number of rings (size 3 to 8) (size 9 to 14) (size 15 to 20)
#    1.500    0.000    2.500    3.000    0.000    1.000 
#    4.500    7.500    0.000    0.000    0.000    0.000 
#    0.000    0.000    0.000    0.000    0.000    0.000 
#
# Total GULP energy -178500.556523 kJ/mol
# GULP energy per Si atom -5578.142391 kJ/mol
# Density = 2.125658 g / cm^3
# Si number density = 21.305072 Si / 1000 Ang^3
#
#
#
# Elastic Constant Matrix: (Units=GPa)
#
#
# Indices 1 2 3 4 5 6 
#
# 1 142.5064 17.7315 34.3853 0.0000 0.0000 0.0000
# 2 17.7315 60.0660 39.0661 0.0000 0.0000 0.0000
# 3 34.3853 39.0661 80.3037 0.0000 0.0000 0.0000
# 4 0.0000 0.0000 0.0000 22.7597 0.0000 0.0000
# 5 0.0000 0.0000 0.0000 0.0000 20.0504 0.0000
# 6 0.0000 0.0000 0.0000 0.0000 0.0000 23.5167
#
#
#
# Elastic Compliance Matrix: (Units=1/GPa)
#
#
# Indices 1 2 3 4 5 6 
#
# 1 0.007827 -0.000191 -0.003258 0.000000 0.000000 0.000000
# 2 -0.000191 0.024359 -0.011768 0.000000 0.000000 0.000000
# 3 -0.003258 -0.011768 0.019573 0.000000 0.000000 0.000000
# 4 0.000000 0.000000 0.000000 0.043937 0.000000 0.000000
# 5 0.000000 0.000000 0.000000 0.000000 0.049874 0.000000
# 6 0.000000 0.000000 0.000000 0.000000 0.000000 0.042523
#
#
# Mechanical properties :
#
#
# Convention : Reuss Voigt Hill
#
# Bulk Modulus (GPa) = 46.89761 51.69355 49.29558
# Shear Modulus (GPa) = 22.15953 26.04493 24.10223
#
# Velocity S-wave (km/s) = 3.22857 3.50018 3.36712
# Velocity P-wave (km/s) = 5.99653 6.37583 6.18909
#
# Compressibility (1/GPa) = 0.02132305
#
# Stress axis : x y z
#
# Youngs Moduli (GPa) = 127.75848 41.05330 51.09115
#
# Poissons Ratio (x) = 0.00785 0.16648
# Poissons Ratio (y) = 0.02444 0.60124
# Poissons Ratio (z) = 0.41630 0.48312
#
# Static dielectric constant tensor:
#      x y z
#    x 1.778010 0.000000 0.000000 
#    y 0.000000 1.814960 0.000000 
#    z 0.000000 0.000000 1.781830 
# 
# From -- ./inp_files/19940.got.cif
#   From: 2010.05.17/outbox.cif.g08.bks.cpg/sg57_10_cif.got.tgz:19940.got - 2010.06.03 13:58:18.
