data_PCOD9438942
_publ_section_title
;
Structure prediction by ZEFSAII (Michael W. Deem and Ramdas Pophale) SiO2 
 PCOD9438942
Probable space group: P B C M
;
_chemical_formula_sum "Si O2"
_cell_formula_units_Z 40
_cell_length_a 12.643526
_cell_length_b 18.487448
_cell_length_c 8.539833
_cell_angle_alpha 90.000000
_cell_angle_beta 90.000000
_cell_angle_gamma 90.000000
_cell_volume 1996.156326
_symmetry_space_group_name_H-M "P B C M"
_symmetry_group_IT_number 57
_symmetry_cell_setting 'orthorhombic'
loop_
_space_group_symop_operation_xyz
x,y,z
-x,-y,1/2+z
x,1/2-y,-z
-x,1/2+y,1/2-z
-x,-y,-z
x,y,1/2-z
-x,1/2+y,z
x,1/2-y,1/2+z
loop_
_atom_site_type_symbol
_atom_site_label
_atom_site_fract_x
_atom_site_fract_y
_atom_site_fract_z
Si Si1 0.712771 0.090017 0.063141
Si Si2 0.849280 0.829876 0.561808
Si Si3 0.343654 0.065565 0.437482
Si Si4 0.955752 0.076227 0.439244
Si Si5 0.478768 0.829242 0.064569
O O1 0.708456 0.100588 0.250000
O O2 0.835214 0.089631 0.010964
O O3 0.640741 0.149667 0.980379
O O4 0.665365 0.011656 0.019701
O O5 0.829255 0.750000 0.500000
O O6 0.848789 0.827253 0.750000
O O7 0.757704 0.885990 0.515303
O O8 0.962127 0.861895 0.509593
O O9 0.342260 0.055029 0.250000
O O10 0.445996 0.110948 0.486140
O O11 0.956422 0.073610 0.250000
O O12 0.000000 0.000000 0.500000
O O13 0.493423 0.830938 0.250000
O O14 0.505458 0.750000 0.000000
#
# Coordination Sequence:
#
# PCOD9438942 Si02
#       5
#     8   8   8   8   8
#     4  11  23  40  65  94 125 163 211 257 309 371
#     4  10  22  38  59  90 125 160 202 251 308 365
#     4  11  22  40  65  92 125 162 208 258 310 371
#     4  10  21  39  62  90 123 161 205 253 303 364
#     4  12  26  44  64  89 125 164 208 258 314 372
#
# _framework density 20.038512000000001
#
# number of rings (size 3 to 8) (size 9 to 14) (size 15 to 20)
#    0.000    1.200    2.000    4.200    0.000    5.600 
#    0.000    2.000    0.000    0.000    0.000    0.000 
#    0.000    0.000    0.000    0.000    0.000    0.000 
#
# Total GULP energy -223763.863066 kJ/mol
# GULP energy per Si atom -5594.096577 kJ/mol
# Density = 1.999290 g / cm^3
# Si number density = 20.038512 Si / 1000 Ang^3
#
#
#
# Elastic Constant Matrix: (Units=GPa)
#
#
# Indices 1 2 3 4 5 6 
#
# 1 92.4599 -7.3648 1.8925 0.0000 0.0000 0.0000
# 2 -7.3648 46.7129 -0.8343 0.0000 0.0000 0.0000
# 3 1.8925 -0.8343 21.1329 0.0000 0.0000 0.0000
# 4 0.0000 0.0000 0.0000 35.7591 0.0000 0.0000
# 5 0.0000 0.0000 0.0000 0.0000 -1.1732 0.0000
# 6 0.0000 0.0000 0.0000 0.0000 0.0000 15.4064
#
#
#
# Elastic Compliance Matrix: (Units=1/GPa)
#
#
# Indices 1 2 3 4 5 6 
#
# 1 0.010971 0.001713 -0.000915 0.000000 0.000000 0.000000
# 2 0.001713 0.021690 0.000703 0.000000 0.000000 0.000000
# 3 -0.000915 0.000703 0.047429 0.000000 0.000000 0.000000
# 4 0.000000 0.000000 0.000000 0.027965 0.000000 0.000000
# 5 0.000000 0.000000 0.000000 0.000000 -0.852397 0.000000
# 6 0.000000 0.000000 0.000000 0.000000 0.000000 0.064908
#
#
# Mechanical properties :
#
#
# Convention : Reuss Voigt Hill
#
# Bulk Modulus (GPa) = 12.03475 16.41028 14.22252
# Shear Modulus (GPa) = -7.63663 21.10595 6.73466
#
# Velocity S-wave (km/s) = -1.95429 3.24893 1.83525
# Velocity P-wave (km/s) = 0.96256 4.72030 3.40645
#
# Compressibility (1/GPa) = 0.08309270
#
# Stress axis : x y z
#
# Youngs Moduli (GPa) = 91.15196 46.10412 21.08403
#
# Poissons Ratio (x) = -0.07899 0.01929
# Poissons Ratio (y) = -0.15617 -0.01482
# Poissons Ratio (z) = 0.08339 -0.03240
#
# Static dielectric constant tensor:
#      x y z
#    x 1.731950 0.000000 0.000000 
#    y 0.000000 1.663600 0.000000 
#    z 0.000000 0.000000 1.673930 
# 
# From -- ./inp_files/2619.got.cif
#   From: 2010.05.17/outbox.cif.g08.bks.cpg/sg57_2_cif.got.tgz:2619.got - 2010.06.03 13:58:18.
