data_PCOD9438170
_publ_section_title
;
Structure prediction by ZEFSAII (Michael W. Deem and Ramdas Pophale) SiO2 
 PCOD9438170
Probable space group: P B C M
;
_chemical_formula_sum "Si O2"
_cell_formula_units_Z 64
_cell_length_a 14.458374
_cell_length_b 8.906367
_cell_length_c 25.716962
_cell_angle_alpha 90.000000
_cell_angle_beta 90.000000
_cell_angle_gamma 90.000000
_cell_volume 3311.613960
_symmetry_space_group_name_H-M "P B C M"
_symmetry_group_IT_number 57
_symmetry_cell_setting 'orthorhombic'
loop_
_space_group_symop_operation_xyz
x,y,z
-x,-y,1/2+z
x,1/2-y,-z
-x,1/2+y,1/2-z
-x,-y,-z
x,y,1/2-z
-x,1/2+y,z
x,1/2-y,1/2+z
loop_
_atom_site_type_symbol
_atom_site_label
_atom_site_fract_x
_atom_site_fract_y
_atom_site_fract_z
Si Si1 0.497037 0.134229 0.460508
Si Si2 0.101412 0.251671 0.060277
Si Si3 0.305864 0.272828 0.595334
Si Si4 0.967808 0.469053 0.875020
Si Si5 0.547190 0.272788 0.193018
Si Si6 0.096868 0.810053 0.311342
Si Si7 0.717174 0.998173 0.808302
Si Si8 0.591917 0.983021 0.363324
O O1 0.543398 0.250000 0.500000
O O2 0.395346 0.186725 0.440458
O O3 0.552188 0.079224 0.410796
O O4 0.500000 0.000000 0.500000
O O5 0.209889 0.214110 0.065121
O O6 0.042515 0.128212 0.092263
O O7 0.083121 0.414254 0.086640
O O8 0.073300 0.250000 0.000000
O O9 0.299120 0.381098 0.645552
O O10 0.317998 0.103641 0.617414
O O11 0.019417 0.576269 0.833452
O O12 0.908125 0.343766 0.844400
O O13 0.502643 0.268293 0.250000
O O14 0.630431 0.390385 0.192636
O O15 0.474467 0.344457 0.153058
O O16 0.587670 0.108052 0.181268
O O17 0.083324 0.779751 0.250000
O O18 0.192861 0.899639 0.317724
O O19 0.725893 0.929853 0.750000
#
# Coordination Sequence:
#
# PCOD9438170 Si02
#       8
#     8   8   8   8   8   8   8   8
#     4  12  23  41  62  87 121 166 210 260 316 358
#     4  11  24  43  66  93 125 166 211 264 316 372
#     4  12  24  42  64  93 127 163 214 263 315 373
#     4  10  22  41  67  93 124 167 207 258 321 389
#     4  11  22  39  62  87 121 167 209 254 313 372
#     4  10  20  39  64  95 129 163 205 259 321 386
#     4  10  22  40  61  88 127 166 202 257 316 374
#     4  12  23  39  60  89 123 163 210 262 306 373
#
# _framework density 19.325924000000001
#
# number of rings (size 3 to 8) (size 9 to 14) (size 15 to 20)
#    0.000    1.000    5.000    1.500    1.750    2.000 
#    0.000    0.625    0.000    0.000    0.000    0.000 
#    0.000    0.000    0.000    0.000    0.000    0.000 
#
# Total GULP energy -356903.638585 kJ/mol
# GULP energy per Si atom -5576.619353 kJ/mol
# Density = 1.928194 g / cm^3
# Si number density = 19.325924 Si / 1000 Ang^3
#
#
#
# Elastic Constant Matrix: (Units=GPa)
#
#
# Indices 1 2 3 4 5 6 
#
# 1 47.3432 0.9428 22.2316 0.0000 0.0000 0.0000
# 2 0.9428 103.1214 43.5403 0.0000 0.0000 0.0000
# 3 22.2316 43.5403 121.6156 0.0000 0.0000 0.0000
# 4 0.0000 0.0000 0.0000 32.1799 0.0000 0.0000
# 5 0.0000 0.0000 0.0000 0.0000 253.4957 0.0000
# 6 0.0000 0.0000 0.0000 0.0000 0.0000 23.9842
#
#
#
# Elastic Compliance Matrix: (Units=1/GPa)
#
#
# Indices 1 2 3 4 5 6 
#
# 1 0.023410 0.001876 -0.004951 0.000000 0.000000 0.000000
# 2 0.001876 0.011575 -0.004487 0.000000 0.000000 0.000000
# 3 -0.004951 -0.004487 0.010734 0.000000 0.000000 0.000000
# 4 0.000000 0.000000 0.000000 0.031075 0.000000 0.000000
# 5 0.000000 0.000000 0.000000 0.000000 0.003945 0.000000
# 6 0.000000 0.000000 0.000000 0.000000 0.000000 0.041694
#
#
# Mechanical properties :
#
#
# Convention : Reuss Voigt Hill
#
# Bulk Modulus (GPa) = 32.68462 45.05663 38.87062
# Shear Modulus (GPa) = 33.83986 75.62300 54.73143
#
# Velocity S-wave (km/s) = 4.18905 6.26221 5.32745
# Velocity P-wave (km/s) = 6.35189 8.69780 7.61572
#
# Compressibility (1/GPa) = 0.03059543
#
# Stress axis : x y z
#
# Youngs Moduli (GPa) = 42.71681 86.39584 93.16097
#
# Poissons Ratio (x) = -0.16212 0.46126
# Poissons Ratio (y) = -0.08016 0.41801
# Poissons Ratio (z) = 0.21150 0.38765
#
# Static dielectric constant tensor:
#      x y z
#    x 1.677990 0.000000 0.000000 
#    y 0.000000 1.649230 0.000000 
#    z 0.000000 0.000000 1.638700 
# 
# From -- ./inp_files/27465.got.cif
#   From: 2010.05.17/outbox.cif.g08.bks.cpg/sg57_14_cif.got.tgz:27465.got - 2010.06.03 13:58:18.
