data_PCOD9438860
_publ_section_title
;
Structure prediction by ZEFSAII (Michael W. Deem and Ramdas Pophale) SiO2 
 PCOD9438860
Probable space group: P B C M
;
_chemical_formula_sum "Si O2"
_cell_formula_units_Z 40
_cell_length_a 5.656617
_cell_length_b 13.366224
_cell_length_c 23.152421
_cell_angle_alpha 90.000000
_cell_angle_beta 90.000000
_cell_angle_gamma 90.000000
_cell_volume 1750.499215
_symmetry_space_group_name_H-M "P B C M"
_symmetry_group_IT_number 57
_symmetry_cell_setting 'orthorhombic'
loop_
_space_group_symop_operation_xyz
x,y,z
-x,-y,1/2+z
x,1/2-y,-z
-x,1/2+y,1/2-z
-x,-y,-z
x,y,1/2-z
-x,1/2+y,z
x,1/2-y,1/2+z
loop_
_atom_site_type_symbol
_atom_site_label
_atom_site_fract_x
_atom_site_fract_y
_atom_site_fract_z
Si Si1 0.746231 0.471926 0.030026
Si Si2 0.183479 0.718648 0.595934
Si Si3 0.104564 0.078483 0.684029
Si Si4 0.905998 0.604738 0.128583
Si Si5 0.556259 0.755945 0.686891
O O1 0.750717 0.353816 0.044083
O O2 0.745454 0.532800 0.090187
O O3 0.500000 0.500000 0.000000
O O4 0.000000 0.500000 0.000000
O O5 0.060023 0.646604 0.643512
O O6 0.399961 0.766072 0.630366
O O7 0.008644 0.810520 0.586110
O O8 0.018111 0.073517 0.750000
O O9 0.345223 0.142179 0.685121
O O10 0.101556 0.968398 0.656720
O O11 0.768259 0.665199 0.178044
O O12 0.444078 0.772149 0.750000
#
# Coordination Sequence:
#
# PCOD9438860 Si02
#       5
#     8   8   8   8   8
#     4  11  28  49  73  99 136 184 238 293 353 401
#     4  10  23  41  66  95 138 171 231 285 342 414
#     4   9  19  37  61  93 137 178 217 270 341 415
#     4  10  23  41  66  97 135 177 229 289 346 416
#     4  10  21  38  66 101 137 179 224 280 350 425
#
# _framework density 22.850625000000001
#
# number of rings (size 3 to 8) (size 9 to 14) (size 15 to 20)
#    0.000    2.000    0.000    1.200   11.200    4.800 
#    0.000    4.000    0.000    0.000    0.000    0.000 
#    0.000    0.000    0.000    0.000    0.000    0.000 
#
# Total GULP energy -223218.388875 kJ/mol
# GULP energy per Si atom -5580.459722 kJ/mol
# Density = 2.279862 g / cm^3
# Si number density = 22.850625 Si / 1000 Ang^3
#
#
#
# Elastic Constant Matrix: (Units=GPa)
#
#
# Indices 1 2 3 4 5 6 
#
# 1 52.3769 6.7005 7.3849 0.0000 0.0000 0.0000
# 2 6.7005 124.6167 12.9243 0.0000 0.0000 0.0000
# 3 7.3849 12.9243 54.2530 0.0000 0.0000 0.0000
# 4 0.0000 0.0000 0.0000 22.5481 0.0000 0.0000
# 5 0.0000 0.0000 0.0000 0.0000 16.7681 0.0000
# 6 0.0000 0.0000 0.0000 0.0000 0.0000 12.0718
#
#
#
# Elastic Compliance Matrix: (Units=1/GPa)
#
#
# Indices 1 2 3 4 5 6 
#
# 1 0.019542 -0.000795 -0.002471 0.000000 0.000000 0.000000
# 2 -0.000795 0.008260 -0.001860 0.000000 0.000000 0.000000
# 3 -0.002471 -0.001860 0.019211 0.000000 0.000000 0.000000
# 4 0.000000 0.000000 0.000000 0.044350 0.000000 0.000000
# 5 0.000000 0.000000 0.000000 0.000000 0.059637 0.000000
# 6 0.000000 0.000000 0.000000 0.000000 0.000000 0.082837
#
#
# Mechanical properties :
#
#
# Convention : Reuss Voigt Hill
#
# Bulk Modulus (GPa) = 27.20041 31.69622 29.44831
# Shear Modulus (GPa) = 19.50513 23.89340 21.69927
#
# Velocity S-wave (km/s) = 2.92480 3.23714 3.08492
# Velocity P-wave (km/s) = 4.83067 5.27951 5.06007
#
# Compressibility (1/GPa) = 0.03676415
#
# Stress axis : x y z
#
# Youngs Moduli (GPa) = 51.17083 121.06254 52.05219
#
# Poissons Ratio (x) = 0.09619 0.12861
# Poissons Ratio (y) = 0.04066 0.09680
# Poissons Ratio (z) = 0.12643 0.22513
#
# Static dielectric constant tensor:
#      x y z
#    x 1.973670 0.000000 0.000000 
#    y 0.000000 1.829320 0.000000 
#    z 0.000000 0.000000 1.911360 
# 
# From -- ./inp_files/27776.got.cif
#   From: 2010.05.17/outbox.cif.g08.bks.cpg/sg57_14_cif.got.tgz:27776.got - 2010.06.03 13:58:18.
