data_PCOD9438149
_publ_section_title
;
Structure prediction by ZEFSAII (Michael W. Deem and Ramdas Pophale) SiO2 
 PCOD9438149
Probable space group: P B C M
;
_chemical_formula_sum "Si O2"
_cell_formula_units_Z 48
_cell_length_a 14.874500
_cell_length_b 8.887602
_cell_length_c 17.477180
_cell_angle_alpha 90.000000
_cell_angle_beta 90.000000
_cell_angle_gamma 90.000000
_cell_volume 2310.459356
_symmetry_space_group_name_H-M "P B C M"
_symmetry_group_IT_number 57
_symmetry_cell_setting 'orthorhombic'
loop_
_space_group_symop_operation_xyz
x,y,z
-x,-y,1/2+z
x,1/2-y,-z
-x,1/2+y,1/2-z
-x,-y,-z
x,y,1/2-z
-x,1/2+y,z
x,1/2-y,1/2+z
loop_
_atom_site_type_symbol
_atom_site_label
_atom_site_fract_x
_atom_site_fract_y
_atom_site_fract_z
Si Si1 0.069460 0.494279 0.429667
Si Si2 0.774038 0.049866 0.840486
Si Si3 0.065249 0.316983 0.840576
Si Si4 0.408246 0.062272 0.591338
Si Si5 0.406239 0.092553 0.406273
Si Si6 0.749487 0.344319 0.571920
O O1 0.077252 0.329965 0.392623
O O2 0.166456 0.555393 0.454777
O O3 0.000000 0.500000 0.500000
O O4 0.026674 0.602468 0.365363
O O5 0.765454 0.054973 0.750000
O O6 0.786962 0.216913 0.872173
O O7 0.855725 0.936672 0.857647
O O8 0.681775 0.988686 0.875714
O O9 0.066241 0.281097 0.750000
O O10 0.407004 0.078976 0.498676
O O11 0.402055 0.233540 0.619067
O O12 0.500932 0.986435 0.617731
O O13 0.325223 0.951983 0.608542
O O14 0.710434 0.250000 0.500000
#
# Coordination Sequence:
#
# PCOD9438149 Si02
#       6
#     8   8   8   8   8   8
#     4  12  25  41  65  96 129 163 219 280 327 377
#     4  11  24  42  65  93 131 173 217 270 326 385
#     4  11  24  43  65  90 126 175 215 260 330 403
#     4  10  21  36  67  92 125 165 210 262 321 380
#     4  10  20  39  62  96 124 163 215 261 313 389
#     4  12  23  40  63  94 128 168 213 266 326 386
#
# _framework density 20.775089999999999
#
# number of rings (size 3 to 8) (size 9 to 14) (size 15 to 20)
#    0.000    1.000    1.667    6.000    2.333    2.667 
#    0.000    4.167    0.000    0.000    0.000    0.000 
#    0.000    0.000    0.000    0.000    0.000    0.000 
#
# Total GULP energy -268487.873555 kJ/mol
# GULP energy per Si atom -5593.497366 kJ/mol
# Density = 2.072781 g / cm^3
# Si number density = 20.775090 Si / 1000 Ang^3
#
#
#
# Elastic Constant Matrix: (Units=GPa)
#
#
# Indices 1 2 3 4 5 6 
#
# 1 93.4236 32.5653 7.5795 0.0000 0.0000 0.0000
# 2 32.5653 140.6138 25.7886 0.0000 0.0000 0.0000
# 3 7.5795 25.7886 47.5606 0.0000 0.0000 0.0000
# 4 0.0000 0.0000 0.0000 27.8017 0.0000 0.0000
# 5 0.0000 0.0000 0.0000 0.0000 19.6676 0.0000
# 6 0.0000 0.0000 0.0000 0.0000 0.0000 39.7636
#
#
#
# Elastic Compliance Matrix: (Units=1/GPa)
#
#
# Indices 1 2 3 4 5 6 
#
# 1 0.011652 -0.002618 -0.000437 0.000000 0.000000 0.000000
# 2 -0.002618 0.008485 -0.004184 0.000000 0.000000 0.000000
# 3 -0.000437 -0.004184 0.023364 0.000000 0.000000 0.000000
# 4 0.000000 0.000000 0.000000 0.035969 0.000000 0.000000
# 5 0.000000 0.000000 0.000000 0.000000 0.050845 0.000000
# 6 0.000000 0.000000 0.000000 0.000000 0.000000 0.025149
#
#
# Mechanical properties :
#
#
# Convention : Reuss Voigt Hill
#
# Bulk Modulus (GPa) = 34.45552 45.94053 40.19803
# Shear Modulus (GPa) = 27.83700 31.82422 29.83061
#
# Velocity S-wave (km/s) = 3.66447 3.91813 3.79342
# Velocity P-wave (km/s) = 5.87583 6.52918 6.21111
#
# Compressibility (1/GPa) = 0.02902293
#
# Stress axis : x y z
#
# Youngs Moduli (GPa) = 85.82139 117.84986 42.80090
#
# Poissons Ratio (x) = 0.30858 0.01871
# Poissons Ratio (y) = 0.22471 0.17907
# Poissons Ratio (z) = 0.03752 0.49305
#
# Static dielectric constant tensor:
#      x y z
#    x 1.723110 0.000000 0.000000 
#    y 0.000000 1.748590 0.000000 
#    z 0.000000 0.000000 1.749770 
# 
# From -- ./inp_files/22452.got.cif
#   From: 2010.05.17/outbox.cif.g08.bks.cpg/sg57_12_cif.got.tgz:22452.got - 2010.06.03 13:58:18.
