data_PCOD9438956
_publ_section_title
;
Structure prediction by ZEFSAII (Michael W. Deem and Ramdas Pophale) SiO2 
 PCOD9438956
Probable space group: P B C M
;
_chemical_formula_sum "Si O2"
_cell_formula_units_Z 64
_cell_length_a 15.929347
_cell_length_b 24.357232
_cell_length_c 8.649369
_cell_angle_alpha 90.000000
_cell_angle_beta 90.000000
_cell_angle_gamma 90.000000
_cell_volume 3355.910199
_symmetry_space_group_name_H-M "P B C M"
_symmetry_group_IT_number 57
_symmetry_cell_setting 'orthorhombic'
loop_
_space_group_symop_operation_xyz
x,y,z
-x,-y,1/2+z
x,1/2-y,-z
-x,1/2+y,1/2-z
-x,-y,-z
x,y,1/2-z
-x,1/2+y,z
x,1/2-y,1/2+z
loop_
_atom_site_type_symbol
_atom_site_label
_atom_site_fract_x
_atom_site_fract_y
_atom_site_fract_z
Si Si1 0.503326 0.811314 0.566177
Si Si2 0.594438 0.501688 0.064623
Si Si3 0.347071 0.620946 0.563689
Si Si4 0.840462 0.379557 0.061752
Si Si5 0.842548 0.887730 0.436402
Si Si6 0.002466 0.188898 0.937052
Si Si7 0.905633 0.498636 0.064447
Si Si8 0.345337 0.116245 0.564972
O O1 0.504645 0.750000 0.500000
O O2 0.504437 0.809335 0.750000
O O3 0.420047 0.843019 0.510290
O O4 0.583732 0.845388 0.507569
O O5 0.592706 0.507956 0.250000
O O6 0.637347 0.443383 0.028664
O O7 0.500000 0.500000 0.000000
O O8 0.639692 0.554023 0.991221
O O9 0.352730 0.626769 0.750000
O O10 0.253117 0.636457 0.512199
O O11 0.840128 0.379154 0.250000
O O12 0.862007 0.441858 0.014811
O O13 0.916051 0.340238 0.011264
O O14 0.846441 0.892171 0.250000
O O15 0.917894 0.847833 0.486257
O O16 0.857986 0.947779 0.505416
O O17 0.749608 0.867209 0.477844
O O18 0.002297 0.190040 0.750000
O O19 0.008512 0.250000 0.000000
O O20 0.908559 0.499041 0.250000
O O21 0.000000 0.500000 0.000000
O O22 0.353950 0.118118 0.750000
#
# Coordination Sequence:
#
# PCOD9438956 Si02
#       8
#     8   8   8   8   8   8   8   8
#     4  12  26  44  65  87 118 158 204 255 306 363
#     4  11  21  35  60  91 126 161 197 242 300 362
#     4  10  21  39  63  90 120 158 201 245 299 361
#     4   9  19  37  61  86 120 158 193 241 298 352
#     4  10  22  40  61  88 123 159 197 249 303 354
#     4  10  21  40  60  82 116 154 198 246 296 349
#     4  11  20  35  61  91 124 161 199 243 301 364
#     4  11  23  40  63  91 124 160 201 252 306 362
#
# _framework density 19.070831999999999
#
# number of rings (size 3 to 8) (size 9 to 14) (size 15 to 20)
#    0.000    1.500    2.500    3.000    0.000    4.000 
#    0.000    4.375    0.000    0.000    0.000    0.000 
#    0.000    0.000    0.000    0.000    0.000    0.000 
#
# Total GULP energy -357706.929586 kJ/mol
# GULP energy per Si atom -5589.170775 kJ/mol
# Density = 1.902743 g / cm^3
# Si number density = 19.070832 Si / 1000 Ang^3
#
#
#
# Elastic Constant Matrix: (Units=GPa)
#
#
# Indices 1 2 3 4 5 6 
#
# 1 177.2531 71.8342 50.2789 0.0000 0.0000 0.0000
# 2 71.8342 135.7700 42.9669 0.0000 0.0000 0.0000
# 3 50.2789 42.9669 43.1649 0.0000 0.0000 0.0000
# 4 0.0000 0.0000 0.0000 32.2104 0.0000 0.0000
# 5 0.0000 0.0000 0.0000 0.0000 11.9413 0.0000
# 6 0.0000 0.0000 0.0000 0.0000 0.0000 -1.2625
#
#
#
# Elastic Compliance Matrix: (Units=1/GPa)
#
#
# Indices 1 2 3 4 5 6 
#
# 1 0.008804 -0.002062 -0.008202 0.000000 0.000000 0.000000
# 2 -0.002062 0.011236 -0.008782 0.000000 0.000000 0.000000
# 3 -0.008202 -0.008782 0.041463 0.000000 0.000000 0.000000
# 4 0.000000 0.000000 0.000000 0.031046 0.000000 0.000000
# 5 0.000000 0.000000 0.000000 0.000000 0.083743 0.000000
# 6 0.000000 0.000000 0.000000 0.000000 0.000000 -0.792108
#
#
# Mechanical properties :
#
#
# Convention : Reuss Voigt Hill
#
# Bulk Modulus (GPa) = 42.71775 76.26088 59.48932
# Shear Modulus (GPa) = -8.77315 21.31838 6.27261
#
# Velocity S-wave (km/s) = -2.14716 3.34706 1.81556
# Velocity P-wave (km/s) = 4.03746 7.41701 5.97131
#
# Compressibility (1/GPa) = 0.02340947
#
# Stress axis : x y z
#
# Youngs Moduli (GPa) = 113.58423 89.00133 24.11817
#
# Poissons Ratio (x) = 0.18356 0.19782
# Poissons Ratio (y) = 0.23426 0.21180
# Poissons Ratio (z) = 0.93163 0.78160
#
# Static dielectric constant tensor:
#      x y z
#    x 1.670530 0.000000 0.000000 
#    y 0.000000 1.623660 0.000000 
#    z 0.000000 0.000000 1.642900 
# 
# From -- ./inp_files/5688.got.cif
#   From: 2010.05.17/outbox.cif.g08.bks.cpg/sg57_3_cif.got.tgz:5688.got - 2010.06.03 13:58:18.
