data_PCOD9438678
_publ_section_title
;
Structure prediction by ZEFSAII (Michael W. Deem and Ramdas Pophale) SiO2 
 PCOD9438678
Probable space group: P B C M
;
_chemical_formula_sum "Si O2"
_cell_formula_units_Z 56
_cell_length_a 15.078052
_cell_length_b 23.192611
_cell_length_c 8.600566
_cell_angle_alpha 90.000000
_cell_angle_beta 90.000000
_cell_angle_gamma 90.000000
_cell_volume 3007.612724
_symmetry_space_group_name_H-M "P B C M"
_symmetry_group_IT_number 57
_symmetry_cell_setting 'orthorhombic'
loop_
_space_group_symop_operation_xyz
x,y,z
-x,-y,1/2+z
x,1/2-y,-z
-x,1/2+y,1/2-z
-x,-y,-z
x,y,1/2-z
-x,1/2+y,z
x,1/2-y,1/2+z
loop_
_atom_site_type_symbol
_atom_site_label
_atom_site_fract_x
_atom_site_fract_y
_atom_site_fract_z
Si Si1 0.115411 0.451163 0.064274
Si Si2 0.707942 0.587159 0.063877
Si Si3 0.086693 0.923586 0.436288
Si Si4 0.425126 0.311564 0.562202
Si Si5 0.812029 0.311636 0.563158
Si Si6 0.403613 0.517183 0.063241
Si Si7 0.380789 0.850449 0.938922
O O1 0.120420 0.454910 0.250000
O O2 0.017728 0.428068 0.021293
O O3 0.193045 0.410718 0.001140
O O4 0.126332 0.515829 0.996815
O O5 0.709928 0.586910 0.250000
O O6 0.642149 0.638248 0.012496
O O7 0.665672 0.528015 0.003290
O O8 0.094256 0.921887 0.250000
O O9 0.132858 0.867115 0.506133
O O10 0.396118 0.250000 0.500000
O O11 0.426520 0.311405 0.750000
O O12 0.525893 0.323952 0.507133
O O13 0.844470 0.250000 0.500000
O O14 0.813335 0.310787 0.750000
O O15 0.709752 0.320567 0.508589
O O16 0.404576 0.514617 0.250000
O O17 0.380583 0.582354 0.016629
O O18 0.500000 0.500000 0.000000
O O19 0.381434 0.848150 0.750000
#
# Coordination Sequence:
#
# PCOD9438678 Si02
#       7
#     8   8   8   8   8   8   8
#     4  10  21  38  62  90 117 147 186 236 292 349
#     4  11  22  37  57  83 116 151 189 235 283 340
#     4  10  21  39  62  88 118 150 188 235 291 354
#     4  10  21  38  55  75 107 147 191 234 277 329
#     4  11  22  37  59  85 118 157 197 244 293 346
#     4  11  20  34  55  82 116 151 190 237 288 340
#     4   9  19  36  55  78 113 150 186 232 283 337
#
# _framework density 18.619418
#
# number of rings (size 3 to 8) (size 9 to 14) (size 15 to 20)
#    0.000    1.714    1.429    3.429    0.000    4.000 
#    0.000    3.571    0.000    1.714    0.000    0.000 
#    0.000    0.000    0.000    0.000    0.000    0.000 
#
# Total GULP energy -312836.361028 kJ/mol
# GULP energy per Si atom -5586.363590 kJ/mol
# Density = 1.857704 g / cm^3
# Si number density = 18.619418 Si / 1000 Ang^3
#
#
#
# Elastic Constant Matrix: (Units=GPa)
#
#
# Indices 1 2 3 4 5 6 
#
# 1 108.1999 53.4522 32.2269 0.0000 0.0000 0.0000
# 2 53.4522 117.7228 28.6195 0.0000 0.0000 0.0000
# 3 32.2269 28.6195 36.1105 0.0000 0.0000 0.0000
# 4 0.0000 0.0000 0.0000 27.8594 0.0000 0.0000
# 5 0.0000 0.0000 0.0000 0.0000 29.6051 0.0000
# 6 0.0000 0.0000 0.0000 0.0000 0.0000 20.2621
#
#
#
# Elastic Compliance Matrix: (Units=1/GPa)
#
#
# Indices 1 2 3 4 5 6 
#
# 1 0.014037 -0.004122 -0.009260 0.000000 0.000000 0.000000
# 2 -0.004122 0.011732 -0.005620 0.000000 0.000000 0.000000
# 3 -0.009260 -0.005620 0.040411 0.000000 0.000000 0.000000
# 4 0.000000 0.000000 0.000000 0.035894 0.000000 0.000000
# 5 0.000000 0.000000 0.000000 0.000000 0.033778 0.000000
# 6 0.000000 0.000000 0.000000 0.000000 0.000000 0.049353
#
#
# Mechanical properties :
#
#
# Convention : Reuss Voigt Hill
#
# Bulk Modulus (GPa) = 35.49105 54.51449 45.00277
# Shear Modulus (GPa) = 21.49601 25.39430 23.44515
#
# Velocity S-wave (km/s) = 3.40147 3.69706 3.55234
# Velocity P-wave (km/s) = 5.87617 6.89682 6.40685
#
# Compressibility (1/GPa) = 0.02817611
#
# Stress axis : x y z
#
# Youngs Moduli (GPa) = 71.24242 85.23401 24.74582
#
# Poissons Ratio (x) = 0.35135 0.22915
# Poissons Ratio (y) = 0.29367 0.13907
# Poissons Ratio (z) = 0.65970 0.47900
#
# Static dielectric constant tensor:
#      x y z
#    x 1.658330 0.000000 0.000000 
#    y 0.000000 1.626310 0.000000 
#    z 0.000000 0.000000 1.628020 
# 
# From -- ./inp_files/5200.got.cif
#   From: 2010.05.17/outbox.cif.g08.bks.cpg/sg57_3_cif.got.tgz:5200.got - 2010.06.03 13:58:18.
