data_PCOD9438991
_publ_section_title
;
Structure prediction by ZEFSAII (Michael W. Deem and Ramdas Pophale) SiO2 
 PCOD9438991
Probable space group: P B C M
;
_chemical_formula_sum "Si O2"
_cell_formula_units_Z 24
_cell_length_a 6.439668
_cell_length_b 17.609938
_cell_length_c 10.020496
_cell_angle_alpha 90.000000
_cell_angle_beta 90.000000
_cell_angle_gamma 90.000000
_cell_volume 1136.345833
_symmetry_space_group_name_H-M "P B C M"
_symmetry_group_IT_number 57
_symmetry_cell_setting 'orthorhombic'
loop_
_space_group_symop_operation_xyz
x,y,z
-x,-y,1/2+z
x,1/2-y,-z
-x,1/2+y,1/2-z
-x,-y,-z
x,y,1/2-z
-x,1/2+y,z
x,1/2-y,1/2+z
loop_
_atom_site_type_symbol
_atom_site_label
_atom_site_fract_x
_atom_site_fract_y
_atom_site_fract_z
Si Si1 0.575188 0.586668 0.393318
Si Si2 0.813994 0.442997 0.465504
Si Si3 0.140381 0.321877 0.096125
O O1 0.633446 0.620893 0.250000
O O2 0.654686 0.499368 0.391644
O O3 0.328205 0.586489 0.413811
O O4 0.684579 0.629128 0.516861
O O5 0.000000 0.500000 0.500000
O O6 0.930347 0.372299 0.400968
O O7 0.198342 0.305444 0.250000
O O8 0.107447 0.250000 0.000000
#
# Coordination Sequence:
#
# PCOD9438991 Si02
#       3
#     8   8   8
#     4  10  21  39  64  92 122 157 200 251 305 359
#     4   9  21  38  62  92 122 155 197 245 298 356
#     4  11  24  41  61  87 122 162 204 250 301 360
#
# _framework density 21.120329999999999
#
# number of rings (size 3 to 8) (size 9 to 14) (size 15 to 20)
#    0.000    2.000    0.000    2.000    0.000   21.333 
#    0.000    0.000    0.000    0.000    0.000    0.000 
#    0.000    0.000    0.000    0.000    0.000    0.000 
#
# Total GULP energy -133631.731074 kJ/mol
# GULP energy per Si atom -5567.988795 kJ/mol
# Density = 2.107226 g / cm^3
# Si number density = 21.120330 Si / 1000 Ang^3
#
#
#
# Elastic Constant Matrix: (Units=GPa)
#
#
# Indices 1 2 3 4 5 6 
#
# 1 103.3317 27.3527 42.1521 0.0000 0.0000 0.0000
# 2 27.3527 115.3254 59.1876 0.0000 0.0000 0.0000
# 3 42.1521 59.1876 198.6993 0.0000 0.0000 0.0000
# 4 0.0000 0.0000 0.0000 6.0654 0.0000 0.0000
# 5 0.0000 0.0000 0.0000 0.0000 15.0535 0.0000
# 6 0.0000 0.0000 0.0000 0.0000 0.0000 17.2173
#
#
#
# Elastic Compliance Matrix: (Units=1/GPa)
#
#
# Indices 1 2 3 4 5 6 
#
# 1 0.010852 -0.001644 -0.001813 0.000000 0.000000 0.000000
# 2 -0.001644 0.010485 -0.002775 0.000000 0.000000 0.000000
# 3 -0.001813 -0.002775 0.006244 0.000000 0.000000 0.000000
# 4 0.000000 0.000000 0.000000 0.164869 0.000000 0.000000
# 5 0.000000 0.000000 0.000000 0.000000 0.066430 0.000000
# 6 0.000000 0.000000 0.000000 0.000000 0.000000 0.058081
#
#
# Mechanical properties :
#
#
# Convention : Reuss Voigt Hill
#
# Bulk Modulus (GPa) = 66.14083 74.97125 70.55604
# Shear Modulus (GPa) = 14.94938 26.91149 20.93044
#
# Velocity S-wave (km/s) = 2.66337 3.57346 3.15144
# Velocity P-wave (km/s) = 6.39079 7.25262 6.83530
#
# Compressibility (1/GPa) = 0.01511925
#
# Stress axis : x y z
#
# Youngs Moduli (GPa) = 92.14846 95.37534 160.16123
#
# Poissons Ratio (x) = 0.15676 0.29030
# Poissons Ratio (y) = 0.15146 0.44437
# Poissons Ratio (z) = 0.16702 0.26462
#
# Static dielectric constant tensor:
#      x y z
#    x 1.804110 0.000000 0.000000 
#    y 0.000000 1.778770 0.000000 
#    z 0.000000 0.000000 1.551000 
# 
# From -- ./inp_files/10508.got.cif
#   From: 2010.05.17/outbox.cif.g08.bks.cpg/sg57_6_cif.got.tgz:10508.got - 2010.06.03 13:58:18.
