data_PCOD9438103
_publ_section_title
;
Structure prediction by ZEFSAII (Michael W. Deem and Ramdas Pophale) SiO2 
 PCOD9438103
Probable space group: P B C M
;
_chemical_formula_sum "Si O2"
_cell_formula_units_Z 56
_cell_length_a 19.207729
_cell_length_b 8.781779
_cell_length_c 15.094595
_cell_angle_alpha 90.000000
_cell_angle_beta 90.000000
_cell_angle_gamma 90.000000
_cell_volume 2546.126566
_symmetry_space_group_name_H-M "P B C M"
_symmetry_group_IT_number 57
_symmetry_cell_setting 'orthorhombic'
loop_
_space_group_symop_operation_xyz
x,y,z
-x,-y,1/2+z
x,1/2-y,-z
-x,1/2+y,1/2-z
-x,-y,-z
x,y,1/2-z
-x,1/2+y,z
x,1/2-y,1/2+z
loop_
_atom_site_type_symbol
_atom_site_label
_atom_site_fract_x
_atom_site_fract_y
_atom_site_fract_z
Si Si1 0.783787 0.690936 0.148528
Si Si2 0.926329 0.336230 0.147893
Si Si3 0.639162 0.143078 0.934088
Si Si4 0.656936 0.868272 0.435091
Si Si5 0.568616 0.163381 0.750000
Si Si6 0.776153 0.322973 0.353243
Si Si7 0.060066 0.329228 0.593942
Si Si8 0.414289 0.468928 0.250000
O O1 0.766566 0.724231 0.250000
O O2 0.730475 0.789186 0.090779
O O3 0.776562 0.507629 0.137085
O O4 0.865388 0.722262 0.132435
O O5 0.915109 0.388107 0.250000
O O6 0.852410 0.265858 0.118903
O O7 0.939898 0.488114 0.092140
O O8 0.991640 0.225813 0.145223
O O9 0.603643 0.102327 0.840939
O O10 0.709067 0.232137 0.904513
O O11 0.594894 0.250000 0.000000
O O12 0.661624 0.006201 0.996563
O O13 0.616566 0.750000 0.500000
O O14 0.622870 0.916808 0.341708
O O15 0.577839 0.347024 0.750000
O O16 0.489361 0.111010 0.750000
O O17 0.766355 0.285881 0.250000
O O18 0.054221 0.250000 0.500000
#
# Coordination Sequence:
#
# PCOD9438103 Si02
#       8
#     8   8   8   8   4   8   8   4
#     4  10  20  38  66  96 129 173 226 280 336 412
#     4  10  21  39  58  83 122 172 223 275 341 408
#     4  12  25  45  72 103 143 182 226 289 345 407
#     4  12  25  44  75 109 140 182 237 282 344 414
#     4  12  30  52  76 106 147 184 225 278 345 408
#     4   9  19  37  65  92 126 177 228 277 341 411
#     4  11  22  37  58  89 127 168 224 287 340 404
#     4  12  30  52  74 110 149 180 229 282 335 418
#
# _framework density 21.994195000000001
#
# number of rings (size 3 to 8) (size 9 to 14) (size 15 to 20)
#    0.000    1.143    4.286    3.000    4.000    1.714 
#    2.571    0.000    0.000    0.000    0.000    0.000 
#    0.000    0.000    0.000    0.000    0.000    0.000 
#
# Total GULP energy -312638.149187 kJ/mol
# GULP energy per Si atom -5582.824093 kJ/mol
# Density = 2.194413 g / cm^3
# Si number density = 21.994195 Si / 1000 Ang^3
#
#
#
# Elastic Constant Matrix: (Units=GPa)
#
#
# Indices 1 2 3 4 5 6 
#
# 1 123.3342 18.4286 51.7559 0.0000 0.0000 0.0000
# 2 18.4286 43.3776 22.3879 0.0000 0.0000 0.0000
# 3 51.7559 22.3879 151.9819 0.0000 0.0000 0.0000
# 4 0.0000 0.0000 0.0000 34.4867 0.0000 0.0000
# 5 0.0000 0.0000 0.0000 0.0000 -0.1444 0.0000
# 6 0.0000 0.0000 0.0000 0.0000 0.0000 23.1800
#
#
#
# Elastic Compliance Matrix: (Units=1/GPa)
#
#
# Indices 1 2 3 4 5 6 
#
# 1 0.009728 -0.002622 -0.002926 0.000000 0.000000 0.000000
# 2 -0.002622 0.025657 -0.002886 0.000000 0.000000 0.000000
# 3 -0.002926 -0.002886 0.008001 0.000000 0.000000 0.000000
# 4 0.000000 0.000000 0.000000 0.028997 0.000000 0.000000
# 5 0.000000 0.000000 0.000000 0.000000 -6.926758 0.000000
# 6 0.000000 0.000000 0.000000 0.000000 0.000000 0.043141
#
#
# Mechanical properties :
#
#
# Convention : Reuss Voigt Hill
#
# Bulk Modulus (GPa) = 37.71305 55.98206 46.84756
# Shear Modulus (GPa) = -0.73686 26.57922 12.92118
#
# Velocity S-wave (km/s) = -0.57944 3.48007 2.42643
# Velocity P-wave (km/s) = 4.09101 6.45416 5.40336
#
# Compressibility (1/GPa) = 0.02651602
#
# Stress axis : x y z
#
# Youngs Moduli (GPa) = 102.79653 38.97536 124.97664
#
# Poissons Ratio (x) = 0.10221 0.36574
# Poissons Ratio (y) = 0.26958 0.36074
# Poissons Ratio (z) = 0.30083 0.11250
#
# Static dielectric constant tensor:
#      x y z
#    x 1.840670 0.000000 0.000000 
#    y 0.000000 1.837070 0.000000 
#    z 0.000000 0.000000 1.846930 
# 
# From -- ./inp_files/19391.got.cif
#   From: 2010.05.17/outbox.cif.g08.bks.cpg/sg57_10_cif.got.tgz:19391.got - 2010.06.03 13:58:18.
