data_PCOD9438078
_publ_section_title
;
Structure prediction by ZEFSAII (Michael W. Deem and Ramdas Pophale) SiO2 
 PCOD9438078
Probable space group: P B C M
;
_chemical_formula_sum "Si O2"
_cell_formula_units_Z 48
_cell_length_a 14.254277
_cell_length_b 11.248352
_cell_length_c 15.018887
_cell_angle_alpha 90.000000
_cell_angle_beta 90.000000
_cell_angle_gamma 90.000000
_cell_volume 2408.085165
_symmetry_space_group_name_H-M "P B C M"
_symmetry_group_IT_number 57
_symmetry_cell_setting 'orthorhombic'
loop_
_space_group_symop_operation_xyz
x,y,z
-x,-y,1/2+z
x,1/2-y,-z
-x,1/2+y,1/2-z
-x,-y,-z
x,y,1/2-z
-x,1/2+y,z
x,1/2-y,1/2+z
loop_
_atom_site_type_symbol
_atom_site_label
_atom_site_fract_x
_atom_site_fract_y
_atom_site_fract_z
Si Si1 0.080704 0.699260 0.147283
Si Si2 0.527075 0.652131 0.421468
Si Si3 0.688064 0.803373 0.152794
Si Si4 0.875389 0.678378 0.408699
Si Si5 0.844834 0.086460 0.525362
Si Si6 0.646453 0.025358 0.030801
O O1 0.114120 0.686457 0.250000
O O2 0.118804 0.816074 0.095657
O O3 0.968025 0.701520 0.148160
O O4 0.109501 0.600267 0.073280
O O5 0.517657 0.750000 0.500000
O O6 0.594741 0.722114 0.354573
O O7 0.422258 0.603458 0.407013
O O8 0.584138 0.535109 0.453244
O O9 0.694294 0.856834 0.250000
O O10 0.778791 0.723499 0.133824
O O11 0.684449 0.909813 0.082458
O O12 0.888776 0.750000 0.500000
O O13 0.866445 0.541131 0.433841
O O14 0.733482 0.096189 0.508703
#
# Coordination Sequence:
#
# PCOD9438078 Si02
#       6
#     8   8   8   8   8   8
#     4  11  27  43  64 101 133 170 220 271 329 388
#     4   9  19  38  63  87 115 163 212 256 313 394
#     4  11  22  37  61  96 129 162 213 272 323 381
#     4  12  21  44  68  91 125 174 222 264 316 394
#     4  11  23  44  70  92 131 177 214 268 326 392
#     4  10  20  38  65  86 119 167 215 254 318 390
#
# _framework density 19.932849999999998
#
# number of rings (size 3 to 8) (size 9 to 14) (size 15 to 20)
#    0.000    1.333    5.000    1.500    2.333    2.667 
#    0.000    0.000    0.000    0.000    0.000    0.000 
#    0.000    0.000    0.000    0.000    0.000    0.000 
#
# Total GULP energy -267728.825493 kJ/mol
# GULP energy per Si atom -5577.683864 kJ/mol
# Density = 1.988748 g / cm^3
# Si number density = 19.932850 Si / 1000 Ang^3
#
#
#
# Elastic Constant Matrix: (Units=GPa)
#
#
# Indices 1 2 3 4 5 6 
#
# 1 135.3606 50.6672 32.4969 0.0000 0.0000 0.0000
# 2 50.6672 61.1875 5.1411 0.0000 0.0000 0.0000
# 3 32.4969 5.1411 83.7416 0.0000 0.0000 0.0000
# 4 0.0000 0.0000 0.0000 4.0743 0.0000 0.0000
# 5 0.0000 0.0000 0.0000 0.0000 2.7155 0.0000
# 6 0.0000 0.0000 0.0000 0.0000 0.0000 33.0373
#
#
#
# Elastic Compliance Matrix: (Units=1/GPa)
#
#
# Indices 1 2 3 4 5 6 
#
# 1 0.011929 -0.009538 -0.004043 0.000000 0.000000 0.000000
# 2 -0.009538 0.024054 0.002225 0.000000 0.000000 0.000000
# 3 -0.004043 0.002225 0.013374 0.000000 0.000000 0.000000
# 4 0.000000 0.000000 0.000000 0.245443 0.000000 0.000000
# 5 0.000000 0.000000 0.000000 0.000000 0.368263 0.000000
# 6 0.000000 0.000000 0.000000 0.000000 0.000000 0.030269
#
#
# Mechanical properties :
#
#
# Convention : Reuss Voigt Hill
#
# Bulk Modulus (GPa) = 37.53295 50.76667 44.14981
# Shear Modulus (GPa) = 6.89726 20.76438 13.83082
#
# Velocity S-wave (km/s) = 1.86219 3.23107 2.63700
# Velocity P-wave (km/s) = 4.84709 6.28043 5.60973
#
# Compressibility (1/GPa) = 0.02664326
#
# Stress axis : x y z
#
# Youngs Moduli (GPa) = 83.83235 41.57266 74.77176
#
# Poissons Ratio (x) = 0.39652 0.30234
# Poissons Ratio (y) = 0.79958 -0.16633
# Poissons Ratio (z) = 0.33897 -0.09248
#
# Static dielectric constant tensor:
#      x y z
#    x 1.755560 0.000000 0.000000 
#    y 0.000000 1.702540 0.000000 
#    z 0.000000 0.000000 1.695640 
# 
# From -- ./inp_files/18394.got.cif
#   From: 2010.05.17/outbox.cif.g08.bks.cpg/sg57_10_cif.got.tgz:18394.got - 2010.06.03 13:58:18.
