data_PCOD9438885
_publ_section_title
;
Structure prediction by ZEFSAII (Michael W. Deem and Ramdas Pophale) SiO2 
 PCOD9438885
Probable space group: P B C M
;
_chemical_formula_sum "Si O2"
_cell_formula_units_Z 48
_cell_length_a 13.475584
_cell_length_b 8.909712
_cell_length_c 21.465165
_cell_angle_alpha 90.000000
_cell_angle_beta 90.000000
_cell_angle_gamma 90.000000
_cell_volume 2577.184394
_symmetry_space_group_name_H-M "P B C M"
_symmetry_group_IT_number 57
_symmetry_cell_setting 'orthorhombic'
loop_
_space_group_symop_operation_xyz
x,y,z
-x,-y,1/2+z
x,1/2-y,-z
-x,1/2+y,1/2-z
-x,-y,-z
x,y,1/2-z
-x,1/2+y,z
x,1/2-y,1/2+z
loop_
_atom_site_type_symbol
_atom_site_label
_atom_site_fract_x
_atom_site_fract_y
_atom_site_fract_z
Si Si1 0.410540 0.969949 0.934154
Si Si2 0.758045 0.864727 0.379393
Si Si3 0.098849 0.419233 0.021911
Si Si4 0.582814 0.164536 0.879225
Si Si5 0.296234 0.055511 0.447914
Si Si6 0.653317 0.660583 0.750000
Si Si7 0.547161 0.330200 0.750000
O O1 0.307157 0.993160 0.898531
O O2 0.489243 0.056972 0.891510
O O3 0.430346 0.794995 0.930213
O O4 0.387126 0.036650 0.002554
O O5 0.867191 0.904282 0.405597
O O6 0.717861 0.722070 0.420224
O O7 0.725981 0.832046 0.309417
O O8 0.087018 0.250000 0.000000
O O9 0.195074 0.481387 0.984530
O O10 0.000000 0.500000 0.000000
O O11 0.677709 0.062553 0.894252
O O12 0.582159 0.243424 0.812323
O O13 0.589531 0.501845 0.750000
O O14 0.572488 0.796972 0.750000
#
# Coordination Sequence:
#
# PCOD9438885 Si02
#       7
#     8   8   8   8   8   4   4
#     4  11  21  36  52  79 119 156 198 250 296 351
#     4  10  21  39  60  83 118 157 199 245 298 365
#     4   9  20  40  65  93 116 144 188 250 319 375
#     4  12  22  35  53  79 119 162 202 248 291 351
#     4  10  23  37  57  88 113 152 198 245 315 360
#     4  12  24  42  56  81 127 168 218 239 291 347
#     4  12  24  38  54  79 119 172 212 237 277 355
#
# _framework density 18.624976
#
# number of rings (size 3 to 8) (size 9 to 14) (size 15 to 20)
#    0.000    1.333    3.333    3.500    2.333    4.000 
#    0.000    0.000    0.000    5.000    0.000    0.000 
#    0.000    0.000    0.000    0.000    0.000    0.000 
#
# Total GULP energy -267508.245625 kJ/mol
# GULP energy per Si atom -5573.088451 kJ/mol
# Density = 1.858258 g / cm^3
# Si number density = 18.624976 Si / 1000 Ang^3
#
#
#
# Elastic Constant Matrix: (Units=GPa)
#
#
# Indices 1 2 3 4 5 6 
#
# 1 101.3117 38.4912 42.6746 0.0000 0.0000 0.0000
# 2 38.4912 75.6342 15.9866 0.0000 0.0000 0.0000
# 3 42.6746 15.9866 126.7671 0.0000 0.0000 0.0000
# 4 0.0000 0.0000 0.0000 23.3580 0.0000 0.0000
# 5 0.0000 0.0000 0.0000 0.0000 24.7361 0.0000
# 6 0.0000 0.0000 0.0000 0.0000 0.0000 21.9550
#
#
#
# Elastic Compliance Matrix: (Units=1/GPa)
#
#
# Indices 1 2 3 4 5 6 
#
# 1 0.013878 -0.006242 -0.003885 0.000000 0.000000 0.000000
# 2 -0.006242 0.016391 0.000034 0.000000 0.000000 0.000000
# 3 -0.003885 0.000034 0.009192 0.000000 0.000000 0.000000
# 4 0.000000 0.000000 0.000000 0.042812 0.000000 0.000000
# 5 0.000000 0.000000 0.000000 0.000000 0.040427 0.000000
# 6 0.000000 0.000000 0.000000 0.000000 0.000000 0.045548
#
#
# Mechanical properties :
#
#
# Convention : Reuss Voigt Hill
#
# Bulk Modulus (GPa) = 51.87720 55.33531 53.60626
# Shear Modulus (GPa) = 25.65977 27.78053 26.72015
#
# Velocity S-wave (km/s) = 3.71577 3.86628 3.79177
# Velocity P-wave (km/s) = 6.80613 7.05022 6.92925
#
# Compressibility (1/GPa) = 0.01927629
#
# Stress axis : x y z
#
# Youngs Moduli (GPa) = 72.05488 61.00982 108.79089
#
# Poissons Ratio (x) = 0.38081 0.42263
# Poissons Ratio (y) = 0.44975 -0.00372
# Poissons Ratio (z) = 0.27992 -0.00208
#
# Static dielectric constant tensor:
#      x y z
#    x 1.674280 0.000000 0.000000 
#    y 0.000000 1.679570 0.000000 
#    z 0.000000 0.000000 1.797960 
# 
# From -- ./inp_files/25274.got.cif
#   From: 2010.05.17/outbox.cif.g08.bks.cpg/sg57_13_cif.got.tgz:25274.got - 2010.06.03 13:58:18.
