data_PCOD9438684
_publ_section_title
;
Structure prediction by ZEFSAII (Michael W. Deem and Ramdas Pophale) SiO2 
 PCOD9438684
Probable space group: P B C M
;
_chemical_formula_sum "Si O2"
_cell_formula_units_Z 48
_cell_length_a 7.921868
_cell_length_b 14.196473
_cell_length_c 18.669660
_cell_angle_alpha 90.000000
_cell_angle_beta 90.000000
_cell_angle_gamma 90.000000
_cell_volume 2099.638228
_symmetry_space_group_name_H-M "P B C M"
_symmetry_group_IT_number 57
_symmetry_cell_setting 'orthorhombic'
loop_
_space_group_symop_operation_xyz
x,y,z
-x,-y,1/2+z
x,1/2-y,-z
-x,1/2+y,1/2-z
-x,-y,-z
x,y,1/2-z
-x,1/2+y,z
x,1/2-y,1/2+z
loop_
_atom_site_type_symbol
_atom_site_label
_atom_site_fract_x
_atom_site_fract_y
_atom_site_fract_z
Si Si1 0.058223 0.448355 0.926995
Si Si2 0.757176 0.737055 0.419144
Si Si3 0.915981 0.903073 0.332172
Si Si4 0.459838 0.865899 0.833095
Si Si5 0.293058 0.817469 0.331599
Si Si6 0.436689 0.973794 0.421386
O O1 0.083496 0.335754 0.927138
O O2 0.945824 0.493285 0.864393
O O3 0.248811 0.484323 0.915776
O O4 0.000000 0.500000 0.000000
O O5 0.692305 0.750000 0.500000
O O6 0.617312 0.687981 0.369745
O O7 0.808696 0.835874 0.383966
O O8 0.856569 0.903749 0.250000
O O9 0.103105 0.855400 0.333549
O O10 0.495557 0.878289 0.750000
O O11 0.305830 0.794097 0.842518
O O12 0.444869 0.966864 0.868986
O O13 0.357155 0.836777 0.250000
O O14 0.407163 0.869531 0.391162
O O15 0.500000 0.000000 0.500000
#
# Coordination Sequence:
#
# PCOD9438684 Si02
#       6
#     8   8   8   8   8   8
#     4  10  21  38  56  81 117 150 187 232 289 338
#     4  11  22  36  60  88 118 149 191 242 286 343
#     4  10  21  39  60  84 113 151 194 234 285 346
#     4  10  22  39  59  84 116 153 191 235 285 342
#     4   9  20  38  58  80 112 150 188 230 279 339
#     4  10  22  35  57  84 111 148 188 234 281 339
#
# _framework density 22.861080999999999
#
# number of rings (size 3 to 8) (size 9 to 14) (size 15 to 20)
#    0.000    2.000    1.667    1.000    4.667    6.000 
#    0.000    0.000    0.000    5.000    0.000    0.000 
#    0.000    0.000    0.000    0.000    0.000    0.000 
#
# Total GULP energy -268170.843903 kJ/mol
# GULP energy per Si atom -5586.892581 kJ/mol
# Density = 2.280905 g / cm^3
# Si number density = 22.861081 Si / 1000 Ang^3
#
#
#
# Elastic Constant Matrix: (Units=GPa)
#
#
# Indices 1 2 3 4 5 6 
#
# 1 52.8763 -5.9080 6.8426 0.0000 0.0000 0.0000
# 2 -5.9080 50.6584 2.2657 0.0000 0.0000 0.0000
# 3 6.8426 2.2657 123.5105 0.0000 0.0000 0.0000
# 4 0.0000 0.0000 0.0000 34.8024 0.0000 0.0000
# 5 0.0000 0.0000 0.0000 0.0000 21.2550 0.0000
# 6 0.0000 0.0000 0.0000 0.0000 0.0000 25.5176
#
#
#
# Elastic Compliance Matrix: (Units=1/GPa)
#
#
# Indices 1 2 3 4 5 6 
#
# 1 0.019313 0.002302 -0.001112 0.000000 0.000000 0.000000
# 2 0.002302 0.020031 -0.000495 0.000000 0.000000 0.000000
# 3 -0.001112 -0.000495 0.008167 0.000000 0.000000 0.000000
# 4 0.000000 0.000000 0.000000 0.028734 0.000000 0.000000
# 5 0.000000 0.000000 0.000000 0.000000 0.047048 0.000000
# 6 0.000000 0.000000 0.000000 0.000000 0.000000 0.039189
#
#
# Mechanical properties :
#
#
# Convention : Reuss Voigt Hill
#
# Bulk Modulus (GPa) = 20.44950 25.93841 23.19395
# Shear Modulus (GPa) = 28.18625 31.23800 29.71212
#
# Velocity S-wave (km/s) = 3.51513 3.70053 3.60902
# Velocity P-wave (km/s) = 5.04375 5.44328 5.24732
#
# Compressibility (1/GPa) = 0.04890096
#
# Stress axis : x y z
#
# Youngs Moduli (GPa) = 51.77804 49.92343 122.44133
#
# Poissons Ratio (x) = -0.11493 0.13618
# Poissons Ratio (y) = -0.11920 0.06061
# Poissons Ratio (z) = 0.05759 0.02471
#
# Static dielectric constant tensor:
#      x y z
#    x 1.740150 0.000000 0.000000 
#    y 0.000000 1.923050 0.000000 
#    z 0.000000 0.000000 1.810800 
# 
# From -- ./inp_files/17577.got.cif
#   From: 2010.05.17/outbox.cif.g08.bks.cpg/sg57_9_cif.got.tgz:17577.got - 2010.06.03 13:58:18.
