data_PCOD9438084
_publ_section_title
;
Structure prediction by ZEFSAII (Michael W. Deem and Ramdas Pophale) SiO2 
 PCOD9438084
Probable space group: P B C M
;
_chemical_formula_sum "Si O2"
_cell_formula_units_Z 64
_cell_length_a 18.476588
_cell_length_b 11.929289
_cell_length_c 14.372323
_cell_angle_alpha 90.000000
_cell_angle_beta 90.000000
_cell_angle_gamma 90.000000
_cell_volume 3167.840477
_symmetry_space_group_name_H-M "P B C M"
_symmetry_group_IT_number 57
_symmetry_cell_setting 'orthorhombic'
loop_
_space_group_symop_operation_xyz
x,y,z
-x,-y,1/2+z
x,1/2-y,-z
-x,1/2+y,1/2-z
-x,-y,-z
x,y,1/2-z
-x,1/2+y,z
x,1/2-y,1/2+z
loop_
_atom_site_type_symbol
_atom_site_label
_atom_site_fract_x
_atom_site_fract_y
_atom_site_fract_z
Si Si1 0.156161 0.417141 0.364143
Si Si2 0.896744 0.339771 0.918032
Si Si3 0.296376 0.123521 0.508564
Si Si4 0.225807 0.797340 0.353279
Si Si5 0.189492 0.041042 0.138165
Si Si6 0.383959 0.752073 0.138473
Si Si7 0.423034 0.559398 0.497026
Si Si8 0.061095 0.197143 0.138485
O O1 0.160538 0.427409 0.250000
O O2 0.122069 0.528698 0.410916
O O3 0.234653 0.393234 0.411166
O O4 0.102897 0.312110 0.385802
O O5 0.839131 0.288341 0.846688
O O6 0.981014 0.320423 0.898794
O O7 0.880659 0.250000 0.000000
O O8 0.325317 0.250000 0.500000
O O9 0.252863 0.106400 0.412352
O O10 0.359005 0.031218 0.516042
O O11 0.248449 0.832734 0.250000
O O12 0.298822 0.743532 0.390709
O O13 0.199186 0.913862 0.395862
O O14 0.193029 0.050225 0.250000
O O15 0.113254 0.095055 0.110852
O O16 0.393193 0.748880 0.250000
O O17 0.421517 0.648528 0.087290
O O18 0.409587 0.867629 0.090732
O O19 0.500000 0.500000 0.500000
O O20 0.054641 0.197200 0.250000
#
# Coordination Sequence:
#
# PCOD9438084 Si02
#       8
#     8   8   8   8   8   8   8   8
#     4  11  25  45  66  91 131 178 227 277 332 398
#     4  12  26  37  61  92 129 168 223 283 344 392
#     4  12  24  41  71  97 135 173 223 274 335 403
#     4  10  20  38  65  92 120 167 224 274 324 387
#     4  10  21  40  64  92 129 173 222 273 328 389
#     4  10  23  46  74 100 137 181 228 277 326 395
#     4  11  26  44  72 106 143 175 217 271 342 406
#     4  10  23  41  58  86 130 177 219 276 339 397
#
# _framework density 20.203036000000001
#
# number of rings (size 3 to 8) (size 9 to 14) (size 15 to 20)
#    0.000    1.250    2.500    2.625    7.000    2.500 
#    0.000    0.000    0.000    0.000    0.000    0.000 
#    0.000    0.000    0.000    0.000    0.000    0.000 
#
# Total GULP energy -356999.005262 kJ/mol
# GULP energy per Si atom -5578.109457 kJ/mol
# Density = 2.015705 g / cm^3
# Si number density = 20.203036 Si / 1000 Ang^3
#
#
#
# Elastic Constant Matrix: (Units=GPa)
#
#
# Indices 1 2 3 4 5 6 
#
# 1 123.5611 62.6397 49.4746 0.0000 0.0000 0.0000
# 2 62.6397 136.2724 43.4087 0.0000 0.0000 0.0000
# 3 49.4746 43.4087 102.1419 0.0000 0.0000 0.0000
# 4 0.0000 0.0000 0.0000 21.3469 0.0000 0.0000
# 5 0.0000 0.0000 0.0000 0.0000 4.4513 0.0000
# 6 0.0000 0.0000 0.0000 0.0000 0.0000 31.9079
#
#
#
# Elastic Compliance Matrix: (Units=1/GPa)
#
#
# Indices 1 2 3 4 5 6 
#
# 1 0.011779 -0.004160 -0.003937 0.000000 0.000000 0.000000
# 2 -0.004160 0.009956 -0.002216 0.000000 0.000000 0.000000
# 3 -0.003937 -0.002216 0.012639 0.000000 0.000000 0.000000
# 4 0.000000 0.000000 0.000000 0.046845 0.000000 0.000000
# 5 0.000000 0.000000 0.000000 0.000000 0.224654 0.000000
# 6 0.000000 0.000000 0.000000 0.000000 0.000000 0.031340
#
#
# Mechanical properties :
#
#
# Convention : Reuss Voigt Hill
#
# Bulk Modulus (GPa) = 72.74260 74.78015 73.76138
# Shear Modulus (GPa) = 13.79601 25.30472 19.55037
#
# Velocity S-wave (km/s) = 2.61601 3.54294 3.11415
# Velocity P-wave (km/s) = 6.72374 7.33697 7.03704
#
# Compressibility (1/GPa) = 0.01374710
#
# Stress axis : x y z
#
# Youngs Moduli (GPa) = 84.89968 100.43727 79.11820
#
# Poissons Ratio (x) = 0.41782 0.31151
# Poissons Ratio (y) = 0.35318 0.17535
# Poissons Ratio (z) = 0.33427 0.22260
#
# Static dielectric constant tensor:
#      x y z
#    x 1.699710 0.000000 0.000000 
#    y 0.000000 1.775920 0.000000 
#    z 0.000000 0.000000 1.789360 
# 
# From -- ./inp_files/19100.got.cif
#   From: 2010.05.17/outbox.cif.g08.bks.cpg/sg57_10_cif.got.tgz:19100.got - 2010.06.03 13:58:18.
