data_PCOD9438534
_publ_section_title
;
Structure prediction by ZEFSAII (Michael W. Deem and Ramdas Pophale) SiO2 
 PCOD9438534
Probable space group: P B C M
;
_chemical_formula_sum "Si O2"
_cell_formula_units_Z 48
_cell_length_a 5.496308
_cell_length_b 15.751799
_cell_length_c 26.627789
_cell_angle_alpha 90.000000
_cell_angle_beta 90.000000
_cell_angle_gamma 90.000000
_cell_volume 2305.347135
_symmetry_space_group_name_H-M "P B C M"
_symmetry_group_IT_number 57
_symmetry_cell_setting 'orthorhombic'
loop_
_space_group_symop_operation_xyz
x,y,z
-x,-y,1/2+z
x,1/2-y,-z
-x,1/2+y,1/2-z
-x,-y,-z
x,y,1/2-z
-x,1/2+y,z
x,1/2-y,1/2+z
loop_
_atom_site_type_symbol
_atom_site_label
_atom_site_fract_x
_atom_site_fract_y
_atom_site_fract_z
Si Si1 0.832683 0.582494 0.503298
Si Si2 0.780762 0.930853 0.806781
Si Si3 0.191632 0.720234 0.549088
Si Si4 0.720810 0.961440 0.306820
Si Si5 0.806984 0.825652 0.593844
Si Si6 0.580257 0.860913 0.403098
O O1 0.991212 0.664179 0.520081
O O2 0.000000 0.500000 0.500000
O O3 0.726829 0.607699 0.449046
O O4 0.649548 0.578836 0.550046
O O5 0.796743 0.895498 0.750000
O O6 0.785029 0.863612 0.851332
O O7 0.522601 0.980178 0.809924
O O8 0.022694 0.989278 0.813382
O O9 0.347827 0.750000 0.500000
O O10 0.295260 0.654187 0.589673
O O11 0.083353 0.798773 0.579861
O O12 0.723953 0.925446 0.250000
O O13 0.683060 0.895521 0.351636
O O14 0.667357 0.736535 0.590157
#
# Coordination Sequence:
#
# PCOD9438534 Si02
#       6
#     8   8   8   8   8   8
#     4  10  21  37  57  89 124 163 212 253 311 371
#     4  10  23  45  66  92 125 164 210 264 317 371
#     4   9  20  37  54  85 125 161 202 253 311 370
#     4  10  24  43  66  91 124 163 210 264 315 374
#     4  10  22  37  61  89 127 163 209 261 311 377
#     4  11  22  37  62  87 127 167 208 260 317 377
#
# _framework density 20.821159999999999
#
# number of rings (size 3 to 8) (size 9 to 14) (size 15 to 20)
#    0.000    2.000    0.000    3.500    9.333    1.333 
#    0.000    0.833    0.000    0.000    0.000    0.000 
#    0.000    0.000    0.000    0.000    0.000    0.000 
#
# Total GULP energy -267410.497776 kJ/mol
# GULP energy per Si atom -5571.052037 kJ/mol
# Density = 2.077377 g / cm^3
# Si number density = 20.821160 Si / 1000 Ang^3
#
#
#
# Elastic Constant Matrix: (Units=GPa)
#
#
# Indices 1 2 3 4 5 6 
#
# 1 55.4685 4.5812 11.6402 0.0000 0.0000 0.0000
# 2 4.5812 62.3490 44.9057 0.0000 0.0000 0.0000
# 3 11.6402 44.9057 115.7612 0.0000 0.0000 0.0000
# 4 0.0000 0.0000 0.0000 40.5914 0.0000 0.0000
# 5 0.0000 0.0000 0.0000 0.0000 22.0426 0.0000
# 6 0.0000 0.0000 0.0000 0.0000 0.0000 23.7917
#
#
#
# Elastic Compliance Matrix: (Units=1/GPa)
#
#
# Indices 1 2 3 4 5 6 
#
# 1 0.018417 -0.000027 -0.001841 0.000000 0.000000 0.000000
# 2 -0.000027 0.022257 -0.008631 0.000000 0.000000 0.000000
# 3 -0.001841 -0.008631 0.012172 0.000000 0.000000 0.000000
# 4 0.000000 0.000000 0.000000 0.024636 0.000000 0.000000
# 5 0.000000 0.000000 0.000000 0.000000 0.045367 0.000000
# 6 0.000000 0.000000 0.000000 0.000000 0.000000 0.042031
#
#
# Mechanical properties :
#
#
# Convention : Reuss Voigt Hill
#
# Bulk Modulus (GPa) = 31.40042 39.53699 35.46870
# Shear Modulus (GPa) = 25.44598 28.78191 27.11395
#
# Velocity S-wave (km/s) = 3.49968 3.72202 3.61256
# Velocity P-wave (km/s) = 5.60750 6.12383 5.87134
#
# Compressibility (1/GPa) = 0.03184671
#
# Stress axis : x y z
#
# Youngs Moduli (GPa) = 54.29797 44.92928 82.15695
#
# Poissons Ratio (x) = 0.00121 0.15129
# Poissons Ratio (y) = 0.00146 0.70911
# Poissons Ratio (z) = 0.09999 0.38779
#
# Static dielectric constant tensor:
#      x y z
#    x 2.024100 0.000000 0.000000 
#    y 0.000000 1.734610 0.000000 
#    z 0.000000 0.000000 1.781740 
# 
# From -- ./inp_files/26217.got.cif
#   From: 2010.05.17/outbox.cif.g08.bks.cpg/sg57_14_cif.got.tgz:26217.got - 2010.06.03 13:58:18.
