data_PCOD9438896
_publ_section_title
;
Structure prediction by ZEFSAII (Michael W. Deem and Ramdas Pophale) SiO2 
 PCOD9438896
Probable space group: P B C M
;
_chemical_formula_sum "Si O2"
_cell_formula_units_Z 40
_cell_length_a 24.943924
_cell_length_b 8.852953
_cell_length_c 9.436213
_cell_angle_alpha 90.000000
_cell_angle_beta 90.000000
_cell_angle_gamma 90.000000
_cell_volume 2083.774258
_symmetry_space_group_name_H-M "P B C M"
_symmetry_group_IT_number 57
_symmetry_cell_setting 'orthorhombic'
loop_
_space_group_symop_operation_xyz
x,y,z
-x,-y,1/2+z
x,1/2-y,-z
-x,1/2+y,1/2-z
-x,-y,-z
x,y,1/2-z
-x,1/2+y,z
x,1/2-y,1/2+z
loop_
_atom_site_type_symbol
_atom_site_label
_atom_site_fract_x
_atom_site_fract_y
_atom_site_fract_z
Si Si1 0.119777 0.567687 0.018759
Si Si2 0.043090 0.431867 0.250000
Si Si3 0.072316 0.077754 0.250000
Si Si4 0.654408 0.910203 0.421975
Si Si5 0.760856 0.099246 0.088700
Si Si6 0.549570 0.584237 0.425827
O O1 0.108235 0.471662 0.880615
O O2 0.116560 0.750000 0.000000
O O3 0.072766 0.512048 0.120313
O O4 0.179790 0.531125 0.070074
O O5 0.054289 0.252402 0.250000
O O6 0.980820 0.473267 0.250000
O O7 0.660350 0.750000 0.500000
O O8 0.643900 0.898235 0.250000
O O9 0.604767 0.984342 0.508482
O O10 0.710561 0.994009 0.442829
O O11 0.755911 0.146049 0.250000
O O12 0.758271 0.250000 0.000000
O O13 0.548038 0.750000 0.500000
O O14 0.500000 0.500000 0.500000
O O15 0.548443 0.586908 0.250000
#
# Coordination Sequence:
#
# PCOD9438896 Si02
#       6
#     8   4   4   8   8   8
#     4  11  23  43  64  91 124 164 206 257 314 374
#     4  12  24  44  64  92 130 154 215 248 315 378
#     4  12  26  40  66  94 120 170 197 264 309 376
#     4  10  21  39  60  90 125 163 207 258 311 370
#     4  10  23  41  64  90 122 160 203 252 305 368
#     4  11  22  39  62  91 126 169 214 264 319 376
#
# _framework density 19.195936
#
# number of rings (size 3 to 8) (size 9 to 14) (size 15 to 20)
#    0.000    1.200    1.000    6.600    4.200    4.000 
#    0.000    2.000    0.000    0.000    0.000    0.000 
#    0.000    0.000    0.000    0.000    0.000    0.000 
#
# Total GULP energy -222987.789126 kJ/mol
# GULP energy per Si atom -5574.694728 kJ/mol
# Density = 1.915225 g / cm^3
# Si number density = 19.195936 Si / 1000 Ang^3
#
#
#
# Elastic Constant Matrix: (Units=GPa)
#
#
# Indices 1 2 3 4 5 6 
#
# 1 78.4111 18.2925 -4.4661 0.0000 0.0000 0.0000
# 2 18.2925 65.4992 3.8336 0.0000 0.0000 0.0000
# 3 -4.4661 3.8336 62.5296 0.0000 0.0000 0.0000
# 4 0.0000 0.0000 0.0000 32.3945 0.0000 0.0000
# 5 0.0000 0.0000 0.0000 0.0000 40.8094 0.0000
# 6 0.0000 0.0000 0.0000 0.0000 0.0000 -6.8131
#
#
#
# Elastic Compliance Matrix: (Units=1/GPa)
#
#
# Indices 1 2 3 4 5 6 
#
# 1 0.013734 -0.003907 0.001220 0.000000 0.000000 0.000000
# 2 -0.003907 0.016434 -0.001287 0.000000 0.000000 0.000000
# 3 0.001220 -0.001287 0.016158 0.000000 0.000000 0.000000
# 4 0.000000 0.000000 0.000000 0.030869 0.000000 0.000000
# 5 0.000000 0.000000 0.000000 0.000000 0.024504 0.000000
# 6 0.000000 0.000000 0.000000 0.000000 0.000000 -0.146775
#
#
# Mechanical properties :
#
#
# Convention : Reuss Voigt Hill
#
# Bulk Modulus (GPa) = 26.05513 26.86222 26.45867
# Shear Modulus (GPa) = -205.46388 25.86348 -89.80020
#
# Velocity S-wave (km/s) = -10.35700 3.67460 -6.84707
# Velocity P-wave (km/s) = 11.37632 5.65930 6.97829
#
# Compressibility (1/GPa) = 0.03838016
#
# Stress axis : x y z
#
# Youngs Moduli (GPa) = 72.81036 60.85005 61.88703
#
# Poissons Ratio (x) = 0.23775 -0.07553
# Poissons Ratio (y) = 0.28448 0.07962
# Poissons Ratio (z) = -0.08886 0.07829
#
# Static dielectric constant tensor:
#      x y z
#    x 1.696830 0.000000 0.000000 
#    y 0.000000 1.623590 0.000000 
#    z 0.000000 0.000000 1.667230 
# 
# From -- ./inp_files/8989.got.cif
#   From: 2010.05.17/outbox.cif.g08.bks.cpg/sg57_5_cif.got.tgz:8989.got - 2010.06.03 13:58:18.
