data_PCOD9438725
_publ_section_title
;
Structure prediction by ZEFSAII (Michael W. Deem and Ramdas Pophale) SiO2 
 PCOD9438725
Probable space group: P B C M
;
_chemical_formula_sum "Si O2"
_cell_formula_units_Z 52
_cell_length_a 13.062438
_cell_length_b 12.641385
_cell_length_c 14.744973
_cell_angle_alpha 90.000000
_cell_angle_beta 90.000000
_cell_angle_gamma 90.000000
_cell_volume 2434.797695
_symmetry_space_group_name_H-M "P B C M"
_symmetry_group_IT_number 57
_symmetry_cell_setting 'orthorhombic'
loop_
_space_group_symop_operation_xyz
x,y,z
-x,-y,1/2+z
x,1/2-y,-z
-x,1/2+y,1/2-z
-x,-y,-z
x,y,1/2-z
-x,1/2+y,z
x,1/2-y,1/2+z
loop_
_atom_site_type_symbol
_atom_site_label
_atom_site_fract_x
_atom_site_fract_y
_atom_site_fract_z
Si Si1 0.109498 0.497414 0.052253
Si Si2 0.338459 0.644987 0.750000
Si Si3 0.440632 0.084055 0.750000
Si Si4 0.046738 0.799902 0.854072
Si Si5 0.829399 0.725177 0.640828
Si Si6 0.602540 0.760470 0.896079
Si Si7 0.780569 0.341062 0.064243
Si Si8 0.464122 0.640091 0.250000
O O1 0.093185 0.584946 0.130623
O O2 0.145256 0.386039 0.092318
O O3 0.194861 0.551952 0.988870
O O4 0.000000 0.500000 0.000000
O O5 0.436823 0.569719 0.750000
O O6 0.276694 0.635324 0.657310
O O7 0.387139 0.761863 0.750000
O O8 0.412093 0.152270 0.661957
O O9 0.399676 0.966605 0.750000
O O10 0.054370 0.768436 0.750000
O O11 0.111536 0.713973 0.908941
O O12 0.927691 0.797569 0.879370
O O13 0.821588 0.710096 0.750000
O O14 0.724341 0.777882 0.608258
O O15 0.536056 0.843838 0.838477
O O16 0.569736 0.750000 0.000000
O O17 0.729799 0.250000 0.000000
#
# Coordination Sequence:
#
# PCOD9438725 Si02
#       8
#     8   4   4   8   8   8   8   4
#     4  11  23  36  57  92 132 166 219 263 308 377
#     4  10  22  42  66  88 132 166 206 284 324 378
#     4  10  24  46  67  99 129 162 219 283 338 406
#     4  10  21  38  59  84 126 176 213 257 311 372
#     4  11  22  41  66  89 133 175 217 268 324 384
#     4  10  23  43  70 100 130 172 220 270 344 410
#     4  10  21  38  59  91 124 165 219 250 317 378
#     4  10  24  48  69  93 133 160 219 287 336 402
#
# _framework density 21.357009999999999
#
# number of rings (size 3 to 8) (size 9 to 14) (size 15 to 20)
#    0.000    1.846    3.846    0.462    2.154    6.769 
#    1.385    0.000    0.000    0.000    0.000    0.000 
#    0.000    0.000    0.000    0.000    0.000    0.000 
#
# Total GULP energy -290492.098707 kJ/mol
# GULP energy per Si atom -5586.386514 kJ/mol
# Density = 2.130840 g / cm^3
# Si number density = 21.357010 Si / 1000 Ang^3
#
#
#
# Elastic Constant Matrix: (Units=GPa)
#
#
# Indices 1 2 3 4 5 6 
#
# 1 54.1457 -16.9253 18.9503 0.0000 0.0000 0.0000
# 2 -16.9253 56.0321 6.4171 0.0000 0.0000 0.0000
# 3 18.9503 6.4171 131.1270 0.0000 0.0000 0.0000
# 4 0.0000 0.0000 0.0000 14.2136 0.0000 0.0000
# 5 0.0000 0.0000 0.0000 0.0000 2.4517 0.0000
# 6 0.0000 0.0000 0.0000 0.0000 0.0000 -3.4161
#
#
#
# Elastic Compliance Matrix: (Units=1/GPa)
#
#
# Indices 1 2 3 4 5 6 
#
# 1 0.021888 0.007013 -0.003506 0.000000 0.000000 0.000000
# 2 0.007013 0.020195 -0.002002 0.000000 0.000000 0.000000
# 3 -0.003506 -0.002002 0.008231 0.000000 0.000000 0.000000
# 4 0.000000 0.000000 0.000000 0.070355 0.000000 0.000000
# 5 0.000000 0.000000 0.000000 0.000000 0.407879 0.000000
# 6 0.000000 0.000000 0.000000 0.000000 0.000000 -0.292735
#
#
# Mechanical properties :
#
#
# Convention : Reuss Voigt Hill
#
# Bulk Modulus (GPa) = 18.75345 28.68768 23.72057
# Shear Modulus (GPa) = 19.95386 18.17402 19.06394
#
# Velocity S-wave (km/s) = 3.05995 2.92029 2.99094
# Velocity P-wave (km/s) = 4.61350 4.98321 4.80192
#
# Compressibility (1/GPa) = 0.05332353
#
# Stress axis : x y z
#
# Youngs Moduli (GPa) = 45.68680 49.51814 121.49325
#
# Poissons Ratio (x) = -0.34728 0.42601
# Poissons Ratio (y) = -0.32041 0.24321
# Poissons Ratio (z) = 0.16020 0.09913
#
# Static dielectric constant tensor:
#      x y z
#    x 1.799330 0.000000 0.000000 
#    y 0.000000 1.746540 0.000000 
#    z 0.000000 0.000000 1.793030 
# 
# From -- ./inp_files/17779.got.cif
#   From: 2010.05.17/outbox.cif.g08.bks.cpg/sg57_9_cif.got.tgz:17779.got - 2010.06.03 13:58:18.
