data_PCOD9438490
_publ_section_title
;
Structure prediction by ZEFSAII (Michael W. Deem and Ramdas Pophale) SiO2 
 PCOD9438490
Probable space group: P B C M
;
_chemical_formula_sum "Si O2"
_cell_formula_units_Z 56
_cell_length_a 21.668108
_cell_length_b 15.951229
_cell_length_c 8.552665
_cell_angle_alpha 90.000000
_cell_angle_beta 90.000000
_cell_angle_gamma 90.000000
_cell_volume 2956.082857
_symmetry_space_group_name_H-M "P B C M"
_symmetry_group_IT_number 57
_symmetry_cell_setting 'orthorhombic'
loop_
_space_group_symop_operation_xyz
x,y,z
-x,-y,1/2+z
x,1/2-y,-z
-x,1/2+y,1/2-z
-x,-y,-z
x,y,1/2-z
-x,1/2+y,z
x,1/2-y,1/2+z
loop_
_atom_site_type_symbol
_atom_site_label
_atom_site_fract_x
_atom_site_fract_y
_atom_site_fract_z
Si Si1 0.709872 0.509478 0.059267
Si Si2 0.358588 0.658455 0.561319
Si Si3 0.149949 0.014459 0.438719
Si Si4 0.493815 0.905321 0.062206
Si Si5 0.968701 0.914949 0.437144
Si Si6 0.378962 0.338950 0.562455
Si Si7 0.091742 0.662985 0.937724
O O1 0.709519 0.508837 0.250000
O O2 0.685037 0.418337 0.009351
O O3 0.779880 0.526502 0.009205
O O4 0.663457 0.583095 0.010248
O O5 0.341461 0.750000 0.500000
O O6 0.357283 0.660447 0.750000
O O7 0.428548 0.634620 0.512633
O O8 0.147961 0.015818 0.250000
O O9 0.100479 0.082255 0.498465
O O10 0.127053 0.921419 0.489162
O O11 0.494837 0.907130 0.250000
O O12 0.552106 0.854357 0.999511
O O13 0.500000 0.000000 0.000000
O O14 0.966564 0.916803 0.250000
O O15 0.019638 0.846669 0.485858
O O16 0.000000 0.000000 0.500000
O O17 0.355751 0.250000 0.500000
O O18 0.380092 0.338043 0.750000
O O19 0.094073 0.664084 0.750000
O O20 0.117588 0.750000 0.000000
#
# Coordination Sequence:
#
# PCOD9438490 Si02
#       7
#     8   8   8   8   8   8   8
#     4   9  19  38  58  76 109 151 187 224 276 337
#     4  10  21  37  55  80 111 147 184 225 277 335
#     4   9  18  34  55  75 100 141 181 215 264 321
#     4  11  21  36  59  85 113 146 185 234 290 343
#     4   9  17  31  50  74 101 130 167 211 254 305
#     4  11  22  39  60  83 110 146 190 238 289 343
#     4   9  18  30  48  76 105 133 168 210 258 311
#
# _framework density 18.943988999999998
#
# number of rings (size 3 to 8) (size 9 to 14) (size 15 to 20)
#    0.000    2.286    1.429    2.571    0.000    5.714 
#    0.000    2.857    0.000    3.429    0.000    0.000 
#    0.000    0.000    0.000    0.000    0.000    0.000 
#
# Total GULP energy -312350.006024 kJ/mol
# GULP energy per Si atom -5577.678679 kJ/mol
# Density = 1.890087 g / cm^3
# Si number density = 18.943989 Si / 1000 Ang^3
#
#
#
# Elastic Constant Matrix: (Units=GPa)
#
#
# Indices 1 2 3 4 5 6 
#
# 1 96.8901 3.4025 13.7133 0.0000 0.0000 0.0000
# 2 3.4025 73.5236 7.9123 0.0000 0.0000 0.0000
# 3 13.7133 7.9123 17.4597 0.0000 0.0000 0.0000
# 4 0.0000 0.0000 0.0000 28.9905 0.0000 0.0000
# 5 0.0000 0.0000 0.0000 0.0000 21.9149 0.0000
# 6 0.0000 0.0000 0.0000 0.0000 0.0000 11.7071
#
#
#
# Elastic Compliance Matrix: (Units=1/GPa)
#
#
# Indices 1 2 3 4 5 6 
#
# 1 0.011627 0.000467 -0.009344 0.000000 0.000000 0.000000
# 2 0.000467 0.014317 -0.006855 0.000000 0.000000 0.000000
# 3 -0.009344 -0.006855 0.067720 0.000000 0.000000 0.000000
# 4 0.000000 0.000000 0.000000 0.034494 0.000000 0.000000
# 5 0.000000 0.000000 0.000000 0.000000 0.045631 0.000000
# 6 0.000000 0.000000 0.000000 0.000000 0.000000 0.085418
#
#
# Mechanical properties :
#
#
# Convention : Reuss Voigt Hill
#
# Bulk Modulus (GPa) = 16.07694 26.43661 21.25678
# Shear Modulus (GPa) = 16.05624 23.37887 19.71755
#
# Velocity S-wave (km/s) = 2.91445 3.51679 3.22970
# Velocity P-wave (km/s) = 4.45313 5.52050 5.01529
#
# Compressibility (1/GPa) = 0.06220089
#
# Stress axis : x y z
#
# Youngs Moduli (GPa) = 86.00633 69.84607 14.76659
#
# Poissons Ratio (x) = -0.03265 0.13798
# Poissons Ratio (y) = -0.04021 0.10123
# Poissons Ratio (z) = 0.80364 0.47882
#
# Static dielectric constant tensor:
#      x y z
#    x 1.672620 0.000000 0.000000 
#    y 0.000000 1.650750 0.000000 
#    z 0.000000 0.000000 1.649140 
# 
# From -- ./inp_files/8051.got.cif
#   From: 2010.05.17/outbox.cif.g08.bks.cpg/sg57_5_cif.got.tgz:8051.got - 2010.06.03 13:58:18.
