data_PCOD9438325
_publ_section_title
;
Structure prediction by ZEFSAII (Michael W. Deem and Ramdas Pophale) SiO2 
 PCOD9438325
Probable space group: P B C M
;
_chemical_formula_sum "Si O2"
_cell_formula_units_Z 48
_cell_length_a 4.929778
_cell_length_b 28.380315
_cell_length_c 11.443632
_cell_angle_alpha 90.000000
_cell_angle_beta 90.000000
_cell_angle_gamma 90.000000
_cell_volume 1601.063133
_symmetry_space_group_name_H-M "P B C M"
_symmetry_group_IT_number 57
_symmetry_cell_setting 'orthorhombic'
loop_
_space_group_symop_operation_xyz
x,y,z
-x,-y,1/2+z
x,1/2-y,-z
-x,1/2+y,1/2-z
-x,-y,-z
x,y,1/2-z
-x,1/2+y,z
x,1/2-y,1/2+z
loop_
_atom_site_type_symbol
_atom_site_label
_atom_site_fract_x
_atom_site_fract_y
_atom_site_fract_z
Si Si1 0.900671 0.101560 0.619900
Si Si2 0.581727 0.479372 0.124478
Si Si3 0.560160 0.649712 0.376685
Si Si4 0.385983 0.325910 0.122543
Si Si5 0.953133 0.735886 0.377907
Si Si6 0.919047 0.936540 0.626977
O O1 0.985250 0.083883 0.750000
O O2 0.092817 0.148059 0.617347
O O3 0.965280 0.078270 0.495607
O O4 0.596311 0.077202 0.623955
O O5 0.452939 0.492905 0.250000
O O6 0.865389 0.508265 0.130931
O O7 0.500000 0.500000 0.000000
O O8 0.431295 0.661385 0.250000
O O9 0.645784 0.595467 0.372438
O O10 0.442269 0.660692 0.506229
O O11 0.829022 0.683374 0.379775
O O12 0.520349 0.335634 0.250000
O O13 0.305367 0.271257 0.120371
O O14 0.096547 0.750000 0.500000
O O15 0.082693 0.744375 0.250000
O O16 0.054597 0.922443 0.750000
#
# Coordination Sequence:
#
# PCOD9438325 Si02
#       6
#     8   8   8   8   8   8
#     4   9  17  29  45  65  88 114 145 181 222 267
#     4  10  21  34  46  62  86 118 155 190 224 262
#     4   8  13  21  34  54  81 108 132 162 203 251
#     4   8  13  21  34  54  81 108 132 162 203 251
#     4   8  12  18  30  50  78 108 130 154 198 250
#     4   9  17  29  45  65  88 114 145 181 222 267
#
# _framework density 29.980080000000001
#
# number of rings (size 3 to 8) (size 9 to 14) (size 15 to 20)
#    0.000    3.333    0.000    0.500    0.000    1.333 
#    0.000    0.000    0.000    0.000    0.000    0.000 
#    0.000   33.333    0.000  342.000    0.000   42.000 
#
# Total GULP energy -267240.415513 kJ/mol
# GULP energy per Si atom -5567.508657 kJ/mol
# Density = 2.991184 g / cm^3
# Si number density = 29.980080 Si / 1000 Ang^3
#
#
#
# Elastic Constant Matrix: (Units=GPa)
#
#
# Indices 1 2 3 4 5 6 
#
# 1 74.9630 24.6701 19.1900 0.0000 0.0000 0.0000
# 2 24.6701 135.9375 18.6620 0.0000 0.0000 0.0000
# 3 19.1900 18.6620 350.7971 0.0000 0.0000 0.0000
# 4 0.0000 0.0000 0.0000 48.8557 0.0000 0.0000
# 5 0.0000 0.0000 0.0000 0.0000 9.0714 0.0000
# 6 0.0000 0.0000 0.0000 0.0000 0.0000 51.6253
#
#
#
# Elastic Compliance Matrix: (Units=1/GPa)
#
#
# Indices 1 2 3 4 5 6 
#
# 1 0.014333 -0.002512 -0.000650 0.000000 0.000000 0.000000
# 2 -0.002512 0.007851 -0.000280 0.000000 0.000000 0.000000
# 3 -0.000650 -0.000280 0.002901 0.000000 0.000000 0.000000
# 4 0.000000 0.000000 0.000000 0.020468 0.000000 0.000000
# 5 0.000000 0.000000 0.000000 0.000000 0.110236 0.000000
# 6 0.000000 0.000000 0.000000 0.000000 0.000000 0.019370
#
#
# Mechanical properties :
#
#
# Convention : Reuss Voigt Hill
#
# Bulk Modulus (GPa) = 54.94587 76.30463 65.62525
# Shear Modulus (GPa) = 26.57996 55.18885 40.88440
#
# Velocity S-wave (km/s) = 2.98079 4.29517 3.69686
# Velocity P-wave (km/s) = 5.49673 7.07849 6.33715
#
# Compressibility (1/GPa) = 0.01819973
#
# Stress axis : x y z
#
# Youngs Moduli (GPa) = 69.76868 127.37787 344.69196
#
# Poissons Ratio (x) = 0.31996 0.22420
# Poissons Ratio (y) = 0.17525 0.09659
# Poissons Ratio (z) = 0.04538 0.03570
#
# Static dielectric constant tensor:
#      x y z
#    x 2.422610 0.000000 0.000000 
#    y 0.000000 2.348210 0.000000 
#    z 0.000000 0.000000 2.309110 
# 
# From -- ./inp_files/12196.got.cif
#   From: 2010.05.17/outbox.cif.g08.bks.cpg/sg57_7_cif.got.tgz:12196.got - 2010.06.03 13:58:18.
