data_PCOD9438582
_publ_section_title
;
Structure prediction by ZEFSAII (Michael W. Deem and Ramdas Pophale) SiO2 
 PCOD9438582
Probable space group: P B C M
;
_chemical_formula_sum "Si O2"
_cell_formula_units_Z 48
_cell_length_a 30.370391
_cell_length_b 9.667065
_cell_length_c 8.765202
_cell_angle_alpha 90.000000
_cell_angle_beta 90.000000
_cell_angle_gamma 90.000000
_cell_volume 2573.397953
_symmetry_space_group_name_H-M "P B C M"
_symmetry_group_IT_number 57
_symmetry_cell_setting 'orthorhombic'
loop_
_space_group_symop_operation_xyz
x,y,z
-x,-y,1/2+z
x,1/2-y,-z
-x,1/2+y,1/2-z
-x,-y,-z
x,y,1/2-z
-x,1/2+y,z
x,1/2-y,1/2+z
loop_
_atom_site_type_symbol
_atom_site_label
_atom_site_fract_x
_atom_site_fract_y
_atom_site_fract_z
Si Si1 0.784911 0.399269 0.930572
Si Si2 0.637871 0.403768 0.932929
Si Si3 0.462908 0.597725 0.431955
Si Si4 0.713408 0.596864 0.068072
Si Si5 0.038683 0.404224 0.567396
Si Si6 0.889781 0.099927 0.068974
O O1 0.775627 0.399758 0.750000
O O2 0.837326 0.417600 0.952000
O O3 0.772790 0.250000 0.000000
O O4 0.756988 0.517096 0.012015
O O5 0.643224 0.399328 0.750000
O O6 0.587377 0.446108 0.967965
O O7 0.644608 0.250000 0.000000
O O8 0.672448 0.508310 0.005263
O O9 0.468535 0.750000 0.500000
O O10 0.500000 0.500000 0.500000
O O11 0.466966 0.602753 0.250000
O O12 0.712168 0.602067 0.250000
O O13 0.712286 0.750000 0.000000
O O14 0.035877 0.250000 0.500000
O O15 0.035733 0.399188 0.750000
O O16 0.083368 0.479974 0.514280
O O17 0.000000 0.500000 0.500000
O O18 0.899310 0.098639 0.250000
O O19 0.902024 0.250000 0.000000
#
# Coordination Sequence:
#
# PCOD9438582 Si02
#       6
#     8   8   8   8   8   8
#     4  10  21  39  63  89 119 155 195 237 284 343
#     4  10  21  39  61  85 113 149 192 235 283 340
#     4  10  21  37  59  85 115 150 189 234 283 339
#     4  12  25  40  59  84 116 152 192 240 291 342
#     4  12  25  42  63  88 120 157 198 243 292 346
#     4  10  21  39  63  91 121 155 195 239 288 342
#
# _framework density 18.652380000000001
#
# number of rings (size 3 to 8) (size 9 to 14) (size 15 to 20)
#    0.000    1.333    0.000    6.000    0.000    5.333 
#    0.000    0.000    0.000    0.000    0.000    0.000 
#    0.000    0.000    0.000    0.000    0.000    0.000 
#
# Total GULP energy -268476.895079 kJ/mol
# GULP energy per Si atom -5593.268647 kJ/mol
# Density = 1.860993 g / cm^3
# Si number density = 18.652380 Si / 1000 Ang^3
#
#
#
# Elastic Constant Matrix: (Units=GPa)
#
#
# Indices 1 2 3 4 5 6 
#
# 1 83.0812 83.9269 76.7992 0.0000 0.0000 0.0000
# 2 83.9269 158.8840 90.2805 0.0000 0.0000 0.0000
# 3 76.7992 90.2805 162.1073 0.0000 0.0000 0.0000
# 4 0.0000 0.0000 0.0000 40.6879 0.0000 0.0000
# 5 0.0000 0.0000 0.0000 0.0000 35.2392 0.0000
# 6 0.0000 0.0000 0.0000 0.0000 0.0000 29.7790
#
#
#
# Elastic Compliance Matrix: (Units=1/GPa)
#
#
# Indices 1 2 3 4 5 6 
#
# 1 0.032153 -0.012184 -0.008447 0.000000 0.000000 0.000000
# 2 -0.012184 0.013825 -0.001927 0.000000 0.000000 0.000000
# 3 -0.008447 -0.001927 0.011244 0.000000 0.000000 0.000000
# 4 0.000000 0.000000 0.000000 0.024577 0.000000 0.000000
# 5 0.000000 0.000000 0.000000 0.000000 0.028377 0.000000
# 6 0.000000 0.000000 0.000000 0.000000 0.000000 0.033581
#
#
# Mechanical properties :
#
#
# Convention : Reuss Voigt Hill
#
# Bulk Modulus (GPa) = 82.60984 100.67619 91.64302
# Shear Modulus (GPa) = 25.91892 31.34562 28.63227
#
# Velocity S-wave (km/s) = 3.73175 4.10386 3.92222
# Velocity P-wave (km/s) = 7.93431 8.74915 8.35167
#
# Compressibility (1/GPa) = 0.01210509
#
# Stress axis : x y z
#
# Youngs Moduli (GPa) = 31.10109 72.33284 88.93866
#
# Poissons Ratio (x) = 0.88134 0.75127
# Poissons Ratio (y) = 0.37895 0.17138
# Poissons Ratio (z) = 0.26271 0.13938
#
# Static dielectric constant tensor:
#      x y z
#    x 1.652150 0.000000 0.000000 
#    y 0.000000 1.593310 0.000000 
#    z 0.000000 0.000000 1.616860 
# 
# From -- ./inp_files/10018.got.cif
#   From: 2010.05.17/outbox.cif.g08.bks.cpg/sg57_6_cif.got.tgz:10018.got - 2010.06.03 13:58:18.
