data_PCOD9438824
_publ_section_title
;
Structure prediction by ZEFSAII (Michael W. Deem and Ramdas Pophale) SiO2 
 PCOD9438824
Probable space group: P B C M
;
_chemical_formula_sum "Si O2"
_cell_formula_units_Z 64
_cell_length_a 9.613445
_cell_length_b 20.041992
_cell_length_c 17.780749
_cell_angle_alpha 90.000000
_cell_angle_beta 90.000000
_cell_angle_gamma 90.000000
_cell_volume 3425.862923
_symmetry_space_group_name_H-M "P B C M"
_symmetry_group_IT_number 57
_symmetry_cell_setting 'orthorhombic'
loop_
_space_group_symop_operation_xyz
x,y,z
-x,-y,1/2+z
x,1/2-y,-z
-x,1/2+y,1/2-z
-x,-y,-z
x,y,1/2-z
-x,1/2+y,z
x,1/2-y,1/2+z
loop_
_atom_site_type_symbol
_atom_site_label
_atom_site_fract_x
_atom_site_fract_y
_atom_site_fract_z
Si Si1 0.926792 0.467792 0.661843
Si Si2 0.789934 0.555412 0.427191
Si Si3 0.769447 0.823132 0.465426
Si Si4 0.444449 0.823787 0.466604
Si Si5 0.448981 0.488786 0.836960
Si Si6 0.724597 0.127042 0.835636
Si Si7 0.688864 0.449312 0.553351
Si Si8 0.050312 0.122388 0.663302
O O1 0.928478 0.448804 0.750000
O O2 0.813750 0.431463 0.610084
O O3 0.076628 0.460561 0.623154
O O4 0.892887 0.546827 0.658046
O O5 0.817439 0.621048 0.475459
O O6 0.659765 0.564343 0.370942
O O7 0.747960 0.497058 0.486955
O O8 0.781962 0.750000 0.500000
O O9 0.606628 0.837368 0.450393
O O10 0.862334 0.831890 0.391799
O O11 0.434959 0.750000 0.500000
O O12 0.353979 0.825004 0.391534
O O13 0.382716 0.883856 0.517686
O O14 0.489919 0.476681 0.750000
O O15 0.359872 0.557195 0.838709
O O16 0.576302 0.488353 0.895162
O O17 0.720341 0.150278 0.750000
O O18 0.886422 0.119029 0.856595
O O19 0.060983 0.143528 0.750000
#
# Coordination Sequence:
#
# PCOD9438824 Si02
#       8
#     8   8   8   8   8   8   8   8
#     4  11  23  38  60  95 128 158 199 254 318 368
#     4  12  21  38  65  92 120 159 207 260 306 368
#     4  11  25  42  62  90 122 165 213 252 306 373
#     4  11  24  42  62  88 123 163 209 258 308 369
#     4  11  21  36  61  92 126 158 197 257 315 365
#     4  10  21  38  62  93 123 158 203 250 311 371
#     4  12  22  38  63  95 119 158 211 259 309 367
#     4  10  21  39  62  91 125 158 200 253 309 371
#
# _framework density 18.681425000000001
#
# number of rings (size 3 to 8) (size 9 to 14) (size 15 to 20)
#    0.000    1.000    5.000    2.250    1.750    1.000 
#    0.000    2.500    0.000    0.000    0.000    0.000 
#    0.000    0.000    0.000    0.000    0.000    0.000 
#
# Total GULP energy -357436.398441 kJ/mol
# GULP energy per Si atom -5584.943726 kJ/mol
# Density = 1.863891 g / cm^3
# Si number density = 18.681425 Si / 1000 Ang^3
#
#
#
# Elastic Constant Matrix: (Units=GPa)
#
#
# Indices 1 2 3 4 5 6 
#
# 1 114.1791 29.8992 66.9876 0.0000 0.0000 0.0000
# 2 29.8992 63.8612 36.0720 0.0000 0.0000 0.0000
# 3 66.9876 36.0720 114.5959 0.0000 0.0000 0.0000
# 4 0.0000 0.0000 0.0000 20.9365 0.0000 0.0000
# 5 0.0000 0.0000 0.0000 0.0000 38.1031 0.0000
# 6 0.0000 0.0000 0.0000 0.0000 0.0000 20.1239
#
#
#
# Elastic Compliance Matrix: (Units=1/GPa)
#
#
# Indices 1 2 3 4 5 6 
#
# 1 0.013598 -0.002282 -0.007230 0.000000 0.000000 0.000000
# 2 -0.002282 0.019428 -0.004781 0.000000 0.000000 0.000000
# 3 -0.007230 -0.004781 0.014458 0.000000 0.000000 0.000000
# 4 0.000000 0.000000 0.000000 0.047763 0.000000 0.000000
# 5 0.000000 0.000000 0.000000 0.000000 0.026245 0.000000
# 6 0.000000 0.000000 0.000000 0.000000 0.000000 0.049692
#
#
# Mechanical properties :
#
#
# Convention : Reuss Voigt Hill
#
# Bulk Modulus (GPa) = 52.92134 62.06154 57.49144
# Shear Modulus (GPa) = 24.26354 26.47786 25.37070
#
# Velocity S-wave (km/s) = 3.60780 3.76884 3.68920
# Velocity P-wave (km/s) = 6.76349 7.22717 6.99917
#
# Compressibility (1/GPa) = 0.01889597
#
# Stress axis : x y z
#
# Youngs Moduli (GPa) = 73.54196 51.47129 69.16680
#
# Poissons Ratio (x) = 0.11748 0.50009
# Poissons Ratio (y) = 0.16785 0.33071
# Poissons Ratio (z) = 0.53172 0.24611
#
# Static dielectric constant tensor:
#      x y z
#    x 1.667720 0.000000 0.000000 
#    y 0.000000 1.637430 0.000000 
#    z 0.000000 0.000000 1.660100 
# 
# From -- ./inp_files/21385.got.cif
#   From: 2010.05.17/outbox.cif.g08.bks.cpg/sg57_11_cif.got.tgz:21385.got - 2010.06.03 13:58:18.
