data_PCOD9438752
_publ_section_title
;
Structure prediction by ZEFSAII (Michael W. Deem and Ramdas Pophale) SiO2 
 PCOD9438752
Probable space group: P B C M
;
_chemical_formula_sum "Si O2"
_cell_formula_units_Z 48
_cell_length_a 15.211164
_cell_length_b 19.751215
_cell_length_c 8.809976
_cell_angle_alpha 90.000000
_cell_angle_beta 90.000000
_cell_angle_gamma 90.000000
_cell_volume 2646.860120
_symmetry_space_group_name_H-M "P B C M"
_symmetry_group_IT_number 57
_symmetry_cell_setting 'orthorhombic'
loop_
_space_group_symop_operation_xyz
x,y,z
-x,-y,1/2+z
x,1/2-y,-z
-x,1/2+y,1/2-z
-x,-y,-z
x,y,1/2-z
-x,1/2+y,z
x,1/2-y,1/2+z
loop_
_atom_site_type_symbol
_atom_site_label
_atom_site_fract_x
_atom_site_fract_y
_atom_site_fract_z
Si Si1 0.365143 0.676597 0.931276
Si Si2 0.759565 0.437756 0.567735
Si Si3 0.428545 0.323594 0.431396
Si Si4 0.962618 0.430372 0.932991
Si Si5 0.720844 0.584887 0.067712
Si Si6 0.109601 0.175264 0.067340
O O1 0.354509 0.678220 0.750000
O O2 0.468467 0.663629 0.964186
O O3 0.343279 0.750000 0.000000
O O4 0.304758 0.619027 0.002481
O O5 0.753797 0.439190 0.750000
O O6 0.860781 0.422387 0.524539
O O7 0.734648 0.510958 0.501869
O O8 0.406029 0.250000 0.500000
O O9 0.416683 0.322051 0.250000
O O10 0.366294 0.379508 0.504849
O O11 0.967634 0.434680 0.750000
O O12 0.024629 0.368264 0.981522
O O13 0.000000 0.500000 0.000000
O O14 0.717649 0.580214 0.250000
O O15 0.803832 0.632304 0.025137
O O16 0.108306 0.180320 0.250000
O O17 0.111309 0.250000 0.000000
#
# Coordination Sequence:
#
# PCOD9438752 Si02
#       6
#     8   8   8   8   8   8
#     4  10  22  41  63  86 117 155 196 245 296 349
#     4  11  23  38  61  89 118 154 198 245 295 352
#     4  10  21  38  60  86 117 155 197 242 295 351
#     4  10  21  39  60  84 115 153 195 239 290 348
#     4  11  22  37  59  86 119 157 196 242 294 351
#     4  10  22  38  57  85 118 151 193 237 287 346
#
# _framework density 18.134695000000001
#
# number of rings (size 3 to 8) (size 9 to 14) (size 15 to 20)
#    0.000    1.667    1.667    2.500    0.000    7.333 
#    0.000    1.667    0.000    0.000    0.000    0.000 
#    0.000    0.000    0.000    0.000    0.000    0.000 
#
# Total GULP energy -268247.143287 kJ/mol
# GULP energy per Si atom -5588.482152 kJ/mol
# Density = 1.809342 g / cm^3
# Si number density = 18.134695 Si / 1000 Ang^3
#
#
#
# Elastic Constant Matrix: (Units=GPa)
#
#
# Indices 1 2 3 4 5 6 
#
# 1 132.1754 117.9652 62.3153 0.0000 0.0000 0.0000
# 2 117.9652 197.4295 64.4141 0.0000 0.0000 0.0000
# 3 62.3153 64.4141 52.1585 0.0000 0.0000 0.0000
# 4 0.0000 0.0000 0.0000 41.1265 0.0000 0.0000
# 5 0.0000 0.0000 0.0000 0.0000 7.0965 0.0000
# 6 0.0000 0.0000 0.0000 0.0000 0.0000 39.0653
#
#
#
# Elastic Compliance Matrix: (Units=1/GPa)
#
#
# Indices 1 2 3 4 5 6 
#
# 1 0.023010 -0.008005 -0.017605 0.000000 0.000000 0.000000
# 2 -0.008005 0.011268 -0.004352 0.000000 0.000000 0.000000
# 3 -0.017605 -0.004352 0.045580 0.000000 0.000000 0.000000
# 4 0.000000 0.000000 0.000000 0.024315 0.000000 0.000000
# 5 0.000000 0.000000 0.000000 0.000000 0.140915 0.000000
# 6 0.000000 0.000000 0.000000 0.000000 0.000000 0.025598
#
#
# Mechanical properties :
#
#
# Convention : Reuss Voigt Hill
#
# Bulk Modulus (GPa) = 50.16446 96.79471 73.47959
# Shear Modulus (GPa) = 14.82559 26.59557 20.71058
#
# Velocity S-wave (km/s) = 2.86234 3.83372 3.38308
# Velocity P-wave (km/s) = 6.21661 8.54914 7.47443
#
# Compressibility (1/GPa) = 0.01993443
#
# Stress axis : x y z
#
# Youngs Moduli (GPa) = 43.45982 88.74856 21.93933
#
# Poissons Ratio (x) = 0.71039 0.38624
# Poissons Ratio (y) = 0.34788 0.09548
# Poissons Ratio (z) = 0.76511 0.38624
#
# Static dielectric constant tensor:
#      x y z
#    x 1.618090 0.000000 0.000000 
#    y 0.000000 1.573820 0.000000 
#    z 0.000000 0.000000 1.607960 
# 
# From -- ./inp_files/4562.got.cif
#   From: 2010.05.17/outbox.cif.g08.bks.cpg/sg57_3_cif.got.tgz:4562.got - 2010.06.03 13:58:18.
