data_PCOD9438475
_publ_section_title
;
Structure prediction by ZEFSAII (Michael W. Deem and Ramdas Pophale) SiO2 
 PCOD9438475
Probable space group: P B C M
;
_chemical_formula_sum "Si O2"
_cell_formula_units_Z 28
_cell_length_a 18.054125
_cell_length_b 11.232410
_cell_length_c 5.558220
_cell_angle_alpha 90.000000
_cell_angle_beta 90.000000
_cell_angle_gamma 90.000000
_cell_volume 1127.158850
_symmetry_space_group_name_H-M "P B C M"
_symmetry_group_IT_number 57
_symmetry_cell_setting 'orthorhombic'
loop_
_space_group_symop_operation_xyz
x,y,z
-x,-y,1/2+z
x,1/2-y,-z
-x,1/2+y,1/2-z
-x,-y,-z
x,y,1/2-z
-x,1/2+y,z
x,1/2-y,1/2+z
loop_
_atom_site_type_symbol
_atom_site_label
_atom_site_fract_x
_atom_site_fract_y
_atom_site_fract_z
Si Si1 0.262731 0.603633 0.750000
Si Si2 0.322922 0.322213 0.250000
Si Si3 0.544158 0.486671 0.750000
Si Si4 0.907008 0.428374 0.250000
Si Si5 0.051571 0.933236 0.750000
Si Si6 0.147768 0.177412 0.750000
Si Si7 0.320374 0.627942 0.250000
O O1 0.180112 0.554979 0.750000
O O2 0.299265 0.566598 0.500906
O O3 0.274989 0.747516 0.750000
O O4 0.331909 0.250000 0.500000
O O5 0.390094 0.416180 0.250000
O O6 0.235021 0.355625 0.250000
O O7 0.500000 0.500000 0.500000
O O8 0.590888 0.362229 0.750000
O O9 0.925994 0.371529 0.504797
O O10 0.964644 0.538491 0.250000
O O11 0.097361 0.058561 0.750000
O O12 0.134120 0.250000 0.500000
#
# Coordination Sequence:
#
# PCOD9438475 Si02
#       7
#     4   4   4   4   4   4   4
#     4  10  21  41  64  97 129 172 217 260 323 380
#     4  10  23  44  66  95 128 168 212 264 323 387
#     4  12  26  47  69 101 129 167 215 266 341 406
#     4  10  21  36  62  91 133 170 214 261 322 382
#     4  10  21  38  57  95 127 174 217 265 320 368
#     4  10  21  39  61  87 118 160 214 261 307 361
#     4  10  23  43  63  96 130 165 213 267 322 400
#
# _framework density 24.841218999999999
#
# number of rings (size 3 to 8) (size 9 to 14) (size 15 to 20)
#    0.000    1.714    0.000    3.429    4.000    0.000 
#   20.571    0.000    0.000    0.000    0.000    0.000 
#    0.000    0.000    0.000    0.000    0.000    0.000 
#
# Total GULP energy -156395.648540 kJ/mol
# GULP energy per Si atom -5585.558876 kJ/mol
# Density = 2.478468 g / cm^3
# Si number density = 24.841219 Si / 1000 Ang^3
#
#
#
# Elastic Constant Matrix: (Units=GPa)
#
#
# Indices 1 2 3 4 5 6 
#
# 1 184.5333 46.4547 92.9036 0.0000 0.0000 0.0000
# 2 46.4547 90.9653 49.3768 0.0000 0.0000 0.0000
# 3 92.9036 49.3768 320.8581 0.0000 0.0000 0.0000
# 4 0.0000 0.0000 0.0000 -5.0971 0.0000 0.0000
# 5 0.0000 0.0000 0.0000 0.0000 138.4599 0.0000
# 6 0.0000 0.0000 0.0000 0.0000 0.0000 -27.1315
#
#
#
# Elastic Compliance Matrix: (Units=1/GPa)
#
#
# Indices 1 2 3 4 5 6 
#
# 1 0.006886 -0.002656 -0.001585 0.000000 0.000000 0.000000
# 2 -0.002656 0.013020 -0.001235 0.000000 0.000000 0.000000
# 3 -0.001585 -0.001235 0.003766 0.000000 0.000000 0.000000
# 4 0.000000 0.000000 0.000000 -0.196190 0.000000 0.000000
# 5 0.000000 0.000000 0.000000 0.000000 0.007222 0.000000
# 6 0.000000 0.000000 0.000000 0.000000 0.000000 -0.036857
#
#
# Mechanical properties :
#
#
# Convention : Reuss Voigt Hill
#
# Bulk Modulus (GPa) = 78.61781 108.20297 93.41039
# Shear Modulus (GPa) = -26.74327 48.42104 10.83889
#
# Velocity S-wave (km/s) = -3.28467 4.41979 2.09111
# Velocity P-wave (km/s) = 4.16310 8.34856 6.59658
#
# Compressibility (1/GPa) = 0.01271976
#
# Stress axis : x y z
#
# Youngs Moduli (GPa) = 145.22882 76.80646 265.56504
#
# Poissons Ratio (x) = 0.20400 0.42092
# Poissons Ratio (y) = 0.38574 0.32785
# Poissons Ratio (z) = 0.23019 0.09482
#
# Static dielectric constant tensor:
#      x y z
#    x 1.908700 0.000000 0.000000 
#    y 0.000000 2.423180 0.000000 
#    z 0.000000 0.000000 1.914540 
# 
# From -- ./inp_files/446.got.cif
#   From: 2010.05.17/outbox.cif.g08.bks.cpg/sg57_1_cif.got.tgz:446.got - 2010.06.03 13:58:18.
