data_PCOD9438664
_publ_section_title
;
Structure prediction by ZEFSAII (Michael W. Deem and Ramdas Pophale) SiO2 
 PCOD9438664
Probable space group: P B C M
;
_chemical_formula_sum "Si O2"
_cell_formula_units_Z 56
_cell_length_a 14.435227
_cell_length_b 9.825578
_cell_length_c 19.459894
_cell_angle_alpha 90.000000
_cell_angle_beta 90.000000
_cell_angle_gamma 90.000000
_cell_volume 2760.083340
_symmetry_space_group_name_H-M "P B C M"
_symmetry_group_IT_number 57
_symmetry_cell_setting 'orthorhombic'
loop_
_space_group_symop_operation_xyz
x,y,z
-x,-y,1/2+z
x,1/2-y,-z
-x,1/2+y,1/2-z
-x,-y,-z
x,y,1/2-z
-x,1/2+y,z
x,1/2-y,1/2+z
loop_
_atom_site_type_symbol
_atom_site_label
_atom_site_fract_x
_atom_site_fract_y
_atom_site_fract_z
Si Si1 0.283251 0.132829 0.943010
Si Si2 0.601558 0.428004 0.328332
Si Si3 0.098748 0.019967 0.093366
Si Si4 0.080361 0.168742 0.602345
Si Si5 0.018120 0.251279 0.250000
Si Si6 0.583512 0.750875 0.672525
Si Si7 0.281110 0.895461 0.034985
Si Si8 0.895824 0.485298 0.250000
O O1 0.179610 0.107067 0.915447
O O2 0.346051 0.189996 0.882272
O O3 0.276437 0.250000 0.000000
O O4 0.325081 0.002017 0.981160
O O5 0.640918 0.414369 0.250000
O O6 0.573067 0.586633 0.336505
O O7 0.513264 0.328885 0.332719
O O8 0.668179 0.393730 0.391631
O O9 0.178863 0.954464 0.048508
O O10 0.139038 0.016998 0.172825
O O11 0.006291 0.929212 0.086966
O O12 0.077153 0.176055 0.073387
O O13 0.071045 0.197179 0.683417
O O14 0.920541 0.327025 0.250000
O O15 0.015002 0.088321 0.250000
O O16 0.619660 0.729590 0.750000
O O17 0.278600 0.750000 0.000000
#
# Coordination Sequence:
#
# PCOD9438664 Si02
#       8
#     8   8   8   8   4   8   8   4
#     4  12  24  44  62  96 134 170 220 261 327 389
#     4  10  23  46  74 101 130 169 215 265 328 393
#     4  10  21  39  61  91 125 172 219 267 324 378
#     4  10  21  37  63  88 128 171 218 271 316 386
#     4   8  16  32  54  86 111 154 210 259 318 361
#     4  10  23  44  74 102 130 170 214 266 327 392
#     4  12  28  44  62  98 134 177 220 270 327 388
#     4   8  16  32  58  82 113 152 210 263 310 373
#
# _framework density 20.289244
#
# number of rings (size 3 to 8) (size 9 to 14) (size 15 to 20)
#    0.000    1.714    2.857    0.000    6.000    2.286 
#    0.000    0.000    0.000    0.000    0.000    0.000 
#    0.000    0.000    0.000    0.000    0.000    0.000 
#
# Total GULP energy -312493.435905 kJ/mol
# GULP energy per Si atom -5580.239927 kJ/mol
# Density = 2.024306 g / cm^3
# Si number density = 20.289244 Si / 1000 Ang^3
#
#
#
# Elastic Constant Matrix: (Units=GPa)
#
#
# Indices 1 2 3 4 5 6 
#
# 1 57.6274 19.8698 53.6483 0.0000 0.0000 0.0000
# 2 19.8698 106.7164 63.8423 0.0000 0.0000 0.0000
# 3 53.6483 63.8423 95.3117 0.0000 0.0000 0.0000
# 4 0.0000 0.0000 0.0000 34.9618 0.0000 0.0000
# 5 0.0000 0.0000 0.0000 0.0000 11.8497 0.0000
# 6 0.0000 0.0000 0.0000 0.0000 0.0000 9.9953
#
#
#
# Elastic Compliance Matrix: (Units=1/GPa)
#
#
# Indices 1 2 3 4 5 6 
#
# 1 0.042745 0.010738 -0.031252 0.000000 0.000000 0.000000
# 2 0.010738 0.018334 -0.018324 0.000000 0.000000 0.000000
# 3 -0.031252 -0.018324 0.040357 0.000000 0.000000 0.000000
# 4 0.000000 0.000000 0.000000 0.028603 0.000000 0.000000
# 5 0.000000 0.000000 0.000000 0.000000 0.084390 0.000000
# 6 0.000000 0.000000 0.000000 0.000000 0.000000 0.100047
#
#
# Mechanical properties :
#
#
# Convention : Reuss Voigt Hill
#
# Bulk Modulus (GPa) = 42.09154 59.37516 50.73335
# Shear Modulus (GPa) = 12.49772 19.51437 16.00605
#
# Velocity S-wave (km/s) = 2.48458 3.10467 2.81177
# Velocity P-wave (km/s) = 5.38717 6.49460 5.96664
#
# Compressibility (1/GPa) = 0.02375774
#
# Stress axis : x y z
#
# Youngs Moduli (GPa) = 23.39464 54.54415 24.77883
#
# Poissons Ratio (x) = -0.58568 0.77439
# Poissons Ratio (y) = -0.25120 0.45406
# Poissons Ratio (z) = 0.73113 0.99949
#
# Static dielectric constant tensor:
#      x y z
#    x 1.700720 0.000000 0.000000 
#    y 0.000000 1.724260 0.000000 
#    z 0.000000 0.000000 1.766820 
# 
# From -- ./inp_files/25446.got.cif
#   From: 2010.05.17/outbox.cif.g08.bks.cpg/sg57_13_cif.got.tgz:25446.got - 2010.06.03 13:58:18.
