data_PCOD9438485
_publ_section_title
;
Structure prediction by ZEFSAII (Michael W. Deem and Ramdas Pophale) SiO2 
 PCOD9438485
Probable space group: P B C M
;
_chemical_formula_sum "Si O2"
_cell_formula_units_Z 56
_cell_length_a 24.663167
_cell_length_b 8.298771
_cell_length_c 14.868293
_cell_angle_alpha 90.000000
_cell_angle_beta 90.000000
_cell_angle_gamma 90.000000
_cell_volume 3043.152631
_symmetry_space_group_name_H-M "P B C M"
_symmetry_group_IT_number 57
_symmetry_cell_setting 'orthorhombic'
loop_
_space_group_symop_operation_xyz
x,y,z
-x,-y,1/2+z
x,1/2-y,-z
-x,1/2+y,1/2-z
-x,-y,-z
x,y,1/2-z
-x,1/2+y,z
x,1/2-y,1/2+z
loop_
_atom_site_type_symbol
_atom_site_label
_atom_site_fract_x
_atom_site_fract_y
_atom_site_fract_z
Si Si1 0.265375 0.553330 0.000000
Si Si2 0.058932 0.057422 0.646967
Si Si3 0.142025 0.557791 0.500000
Si Si4 0.647833 0.053311 0.852996
Si Si5 0.941068 0.557422 0.146967
Si Si6 0.352167 0.553311 0.147004
Si Si7 0.438465 0.944168 0.000000
O O1 0.299786 0.504726 0.088076
O O2 0.264800 0.750000 0.000000
O O3 0.203675 0.495540 0.000000
O O4 0.299786 0.504726 0.911924
O O5 0.064555 0.999835 0.750000
O O6 0.058915 0.250000 0.646242
O O7 0.107534 0.996934 0.585812
O O8 1.000000 0.000000 0.613661
O O9 0.144487 0.750000 0.500000
O O10 0.107534 0.503066 0.585812
O O11 0.647857 0.997099 0.750000
O O12 0.647708 0.250000 0.851064
O O13 0.595628 0.003122 0.911967
O O14 0.935445 0.499835 0.250000
O O15 0.352143 0.497099 0.250000
O O16 0.404372 0.503122 0.088033
O O17 0.437708 0.750000 0.000000
O O18 0.500000 0.000000 0.000000
#
# Coordination Sequence:
#
# PCOD9438485 Si02
#       7
#     8   8   8   8   8   8   8
#     4   8  16  28  43  68  95 120 156 197 235 278
#     4  10  21  37  55  74  99 132 168 205 246 295
#     4  11  21  32  51  79 106 129 158 202 254 303
#     4   8  14  27  46  66  91 123 157 194 233 272
#     4  10  21  37  55  74  99 132 168 205 246 295
#     4   8  14  27  46  66  91 123 157 194 233 272
#     4   9  17  28  44  69  96 121 153 191 232 277
#
# _framework density 18.401969999999999
#
# number of rings (size 3 to 8) (size 9 to 14) (size 15 to 20)
#    0.000    2.857    0.000    3.429    0.000    3.429 
#    0.000    2.857    0.000    6.857    0.000    0.000 
#    0.000    0.000    0.000    0.000    0.000    0.000 
#
# Total GULP energy -312269.556781 kJ/mol
# GULP energy per Si atom -5576.242085 kJ/mol
# Density = 1.836009 g / cm^3
# Si number density = 18.401970 Si / 1000 Ang^3
#
#
#
# Elastic Constant Matrix: (Units=GPa)
#
#
# Indices 1 2 3 4 5 6 
#
# 1 210.6770 16.6701 112.1373 0.0000 0.0000 0.0000
# 2 16.6701 13.3366 13.4915 0.0000 0.0000 0.0000
# 3 112.1373 13.4915 175.9322 0.0000 0.0000 0.0000
# 4 0.0000 0.0000 0.0000 22.9526 0.0000 0.0000
# 5 0.0000 0.0000 0.0000 0.0000 22.4547 0.0000
# 6 0.0000 0.0000 0.0000 0.0000 0.0000 24.7611
#
#
#
# Elastic Compliance Matrix: (Units=1/GPa)
#
#
# Indices 1 2 3 4 5 6 
#
# 1 0.007468 -0.004899 -0.004384 0.000000 0.000000 0.000000
# 2 -0.004899 0.084502 -0.003357 0.000000 0.000000 0.000000
# 3 -0.004384 -0.003357 0.008736 0.000000 0.000000 0.000000
# 4 0.000000 0.000000 0.000000 0.043568 0.000000 0.000000
# 5 0.000000 0.000000 0.000000 0.000000 0.044534 0.000000
# 6 0.000000 0.000000 0.000000 0.000000 0.000000 0.040386
#
#
# Mechanical properties :
#
#
# Convention : Reuss Voigt Hill
#
# Bulk Modulus (GPa) = 13.25838 76.06040 44.65939
# Shear Modulus (GPa) = 17.88161 31.21014 24.54587
#
# Velocity S-wave (km/s) = 3.12063 4.12275 3.65618
# Velocity P-wave (km/s) = 4.49499 8.00532 6.49192
#
# Compressibility (1/GPa) = 0.07542397
#
# Stress axis : x y z
#
# Youngs Moduli (GPa) = 133.90706 11.83405 114.46978
#
# Poissons Ratio (x) = 0.05798 0.50186
# Poissons Ratio (y) = 0.65605 0.38432
# Poissons Ratio (z) = 0.58708 0.03973
#
# Static dielectric constant tensor:
#      x y z
#    x 1.612640 0.000000 0.000000 
#    y 0.000000 1.639030 0.000000 
#    z 0.000000 0.000000 1.643630 
# 
# From -- ./inp_files/19340.got.cif
#   From: 2010.05.17/outbox.cif.g08.bks.cpg/sg57_10_cif.got.tgz:19340.got - 2010.06.03 13:58:18.
