data_PCOD9438183
_publ_section_title
;
Structure prediction by ZEFSAII (Michael W. Deem and Ramdas Pophale) SiO2 
 PCOD9438183
Probable space group: P B C M
;
_chemical_formula_sum "Si O2"
_cell_formula_units_Z 40
_cell_length_a 16.714225
_cell_length_b 8.648955
_cell_length_c 13.709574
_cell_angle_alpha 90.000000
_cell_angle_beta 90.000000
_cell_angle_gamma 90.000000
_cell_volume 1981.863967
_symmetry_space_group_name_H-M "P B C M"
_symmetry_group_IT_number 57
_symmetry_cell_setting 'orthorhombic'
loop_
_space_group_symop_operation_xyz
x,y,z
-x,-y,1/2+z
x,1/2-y,-z
-x,1/2+y,1/2-z
-x,-y,-z
x,y,1/2-z
-x,1/2+y,z
x,1/2-y,1/2+z
loop_
_atom_site_type_symbol
_atom_site_label
_atom_site_fract_x
_atom_site_fract_y
_atom_site_fract_z
Si Si1 0.223789 0.900515 0.440075
Si Si2 0.396882 0.515965 0.938455
Si Si3 0.961480 0.488196 0.750000
Si Si4 0.455682 0.850541 0.864925
Si Si5 0.879865 0.344198 0.250000
Si Si6 0.080848 0.078587 0.539874
O O1 0.251252 0.750000 0.500000
O O2 0.303094 0.997750 0.418172
O O3 0.176447 0.849800 0.343827
O O4 0.158646 0.989142 0.503982
O O5 0.428374 0.675673 0.888480
O O6 0.451944 0.381242 0.894604
O O7 0.410943 0.541024 0.054890
O O8 0.933848 0.310258 0.750000
O O9 0.926447 0.568944 0.844927
O O10 0.057083 0.514299 0.750000
O O11 0.442973 0.883795 0.750000
O O12 0.082995 0.250000 0.500000
O O13 0.000000 0.000000 0.500000
#
# Coordination Sequence:
#
# PCOD9438183 Si02
#       6
#     8   8   4   8   4   8
#     4  12  24  44  64 101 131 179 218 279 325 395
#     4  10  23  41  64  94 133 164 219 263 324 390
#     4  12  24  42  68  98 124 185 225 267 337 392
#     4  10  20  39  66  90 122 169 209 261 323 387
#     4  12  26  38  74  92 136 171 235 267 335 396
#     4  12  25  45  68  94 136 174 224 276 333 396
#
# _framework density 20.183021
#
# number of rings (size 3 to 8) (size 9 to 14) (size 15 to 20)
#    0.000    0.800    6.000    2.400    2.800    0.000 
#    9.000    0.000    0.000    0.000    0.000    0.000 
#    0.000    0.000    0.000    0.000    0.000    0.000 
#
# Total GULP energy -223660.300789 kJ/mol
# GULP energy per Si atom -5591.507520 kJ/mol
# Density = 2.013708 g / cm^3
# Si number density = 20.183021 Si / 1000 Ang^3
#
#
#
# Elastic Constant Matrix: (Units=GPa)
#
#
# Indices 1 2 3 4 5 6 
#
# 1 141.4527 25.2680 29.7566 0.0000 0.0000 0.0000
# 2 25.2680 29.6321 26.9837 0.0000 0.0000 0.0000
# 3 29.7566 26.9837 176.1424 0.0000 0.0000 0.0000
# 4 0.0000 0.0000 0.0000 21.4281 0.0000 0.0000
# 5 0.0000 0.0000 0.0000 0.0000 -24.0516 0.0000
# 6 0.0000 0.0000 0.0000 0.0000 0.0000 34.6754
#
#
#
# Elastic Compliance Matrix: (Units=1/GPa)
#
#
# Indices 1 2 3 4 5 6 
#
# 1 0.008361 -0.006791 -0.000372 0.000000 0.000000 0.000000
# 2 -0.006791 0.044733 -0.005706 0.000000 0.000000 0.000000
# 3 -0.000372 -0.005706 0.006614 0.000000 0.000000 0.000000
# 4 0.000000 0.000000 0.000000 0.046668 0.000000 0.000000
# 5 0.000000 0.000000 0.000000 0.000000 -0.041577 0.000000
# 6 0.000000 0.000000 0.000000 0.000000 0.000000 0.028839
#
#
# Mechanical properties :
#
#
# Convention : Reuss Voigt Hill
#
# Bulk Modulus (GPa) = 29.43639 56.80489 43.12064
# Shear Modulus (GPa) = 38.25604 24.09162 31.17383
#
# Velocity S-wave (km/s) = 4.35841 3.45868 3.93435
# Velocity P-wave (km/s) = 6.32013 6.64500 6.48460
#
# Compressibility (1/GPa) = 0.03397155
#
# Stress axis : x y z
#
# Youngs Moduli (GPa) = 119.60566 22.35468 151.19069
#
# Poissons Ratio (x) = 0.15180 0.05627
# Poissons Ratio (y) = 0.81219 0.86264
# Poissons Ratio (z) = 0.04451 0.12755
#
# Static dielectric constant tensor:
#      x y z
#    x 3.823080 0.000000 0.000000 
#    y 0.000000 1.715150 0.000000 
#    z 0.000000 0.000000 1.711350 
# 
# From -- ./inp_files/18266.got.cif
#   From: 2010.05.17/outbox.cif.g08.bks.cpg/sg57_10_cif.got.tgz:18266.got - 2010.06.03 13:58:18.
