data_PCOD9438740
_publ_section_title
;
Structure prediction by ZEFSAII (Michael W. Deem and Ramdas Pophale) SiO2 
 PCOD9438740
Probable space group: P B C M
;
_chemical_formula_sum "Si O2"
_cell_formula_units_Z 40
_cell_length_a 4.901501
_cell_length_b 9.316394
_cell_length_c 28.264275
_cell_angle_alpha 90.000000
_cell_angle_beta 90.000000
_cell_angle_gamma 90.000000
_cell_volume 1290.668743
_symmetry_space_group_name_H-M "P B C M"
_symmetry_group_IT_number 57
_symmetry_cell_setting 'orthorhombic'
loop_
_space_group_symop_operation_xyz
x,y,z
-x,-y,1/2+z
x,1/2-y,-z
-x,1/2+y,1/2-z
-x,-y,-z
x,y,1/2-z
-x,1/2+y,z
x,1/2-y,1/2+z
loop_
_atom_site_type_symbol
_atom_site_label
_atom_site_fract_x
_atom_site_fract_y
_atom_site_fract_z
Si Si1 0.906607 0.930856 0.450126
Si Si2 0.055309 0.968685 0.750000
Si Si3 0.649856 0.199534 0.050037
Si Si4 0.416660 0.181371 0.850880
Si Si5 0.845782 0.959940 0.851009
Si Si6 0.459303 0.202428 0.250000
O O1 0.046680 0.773239 0.450945
O O2 0.016064 0.985844 0.398797
O O3 0.000000 0.000000 0.500000
O O4 0.628647 0.027335 0.448673
O O5 0.987707 0.021139 0.803195
O O6 0.863076 0.826806 0.750000
O O7 0.376544 0.946038 0.750000
O O8 0.518097 0.263170 0.097297
O O9 0.517815 0.250000 0.000000
O O10 0.150803 0.287168 0.849881
O O11 0.535654 0.229339 0.799696
O O12 0.535524 0.019299 0.850933
#
# Coordination Sequence:
#
# PCOD9438740 Si02
#       6
#     8   4   8   8   8   4
#     4   9  18  34  55  80 112 155 208 265 326 394
#     4  10  21  40  66  98 132 174 218 270 326 390
#     4   9  18  34  54  79 113 154 205 264 323 392
#     4  10  21  38  59  89 126 168 216 274 332 399
#     4  10  21  38  60  91 128 170 222 276 338 403
#     4  10  21  40  66  96 132 172 218 268 326 390
#
# _framework density 30.991685
#
# number of rings (size 3 to 8) (size 9 to 14) (size 15 to 20)
#    0.000    2.400    0.000    1.800    0.000    1.600 
#    0.000   32.000    0.000    0.000    0.000    0.000 
#    0.000    0.000    0.000    0.000    0.000    0.000 
#
# Total GULP energy -222775.742328 kJ/mol
# GULP energy per Si atom -5569.393558 kJ/mol
# Density = 3.092115 g / cm^3
# Si number density = 30.991685 Si / 1000 Ang^3
#
#
#
# Elastic Constant Matrix: (Units=GPa)
#
#
# Indices 1 2 3 4 5 6 
#
# 1 52.2635 15.2932 20.8582 0.0000 0.0000 0.0000
# 2 15.2932 168.3291 52.2044 0.0000 0.0000 0.0000
# 3 20.8582 52.2044 335.1754 0.0000 0.0000 0.0000
# 4 0.0000 0.0000 0.0000 71.3200 0.0000 0.0000
# 5 0.0000 0.0000 0.0000 0.0000 61.3547 0.0000
# 6 0.0000 0.0000 0.0000 0.0000 0.0000 45.0877
#
#
#
# Elastic Compliance Matrix: (Units=1/GPa)
#
#
# Indices 1 2 3 4 5 6 
#
# 1 0.019976 -0.001502 -0.001009 0.000000 0.000000 0.000000
# 2 -0.001502 0.006355 -0.000896 0.000000 0.000000 0.000000
# 3 -0.001009 -0.000896 0.003186 0.000000 0.000000 0.000000
# 4 0.000000 0.000000 0.000000 0.014021 0.000000 0.000000
# 5 0.000000 0.000000 0.000000 0.000000 0.016299 0.000000
# 6 0.000000 0.000000 0.000000 0.000000 0.000000 0.022179
#
#
# Mechanical properties :
#
#
# Convention : Reuss Voigt Hill
#
# Bulk Modulus (GPa) = 44.04853 81.38662 62.71757
# Shear Modulus (GPa) = 51.86804 66.71330 59.29067
#
# Velocity S-wave (km/s) = 4.09542 4.64467 4.37866
# Velocity P-wave (km/s) = 6.05038 7.42170 6.77085
#
# Compressibility (1/GPa) = 0.02270223
#
# Stress axis : x y z
#
# Youngs Moduli (GPa) = 50.05995 157.35177 313.88027
#
# Poissons Ratio (x) = 0.23633 0.31677
# Poissons Ratio (y) = 0.07518 0.28135
# Poissons Ratio (z) = 0.05052 0.14105
#
# Static dielectric constant tensor:
#      x y z
#    x 2.793940 0.000000 0.000000 
#    y 0.000000 2.522520 0.000000 
#    z 0.000000 0.000000 2.291560 
# 
# From -- ./inp_files/27806.got.cif
#   From: 2010.05.17/outbox.cif.g08.bks.cpg/sg57_14_cif.got.tgz:27806.got - 2010.06.03 13:58:18.
