data_PCOD9438379
_publ_section_title
;
Structure prediction by ZEFSAII (Michael W. Deem and Ramdas Pophale) SiO2 
 PCOD9438379
Probable space group: P B C M
;
_chemical_formula_sum "Si O2"
_cell_formula_units_Z 44
_cell_length_a 14.800540
_cell_length_b 16.649471
_cell_length_c 9.426765
_cell_angle_alpha 90.000000
_cell_angle_beta 90.000000
_cell_angle_gamma 90.000000
_cell_volume 2322.954381
_symmetry_space_group_name_H-M "P B C M"
_symmetry_group_IT_number 57
_symmetry_cell_setting 'orthorhombic'
loop_
_space_group_symop_operation_xyz
x,y,z
-x,-y,1/2+z
x,1/2-y,-z
-x,1/2+y,1/2-z
-x,-y,-z
x,y,1/2-z
-x,1/2+y,z
x,1/2-y,1/2+z
loop_
_atom_site_type_symbol
_atom_site_label
_atom_site_fract_x
_atom_site_fract_y
_atom_site_fract_z
Si Si1 0.819730 0.551014 0.579674
Si Si2 0.026953 0.171117 0.579039
Si Si3 0.151570 0.634611 0.411227
Si Si4 0.375587 0.445012 0.420288
Si Si5 0.692042 0.250000 0.000000
Si Si6 0.569399 0.396196 0.413460
O O1 0.821417 0.558940 0.750000
O O2 0.908751 0.597690 0.532010
O O3 0.821862 0.456303 0.550039
O O4 0.722822 0.584275 0.529725
O O5 0.062794 0.250000 0.500000
O O6 0.026563 0.179026 0.750000
O O7 0.925737 0.159389 0.521111
O O8 0.115037 0.635201 0.250000
O O9 0.237832 0.693165 0.415303
O O10 0.371172 0.454621 0.250000
O O11 0.462786 0.390027 0.450981
O O12 0.393559 0.532181 0.488670
O O13 0.626113 0.185306 0.927112
O O14 0.574918 0.423194 0.250000
#
# Coordination Sequence:
#
# PCOD9438379 Si02
#       6
#     8   8   8   8   4   8
#     4   9  19  38  62  85 112 157 195 233 291 349
#     4  11  23  39  59  84 118 153 195 242 290 345
#     4  11  22  38  60  85 116 152 194 239 295 348
#     4   9  18  38  61  80 113 154 190 233 288 344
#     4  12  22  34  58  90 122 148 188 240 294 338
#     4  10  21  35  57  89 116 147 191 237 284 341
#
# _framework density 18.941395
#
# number of rings (size 3 to 8) (size 9 to 14) (size 15 to 20)
#    0.000    1.818    2.727    1.636    0.000    1.455 
#    1.636    2.727    0.000    0.000    0.000    0.000 
#    0.000    0.000    0.000    0.000    0.000    0.000 
#
# Total GULP energy -245137.586819 kJ/mol
# GULP energy per Si atom -5571.308791 kJ/mol
# Density = 1.889828 g / cm^3
# Si number density = 18.941395 Si / 1000 Ang^3
#
#
#
# Elastic Constant Matrix: (Units=GPa)
#
#
# Indices 1 2 3 4 5 6 
#
# 1 129.6846 59.5181 30.5721 0.0000 0.0000 0.0000
# 2 59.5181 83.9555 21.8412 0.0000 0.0000 0.0000
# 3 30.5721 21.8412 49.7390 0.0000 0.0000 0.0000
# 4 0.0000 0.0000 0.0000 18.3614 0.0000 0.0000
# 5 0.0000 0.0000 0.0000 0.0000 14.8564 0.0000
# 6 0.0000 0.0000 0.0000 0.0000 0.0000 38.5831
#
#
#
# Elastic Compliance Matrix: (Units=1/GPa)
#
#
# Indices 1 2 3 4 5 6 
#
# 1 0.012147 -0.007529 -0.004160 0.000000 0.000000 0.000000
# 2 -0.007529 0.018114 -0.003326 0.000000 0.000000 0.000000
# 3 -0.004160 -0.003326 0.024123 0.000000 0.000000 0.000000
# 4 0.000000 0.000000 0.000000 0.054462 0.000000 0.000000
# 5 0.000000 0.000000 0.000000 0.000000 0.067311 0.000000
# 6 0.000000 0.000000 0.000000 0.000000 0.000000 0.025918
#
#
# Mechanical properties :
#
#
# Convention : Reuss Voigt Hill
#
# Bulk Modulus (GPa) = 41.06341 54.13801 47.60071
# Shear Modulus (GPa) = 20.81390 24.45669 22.63529
#
# Velocity S-wave (km/s) = 3.31850 3.59719 3.46065
# Velocity P-wave (km/s) = 6.03403 6.77473 6.41508
#
# Compressibility (1/GPa) = 0.02435258
#
# Stress axis : x y z
#
# Youngs Moduli (GPa) = 82.32333 55.20568 41.45488
#
# Poissons Ratio (x) = 0.41566 0.17246
# Poissons Ratio (y) = 0.61983 0.13789
# Poissons Ratio (z) = 0.34247 0.18363
#
# Static dielectric constant tensor:
#      x y z
#    x 1.706950 0.000000 0.000000 
#    y 0.000000 1.666420 0.000000 
#    z 0.000000 0.000000 1.663710 
# 
# From -- ./inp_files/4493.got.cif
#   From: 2010.05.17/outbox.cif.g08.bks.cpg/sg57_3_cif.got.tgz:4493.got - 2010.06.03 13:58:18.
