data_PCOD9438668
_publ_section_title
;
Structure prediction by ZEFSAII (Michael W. Deem and Ramdas Pophale) SiO2 
 PCOD9438668
Probable space group: P B C M
;
_chemical_formula_sum "Si O2"
_cell_formula_units_Z 64
_cell_length_a 12.532638
_cell_length_b 8.839343
_cell_length_c 28.691909
_cell_angle_alpha 90.000000
_cell_angle_beta 90.000000
_cell_angle_gamma 90.000000
_cell_volume 3178.497884
_symmetry_space_group_name_H-M "P B C M"
_symmetry_group_IT_number 57
_symmetry_cell_setting 'orthorhombic'
loop_
_space_group_symop_operation_xyz
x,y,z
-x,-y,1/2+z
x,1/2-y,-z
-x,1/2+y,1/2-z
-x,-y,-z
x,y,1/2-z
-x,1/2+y,z
x,1/2-y,1/2+z
loop_
_atom_site_type_symbol
_atom_site_label
_atom_site_fract_x
_atom_site_fract_y
_atom_site_fract_z
Si Si1 0.485471 0.811952 0.901930
Si Si2 0.975486 0.695013 0.949703
Si Si3 0.350645 0.081205 0.627953
Si Si4 0.957790 0.869346 0.804239
Si Si5 0.243820 0.090244 0.972521
Si Si6 0.867937 0.981074 0.603345
Si Si7 0.153940 0.050670 0.803767
Si Si8 0.353284 0.541890 0.943794
O O1 0.564788 0.716397 0.869178
O O2 0.410803 0.696495 0.930070
O O3 0.414430 0.924838 0.871747
O O4 0.556715 0.913368 0.936807
O O5 0.881751 0.574081 0.961977
O O6 0.915326 0.831437 0.922692
O O7 0.064583 0.619466 0.917949
O O8 0.016258 0.750000 0.000000
O O9 0.302613 0.096641 0.576205
O O10 0.254139 0.079291 0.663710
O O11 0.942513 0.915508 0.750000
O O12 0.887662 0.957563 0.842090
O O13 0.924790 0.694845 0.807801
O O14 0.080600 0.906975 0.816346
O O15 0.253015 0.250000 0.000000
O O16 0.298973 0.968338 0.005710
O O17 0.744741 0.003648 0.590769
O O18 0.187235 0.037906 0.750000
#
# Coordination Sequence:
#
# PCOD9438668 Si02
#       8
#     8   8   8   8   8   8   8   8
#     4  10  24  40  61  86 117 158 215 261 296 350
#     4  11  23  38  58  89 127 164 201 244 296 385
#     4  11  22  41  61  86 122 159 205 258 310 354
#     4  10  21  37  63  96 123 156 200 245 305 382
#     4  11  20  36  61  86 123 166 199 248 305 363
#     4  12  22  39  62  87 128 165 197 246 313 365
#     4  10  22  42  67  93 124 159 198 253 312 372
#     4  11  23  40  59  86 120 163 208 252 301 352
#
# _framework density 20.135296
#
# number of rings (size 3 to 8) (size 9 to 14) (size 15 to 20)
#    0.000    1.250    3.750    3.375    0.000    6.500 
#    0.000    0.625    0.000    3.000    0.000    0.000 
#    0.000    0.000    0.000    0.000    0.000    0.000 
#
# Total GULP energy -357950.589121 kJ/mol
# GULP energy per Si atom -5592.977955 kJ/mol
# Density = 2.008947 g / cm^3
# Si number density = 20.135296 Si / 1000 Ang^3
#
#
#
# Elastic Constant Matrix: (Units=GPa)
#
#
# Indices 1 2 3 4 5 6 
#
# 1 94.9685 44.2055 42.2794 0.0000 0.0000 0.0000
# 2 44.2055 76.2878 21.1868 0.0000 0.0000 0.0000
# 3 42.2794 21.1868 85.7504 0.0000 0.0000 0.0000
# 4 0.0000 0.0000 0.0000 18.5379 0.0000 0.0000
# 5 0.0000 0.0000 0.0000 0.0000 27.1812 0.0000
# 6 0.0000 0.0000 0.0000 0.0000 0.0000 28.8512
#
#
#
# Elastic Compliance Matrix: (Units=1/GPa)
#
#
# Indices 1 2 3 4 5 6 
#
# 1 0.017217 -0.008180 -0.006468 0.000000 0.000000 0.000000
# 2 -0.008180 0.017961 -0.000404 0.000000 0.000000 0.000000
# 3 -0.006468 -0.000404 0.014951 0.000000 0.000000 0.000000
# 4 0.000000 0.000000 0.000000 0.053944 0.000000 0.000000
# 5 0.000000 0.000000 0.000000 0.000000 0.036790 0.000000
# 6 0.000000 0.000000 0.000000 0.000000 0.000000 0.034661
#
#
# Mechanical properties :
#
#
# Convention : Reuss Voigt Hill
#
# Bulk Modulus (GPa) = 49.94119 52.48336 51.21228
# Shear Modulus (GPa) = 23.55143 24.86974 24.21058
#
# Velocity S-wave (km/s) = 3.42374 3.51826 3.47132
# Velocity P-wave (km/s) = 6.36286 6.52887 6.44640
#
# Compressibility (1/GPa) = 0.02002355
#
# Stress axis : x y z
#
# Youngs Moduli (GPa) = 58.08252 55.67733 66.88705
#
# Poissons Ratio (x) = 0.45545 0.43261
# Poissons Ratio (y) = 0.47513 0.02705
# Poissons Ratio (z) = 0.37566 0.02251
#
# Static dielectric constant tensor:
#      x y z
#    x 1.721160 0.000000 0.000000 
#    y 0.000000 1.770120 0.000000 
#    z 0.000000 0.000000 1.700220 
# 
# From -- ./inp_files/29758.got.cif
#   From: 2010.05.17/outbox.cif.g08.bks.cpg/sg57_15_cif.got.tgz:29758.got - 2010.06.03 13:58:18.
