data_PCOD9438578
_publ_section_title
;
Structure prediction by ZEFSAII (Michael W. Deem and Ramdas Pophale) SiO2 
 PCOD9438578
Probable space group: P B C M
;
_chemical_formula_sum "Si O2"
_cell_formula_units_Z 64
_cell_length_a 29.248999
_cell_length_b 5.412600
_cell_length_c 18.809124
_cell_angle_alpha 90.000000
_cell_angle_beta 90.000000
_cell_angle_gamma 90.000000
_cell_volume 2977.731330
_symmetry_space_group_name_H-M "P B C M"
_symmetry_group_IT_number 57
_symmetry_cell_setting 'orthorhombic'
loop_
_space_group_symop_operation_xyz
x,y,z
-x,-y,1/2+z
x,1/2-y,-z
-x,1/2+y,1/2-z
-x,-y,-z
x,y,1/2-z
-x,1/2+y,z
x,1/2-y,1/2+z
loop_
_atom_site_type_symbol
_atom_site_label
_atom_site_fract_x
_atom_site_fract_y
_atom_site_fract_z
Si Si1 0.236825 0.724513 0.828819
Si Si2 0.525449 0.532038 0.336671
Si Si3 0.321093 0.454723 0.164486
Si Si4 0.856469 0.504650 0.828822
Si Si5 0.369441 0.957878 0.163159
Si Si6 0.808249 0.892421 0.570142
Si Si7 0.028819 0.109097 0.167065
Si Si8 0.096918 0.850499 0.071181
O O1 0.251599 0.628554 0.750000
O O2 0.269062 0.955945 0.846725
O O3 0.184364 0.805426 0.822159
O O4 0.233462 0.534253 0.892941
O O5 0.524681 0.533662 0.250000
O O6 0.496966 0.290673 0.359614
O O7 0.578251 0.505216 0.357984
O O8 0.326592 0.443122 0.250000
O O9 0.338255 0.188867 0.138750
O O10 0.351012 0.690354 0.139513
O O11 0.871105 0.577208 0.750000
O O12 0.831112 0.718989 0.870685
O O13 0.895583 0.371502 0.873283
O O14 0.368451 0.952642 0.250000
O O15 0.793545 0.750000 0.500000
O O16 0.852543 0.055705 0.549108
O O17 0.043320 0.095280 0.250000
O O18 0.069891 0.063063 0.112320
O O19 0.996195 0.869753 0.156105
O O20 0.073560 0.750000 0.000000
#
# Coordination Sequence:
#
# PCOD9438578 Si02
#       8
#     8   8   8   8   8   8   8   8
#     4   9  20  34  51  78 107 143 189 237 285 339
#     4   9  15  22  33  50  77 115 164 217 268 328
#     4   9  17  28  43  63  92 126 171 226 275 327
#     4  10  21  37  59  84 112 149 192 239 285 338
#     4   9  16  25  38  58  85 123 169 223 279 326
#     4  11  22  37  59  84 115 150 189 240 287 344
#     4  10  24  44  66  94 126 161 201 243 290 348
#     4  11  23  40  61  89 123 154 194 239 295 347
#
# _framework density 21.492871000000001
#
# number of rings (size 3 to 8) (size 9 to 14) (size 15 to 20)
#    0.000    2.250    1.250    1.500    3.500    5.000 
#    0.000    0.000    0.000    0.000    0.000    0.000 
#    0.000    0.000    0.000    0.000    0.000   12.500 
#
# Total GULP energy -357323.783458 kJ/mol
# GULP energy per Si atom -5583.184117 kJ/mol
# Density = 2.144395 g / cm^3
# Si number density = 21.492871 Si / 1000 Ang^3
#
#
#
# Elastic Constant Matrix: (Units=GPa)
#
#
# Indices 1 2 3 4 5 6 
#
# 1 83.9944 19.2930 10.7613 0.0000 0.0000 0.0000
# 2 19.2930 89.9232 14.7770 0.0000 0.0000 0.0000
# 3 10.7613 14.7770 58.6735 0.0000 0.0000 0.0000
# 4 0.0000 0.0000 0.0000 -15.2876 0.0000 0.0000
# 5 0.0000 0.0000 0.0000 0.0000 -5.1909 0.0000
# 6 0.0000 0.0000 0.0000 0.0000 0.0000 40.5378
#
#
#
# Elastic Compliance Matrix: (Units=1/GPa)
#
#
# Indices 1 2 3 4 5 6 
#
# 1 0.012685 -0.002440 -0.001712 0.000000 0.000000 0.000000
# 2 -0.002440 0.012070 -0.002592 0.000000 0.000000 0.000000
# 3 -0.001712 -0.002592 0.018010 0.000000 0.000000 0.000000
# 4 0.000000 0.000000 0.000000 -0.065412 0.000000 0.000000
# 5 0.000000 0.000000 0.000000 0.000000 -0.192645 0.000000
# 6 0.000000 0.000000 0.000000 0.000000 0.000000 0.024668
#
#
# Mechanical properties :
#
#
# Convention : Reuss Voigt Hill
#
# Bulk Modulus (GPa) = 34.15697 35.80598 34.98147
# Shear Modulus (GPa) = -29.87311 16.52917 -6.67197
#
# Velocity S-wave (km/s) = -3.73219 2.77619 -1.76381
# Velocity P-wave (km/s) = 1.62653 5.19345 3.48757
#
# Compressibility (1/GPa) = 0.02927660
#
# Stress axis : x y z
#
# Youngs Moduli (GPa) = 78.83060 82.84891 55.52367
#
# Poissons Ratio (x) = 0.20218 0.09506
# Poissons Ratio (y) = 0.19237 0.14393
# Poissons Ratio (z) = 0.13496 0.21477
#
# Static dielectric constant tensor:
#      x y z
#    x 1.794460 0.000000 0.000000 
#    y 0.000000 1.827770 0.000000 
#    z 0.000000 0.000000 1.784340 
# 
# From -- ./inp_files/23211.got.cif
#   From: 2010.05.17/outbox.cif.g08.bks.cpg/sg57_12_cif.got.tgz:23211.got - 2010.06.03 13:58:18.
