data_PCOD9438748
_publ_section_title
;
Structure prediction by ZEFSAII (Michael W. Deem and Ramdas Pophale) SiO2 
 PCOD9438748
Probable space group: P B C M
;
_chemical_formula_sum "Si O2"
_cell_formula_units_Z 64
_cell_length_a 24.739285
_cell_length_b 8.896081
_cell_length_c 14.240834
_cell_angle_alpha 90.000000
_cell_angle_beta 90.000000
_cell_angle_gamma 90.000000
_cell_volume 3134.160958
_symmetry_space_group_name_H-M "P B C M"
_symmetry_group_IT_number 57
_symmetry_cell_setting 'orthorhombic'
loop_
_space_group_symop_operation_xyz
x,y,z
-x,-y,1/2+z
x,1/2-y,-z
-x,1/2+y,1/2-z
-x,-y,-z
x,y,1/2-z
-x,1/2+y,z
x,1/2-y,1/2+z
loop_
_atom_site_type_symbol
_atom_site_label
_atom_site_fract_x
_atom_site_fract_y
_atom_site_fract_z
Si Si1 0.457670 0.085531 0.638063
Si Si2 0.366774 0.571851 0.018721
Si Si3 0.961598 0.506046 0.634976
Si Si4 0.176965 0.000847 0.360687
Si Si5 0.931488 0.658422 0.135263
Si Si6 0.853193 0.150786 0.139122
Si Si7 0.569560 0.568422 0.138503
Si Si8 0.246892 0.571414 0.478769
O O1 0.453831 0.066178 0.750000
O O2 0.446105 0.259678 0.616501
O O3 0.413082 0.982736 0.589000
O O4 0.518064 0.034697 0.611870
O O5 0.306717 0.529214 0.053794
O O6 0.370006 0.750000 0.000000
O O7 0.380043 0.487119 0.921582
O O8 0.962882 0.503160 0.750000
O O9 0.946894 0.674150 0.606352
O O10 0.912307 0.398764 0.605163
O O11 0.020551 0.452051 0.604348
O O12 0.187860 0.022694 0.250000
O O13 0.155998 0.828805 0.373560
O O14 0.228996 0.012672 0.426428
O O15 0.128041 0.106821 0.392670
O O16 0.930879 0.654725 0.250000
O O17 0.850940 0.120663 0.250000
O O18 0.804133 0.061820 0.090684
O O19 0.578575 0.555746 0.250000
O O20 0.250891 0.750000 0.500000
#
# Coordination Sequence:
#
# PCOD9438748 Si02
#       8
#     8   8   8   8   8   8   8   8
#     4  10  21  38  60  86 116 149 185 226 273 325
#     4  11  22  36  57  84 115 150 187 229 274 323
#     4   9  16  27  46  73 101 128 162 205 256 314
#     4   9  17  32  53  73  97 131 169 212 259 305
#     4   9  16  27  46  73 101 128 162 205 256 314
#     4   9  17  32  53  73  97 131 169 212 259 305
#     4  10  21  38  60  86 116 149 185 226 273 325
#     4   9  20  36  53  76 103 136 180 219 254 307
#
# _framework density 20.420137
#
# number of rings (size 3 to 8) (size 9 to 14) (size 15 to 20)
#    0.000    2.500    0.000    2.250    0.000    5.500 
#    0.000    6.250    0.000    3.000    0.000    0.000 
#    0.000    0.000    0.000    0.000    0.000    0.000 
#
# Total GULP energy -357469.294496 kJ/mol
# GULP energy per Si atom -5585.457727 kJ/mol
# Density = 2.037366 g / cm^3
# Si number density = 20.420137 Si / 1000 Ang^3
#
#
#
# Elastic Constant Matrix: (Units=GPa)
#
#
# Indices 1 2 3 4 5 6 
#
# 1 63.9930 2.3546 0.7908 0.0000 0.0000 0.0000
# 2 2.3546 45.6361 5.6792 0.0000 0.0000 0.0000
# 3 0.7908 5.6792 36.6176 0.0000 0.0000 0.0000
# 4 0.0000 0.0000 0.0000 21.9669 0.0000 0.0000
# 5 0.0000 0.0000 0.0000 0.0000 23.9583 0.0000
# 6 0.0000 0.0000 0.0000 0.0000 0.0000 16.3518
#
#
#
# Elastic Compliance Matrix: (Units=1/GPa)
#
#
# Indices 1 2 3 4 5 6 
#
# 1 0.015658 -0.000781 -0.000217 0.000000 0.000000 0.000000
# 2 -0.000781 0.022383 -0.003455 0.000000 0.000000 0.000000
# 3 -0.000217 -0.003455 0.027850 0.000000 0.000000 0.000000
# 4 0.000000 0.000000 0.000000 0.045523 0.000000 0.000000
# 5 0.000000 0.000000 0.000000 0.000000 0.041739 0.000000
# 6 0.000000 0.000000 0.000000 0.000000 0.000000 0.061155
#
#
# Mechanical properties :
#
#
# Convention : Reuss Voigt Hill
#
# Bulk Modulus (GPa) = 17.54831 18.21066 17.87948
# Shear Modulus (GPa) = 20.64340 21.61688 21.13014
#
# Velocity S-wave (km/s) = 3.18297 3.25715 3.22027
# Velocity P-wave (km/s) = 4.70326 4.80445 4.75412
#
# Compressibility (1/GPa) = 0.05698555
#
# Stress axis : x y z
#
# Youngs Moduli (GPa) = 63.86457 44.67746 35.90698
#
# Poissons Ratio (x) = 0.03489 0.00779
# Poissons Ratio (y) = 0.04987 0.12404
# Poissons Ratio (z) = 0.01386 0.15434
#
# Static dielectric constant tensor:
#      x y z
#    x 1.686230 0.000000 0.000000 
#    y 0.000000 1.709580 0.000000 
#    z 0.000000 0.000000 1.770460 
# 
# From -- ./inp_files/19519.got.cif
#   From: 2010.05.17/outbox.cif.g08.bks.cpg/sg57_10_cif.got.tgz:19519.got - 2010.06.03 13:58:18.
