data_PCOD9438424
_publ_section_title
;
Structure prediction by ZEFSAII (Michael W. Deem and Ramdas Pophale) SiO2 
 PCOD9438424
Probable space group: P B C M
;
_chemical_formula_sum "Si O2"
_cell_formula_units_Z 56
_cell_length_a 21.291643
_cell_length_b 15.730244
_cell_length_c 8.850668
_cell_angle_alpha 90.000000
_cell_angle_beta 90.000000
_cell_angle_gamma 90.000000
_cell_volume 2964.289973
_symmetry_space_group_name_H-M "P B C M"
_symmetry_group_IT_number 57
_symmetry_cell_setting 'orthorhombic'
loop_
_space_group_symop_operation_xyz
x,y,z
-x,-y,1/2+z
x,1/2-y,-z
-x,1/2+y,1/2-z
-x,-y,-z
x,y,1/2-z
-x,1/2+y,z
x,1/2-y,1/2+z
loop_
_atom_site_type_symbol
_atom_site_label
_atom_site_fract_x
_atom_site_fract_y
_atom_site_fract_z
Si Si1 0.784878 0.987558 0.068491
Si Si2 0.597019 0.336548 0.430526
Si Si3 0.118185 0.336479 0.069483
Si Si4 0.007323 0.594067 0.431732
Si Si5 0.530454 0.585033 0.930911
Si Si6 0.650318 0.979082 0.930826
Si Si7 0.853905 0.159057 0.068132
O O1 0.775863 0.988722 0.250000
O O2 0.838157 0.917608 0.035878
O O3 0.809556 0.080693 0.021093
O O4 0.720172 0.964481 0.988541
O O5 0.622768 0.250000 0.500000
O O6 0.602329 0.332304 0.250000
O O7 0.522773 0.345934 0.468606
O O8 0.630280 0.424509 0.479134
O O9 0.112106 0.329391 0.250000
O O10 0.145187 0.250000 0.000000
O O11 0.050370 0.352151 0.995793
O O12 0.004675 0.589479 0.250000
O O13 0.074623 0.633754 0.474467
O O14 0.000000 0.500000 0.500000
O O15 0.534236 0.578560 0.750000
O O16 0.500000 0.500000 0.000000
O O17 0.599742 0.586451 0.000131
O O18 0.646276 0.975540 0.750000
O O19 0.851705 0.164130 0.250000
O O20 0.836943 0.250000 0.000000
#
# Coordination Sequence:
#
# PCOD9438424 Si02
#       7
#     8   8   8   8   8   8   8
#     4  10  22  41  59  79 115 156 194 239 290 346
#     4   9  19  33  52  81 113 141 177 223 269 325
#     4  11  23  41  62  87 116 149 195 246 300 360
#     4  11  21  37  61  88 118 152 192 242 299 355
#     4   9  17  32  53  78 106 138 176 218 266 316
#     4  10  21  36  55  81 109 143 190 231 273 334
#     4  10  22  39  57  83 116 152 192 236 290 349
#
# _framework density 18.891539000000002
#
# number of rings (size 3 to 8) (size 9 to 14) (size 15 to 20)
#    0.000    2.000    1.429    3.000    0.000    8.000 
#    0.000    3.571    0.000    0.000    0.000    0.000 
#    0.000    0.000    0.000    0.000    0.000    0.000 
#
# Total GULP energy -312556.995739 kJ/mol
# GULP energy per Si atom -5581.374924 kJ/mol
# Density = 1.884854 g / cm^3
# Si number density = 18.891539 Si / 1000 Ang^3
#
#
#
# Elastic Constant Matrix: (Units=GPa)
#
#
# Indices 1 2 3 4 5 6 
#
# 1 72.1865 -15.0588 21.0952 0.0000 0.0000 0.0000
# 2 -15.0588 61.1061 13.0767 0.0000 0.0000 0.0000
# 3 21.0952 13.0767 29.9457 0.0000 0.0000 0.0000
# 4 0.0000 0.0000 0.0000 30.7576 0.0000 0.0000
# 5 0.0000 0.0000 0.0000 0.0000 27.2285 0.0000
# 6 0.0000 0.0000 0.0000 0.0000 0.0000 11.4715
#
#
#
# Elastic Compliance Matrix: (Units=1/GPa)
#
#
# Indices 1 2 3 4 5 6 
#
# 1 0.021417 0.009383 -0.019185 0.000000 0.000000 0.000000
# 2 0.009383 0.022163 -0.016288 0.000000 0.000000 0.000000
# 3 -0.019185 -0.016288 0.054021 0.000000 0.000000 0.000000
# 4 0.000000 0.000000 0.000000 0.032512 0.000000 0.000000
# 5 0.000000 0.000000 0.000000 0.000000 0.036726 0.000000
# 6 0.000000 0.000000 0.000000 0.000000 0.000000 0.087172
#
#
# Mechanical properties :
#
#
# Convention : Reuss Voigt Hill
#
# Bulk Modulus (GPa) = 22.01578 22.38497 22.20037
# Shear Modulus (GPa) = 15.56025 23.49987 19.53006
#
# Velocity S-wave (km/s) = 2.87307 3.53077 3.21876
# Velocity P-wave (km/s) = 4.76289 5.33823 5.05875
#
# Compressibility (1/GPa) = 0.04542197
#
# Stress axis : x y z
#
# Youngs Moduli (GPa) = 46.69226 45.12011 18.51127
#
# Poissons Ratio (x) = -0.42338 0.35513
# Poissons Ratio (y) = -0.43813 0.30152
# Poissons Ratio (z) = 0.89577 0.73493
#
# Static dielectric constant tensor:
#      x y z
#    x 1.647640 0.000000 0.000000 
#    y 0.000000 1.670680 0.000000 
#    z 0.000000 0.000000 1.629070 
# 
# From -- ./inp_files/8210.got.cif
#   From: 2010.05.17/outbox.cif.g08.bks.cpg/sg57_5_cif.got.tgz:8210.got - 2010.06.03 13:58:18.
