data_PCOD9438878
_publ_section_title
;
Structure prediction by ZEFSAII (Michael W. Deem and Ramdas Pophale) SiO2 
 PCOD9438878
Probable space group: P B C M
;
_chemical_formula_sum "Si O2"
_cell_formula_units_Z 36
_cell_length_a 9.580635
_cell_length_b 9.610466
_cell_length_c 15.244674
_cell_angle_alpha 90.000000
_cell_angle_beta 90.000000
_cell_angle_gamma 90.000000
_cell_volume 1403.643708
_symmetry_space_group_name_H-M "P B C M"
_symmetry_group_IT_number 57
_symmetry_cell_setting 'orthorhombic'
loop_
_space_group_symop_operation_xyz
x,y,z
-x,-y,1/2+z
x,1/2-y,-z
-x,1/2+y,1/2-z
-x,-y,-z
x,y,1/2-z
-x,1/2+y,z
x,1/2-y,1/2+z
loop_
_atom_site_type_symbol
_atom_site_label
_atom_site_fract_x
_atom_site_fract_y
_atom_site_fract_z
Si Si1 0.157179 0.674890 0.093533
Si Si2 0.355988 0.250000 0.500000
Si Si3 0.565610 0.323882 0.152867
Si Si4 0.240276 0.080828 0.153632
Si Si5 0.039045 0.403697 0.151364
O O1 0.301441 0.719652 0.140333
O O2 0.134943 0.507710 0.093510
O O3 0.016418 0.746843 0.134028
O O4 0.167129 0.750000 0.000000
O O5 0.460577 0.316784 0.428339
O O6 0.256578 0.169179 0.433280
O O7 0.505958 0.296830 0.250000
O O8 0.626482 0.478997 0.152786
O O9 0.234776 0.148630 0.250000
O O10 0.110353 0.978645 0.147848
O O11 0.094228 0.417003 0.250000
#
# Coordination Sequence:
#
# PCOD9438878 Si02
#       5
#     8   4   8   8   8
#     4  11  21  38  61  92 119 155 201 241 297 357
#     4  12  20  36  60  86 110 150 206 242 286 350
#     4  10  21  39  59  83 119 155 191 241 298 352
#     4   9  21  38  57  83 116 154 191 240 302 348
#     4  10  21  39  61  86 122 160 192 241 302 355
#
# _framework density 25.647532000000002
#
# number of rings (size 3 to 8) (size 9 to 14) (size 15 to 20)
#    0.000    1.778    1.111    5.333    1.556    0.000 
#    0.000    0.000    0.000    5.333    0.000    0.000 
#    0.000    0.000    0.000    0.000    0.000    0.000 
#
# Total GULP energy -201168.397794 kJ/mol
# GULP energy per Si atom -5588.011050 kJ/mol
# Density = 2.558916 g / cm^3
# Si number density = 25.647532 Si / 1000 Ang^3
#
#
#
# Elastic Constant Matrix: (Units=GPa)
#
#
# Indices 1 2 3 4 5 6 
#
# 1 77.8966 21.7332 30.8926 0.0000 0.0000 0.0000
# 2 21.7332 83.9082 17.3991 0.0000 0.0000 0.0000
# 3 30.8926 17.3991 188.2541 0.0000 0.0000 0.0000
# 4 0.0000 0.0000 0.0000 38.0315 0.0000 0.0000
# 5 0.0000 0.0000 0.0000 0.0000 35.0371 0.0000
# 6 0.0000 0.0000 0.0000 0.0000 0.0000 -2.9683
#
#
#
# Elastic Compliance Matrix: (Units=1/GPa)
#
#
# Indices 1 2 3 4 5 6 
#
# 1 0.014599 -0.003349 -0.002086 0.000000 0.000000 0.000000
# 2 -0.003349 0.012919 -0.000644 0.000000 0.000000 0.000000
# 3 -0.002086 -0.000644 0.005714 0.000000 0.000000 0.000000
# 4 0.000000 0.000000 0.000000 0.026294 0.000000 0.000000
# 5 0.000000 0.000000 0.000000 0.000000 0.028541 0.000000
# 6 0.000000 0.000000 0.000000 0.000000 0.000000 -0.336896
#
#
# Mechanical properties :
#
#
# Convention : Reuss Voigt Hill
#
# Bulk Modulus (GPa) = 47.45417 54.45651 50.95534
# Shear Modulus (GPa) = -21.77268 32.68899 5.45816
#
# Velocity S-wave (km/s) = -2.91678 3.57395 1.46040
# Velocity P-wave (km/s) = 2.68312 6.18947 4.77015
#
# Compressibility (1/GPa) = 0.02107296
#
# Stress axis : x y z
#
# Youngs Moduli (GPa) = 68.49685 77.40669 175.01225
#
# Poissons Ratio (x) = 0.25922 0.36512
# Poissons Ratio (y) = 0.22938 0.11279
# Poissons Ratio (z) = 0.14290 0.04989
#
# Static dielectric constant tensor:
#      x y z
#    x 1.998000 0.000000 0.000000 
#    y 0.000000 2.092450 0.000000 
#    z 0.000000 0.000000 2.084020 
# 
# From -- ./inp_files/17340.got.cif
#   From: 2010.05.17/outbox.cif.g08.bks.cpg/sg57_9_cif.got.tgz:17340.got - 2010.06.03 13:58:18.
