data_PCOD9438309
_publ_section_title
;
Structure prediction by ZEFSAII (Michael W. Deem and Ramdas Pophale) SiO2 
 PCOD9438309
Probable space group: P B C M
;
_chemical_formula_sum "Si O2"
_cell_formula_units_Z 40
_cell_length_a 7.922486
_cell_length_b 8.287798
_cell_length_c 22.527217
_cell_angle_alpha 90.000000
_cell_angle_beta 90.000000
_cell_angle_gamma 90.000000
_cell_volume 1479.136249
_symmetry_space_group_name_H-M "P B C M"
_symmetry_group_IT_number 57
_symmetry_cell_setting 'orthorhombic'
loop_
_space_group_symop_operation_xyz
x,y,z
-x,-y,1/2+z
x,1/2-y,-z
-x,1/2+y,1/2-z
-x,-y,-z
x,y,1/2-z
-x,1/2+y,z
x,1/2-y,1/2+z
loop_
_atom_site_type_symbol
_atom_site_label
_atom_site_fract_x
_atom_site_fract_y
_atom_site_fract_z
Si Si1 0.354763 0.816494 0.250000
Si Si2 0.552460 0.881581 0.831654
Si Si3 0.855224 0.857708 0.184075
Si Si4 0.330696 0.406686 0.541928
Si Si5 0.965404 0.129974 0.105455
Si Si6 0.257206 0.750000 0.000000
O O1 0.366059 0.960478 0.301587
O O2 0.380529 0.673199 0.199021
O O3 0.676236 0.731954 0.815241
O O4 0.545840 0.893348 0.901782
O O5 0.894835 0.918482 0.250000
O O6 0.992782 0.723569 0.166206
O O7 0.870064 0.972006 0.127523
O O8 0.332797 0.250000 0.500000
O O9 0.348789 0.580225 0.511009
O O10 0.144317 0.406059 0.573619
O O11 0.857051 0.224017 0.057854
#
# Coordination Sequence:
#
# PCOD9438309 Si02
#       6
#     4   8   8   8   8   4
#     4  10  20  50  72  84 126 162 226 304 368 378
#     4  10  23  44  71  96 121 176 232 291 350 408
#     4  11  21  39  59 100 142 175 227 273 325 405
#     4  11  23  42  67 102 146 182 227 269 325 421
#     4  11  21  36  64  97 151 189 212 256 325 415
#     4  12  20  40  62 102 144 202 210 252 334 406
#
# _framework density 27.042808999999998
#
# number of rings (size 3 to 8) (size 9 to 14) (size 15 to 20)
#    0.000    1.200    5.000    3.600    0.000    0.000 
#   14.400    1.000    0.000    0.000    0.000    0.000 
#    0.000    0.000    0.000    0.000    0.000    0.000 
#
# Total GULP energy -223420.167273 kJ/mol
# GULP energy per Si atom -5585.504182 kJ/mol
# Density = 2.698126 g / cm^3
# Si number density = 27.042809 Si / 1000 Ang^3
#
#
#
# Elastic Constant Matrix: (Units=GPa)
#
#
# Indices 1 2 3 4 5 6 
#
# 1 91.8949 28.6159 35.3759 0.0000 0.0000 0.0000
# 2 28.6159 138.1398 78.5460 0.0000 0.0000 0.0000
# 3 35.3759 78.5460 229.0488 0.0000 0.0000 0.0000
# 4 0.0000 0.0000 0.0000 83.2224 0.0000 0.0000
# 5 0.0000 0.0000 0.0000 0.0000 -163.8443 0.0000
# 6 0.0000 0.0000 0.0000 0.0000 0.0000 30.6858
#
#
#
# Elastic Compliance Matrix: (Units=1/GPa)
#
#
# Indices 1 2 3 4 5 6 
#
# 1 0.011907 -0.001765 -0.001234 0.000000 0.000000 0.000000
# 2 -0.001765 0.009254 -0.002901 0.000000 0.000000 0.000000
# 3 -0.001234 -0.002901 0.005551 0.000000 0.000000 0.000000
# 4 0.000000 0.000000 0.000000 0.012016 0.000000 0.000000
# 5 0.000000 0.000000 0.000000 0.000000 -0.006103 0.000000
# 6 0.000000 0.000000 0.000000 0.000000 0.000000 0.032588
#
#
# Mechanical properties :
#
#
# Convention : Reuss Voigt Hill
#
# Bulk Modulus (GPa) = 67.05655 82.68433 74.87044
# Shear Modulus (GPa) = 60.98850 11.11584 36.05217
#
# Velocity S-wave (km/s) = 4.75411 2.02963 3.65520
# Velocity P-wave (km/s) = 7.41523 6.01118 6.74981
#
# Compressibility (1/GPa) = 0.01491279
#
# Stress axis : x y z
#
# Youngs Moduli (GPa) = 83.98755 108.06061 180.14194
#
# Poissons Ratio (x) = 0.19073 0.22224
# Poissons Ratio (y) = 0.14824 0.52256
# Poissons Ratio (z) = 0.10361 0.31347
#
# Static dielectric constant tensor:
#      x y z
#    x 2.299320 0.000000 0.000000 
#    y 0.000000 2.134350 0.000000 
#    z 0.000000 0.000000 1.991150 
# 
# From -- ./inp_files/24884.got.cif
#   From: 2010.05.17/outbox.cif.g08.bks.cpg/sg57_13_cif.got.tgz:24884.got - 2010.06.03 13:58:18.
