data_PCOD9438947
_publ_section_title
;
Structure prediction by ZEFSAII (Michael W. Deem and Ramdas Pophale) SiO2 
 PCOD9438947
Probable space group: P B C M
;
_chemical_formula_sum "Si O2"
_cell_formula_units_Z 48
_cell_length_a 14.658978
_cell_length_b 5.152155
_cell_length_c 29.390783
_cell_angle_alpha 90.000000
_cell_angle_beta 90.000000
_cell_angle_gamma 90.000000
_cell_volume 2219.748491
_symmetry_space_group_name_H-M "P B C M"
_symmetry_group_IT_number 57
_symmetry_cell_setting 'orthorhombic'
loop_
_space_group_symop_operation_xyz
x,y,z
-x,-y,1/2+z
x,1/2-y,-z
-x,1/2+y,1/2-z
-x,-y,-z
x,y,1/2-z
-x,1/2+y,z
x,1/2-y,1/2+z
loop_
_atom_site_type_symbol
_atom_site_label
_atom_site_fract_x
_atom_site_fract_y
_atom_site_fract_z
Si Si1 0.055429 0.260820 0.945810
Si Si2 0.207179 0.471236 0.381632
Si Si3 0.602661 0.499779 0.479221
Si Si4 0.323227 0.964817 0.116810
Si Si5 0.062171 0.935774 0.696581
Si Si6 0.440816 0.742966 0.698367
O O1 0.142319 0.158433 0.919153
O O2 0.023947 0.551591 0.934013
O O3 0.069433 0.250000 0.000000
O O4 0.249564 0.745477 0.396997
O O5 0.146757 0.523370 0.336774
O O6 0.282205 0.247368 0.373170
O O7 0.649776 0.750000 0.500000
O O8 0.500000 0.500000 0.500000
O O9 0.606343 0.494706 0.425153
O O10 0.649501 0.250000 0.500000
O O11 0.369398 0.841444 0.160878
O O12 0.088479 0.948341 0.750000
O O13 0.988374 0.163274 0.688300
O O14 0.406237 0.712283 0.750000
O O15 0.523343 0.535731 0.693029
#
# Coordination Sequence:
#
# PCOD9438947 Si02
#       6
#     8   8   8   8   8   8
#     4  10  21  39  63  85 115 167 211 247 298 365
#     4  12  24  39  60  96 131 162 199 272 317 364
#     4  10  23  41  63  88 115 162 208 255 312 384
#     4  12  26  39  64  95 128 163 206 263 328 375
#     4  10  21  39  64  92 127 175 219 252 302 382
#     4  10  23  43  68  90 119 162 210 259 304 380
#
# _framework density 21.624068999999999
#
# number of rings (size 3 to 8) (size 9 to 14) (size 15 to 20)
#    0.000    1.333    0.000    5.000    4.667    3.333 
#    0.000    0.000    0.000    0.000    0.000    0.000 
#    0.000    0.000    0.000    0.000    0.000    0.000 
#
# Total GULP energy -268382.999426 kJ/mol
# GULP energy per Si atom -5591.312488 kJ/mol
# Density = 2.157485 g / cm^3
# Si number density = 21.624069 Si / 1000 Ang^3
#
#
#
# Elastic Constant Matrix: (Units=GPa)
#
#
# Indices 1 2 3 4 5 6 
#
# 1 48.8886 -8.2796 41.7771 0.0000 0.0000 0.0000
# 2 -8.2796 90.8743 -1.7928 0.0000 0.0000 0.0000
# 3 41.7771 -1.7928 77.6414 0.0000 0.0000 0.0000
# 4 0.0000 0.0000 0.0000 24.7854 0.0000 0.0000
# 5 0.0000 0.0000 0.0000 0.0000 9.7427 0.0000
# 6 0.0000 0.0000 0.0000 0.0000 0.0000 15.6113
#
#
#
# Elastic Compliance Matrix: (Units=1/GPa)
#
#
# Indices 1 2 3 4 5 6 
#
# 1 0.038729 0.003119 -0.020767 0.000000 0.000000 0.000000
# 2 0.003119 0.011260 -0.001418 0.000000 0.000000 0.000000
# 3 -0.020767 -0.001418 0.024021 0.000000 0.000000 0.000000
# 4 0.000000 0.000000 0.000000 0.040346 0.000000 0.000000
# 5 0.000000 0.000000 0.000000 0.000000 0.102641 0.000000
# 6 0.000000 0.000000 0.000000 0.000000 0.000000 0.064056
#
#
# Mechanical properties :
#
#
# Convention : Reuss Voigt Hill
#
# Bulk Modulus (GPa) = 27.87235 31.20152 29.53694
# Shear Modulus (GPa) = 15.09901 22.40785 18.75343
#
# Velocity S-wave (km/s) = 2.64531 3.22257 2.94810
# Velocity P-wave (km/s) = 4.71675 5.32043 5.02766
#
# Compressibility (1/GPa) = 0.03587785
#
# Stress axis : x y z
#
# Youngs Moduli (GPa) = 25.82027 88.80684 41.62955
#
# Poissons Ratio (x) = -0.27698 0.86453
# Poissons Ratio (y) = -0.08053 0.05904
# Poissons Ratio (z) = 0.53622 0.12595
#
# Static dielectric constant tensor:
#      x y z
#    x 1.834360 0.000000 0.000000 
#    y 0.000000 1.795070 0.000000 
#    z 0.000000 0.000000 1.769990 
# 
# From -- ./inp_files/28750.got.cif
#   From: 2010.05.17/outbox.cif.g08.bks.cpg/sg57_15_cif.got.tgz:28750.got - 2010.06.03 13:58:18.
