data_PCOD9438501
_publ_section_title
;
Structure prediction by ZEFSAII (Michael W. Deem and Ramdas Pophale) SiO2 
 PCOD9438501
Probable space group: P B C M
;
_chemical_formula_sum "Si O2"
_cell_formula_units_Z 56
_cell_length_a 14.804025
_cell_length_b 21.708893
_cell_length_c 8.995433
_cell_angle_alpha 90.000000
_cell_angle_beta 90.000000
_cell_angle_gamma 90.000000
_cell_volume 2890.943214
_symmetry_space_group_name_H-M "P B C M"
_symmetry_group_IT_number 57
_symmetry_cell_setting 'orthorhombic'
loop_
_space_group_symop_operation_xyz
x,y,z
-x,-y,1/2+z
x,1/2-y,-z
-x,1/2+y,1/2-z
-x,-y,-z
x,y,1/2-z
-x,1/2+y,z
x,1/2-y,1/2+z
loop_
_atom_site_type_symbol
_atom_site_label
_atom_site_fract_x
_atom_site_fract_y
_atom_site_fract_z
Si Si1 0.408260 0.013235 0.914551
Si Si2 0.261184 0.935401 0.070816
Si Si3 0.762129 0.684462 0.074528
Si Si4 0.051682 0.558631 0.570976
Si Si5 0.580319 0.658632 0.916413
Si Si6 0.938994 0.681076 0.928978
Si Si7 0.627277 0.314112 0.071333
O O1 0.409598 0.984887 0.750000
O O2 0.409457 0.086044 0.900028
O O3 0.500000 0.000000 0.000000
O O4 0.322336 0.988958 0.002742
O O5 0.265737 0.938577 0.250000
O O6 0.157143 0.940800 0.026045
O O7 0.310216 0.871449 0.025812
O O8 0.774707 0.682527 0.250000
O O9 0.777855 0.750000 0.000000
O O10 0.658915 0.673090 0.031529
O O11 0.845502 0.650913 0.993468
O O12 0.046735 0.551683 0.750000
O O13 0.000000 0.500000 0.500000
O O14 0.011300 0.626942 0.537916
O O15 0.596141 0.686491 0.750000
O O16 0.478665 0.674187 0.965621
O O17 0.931904 0.689090 0.750000
O O18 0.958621 0.750000 0.000000
O O19 0.631138 0.310078 0.250000
O O20 0.656084 0.250000 0.000000
#
# Coordination Sequence:
#
# PCOD9438501 Si02
#       7
#     8   8   8   8   8   8   8
#     4  11  22  38  61  88 119 156 196 240 289 350
#     4  10  22  43  62  86 121 159 198 246 304 362
#     4  11  22  36  57  86 118 157 198 244 295 355
#     4  10  24  43  66  92 124 160 203 258 318 375
#     4  10  21  37  56  83 120 159 195 242 294 347
#     4  10  21  40  63  90 122 161 205 257 314 376
#     4  10  21  38  59  84 119 157 196 242 292 347
#
# _framework density 19.370842
#
# number of rings (size 3 to 8) (size 9 to 14) (size 15 to 20)
#    0.000    1.714    1.429    3.429    2.000    5.714 
#    0.000    0.000    0.000    0.000    0.000    0.000 
#    0.000    0.000    0.000    0.000    0.000    0.000 
#
# Total GULP energy -312088.640475 kJ/mol
# GULP energy per Si atom -5573.011437 kJ/mol
# Density = 1.932675 g / cm^3
# Si number density = 19.370842 Si / 1000 Ang^3
#
#
#
# Elastic Constant Matrix: (Units=GPa)
#
#
# Indices 1 2 3 4 5 6 
#
# 1 141.5620 34.6578 44.5944 0.0000 0.0000 0.0000
# 2 34.6578 74.7516 20.8823 0.0000 0.0000 0.0000
# 3 44.5944 20.8823 63.5898 0.0000 0.0000 0.0000
# 4 0.0000 0.0000 0.0000 31.1320 0.0000 0.0000
# 5 0.0000 0.0000 0.0000 0.0000 16.7675 0.0000
# 6 0.0000 0.0000 0.0000 0.0000 0.0000 27.7290
#
#
#
# Elastic Compliance Matrix: (Units=1/GPa)
#
#
# Indices 1 2 3 4 5 6 
#
# 1 0.009580 -0.002824 -0.005791 0.000000 0.000000 0.000000
# 2 -0.002824 0.015561 -0.003130 0.000000 0.000000 0.000000
# 3 -0.005791 -0.003130 0.020815 0.000000 0.000000 0.000000
# 4 0.000000 0.000000 0.000000 0.032121 0.000000 0.000000
# 5 0.000000 0.000000 0.000000 0.000000 0.059639 0.000000
# 6 0.000000 0.000000 0.000000 0.000000 0.000000 0.036063
#
#
# Mechanical properties :
#
#
# Convention : Reuss Voigt Hill
#
# Bulk Modulus (GPa) = 44.51054 53.35249 48.93152
# Shear Modulus (GPa) = 24.41925 27.11029 25.76477
#
# Velocity S-wave (km/s) = 3.55437 3.74510 3.65098
# Velocity P-wave (km/s) = 6.31449 6.80467 6.56416
#
# Compressibility (1/GPa) = 0.02246659
#
# Stress axis : x y z
#
# Youngs Moduli (GPa) = 104.38934 64.26231 48.04341
#
# Poissons Ratio (x) = 0.18146 0.27820
# Poissons Ratio (y) = 0.29477 0.15037
# Poissons Ratio (z) = 0.60448 0.20113
#
# Static dielectric constant tensor:
#      x y z
#    x 1.459450 0.000000 0.000000 
#    y 0.000000 1.525170 0.000000 
#    z 0.000000 0.000000 1.706690 
# 
# From -- ./inp_files/5284.got.cif
#   From: 2010.05.17/outbox.cif.g08.bks.cpg/sg57_3_cif.got.tgz:5284.got - 2010.06.03 13:58:18.
