data_PCOD9438555
_publ_section_title
;
Structure prediction by ZEFSAII (Michael W. Deem and Ramdas Pophale) SiO2 
 PCOD9438555
Probable space group: P B C M
;
_chemical_formula_sum "Si O2"
_cell_formula_units_Z 40
_cell_length_a 26.281782
_cell_length_b 9.236972
_cell_length_c 8.718997
_cell_angle_alpha 90.000000
_cell_angle_beta 90.000000
_cell_angle_gamma 90.000000
_cell_volume 2116.659324
_symmetry_space_group_name_H-M "P B C M"
_symmetry_group_IT_number 57
_symmetry_cell_setting 'orthorhombic'
loop_
_space_group_symop_operation_xyz
x,y,z
-x,-y,1/2+z
x,1/2-y,-z
-x,1/2+y,1/2-z
-x,-y,-z
x,y,1/2-z
-x,1/2+y,z
x,1/2-y,1/2+z
loop_
_atom_site_type_symbol
_atom_site_label
_atom_site_fract_x
_atom_site_fract_y
_atom_site_fract_z
Si Si1 0.643594 0.412076 0.065624
Si Si2 0.548094 0.587469 0.565776
Si Si3 0.745748 0.910006 0.933186
Si Si4 0.160776 0.587697 0.066141
Si Si5 0.953456 0.410607 0.566680
O O1 0.637159 0.408503 0.250000
O O2 0.697072 0.490032 0.030104
O O3 0.643007 0.250000 0.000000
O O4 0.598456 0.504840 0.991020
O O5 0.547717 0.750000 0.500000
O O6 0.500000 0.500000 0.500000
O O7 0.546162 0.591110 0.750000
O O8 0.749967 0.901048 0.750000
O O9 0.738649 0.750000 0.000000
O O10 0.796087 0.984281 0.000256
O O11 0.164812 0.594761 0.250000
O O12 0.103509 0.535417 0.026304
O O13 0.166968 0.750000 0.000000
O O14 0.956738 0.250000 0.500000
O O15 0.957025 0.406977 0.750000
O O16 0.000000 0.500000 0.500000
#
# Coordination Sequence:
#
# PCOD9438555 Si02
#       5
#     8   8   8   8   8
#     4  11  24  42  64  92 123 159 201 245 295 352
#     4  12  25  43  66  93 126 163 203 249 299 352
#     4  11  24  40  61  88 120 156 196 243 295 349
#     4  10  21  38  60  85 115 151 194 240 291 349
#     4  10  21  37  58  84 114 151 192 239 291 348
#
# _framework density 18.897704000000001
#
# number of rings (size 3 to 8) (size 9 to 14) (size 15 to 20)
#    0.000    1.200    0.000    6.000    0.000    9.600 
#    0.000    0.000    0.000    0.000    0.000    0.000 
#    0.000    0.000    0.000    0.000    0.000    0.000 
#
# Total GULP energy -223739.096677 kJ/mol
# GULP energy per Si atom -5593.477417 kJ/mol
# Density = 1.885469 g / cm^3
# Si number density = 18.897704 Si / 1000 Ang^3
#
#
#
# Elastic Constant Matrix: (Units=GPa)
#
#
# Indices 1 2 3 4 5 6 
#
# 1 195.8534 113.7219 98.6601 0.0000 0.0000 0.0000
# 2 113.7219 166.0071 76.8454 0.0000 0.0000 0.0000
# 3 98.6601 76.8454 115.7989 0.0000 0.0000 0.0000
# 4 0.0000 0.0000 0.0000 40.7604 0.0000 0.0000
# 5 0.0000 0.0000 0.0000 0.0000 31.0704 0.0000
# 6 0.0000 0.0000 0.0000 0.0000 0.0000 41.9873
#
#
#
# Elastic Compliance Matrix: (Units=1/GPa)
#
#
# Indices 1 2 3 4 5 6 
#
# 1 0.010923 -0.004582 -0.006265 0.000000 0.000000 0.000000
# 2 -0.004582 0.010617 -0.003142 0.000000 0.000000 0.000000
# 3 -0.006265 -0.003142 0.016058 0.000000 0.000000 0.000000
# 4 0.000000 0.000000 0.000000 0.024534 0.000000 0.000000
# 5 0.000000 0.000000 0.000000 0.000000 0.032185 0.000000
# 6 0.000000 0.000000 0.000000 0.000000 0.000000 0.023817
#
#
# Mechanical properties :
#
#
# Convention : Reuss Voigt Hill
#
# Bulk Modulus (GPa) = 103.94950 117.34603 110.64776
# Shear Modulus (GPa) = 33.48558 35.32574 34.40566
#
# Velocity S-wave (km/s) = 4.21401 4.32825 4.27151
# Velocity P-wave (km/s) = 8.87710 9.33855 9.11075
#
# Compressibility (1/GPa) = 0.00962006
#
# Stress axis : x y z
#
# Youngs Moduli (GPa) = 91.55359 94.18737 62.27305
#
# Poissons Ratio (x) = 0.43159 0.39015
# Poissons Ratio (y) = 0.41952 0.19564
# Poissons Ratio (z) = 0.57360 0.29590
#
# Static dielectric constant tensor:
#      x y z
#    x 1.648510 0.000000 0.000000 
#    y 0.000000 1.607660 0.000000 
#    z 0.000000 0.000000 1.631160 
# 
# From -- ./inp_files/8877.got.cif
#   From: 2010.05.17/outbox.cif.g08.bks.cpg/sg57_5_cif.got.tgz:8877.got - 2010.06.03 13:58:18.
