data_PCOD9438557
_publ_section_title
;
Structure prediction by ZEFSAII (Michael W. Deem and Ramdas Pophale) SiO2 
 PCOD9438557
Probable space group: P B C M
;
_chemical_formula_sum "Si O2"
_cell_formula_units_Z 32
_cell_length_a 7.695136
_cell_length_b 14.228744
_cell_length_c 11.353185
_cell_angle_alpha 90.000000
_cell_angle_beta 90.000000
_cell_angle_gamma 90.000000
_cell_volume 1243.084297
_symmetry_space_group_name_H-M "P B C M"
_symmetry_group_IT_number 57
_symmetry_cell_setting 'orthorhombic'
loop_
_space_group_symop_operation_xyz
x,y,z
-x,-y,1/2+z
x,1/2-y,-z
-x,1/2+y,1/2-z
-x,-y,-z
x,y,1/2-z
-x,1/2+y,z
x,1/2-y,1/2+z
loop_
_atom_site_type_symbol
_atom_site_label
_atom_site_fract_x
_atom_site_fract_y
_atom_site_fract_z
Si Si1 0.542549 0.374268 0.620369
Si Si2 0.986036 0.449952 0.375761
Si Si3 0.626891 0.902189 0.377112
Si Si4 0.123358 0.739285 0.876405
O O1 0.457118 0.359706 0.750000
O O2 0.595822 0.484613 0.618493
O O3 0.438495 0.360091 0.499576
O O4 0.710962 0.307348 0.617539
O O5 0.973940 0.503550 0.250000
O O6 0.834569 0.372371 0.376223
O O7 0.000000 0.500000 0.500000
O O8 0.166069 0.393431 0.370879
O O9 0.555620 0.868030 0.250000
O O10 0.039426 0.759916 0.750000
O O11 0.026250 0.750000 0.000000
#
# Coordination Sequence:
#
# PCOD9438557 Si02
#       4
#     8   8   8   8
#     4   9  18  34  57  85 117 155 201 253 309 369
#     4  10  21  37  59  89 125 165 211 261 313 374
#     4   9  18  34  57  85 118 157 202 252 306 369
#     4  10  21  37  58  85 118 158 203 253 311 372
#
# _framework density 25.742422000000001
#
# number of rings (size 3 to 8) (size 9 to 14) (size 15 to 20)
#    0.000    2.500    0.000    1.500    0.000    5.000 
#    0.000    6.250    0.000    6.000    0.000    0.000 
#    0.000    0.000    0.000    0.000    0.000    0.000 
#
# Total GULP energy -178517.435081 kJ/mol
# GULP energy per Si atom -5578.669846 kJ/mol
# Density = 2.568383 g / cm^3
# Si number density = 25.742422 Si / 1000 Ang^3
#
#
#
# Elastic Constant Matrix: (Units=GPa)
#
#
# Indices 1 2 3 4 5 6 
#
# 1 49.6504 11.5529 57.2497 0.0000 0.0000 0.0000
# 2 11.5529 105.8762 61.0405 0.0000 0.0000 0.0000
# 3 57.2497 61.0405 377.8352 0.0000 0.0000 0.0000
# 4 0.0000 0.0000 0.0000 18.4295 0.0000 0.0000
# 5 0.0000 0.0000 0.0000 0.0000 31.1855 0.0000
# 6 0.0000 0.0000 0.0000 0.0000 0.0000 34.3278
#
#
#
# Elastic Compliance Matrix: (Units=1/GPa)
#
#
# Indices 1 2 3 4 5 6 
#
# 1 0.024438 -0.000586 -0.003608 0.000000 0.000000 0.000000
# 2 -0.000586 0.010429 -0.001596 0.000000 0.000000 0.000000
# 3 -0.003608 -0.001596 0.003451 0.000000 0.000000 0.000000
# 4 0.000000 0.000000 0.000000 0.054261 0.000000 0.000000
# 5 0.000000 0.000000 0.000000 0.000000 0.032066 0.000000
# 6 0.000000 0.000000 0.000000 0.000000 0.000000 0.029131
#
#
# Mechanical properties :
#
#
# Convention : Reuss Voigt Hill
#
# Bulk Modulus (GPa) = 37.40148 88.11646 62.75897
# Shear Modulus (GPa) = 28.69125 43.68980 36.19052
#
# Velocity S-wave (km/s) = 3.34211 4.12417 3.75356
# Velocity P-wave (km/s) = 5.42712 7.54869 6.57405
#
# Compressibility (1/GPa) = 0.02673691
#
# Stress axis : x y z
#
# Youngs Moduli (GPa) = 40.92061 95.88539 289.75522
#
# Poissons Ratio (x) = 0.05623 1.04545
# Poissons Ratio (y) = 0.02400 0.46245
# Poissons Ratio (z) = 0.14764 0.15303
#
# Static dielectric constant tensor:
#      x y z
#    x 1.995450 0.000000 0.000000 
#    y 0.000000 2.091830 0.000000 
#    z 0.000000 0.000000 2.239930 
# 
# From -- ./inp_files/11286.got.cif
#   From: 2010.05.17/outbox.cif.g08.bks.cpg/sg57_6_cif.got.tgz:11286.got - 2010.06.03 13:58:18.
