data_PCOD9438807
_publ_section_title
;
Structure prediction by ZEFSAII (Michael W. Deem and Ramdas Pophale) SiO2 
 PCOD9438807
Probable space group: P B C M
;
_chemical_formula_sum "Si O2"
_cell_formula_units_Z 40
_cell_length_a 24.972336
_cell_length_b 8.609571
_cell_length_c 9.319692
_cell_angle_alpha 90.000000
_cell_angle_beta 90.000000
_cell_angle_gamma 90.000000
_cell_volume 2003.744030
_symmetry_space_group_name_H-M "P B C M"
_symmetry_group_IT_number 57
_symmetry_cell_setting 'orthorhombic'
loop_
_space_group_symop_operation_xyz
x,y,z
-x,-y,1/2+z
x,1/2-y,-z
-x,1/2+y,1/2-z
-x,-y,-z
x,y,1/2-z
-x,1/2+y,z
x,1/2-y,1/2+z
loop_
_atom_site_type_symbol
_atom_site_label
_atom_site_fract_x
_atom_site_fract_y
_atom_site_fract_z
Si Si1 0.960476 0.434945 0.750000
Si Si2 0.880429 0.566803 0.976577
Si Si3 0.227904 0.906139 0.911723
Si Si4 0.448943 0.920480 0.426374
Si Si5 0.655548 0.419829 0.924000
Si Si6 0.075109 0.921550 0.250000
O O1 0.930951 0.516440 0.881854
O O2 0.946048 0.253597 0.750000
O O3 0.023207 0.466854 0.750000
O O4 0.822954 0.517952 0.916450
O O5 0.882426 0.750000 0.000000
O O6 0.888749 0.464006 0.116483
O O7 0.235483 0.850301 0.750000
O O8 0.284776 0.986376 0.948937
O O9 0.217881 0.750000 0.000000
O O10 0.448967 0.750000 0.500000
O O11 0.450218 0.917561 0.250000
O O12 0.393986 0.995073 0.489956
O O13 0.500000 0.000000 0.500000
O O14 0.644980 0.411043 0.750000
O O15 0.660421 0.250000 0.000000
#
# Coordination Sequence:
#
# PCOD9438807 Si02
#       6
#     4   8   8   8   8   4
#     4  12  24  46  66  90 126 152 211 246 309 372
#     4  12  25  42  62  91 126 162 200 251 311 371
#     4  10  21  38  62  89 119 156 202 254 305 371
#     4  11  21  36  58  87 123 164 210 261 315 374
#     4   9  17  32  55  84 116 154 201 253 305 363
#     4  12  26  42  68  94 118 166 197 256 303 370
#
# _framework density 19.962629
#
# number of rings (size 3 to 8) (size 9 to 14) (size 15 to 20)
#    0.000    1.200    1.000    7.800    1.400    0.800 
#    0.000    1.000    0.000    2.400    0.000    0.000 
#    0.000    0.000    0.000    0.000    0.000    0.000 
#
# Total GULP energy -222998.042392 kJ/mol
# GULP energy per Si atom -5574.951060 kJ/mol
# Density = 1.991719 g / cm^3
# Si number density = 19.962629 Si / 1000 Ang^3
#
#
#
# Elastic Constant Matrix: (Units=GPa)
#
#
# Indices 1 2 3 4 5 6 
#
# 1 128.7471 11.2428 31.5532 0.0000 0.0000 0.0000
# 2 11.2428 74.8309 7.8559 0.0000 0.0000 0.0000
# 3 31.5532 7.8559 128.5009 0.0000 0.0000 0.0000
# 4 0.0000 0.0000 0.0000 14.2097 0.0000 0.0000
# 5 0.0000 0.0000 0.0000 0.0000 35.3653 0.0000
# 6 0.0000 0.0000 0.0000 0.0000 0.0000 40.8689
#
#
#
# Elastic Compliance Matrix: (Units=1/GPa)
#
#
# Indices 1 2 3 4 5 6 
#
# 1 0.008345 -0.001045 -0.001985 0.000000 0.000000 0.000000
# 2 -0.001045 0.013581 -0.000574 0.000000 0.000000 0.000000
# 3 -0.001985 -0.000574 0.008305 0.000000 0.000000 0.000000
# 4 0.000000 0.000000 0.000000 0.070375 0.000000 0.000000
# 5 0.000000 0.000000 0.000000 0.000000 0.028276 0.000000
# 6 0.000000 0.000000 0.000000 0.000000 0.000000 0.024469
#
#
# Mechanical properties :
#
#
# Convention : Reuss Voigt Hill
#
# Bulk Modulus (GPa) = 43.43667 48.15367 45.79517
# Shear Modulus (GPa) = 29.72088 36.85058 33.28573
#
# Velocity S-wave (km/s) = 3.86272 4.30115 4.08781
# Velocity P-wave (km/s) = 6.45758 6.98862 6.72834
#
# Compressibility (1/GPa) = 0.02302202
#
# Stress axis : x y z
#
# Youngs Moduli (GPa) = 119.83257 73.63374 120.41563
#
# Poissons Ratio (x) = 0.07697 0.23905
# Poissons Ratio (y) = 0.12527 0.06907
# Poissons Ratio (z) = 0.23789 0.04223
#
# Static dielectric constant tensor:
#      x y z
#    x 1.760040 0.000000 0.000000 
#    y 0.000000 1.690970 0.000000 
#    z 0.000000 0.000000 1.714540 
# 
# From -- ./inp_files/8947.got.cif
#   From: 2010.05.17/outbox.cif.g08.bks.cpg/sg57_5_cif.got.tgz:8947.got - 2010.06.03 13:58:18.
