data_PCOD9438146
_publ_section_title
;
Structure prediction by ZEFSAII (Michael W. Deem and Ramdas Pophale) SiO2 
 PCOD9438146
Probable space group: P B C M
;
_chemical_formula_sum "Si O2"
_cell_formula_units_Z 56
_cell_length_a 19.066260
_cell_length_b 8.782629
_cell_length_c 16.421053
_cell_angle_alpha 90.000000
_cell_angle_beta 90.000000
_cell_angle_gamma 90.000000
_cell_volume 2749.736328
_symmetry_space_group_name_H-M "P B C M"
_symmetry_group_IT_number 57
_symmetry_cell_setting 'orthorhombic'
loop_
_space_group_symop_operation_xyz
x,y,z
-x,-y,1/2+z
x,1/2-y,-z
-x,1/2+y,1/2-z
-x,-y,-z
x,y,1/2-z
-x,1/2+y,z
x,1/2-y,1/2+z
loop_
_atom_site_type_symbol
_atom_site_label
_atom_site_fract_x
_atom_site_fract_y
_atom_site_fract_z
Si Si1 0.532803 0.872531 0.059088
Si Si2 0.268576 0.614436 0.341443
Si Si3 0.937027 0.860606 0.430680
Si Si4 0.574642 0.343793 0.844032
Si Si5 0.192497 0.920116 0.341102
Si Si6 0.042178 0.065945 0.159532
Si Si7 0.780132 0.923307 0.491180
O O1 0.473547 0.771245 0.104371
O O2 0.571098 0.981318 0.123812
O O3 0.571308 0.750000 0.000000
O O4 0.500000 0.000000 0.000000
O O5 0.266730 0.544688 0.250000
O O6 0.343507 0.698577 0.348896
O O7 0.208501 0.741716 0.346033
O O8 0.259303 0.504637 0.417576
O O9 0.968277 0.750000 0.500000
O O10 0.930796 0.736259 0.358772
O O11 0.862497 0.917078 0.464520
O O12 0.985509 0.996272 0.401387
O O13 0.552143 0.339026 0.750000
O O14 0.217023 0.970766 0.250000
O O15 0.110399 0.958898 0.344814
O O16 0.225843 0.997128 0.420922
O O17 0.011992 0.062048 0.250000
O O18 0.757226 0.750000 0.500000
#
# Coordination Sequence:
#
# PCOD9438146 Si02
#       7
#     8   8   8   8   8   8   8
#     4   9  19  34  59  91 126 160 201 247 295 354
#     4  10  24  41  64  91 122 163 212 255 303 372
#     4  11  23  39  58  85 115 150 198 249 311 373
#     4  10  20  39  62  92 125 163 204 250 304 359
#     4  10  22  41  60  87 120 158 205 252 306 375
#     4  11  23  39  60  86 115 151 197 251 311 372
#     4  11  23  41  62  87 119 163 201 257 317 362
#
# _framework density 20.365589
#
# number of rings (size 3 to 8) (size 9 to 14) (size 15 to 20)
#    0.000    1.714    2.857    1.714    2.000    5.714 
#    0.000    1.429    0.000    6.857    0.000    0.000 
#    0.000    0.000    0.000    0.000    0.000    0.000 
#
# Total GULP energy -312230.697215 kJ/mol
# GULP energy per Si atom -5575.548165 kJ/mol
# Density = 2.031924 g / cm^3
# Si number density = 20.365589 Si / 1000 Ang^3
#
#
#
# Elastic Constant Matrix: (Units=GPa)
#
#
# Indices 1 2 3 4 5 6 
#
# 1 34.2093 26.5492 28.6886 0.0000 0.0000 0.0000
# 2 26.5492 71.1166 36.0376 0.0000 0.0000 0.0000
# 3 28.6886 36.0376 148.4839 0.0000 0.0000 0.0000
# 4 0.0000 0.0000 0.0000 35.4252 0.0000 0.0000
# 5 0.0000 0.0000 0.0000 0.0000 40.8250 0.0000
# 6 0.0000 0.0000 0.0000 0.0000 0.0000 16.6190
#
#
#
# Elastic Compliance Matrix: (Units=1/GPa)
#
#
# Indices 1 2 3 4 5 6 
#
# 1 0.044414 -0.013947 -0.005196 0.000000 0.000000 0.000000
# 2 -0.013947 0.020413 -0.002260 0.000000 0.000000 0.000000
# 3 -0.005196 -0.002260 0.008287 0.000000 0.000000 0.000000
# 4 0.000000 0.000000 0.000000 0.028229 0.000000 0.000000
# 5 0.000000 0.000000 0.000000 0.000000 0.024495 0.000000
# 6 0.000000 0.000000 0.000000 0.000000 0.000000 0.060172
#
#
# Mechanical properties :
#
#
# Convention : Reuss Voigt Hill
#
# Bulk Modulus (GPa) = 32.99474 48.48451 40.73963
# Shear Modulus (GPa) = 20.92765 29.40947 25.16856
#
# Velocity S-wave (km/s) = 3.20910 3.80422 3.51926
# Velocity P-wave (km/s) = 5.47425 6.56924 6.04658
#
# Compressibility (1/GPa) = 0.03030786
#
# Stress axis : x y z
#
# Youngs Moduli (GPa) = 22.51553 48.98763 120.66973
#
# Poissons Ratio (x) = 0.68325 0.62701
# Poissons Ratio (y) = 0.31404 0.27266
# Poissons Ratio (z) = 0.11699 0.11069
#
# Static dielectric constant tensor:
#      x y z
#    x 1.707600 0.000000 0.000000 
#    y 0.000000 1.753730 0.000000 
#    z 0.000000 0.000000 1.793530 
# 
# From -- ./inp_files/19342.got.cif
#   From: 2010.05.17/outbox.cif.g08.bks.cpg/sg57_10_cif.got.tgz:19342.got - 2010.06.03 13:58:18.
