data_PCOD9438037
_publ_section_title
;
Structure prediction by ZEFSAII (Michael W. Deem and Ramdas Pophale) SiO2 
 PCOD9438037
Probable space group: P B C M
;
_chemical_formula_sum "Si O2"
_cell_formula_units_Z 40
_cell_length_a 7.187126
_cell_length_b 17.422909
_cell_length_c 14.417730
_cell_angle_alpha 90.000000
_cell_angle_beta 90.000000
_cell_angle_gamma 90.000000
_cell_volume 1805.397411
_symmetry_space_group_name_H-M "P B C M"
_symmetry_group_IT_number 57
_symmetry_cell_setting 'orthorhombic'
loop_
_space_group_symop_operation_xyz
x,y,z
-x,-y,1/2+z
x,1/2-y,-z
-x,1/2+y,1/2-z
-x,-y,-z
x,y,1/2-z
-x,1/2+y,z
x,1/2-y,1/2+z
loop_
_atom_site_type_symbol
_atom_site_label
_atom_site_fract_x
_atom_site_fract_y
_atom_site_fract_z
Si Si1 0.092965 0.215414 0.857888
Si Si2 0.361614 0.090629 0.557128
Si Si3 0.887061 0.455975 0.919206
Si Si4 0.716860 0.173942 0.541396
Si Si5 0.755601 0.888598 0.851574
O O1 0.097850 0.194378 0.750000
O O2 0.883666 0.205022 0.895228
O O3 0.177796 0.300534 0.865937
O O4 0.218155 0.156885 0.915234
O O5 0.564777 0.118634 0.587332
O O6 0.354907 0.085759 0.444105
O O7 0.280842 0.013512 0.602682
O O8 0.051432 0.436258 0.849440
O O9 0.807343 0.377496 0.960791
O O10 0.000000 0.500000 0.000000
O O11 0.620518 0.250000 0.500000
O O12 0.662723 0.894556 0.750000
#
# Coordination Sequence:
#
# PCOD9438037 Si02
#       5
#     8   8   8   8   8
#     4  11  22  39  63  90 125 164 212 258 304 370
#     4  11  23  40  63  94 126 163 205 263 315 367
#     4  10  20  38  62  89 123 162 202 255 310 367
#     4  12  21  39  67  89 123 165 209 254 317 372
#     4  10  20  39  64  90 124 168 208 251 310 372
#
# _framework density 22.155787
#
# number of rings (size 3 to 8) (size 9 to 14) (size 15 to 20)
#    0.000    1.200    6.000    2.400    0.000    1.600 
#    0.000    2.000    0.000    2.400    0.000    0.000 
#    0.000    0.000    0.000    0.000    0.000    0.000 
#
# Total GULP energy -223393.469036 kJ/mol
# GULP energy per Si atom -5584.836726 kJ/mol
# Density = 2.210536 g / cm^3
# Si number density = 22.155787 Si / 1000 Ang^3
#
#
#
# Elastic Constant Matrix: (Units=GPa)
#
#
# Indices 1 2 3 4 5 6 
#
# 1 60.8371 -6.0451 -12.2731 0.0000 0.0000 0.0000
# 2 -6.0451 64.3500 1.8839 0.0000 0.0000 0.0000
# 3 -12.2731 1.8839 62.0255 0.0000 0.0000 0.0000
# 4 0.0000 0.0000 0.0000 5.3284 0.0000 0.0000
# 5 0.0000 0.0000 0.0000 0.0000 8.0447 0.0000
# 6 0.0000 0.0000 0.0000 0.0000 0.0000 24.4050
#
#
#
# Elastic Compliance Matrix: (Units=1/GPa)
#
#
# Indices 1 2 3 4 5 6 
#
# 1 0.017269 0.001524 0.003371 0.000000 0.000000 0.000000
# 2 0.001524 0.015688 -0.000175 0.000000 0.000000 0.000000
# 3 0.003371 -0.000175 0.016795 0.000000 0.000000 0.000000
# 4 0.000000 0.000000 0.000000 0.187675 0.000000 0.000000
# 5 0.000000 0.000000 0.000000 0.000000 0.124306 0.000000
# 6 0.000000 0.000000 0.000000 0.000000 0.000000 0.040975
#
#
# Mechanical properties :
#
#
# Convention : Reuss Voigt Hill
#
# Bulk Modulus (GPa) = 16.89467 17.14931 17.02199
# Shear Modulus (GPa) = 12.10655 21.13206 16.61931
#
# Velocity S-wave (km/s) = 2.34012 3.09171 2.74179
# Velocity P-wave (km/s) = 3.86568 4.52791 4.20984
#
# Compressibility (1/GPa) = 0.05919026
#
# Stress axis : x y z
#
# Youngs Moduli (GPa) = 57.90811 63.74188 59.54259
#
# Poissons Ratio (x) = -0.09711 -0.20070
# Poissons Ratio (y) = -0.08823 0.01042
# Poissons Ratio (z) = -0.19519 0.01116
#
# Static dielectric constant tensor:
#      x y z
#    x 1.846450 0.000000 0.000000 
#    y 0.000000 1.868950 0.000000 
#    z 0.000000 0.000000 1.808560 
# 
# From -- ./inp_files/16111.got.cif
#   From: 2010.05.17/outbox.cif.g08.bks.cpg/sg57_9_cif.got.tgz:16111.got - 2010.06.03 13:58:18.
