data_PCOD9438185
_publ_section_title
;
Structure prediction by ZEFSAII (Michael W. Deem and Ramdas Pophale) SiO2 
 PCOD9438185
Probable space group: P B C M
;
_chemical_formula_sum "Si O2"
_cell_formula_units_Z 40
_cell_length_a 6.706968
_cell_length_b 22.569260
_cell_length_c 13.503427
_cell_angle_alpha 90.000000
_cell_angle_beta 90.000000
_cell_angle_gamma 90.000000
_cell_volume 2044.031362
_symmetry_space_group_name_H-M "P B C M"
_symmetry_group_IT_number 57
_symmetry_cell_setting 'orthorhombic'
loop_
_space_group_symop_operation_xyz
x,y,z
-x,-y,1/2+z
x,1/2-y,-z
-x,1/2+y,1/2-z
-x,-y,-z
x,y,1/2-z
-x,1/2+y,z
x,1/2-y,1/2+z
loop_
_atom_site_type_symbol
_atom_site_label
_atom_site_fract_x
_atom_site_fract_y
_atom_site_fract_z
Si Si1 0.246766 0.679308 0.866191
Si Si2 0.694466 0.536182 0.468840
Si Si3 0.385084 0.167116 0.008520
Si Si4 0.027754 0.551971 0.637535
Si Si5 0.160037 0.233620 0.635075
O O1 0.319220 0.684440 0.750000
O O2 0.406184 0.681925 0.954996
O O3 0.144109 0.614481 0.873733
O O4 0.077583 0.729840 0.879793
O O5 0.500000 0.500000 0.500000
O O6 0.624378 0.602642 0.444517
O O7 0.812699 0.500074 0.385268
O O8 0.849774 0.542685 0.559836
O O9 0.240309 0.173453 0.913676
O O10 0.285736 0.214113 0.083746
O O11 0.954316 0.548687 0.750000
O O12 0.197563 0.234828 0.750000
#
# Coordination Sequence:
#
# PCOD9438185 Si02
#       5
#     8   8   8   8   8
#     4  10  20  39  66  94 122 160 213 262 307 372
#     4  11  22  39  63  95 131 161 208 264 320 375
#     4  11  22  38  65  93 127 163 209 266 315 371
#     4  10  22  39  63  93 127 164 208 257 310 376
#     4  10  23  41  61  89 127 168 210 256 311 374
#
# _framework density 19.569171999999998
#
# number of rings (size 3 to 8) (size 9 to 14) (size 15 to 20)
#    0.000    1.600    4.000    0.600    0.000    5.600 
#    0.000    0.000    0.000    1.200    0.000    0.000 
#    0.000    0.000    0.000    0.000    0.000    0.000 
#
# Total GULP energy -222897.711905 kJ/mol
# GULP energy per Si atom -5572.442798 kJ/mol
# Density = 1.952463 g / cm^3
# Si number density = 19.569172 Si / 1000 Ang^3
#
#
#
# Elastic Constant Matrix: (Units=GPa)
#
#
# Indices 1 2 3 4 5 6 
#
# 1 54.1106 12.0372 4.4940 0.0000 0.0000 0.0000
# 2 12.0372 107.7752 10.2712 0.0000 0.0000 0.0000
# 3 4.4940 10.2712 77.1679 0.0000 0.0000 0.0000
# 4 0.0000 0.0000 0.0000 24.6358 0.0000 0.0000
# 5 0.0000 0.0000 0.0000 0.0000 29.1969 0.0000
# 6 0.0000 0.0000 0.0000 0.0000 0.0000 31.1142
#
#
#
# Elastic Compliance Matrix: (Units=1/GPa)
#
#
# Indices 1 2 3 4 5 6 
#
# 1 0.019004 -0.002043 -0.000835 0.000000 0.000000 0.000000
# 2 -0.002043 0.009617 -0.001161 0.000000 0.000000 0.000000
# 3 -0.000835 -0.001161 0.013162 0.000000 0.000000 0.000000
# 4 0.000000 0.000000 0.000000 0.040591 0.000000 0.000000
# 5 0.000000 0.000000 0.000000 0.000000 0.034250 0.000000
# 6 0.000000 0.000000 0.000000 0.000000 0.000000 0.032140
#
#
# Mechanical properties :
#
#
# Convention : Reuss Voigt Hill
#
# Bulk Modulus (GPa) = 29.66839 32.51760 31.09299
# Shear Modulus (GPa) = 29.74806 31.13947 30.44377
#
# Velocity S-wave (km/s) = 3.90314 3.99338 3.94852
# Velocity P-wave (km/s) = 5.95872 6.15756 6.05896
#
# Compressibility (1/GPa) = 0.03370591
#
# Stress axis : x y z
#
# Youngs Moduli (GPa) = 52.61914 103.97805 75.97672
#
# Poissons Ratio (x) = 0.21243 0.06343
# Poissons Ratio (y) = 0.10750 0.08822
# Poissons Ratio (z) = 0.04393 0.12073
#
# Static dielectric constant tensor:
#      x y z
#    x 1.744970 0.000000 0.000000 
#    y 0.000000 1.721350 0.000000 
#    z 0.000000 0.000000 1.667050 
# 
# From -- ./inp_files/14950.got.cif
#   From: 2010.05.17/outbox.cif.g08.bks.cpg/sg57_8_cif.got.tgz:14950.got - 2010.06.03 13:58:18.
