data_PCOD9438101
_publ_section_title
;
Structure prediction by ZEFSAII (Michael W. Deem and Ramdas Pophale) SiO2 
 PCOD9438101
Probable space group: P B C M
;
_chemical_formula_sum "Si O2"
_cell_formula_units_Z 64
_cell_length_a 15.291673
_cell_length_b 14.095013
_cell_length_c 14.513475
_cell_angle_alpha 90.000000
_cell_angle_beta 90.000000
_cell_angle_gamma 90.000000
_cell_volume 3128.181133
_symmetry_space_group_name_H-M "P B C M"
_symmetry_group_IT_number 57
_symmetry_cell_setting 'orthorhombic'
loop_
_space_group_symop_operation_xyz
x,y,z
-x,-y,1/2+z
x,1/2-y,-z
-x,1/2+y,1/2-z
-x,-y,-z
x,y,1/2-z
-x,1/2+y,z
x,1/2-y,1/2+z
loop_
_atom_site_type_symbol
_atom_site_label
_atom_site_fract_x
_atom_site_fract_y
_atom_site_fract_z
Si Si1 0.924760 0.153516 0.362042
Si Si2 0.740844 0.862418 0.991518
Si Si3 0.143438 0.644434 0.861897
Si Si4 0.399726 0.843714 0.641703
Si Si5 0.759831 0.021543 0.361728
Si Si6 0.342489 0.860145 0.140072
Si Si7 0.893293 0.935646 0.638567
Si Si8 0.563031 0.548034 0.425880
O O1 0.926606 0.154240 0.250000
O O2 0.901287 0.259198 0.393273
O O3 0.019959 0.119424 0.391726
O O4 0.846237 0.081974 0.385785
O O5 0.807645 0.898771 0.913252
O O6 0.641822 0.889248 0.964610
O O7 0.750531 0.750000 0.000000
O O8 0.760398 0.922487 0.084210
O O9 0.146593 0.649253 0.750000
O O10 0.243254 0.638183 0.895929
O O11 0.095772 0.546816 0.884344
O O12 0.380872 0.838895 0.750000
O O13 0.388731 0.736310 0.605841
O O14 0.495822 0.886178 0.629706
O O15 0.324783 0.916289 0.606653
O O16 0.756695 0.009026 0.250000
O O17 0.336142 0.852709 0.250000
O O18 0.392556 0.957412 0.121932
O O19 0.882760 0.927394 0.750000
O O20 0.500000 0.500000 0.500000
#
# Coordination Sequence:
#
# PCOD9438101 Si02
#       8
#     8   8   8   8   8   8   8   8
#     4   9  18  36  68 101 129 165 212 266 322 383
#     4  12  28  45  61  91 133 172 216 264 315 392
#     4   9  16  33  62  95 127 162 212 264 310 373
#     4  10  21  38  65  95 124 164 215 269 329 389
#     4  10  21  43  67  93 127 166 213 270 326 379
#     4  10  20  38  66  95 123 163 216 270 317 380
#     4  10  22  41  66  96 133 172 210 260 325 387
#     4  12  25  40  60  89 128 167 210 268 324 385
#
# _framework density 20.459171999999999
#
# number of rings (size 3 to 8) (size 9 to 14) (size 15 to 20)
#    0.000    1.750    3.750    0.375    1.750    2.500 
#    0.000    4.375    0.000    0.000    0.000    0.000 
#    0.000    0.000    0.000    0.000    0.000    0.000 
#
# Total GULP energy -357536.316705 kJ/mol
# GULP energy per Si atom -5586.504949 kJ/mol
# Density = 2.041261 g / cm^3
# Si number density = 20.459172 Si / 1000 Ang^3
#
#
#
# Elastic Constant Matrix: (Units=GPa)
#
#
# Indices 1 2 3 4 5 6 
#
# 1 132.0879 58.1796 20.9963 0.0000 0.0000 0.0000
# 2 58.1796 164.3747 21.2274 0.0000 0.0000 0.0000
# 3 20.9963 21.2274 52.5605 0.0000 0.0000 0.0000
# 4 0.0000 0.0000 0.0000 -5.2959 0.0000 0.0000
# 5 0.0000 0.0000 0.0000 0.0000 23.8317 0.0000
# 6 0.0000 0.0000 0.0000 0.0000 0.0000 37.9500
#
#
#
# Elastic Compliance Matrix: (Units=1/GPa)
#
#
# Indices 1 2 3 4 5 6 
#
# 1 0.009272 -0.002958 -0.002509 0.000000 0.000000 0.000000
# 2 -0.002958 0.007362 -0.001792 0.000000 0.000000 0.000000
# 3 -0.002509 -0.001792 0.020752 0.000000 0.000000 0.000000
# 4 0.000000 0.000000 0.000000 -0.188825 0.000000 0.000000
# 5 0.000000 0.000000 0.000000 0.000000 0.041961 0.000000
# 6 0.000000 0.000000 0.000000 0.000000 0.000000 0.026350
#
#
# Mechanical properties :
#
#
# Convention : Reuss Voigt Hill
#
# Bulk Modulus (GPa) = 43.72899 61.09220 52.41059
# Shear Modulus (GPa) = -81.98450 27.87182 -27.05634
#
# Velocity S-wave (km/s) = -6.33713 3.69496 -3.64050
# Velocity P-wave (km/s) = 5.66793 6.93751 2.82874
#
# Compressibility (1/GPa) = 0.02286812
#
# Stress axis : x y z
#
# Youngs Moduli (GPa) = 107.84648 135.83336 48.18874
#
# Poissons Ratio (x) = 0.40178 0.12093
# Poissons Ratio (y) = 0.31899 0.08634
# Poissons Ratio (z) = 0.27064 0.24337
#
# Static dielectric constant tensor:
#      x y z
#    x 1.740940 0.000000 0.000000 
#    y 0.000000 1.770070 0.000000 
#    z 0.000000 0.000000 1.777760 
# 
# From -- ./inp_files/22657.got.cif
#   From: 2010.05.17/outbox.cif.g08.bks.cpg/sg57_12_cif.got.tgz:22657.got - 2010.06.03 13:58:18.
