data_PCOD9438528
_publ_section_title
;
Structure prediction by ZEFSAII (Michael W. Deem and Ramdas Pophale) SiO2 
 PCOD9438528
Probable space group: P B C M
;
_chemical_formula_sum "Si O2"
_cell_formula_units_Z 64
_cell_length_a 14.701951
_cell_length_b 26.233182
_cell_length_c 8.742424
_cell_angle_alpha 90.000000
_cell_angle_beta 90.000000
_cell_angle_gamma 90.000000
_cell_volume 3371.768964
_symmetry_space_group_name_H-M "P B C M"
_symmetry_group_IT_number 57
_symmetry_cell_setting 'orthorhombic'
loop_
_space_group_symop_operation_xyz
x,y,z
-x,-y,1/2+z
x,1/2-y,-z
-x,1/2+y,1/2-z
-x,-y,-z
x,y,1/2-z
-x,1/2+y,z
x,1/2-y,1/2+z
loop_
_atom_site_type_symbol
_atom_site_label
_atom_site_fract_x
_atom_site_fract_y
_atom_site_fract_z
Si Si1 0.737391 0.305564 0.433921
Si Si2 0.710358 0.503649 0.934511
Si Si3 0.085914 0.306185 0.566691
Si Si4 0.918310 0.135203 0.933484
Si Si5 0.091970 0.976761 0.933214
Si Si6 0.296287 0.305830 0.932739
Si Si7 0.618419 0.097609 0.934872
Si Si8 0.592537 0.600912 0.934856
O O1 0.718469 0.250000 0.500000
O O2 0.733806 0.302522 0.250000
O O3 0.838243 0.325369 0.476652
O O4 0.667377 0.349870 0.482931
O O5 0.706088 0.501529 0.750000
O O6 0.816596 0.507252 0.977985
O O7 0.650443 0.551691 0.985791
O O8 0.669809 0.451301 0.999087
O O9 0.067183 0.250000 0.500000
O O10 0.076353 0.305436 0.750000
O O11 0.190868 0.318493 0.528440
O O12 0.014347 0.344738 0.494269
O O13 0.919766 0.130882 0.750000
O O14 0.897197 0.080478 0.005046
O O15 0.086018 0.976188 0.750000
O O16 0.000000 0.000000 0.000000
O O17 0.303735 0.303949 0.750000
O O18 0.315861 0.250000 0.000000
O O19 0.361805 0.348451 0.999969
O O20 0.623433 0.095187 0.750000
O O21 0.512794 0.096553 0.980633
O O22 0.595666 0.602916 0.750000
#
# Coordination Sequence:
#
# PCOD9438528 Si02
#       8
#     8   8   8   8   8   8   8   8
#     4  10  22  38  58  86 118 157 200 244 300 359
#     4  10  22  40  62  90 120 156 199 247 300 355
#     4  10  21  37  57  85 116 152 196 241 291 350
#     4  11  22  38  60  85 117 157 198 245 299 356
#     4  11  24  40  59  88 123 159 198 244 301 360
#     4  10  22  40  61  87 120 158 197 244 300 354
#     4  10  21  40  62  87 120 157 198 250 305 356
#     4  10  22  39  62  90 120 155 200 250 300 358
#
# _framework density 18.981134999999998
#
# number of rings (size 3 to 8) (size 9 to 14) (size 15 to 20)
#    0.000    1.750    1.250    2.250    1.750    6.000 
#    0.000    1.250    0.000    0.000    0.000    0.000 
#    0.000    0.000    0.000    0.000    0.000    0.000 
#
# Total GULP energy -357645.637740 kJ/mol
# GULP energy per Si atom -5588.213090 kJ/mol
# Density = 1.893793 g / cm^3
# Si number density = 18.981135 Si / 1000 Ang^3
#
#
#
# Elastic Constant Matrix: (Units=GPa)
#
#
# Indices 1 2 3 4 5 6 
#
# 1 148.6352 82.7170 39.4776 0.0000 0.0000 0.0000
# 2 82.7170 120.8719 24.4206 0.0000 0.0000 0.0000
# 3 39.4776 24.4206 26.1179 0.0000 0.0000 0.0000
# 4 0.0000 0.0000 0.0000 37.4180 0.0000 0.0000
# 5 0.0000 0.0000 0.0000 0.0000 17.4775 0.0000
# 6 0.0000 0.0000 0.0000 0.0000 0.0000 15.2961
#
#
#
# Elastic Compliance Matrix: (Units=1/GPa)
#
#
# Indices 1 2 3 4 5 6 
#
# 1 0.014801 -0.006915 -0.015906 0.000000 0.000000 0.000000
# 2 -0.006915 0.013431 -0.002106 0.000000 0.000000 0.000000
# 3 -0.015906 -0.002106 0.064299 0.000000 0.000000 0.000000
# 4 0.000000 0.000000 0.000000 0.026725 0.000000 0.000000
# 5 0.000000 0.000000 0.000000 0.000000 0.057216 0.000000
# 6 0.000000 0.000000 0.000000 0.000000 0.000000 0.065376
#
#
# Mechanical properties :
#
#
# Convention : Reuss Voigt Hill
#
# Bulk Modulus (GPa) = 23.43184 65.42841 44.43012
# Shear Modulus (GPa) = 16.34372 23.97230 20.15801
#
# Velocity S-wave (km/s) = 2.93755 3.55766 3.26237
# Velocity P-wave (km/s) = 4.88643 7.17084 6.13589
#
# Compressibility (1/GPa) = 0.04267697
#
# Stress axis : x y z
#
# Youngs Moduli (GPa) = 67.56344 74.45479 15.55236
#
# Poissons Ratio (x) = 0.51487 0.24738
# Poissons Ratio (y) = 0.46721 0.03275
# Poissons Ratio (z) = 1.07466 0.15678
#
# Static dielectric constant tensor:
#      x y z
#    x 1.663460 0.000000 0.000000 
#    y 0.000000 1.523250 0.000000 
#    z 0.000000 0.000000 1.638740 
# 
# From -- ./inp_files/5652.got.cif
#   From: 2010.05.17/outbox.cif.g08.bks.cpg/sg57_3_cif.got.tgz:5652.got - 2010.06.03 13:58:18.
