data_PCOD9438264
_publ_section_title
;
Structure prediction by ZEFSAII (Michael W. Deem and Ramdas Pophale) SiO2 
 PCOD9438264
Probable space group: P B C M
;
_chemical_formula_sum "Si O2"
_cell_formula_units_Z 56
_cell_length_a 5.548220
_cell_length_b 14.018720
_cell_length_c 31.356959
_cell_angle_alpha 90.000000
_cell_angle_beta 90.000000
_cell_angle_gamma 90.000000
_cell_volume 2438.911117
_symmetry_space_group_name_H-M "P B C M"
_symmetry_group_IT_number 57
_symmetry_cell_setting 'orthorhombic'
loop_
_space_group_symop_operation_xyz
x,y,z
-x,-y,1/2+z
x,1/2-y,-z
-x,1/2+y,1/2-z
-x,-y,-z
x,y,1/2-z
-x,1/2+y,z
x,1/2-y,1/2+z
loop_
_atom_site_type_symbol
_atom_site_label
_atom_site_fract_x
_atom_site_fract_y
_atom_site_fract_z
Si Si1 0.222285 0.163255 0.657087
Si Si2 0.364967 0.614962 0.950528
Si Si3 0.478995 0.799371 0.907106
Si Si4 0.611956 0.703183 0.750000
Si Si5 0.936259 0.999923 0.611354
Si Si6 0.883824 0.179072 0.250000
Si Si7 0.080069 0.842538 0.660903
Si Si8 0.711941 0.045723 0.039494
O O1 0.349505 0.226427 0.619511
O O2 0.357599 0.153875 0.702888
O O3 0.997616 0.233220 0.666811
O O4 0.127284 0.064968 0.637313
O O5 0.364728 0.726000 0.941335
O O6 0.617576 0.562975 0.960863
O O7 0.264585 0.568906 0.906998
O O8 0.224553 0.586157 0.993318
O O9 0.302095 0.838491 0.870740
O O10 0.503568 0.892049 0.937911
O O11 0.345573 0.749507 0.750000
O O12 0.842434 0.777035 0.750000
O O13 0.873670 0.910047 0.640922
O O14 0.062688 0.953693 0.570419
O O15 0.858241 0.119176 0.207145
#
# Coordination Sequence:
#
# PCOD9438264 Si02
#       8
#     8   8   8   4   8   4   8   8
#     4  11  21  39  61  90 122 164 206 265 323 393
#     4  11  21  39  59  84 125 157 209 266 319 382
#     4  11  20  37  61  85 117 161 207 251 325 387
#     4  10  22  37  68  93 131 167 214 263 330 385
#     4  11  22  38  61  88 119 162 213 258 322 387
#     4  10  20  41  62  97 127 173 206 273 320 391
#     4  10  22  38  62  85 123 161 209 255 324 387
#     4  10  23  37  58  87 118 163 205 265 317 386
#
# _framework density 22.961065999999999
#
# number of rings (size 3 to 8) (size 9 to 14) (size 15 to 20)
#    0.000    1.429    4.286    1.714    0.000    0.571 
#    0.000    0.000    0.000    1.714    0.000    0.000 
#    0.000    0.000    0.000    0.000    0.000    0.000 
#
# Total GULP energy -311847.173645 kJ/mol
# GULP energy per Si atom -5568.699529 kJ/mol
# Density = 2.290881 g / cm^3
# Si number density = 22.961066 Si / 1000 Ang^3
#
#
#
# Elastic Constant Matrix: (Units=GPa)
#
#
# Indices 1 2 3 4 5 6 
#
# 1 45.9518 0.0258 4.6026 0.0000 0.0000 0.0000
# 2 0.0258 67.7440 16.4049 0.0000 0.0000 0.0000
# 3 4.6026 16.4049 127.0058 0.0000 0.0000 0.0000
# 4 0.0000 0.0000 0.0000 28.1329 0.0000 0.0000
# 5 0.0000 0.0000 0.0000 0.0000 27.0598 0.0000
# 6 0.0000 0.0000 0.0000 0.0000 0.0000 29.8345
#
#
#
# Elastic Compliance Matrix: (Units=1/GPa)
#
#
# Indices 1 2 3 4 5 6 
#
# 1 0.021844 0.000189 -0.000816 0.000000 0.000000 0.000000
# 2 0.000189 0.015240 -0.001975 0.000000 0.000000 0.000000
# 3 -0.000816 -0.001975 0.008158 0.000000 0.000000 0.000000
# 4 0.000000 0.000000 0.000000 0.035546 0.000000 0.000000
# 5 0.000000 0.000000 0.000000 0.000000 0.036955 0.000000
# 6 0.000000 0.000000 0.000000 0.000000 0.000000 0.033518
#
#
# Mechanical properties :
#
#
# Convention : Reuss Voigt Hill
#
# Bulk Modulus (GPa) = 24.97657 31.41869 28.19763
# Shear Modulus (GPa) = 29.44455 31.64999 30.54727
#
# Velocity S-wave (km/s) = 3.58490 3.71674 3.65141
# Velocity P-wave (km/s) = 5.29498 5.66851 5.48492
#
# Compressibility (1/GPa) = 0.04003753
#
# Stress axis : x y z
#
# Youngs Moduli (GPa) = 45.78004 65.61801 122.57346
#
# Poissons Ratio (x) = -0.01242 0.10003
# Poissons Ratio (y) = -0.00867 0.24212
# Poissons Ratio (z) = 0.03736 0.12962
#
# Static dielectric constant tensor:
#      x y z
#    x 1.954770 0.000000 0.000000 
#    y 0.000000 1.871070 0.000000 
#    z 0.000000 0.000000 1.968650 
# 
# From -- ./inp_files/29190.got.cif
#   From: 2010.05.17/outbox.cif.g08.bks.cpg/sg57_15_cif.got.tgz:29190.got - 2010.06.03 13:58:18.
