data_PCOD9438005
_publ_section_title
;
Structure prediction by ZEFSAII (Michael W. Deem and Ramdas Pophale) SiO2 
 PCOD9438005
Probable space group: P B C M
;
_chemical_formula_sum "Si O2"
_cell_formula_units_Z 48
_cell_length_a 31.320963
_cell_length_b 9.310402
_cell_length_c 8.670861
_cell_angle_alpha 90.000000
_cell_angle_beta 90.000000
_cell_angle_gamma 90.000000
_cell_volume 2528.516336
_symmetry_space_group_name_H-M "P B C M"
_symmetry_group_IT_number 57
_symmetry_cell_setting 'orthorhombic'
loop_
_space_group_symop_operation_xyz
x,y,z
-x,-y,1/2+z
x,1/2-y,-z
-x,1/2+y,1/2-z
-x,-y,-z
x,y,1/2-z
-x,1/2+y,z
x,1/2-y,1/2+z
loop_
_atom_site_type_symbol
_atom_site_label
_atom_site_fract_x
_atom_site_fract_y
_atom_site_fract_z
Si Si1 0.382727 0.909851 0.935767
Si Si2 0.203982 0.090231 0.564567
Si Si3 0.875045 0.089429 0.935132
Si Si4 0.539608 0.590165 0.434421
Si Si5 0.714905 0.408326 0.564594
Si Si6 0.039882 0.411125 0.565095
O O1 0.386413 0.909635 0.750000
O O2 0.333726 0.946848 0.978894
O O3 0.390996 0.750000 0.000000
O O4 0.416855 0.016638 0.007970
O O5 0.198949 0.250000 0.500000
O O6 0.202461 0.094175 0.750000
O O7 0.166369 0.988821 0.503175
O O8 0.249252 0.021155 0.515190
O O9 0.871812 0.095248 0.750000
O O10 0.916728 0.995587 0.976109
O O11 0.878924 0.250000 0.000000
O O12 0.536954 0.750000 0.500000
O O13 0.500000 0.500000 0.500000
O O14 0.538024 0.591511 0.250000
O O15 0.724428 0.250000 0.500000
O O16 0.716126 0.399631 0.750000
O O17 0.040349 0.250000 0.500000
O O18 0.036891 0.404881 0.750000
O O19 0.000000 0.500000 0.500000
#
# Coordination Sequence:
#
# PCOD9438005 Si02
#       6
#     8   8   8   8   8   8
#     4  10  20  38  61  88 120 155 194 239 289 344
#     4  11  23  39  59  86 119 157 198 244 294 348
#     4  11  24  41  62  89 119 155 196 243 294 350
#     4  12  25  42  62  87 117 153 194 239 290 346
#     4   9  20  37  59  86 117 153 195 239 288 344
#     4  11  24  41  63  90 122 157 197 242 293 348
#
# _framework density 18.983464000000001
#
# number of rings (size 3 to 8) (size 9 to 14) (size 15 to 20)
#    0.000    1.333    0.000    5.500    0.000    9.333 
#    0.000    1.667    0.000    0.000    0.000    0.000 
#    0.000    0.000    0.000    0.000    0.000    0.000 
#
# Total GULP energy -268481.622030 kJ/mol
# GULP energy per Si atom -5593.367126 kJ/mol
# Density = 1.894026 g / cm^3
# Si number density = 18.983464 Si / 1000 Ang^3
#
#
#
# Elastic Constant Matrix: (Units=GPa)
#
#
# Indices 1 2 3 4 5 6 
#
# 1 147.2519 119.2969 64.1543 0.0000 0.0000 0.0000
# 2 119.2969 193.3739 65.5603 0.0000 0.0000 0.0000
# 3 64.1543 65.5603 89.9839 0.0000 0.0000 0.0000
# 4 0.0000 0.0000 0.0000 39.7586 0.0000 0.0000
# 5 0.0000 0.0000 0.0000 0.0000 30.4490 0.0000
# 6 0.0000 0.0000 0.0000 0.0000 0.0000 40.0825
#
#
#
# Elastic Compliance Matrix: (Units=1/GPa)
#
#
# Indices 1 2 3 4 5 6 
#
# 1 0.015300 -0.007624 -0.005354 0.000000 0.000000 0.000000
# 2 -0.007624 0.010667 -0.002336 0.000000 0.000000 0.000000
# 3 -0.005354 -0.002336 0.016632 0.000000 0.000000 0.000000
# 4 0.000000 0.000000 0.000000 0.025152 0.000000 0.000000
# 5 0.000000 0.000000 0.000000 0.000000 0.032842 0.000000
# 6 0.000000 0.000000 0.000000 0.000000 0.000000 0.024949
#
#
# Mechanical properties :
#
#
# Convention : Reuss Voigt Hill
#
# Bulk Modulus (GPa) = 83.53099 103.18142 93.35620
# Shear Modulus (GPa) = 31.21907 34.16458 32.69182
#
# Velocity S-wave (km/s) = 4.05969 4.24689 4.15435
# Velocity P-wave (km/s) = 8.12849 8.86112 8.50270
#
# Compressibility (1/GPa) = 0.01197161
#
# Stress axis : x y z
#
# Youngs Moduli (GPa) = 65.35906 93.74969 60.12524
#
# Poissons Ratio (x) = 0.71474 0.32189
# Poissons Ratio (y) = 0.49829 0.14045
# Poissons Ratio (z) = 0.34991 0.21900
#
# Static dielectric constant tensor:
#      x y z
#    x 1.652090 0.000000 0.000000 
#    y 0.000000 1.609150 0.000000 
#    z 0.000000 0.000000 1.638220 
# 
# From -- ./inp_files/9885.got.cif
#   From: 2010.05.17/outbox.cif.g08.bks.cpg/sg57_5_cif.got.tgz:9885.got - 2010.06.03 13:58:18.
