data_PCOD9438865
_publ_section_title
;
Structure prediction by ZEFSAII (Michael W. Deem and Ramdas Pophale) SiO2 
 PCOD9438865
Probable space group: P B C M
;
_chemical_formula_sum "Si O2"
_cell_formula_units_Z 60
_cell_length_a 17.343122
_cell_length_b 8.619625
_cell_length_c 16.168276
_cell_angle_alpha 90.000000
_cell_angle_beta 90.000000
_cell_angle_gamma 90.000000
_cell_volume 2417.015110
_symmetry_space_group_name_H-M "P B C M"
_symmetry_group_IT_number 57
_symmetry_cell_setting 'orthorhombic'
loop_
_space_group_symop_operation_xyz
x,y,z
-x,-y,1/2+z
x,1/2-y,-z
-x,1/2+y,1/2-z
-x,-y,-z
x,y,1/2-z
-x,1/2+y,z
x,1/2-y,1/2+z
loop_
_atom_site_type_symbol
_atom_site_label
_atom_site_fract_x
_atom_site_fract_y
_atom_site_fract_z
Si Si1 0.107289 0.659640 0.653213
Si Si2 0.050025 0.306546 0.651873
Si Si3 0.524898 0.824255 0.409121
Si Si4 0.814159 0.593422 0.607894
Si Si5 0.753061 0.095264 0.250000
Si Si6 0.676009 0.688134 0.095652
Si Si7 0.592359 0.375523 0.839716
Si Si8 0.250757 0.603911 0.957286
O O1 0.130395 0.676612 0.750000
O O2 0.073764 0.484923 0.643047
O O3 0.182006 0.668380 0.597692
O O4 0.038254 0.773829 0.629292
O O5 0.056546 0.267341 0.750000
O O6 0.108056 0.192568 0.604407
O O7 0.516716 0.750000 0.500000
O O8 0.594347 0.728126 0.365983
O O9 0.445702 0.787210 0.363503
O O10 0.560359 0.996947 0.404638
O O11 0.812736 0.466468 0.678564
O O12 0.746506 0.715524 0.633751
O O13 0.789403 0.511710 0.523324
O O14 0.683893 0.124888 0.178056
O O15 0.694934 0.508427 0.094246
O O16 0.672132 0.750000 0.000000
O O17 0.560329 0.426550 0.750000
O O18 0.291125 0.750000 0.000000
#
# Coordination Sequence:
#
# PCOD9438865 Si02
#       8
#     8   8   8   8   4   8   8   8
#     4  10  23  43  64  94 133 171 214 270 324 389
#     4  10  21  38  66  96 125 172 217 261 322 381
#     4  11  21  40  64  97 130 172 213 273 330 394
#     4  11  20  41  68  90 122 173 224 260 317 390
#     4  10  22  40  70  92 130 170 218 268 320 390
#     4   9  19  39  65  87 123 165 216 264 317 389
#     4  10  22  39  63  96 129 165 212 264 330 394
#     4  11  25  43  60  96 130 167 216 275 327 377
#
# _framework density 24.824007999999999
#
# number of rings (size 3 to 8) (size 9 to 14) (size 15 to 20)
#    0.400    1.333    3.333    0.800    1.867    0.533 
#    3.600    0.000    0.000    0.000    0.000    0.000 
#    0.000    0.000    0.000    0.000    0.000    0.000 
#
# Total GULP energy -334773.199418 kJ/mol
# GULP energy per Si atom -5579.553324 kJ/mol
# Density = 2.476751 g / cm^3
# Si number density = 24.824008 Si / 1000 Ang^3
#
#
#
# Elastic Constant Matrix: (Units=GPa)
#
#
# Indices 1 2 3 4 5 6 
#
# 1 63.7972 8.4068 16.0507 0.0000 0.0000 0.0000
# 2 8.4068 86.3553 10.1678 0.0000 0.0000 0.0000
# 3 16.0507 10.1678 46.9535 0.0000 0.0000 0.0000
# 4 0.0000 0.0000 0.0000 4.2138 0.0000 0.0000
# 5 0.0000 0.0000 0.0000 0.0000 38.4617 0.0000
# 6 0.0000 0.0000 0.0000 0.0000 0.0000 -2.5619
#
#
#
# Elastic Compliance Matrix: (Units=1/GPa)
#
#
# Indices 1 2 3 4 5 6 
#
# 1 0.017235 -0.001010 -0.005673 0.000000 0.000000 0.000000
# 2 -0.001010 0.011942 -0.002241 0.000000 0.000000 0.000000
# 3 -0.005673 -0.002241 0.023722 0.000000 0.000000 0.000000
# 4 0.000000 0.000000 0.000000 0.237315 0.000000 0.000000
# 5 0.000000 0.000000 0.000000 0.000000 0.026000 0.000000
# 6 0.000000 0.000000 0.000000 0.000000 0.000000 -0.390335
#
#
# Mechanical properties :
#
#
# Convention : Reuss Voigt Hill
#
# Bulk Modulus (GPa) = 28.52905 29.59516 29.06211
# Shear Modulus (GPa) = -112.13282 18.85477 -46.63902
#
# Velocity S-wave (km/s) = -6.72824 2.75896 -4.33920
# Velocity P-wave (km/s) = 6.98866 4.70075 3.65680
#
# Compressibility (1/GPa) = 0.03505199
#
# Stress axis : x y z
#
# Youngs Moduli (GPa) = 58.02150 83.73647 42.15464
#
# Poissons Ratio (x) = 0.08456 0.23914
# Poissons Ratio (y) = 0.05860 0.09446
# Poissons Ratio (z) = 0.32915 0.18764
#
# Static dielectric constant tensor:
#      x y z
#    x 2.009230 0.000000 0.000000 
#    y 0.000000 2.126280 0.000000 
#    z 0.000000 0.000000 1.986460 
# 
# From -- ./inp_files/22907.got.cif
#   From: 2010.05.17/outbox.cif.g08.bks.cpg/sg57_12_cif.got.tgz:22907.got - 2010.06.03 13:58:18.
