data_PCOD9438168
_publ_section_title
;
Structure prediction by ZEFSAII (Michael W. Deem and Ramdas Pophale) SiO2 
 PCOD9438168
Probable space group: P B C M
;
_chemical_formula_sum "Si O2"
_cell_formula_units_Z 64
_cell_length_a 11.419410
_cell_length_b 15.947144
_cell_length_c 17.143912
_cell_angle_alpha 90.000000
_cell_angle_beta 90.000000
_cell_angle_gamma 90.000000
_cell_volume 3122.025965
_symmetry_space_group_name_H-M "P B C M"
_symmetry_group_IT_number 57
_symmetry_cell_setting 'orthorhombic'
loop_
_space_group_symop_operation_xyz
x,y,z
-x,-y,1/2+z
x,1/2-y,-z
-x,1/2+y,1/2-z
-x,-y,-z
x,y,1/2-z
-x,1/2+y,z
x,1/2-y,1/2+z
loop_
_atom_site_type_symbol
_atom_site_label
_atom_site_fract_x
_atom_site_fract_y
_atom_site_fract_z
Si Si1 0.686718 0.254244 0.160596
Si Si2 0.277101 0.420158 0.548978
Si Si3 0.263504 0.155307 0.613921
Si Si4 0.428039 0.297313 0.839965
Si Si5 0.040644 0.056059 0.664221
Si Si6 0.125992 0.872428 0.876723
Si Si7 0.817757 0.103029 0.939583
Si Si8 0.921119 0.795304 0.570591
O O1 0.677154 0.286782 0.250000
O O2 0.558776 0.224574 0.132811
O O3 0.763695 0.169940 0.161813
O O4 0.750093 0.321209 0.103871
O O5 0.310610 0.397720 0.459664
O O6 0.360727 0.366542 0.606850
O O7 0.261810 0.518316 0.565463
O O8 0.144202 0.382627 0.555040
O O9 0.362664 0.206995 0.657509
O O10 0.165572 0.102573 0.658102
O O11 0.183591 0.231955 0.583906
O O12 0.430029 0.326545 0.750000
O O13 0.989444 0.069090 0.750000
O O14 0.943021 0.085532 0.602520
O O15 0.078155 0.960398 0.652107
O O16 0.017069 0.808968 0.864634
O O17 0.155927 0.882058 0.968872
O O18 0.986823 0.750000 0.500000
#
# Coordination Sequence:
#
# PCOD9438168 Si02
#       8
#     8   8   8   8   8   8   8   8
#     4  11  26  46  63  90 130 173 216 266 325 385
#     4  10  20  39  65  95 127 159 211 271 314 369
#     4  10  20  39  64  93 123 164 213 267 310 377
#     4  10  23  44  66  88 126 171 217 266 324 382
#     4  12  24  38  62  97 137 170 204 258 325 389
#     4  12  22  40  63  93 133 167 210 261 323 382
#     4  12  23  41  67  96 128 168 216 267 316 381
#     4   9  17  32  59  89 122 158 195 247 311 363
#
# _framework density 20.499509
#
# number of rings (size 3 to 8) (size 9 to 14) (size 15 to 20)
#    0.000    1.250    2.500    6.000    0.000    3.000 
#    2.250    2.500    0.000    0.000    0.000    0.000 
#    0.000    0.000    0.000    0.000    0.000    0.000 
#
# Total GULP energy -356881.563814 kJ/mol
# GULP energy per Si atom -5576.274435 kJ/mol
# Density = 2.045285 g / cm^3
# Si number density = 20.499509 Si / 1000 Ang^3
#
#
#
# Elastic Constant Matrix: (Units=GPa)
#
#
# Indices 1 2 3 4 5 6 
#
# 1 90.8102 29.4801 16.1344 0.0000 0.0000 0.0000
# 2 29.4801 80.5819 22.7320 0.0000 0.0000 0.0000
# 3 16.1344 22.7320 93.4169 0.0000 0.0000 0.0000
# 4 0.0000 0.0000 0.0000 22.1287 0.0000 0.0000
# 5 0.0000 0.0000 0.0000 0.0000 77.4140 0.0000
# 6 0.0000 0.0000 0.0000 0.0000 0.0000 25.2144
#
#
#
# Elastic Compliance Matrix: (Units=1/GPa)
#
#
# Indices 1 2 3 4 5 6 
#
# 1 0.012607 -0.004292 -0.001133 0.000000 0.000000 0.000000
# 2 -0.004292 0.014786 -0.002857 0.000000 0.000000 0.000000
# 3 -0.001133 -0.002857 0.011595 0.000000 0.000000 0.000000
# 4 0.000000 0.000000 0.000000 0.045190 0.000000 0.000000
# 5 0.000000 0.000000 0.000000 0.000000 0.012918 0.000000
# 6 0.000000 0.000000 0.000000 0.000000 0.000000 0.039660
#
#
# Mechanical properties :
#
#
# Convention : Reuss Voigt Hill
#
# Bulk Modulus (GPa) = 44.59450 44.61133 44.60292
# Shear Modulus (GPa) = 31.09562 38.04893 34.57228
#
# Velocity S-wave (km/s) = 3.89896 4.31291 4.11115
# Velocity P-wave (km/s) = 6.48617 6.82722 6.65888
#
# Compressibility (1/GPa) = 0.02242429
#
# Stress axis : x y z
#
# Youngs Moduli (GPa) = 79.32274 67.63183 86.24042
#
# Poissons Ratio (x) = 0.29031 0.09770
# Poissons Ratio (y) = 0.34049 0.24636
# Poissons Ratio (z) = 0.08986 0.19320
#
# Static dielectric constant tensor:
#      x y z
#    x 1.724730 0.000000 0.000000 
#    y 0.000000 1.823650 0.000000 
#    z 0.000000 0.000000 1.802460 
# 
# From -- ./inp_files/22041.got.cif
#   From: 2010.05.17/outbox.cif.g08.bks.cpg/sg57_12_cif.got.tgz:22041.got - 2010.06.03 13:58:18.
