data_PCOD9438248
_publ_section_title
;
Structure prediction by ZEFSAII (Michael W. Deem and Ramdas Pophale) SiO2 
 PCOD9438248
Probable space group: P B C M
;
_chemical_formula_sum "Si O2"
_cell_formula_units_Z 56
_cell_length_a 8.682786
_cell_length_b 14.579716
_cell_length_c 21.429656
_cell_angle_alpha 90.000000
_cell_angle_beta 90.000000
_cell_angle_gamma 90.000000
_cell_volume 2712.834884
_symmetry_space_group_name_H-M "P B C M"
_symmetry_group_IT_number 57
_symmetry_cell_setting 'orthorhombic'
loop_
_space_group_symop_operation_xyz
x,y,z
-x,-y,1/2+z
x,1/2-y,-z
-x,1/2+y,1/2-z
-x,-y,-z
x,y,1/2-z
-x,1/2+y,z
x,1/2-y,1/2+z
loop_
_atom_site_type_symbol
_atom_site_label
_atom_site_fract_x
_atom_site_fract_y
_atom_site_fract_z
Si Si1 0.713153 0.179825 0.324983
Si Si2 0.345162 0.876779 0.322110
Si Si3 0.018899 0.412265 0.319828
Si Si4 0.957032 0.873209 0.678323
Si Si5 0.234113 0.131719 0.563910
Si Si6 0.537361 0.024657 0.397695
Si Si7 0.278621 0.340207 0.930901
O O1 0.710719 0.175860 0.250000
O O2 0.626722 0.272858 0.344115
O O3 0.634384 0.090444 0.352458
O O4 0.893816 0.184516 0.342290
O O5 0.394382 0.885002 0.250000
O O6 0.160997 0.887931 0.323875
O O7 0.426565 0.955234 0.360827
O O8 0.075145 0.383797 0.250000
O O9 0.018025 0.522595 0.321959
O O10 0.115250 0.375811 0.378508
O O11 0.914504 0.850874 0.750000
O O12 0.816446 0.862370 0.631458
O O13 0.313577 0.231684 0.570255
O O14 0.175944 0.136587 0.492294
O O15 0.344372 0.043470 0.568487
O O16 0.428676 0.095502 0.434707
#
# Coordination Sequence:
#
# PCOD9438248 Si02
#       7
#     8   8   8   8   8   8   8
#     4  10  21  37  60  91 124 158 201 254 309 366
#     4  10  21  37  60  91 124 158 201 254 309 366
#     4  10  20  40  67  93 121 157 204 257 309 363
#     4  10  20  40  67  93 121 157 204 257 309 363
#     4  11  25  43  63  91 125 163 209 257 308 368
#     4  12  22  40  60  86 123 170 205 252 303 368
#     4  11  25  43  63  91 125 163 209 257 308 368
#
# _framework density 20.642613999999998
#
# number of rings (size 3 to 8) (size 9 to 14) (size 15 to 20)
#    0.000    1.429    2.857    2.571    0.000    3.429 
#    0.000    0.000    0.000    5.143    0.000    0.000 
#    0.000    0.000    0.000    0.000    0.000    0.000 
#
# Total GULP energy -312537.600246 kJ/mol
# GULP energy per Si atom -5581.028576 kJ/mol
# Density = 2.059563 g / cm^3
# Si number density = 20.642614 Si / 1000 Ang^3
#
#
#
# Elastic Constant Matrix: (Units=GPa)
#
#
# Indices 1 2 3 4 5 6 
#
# 1 37.4882 -3.6661 19.7025 0.0000 0.0000 0.0000
# 2 -3.6661 94.9291 0.8746 0.0000 0.0000 0.0000
# 3 19.7025 0.8746 62.9407 0.0000 0.0000 0.0000
# 4 0.0000 0.0000 0.0000 21.3340 0.0000 0.0000
# 5 0.0000 0.0000 0.0000 0.0000 8.7950 0.0000
# 6 0.0000 0.0000 0.0000 0.0000 0.0000 20.1262
#
#
#
# Elastic Compliance Matrix: (Units=1/GPa)
#
#
# Indices 1 2 3 4 5 6 
#
# 1 0.032095 0.001332 -0.010065 0.000000 0.000000 0.000000
# 2 0.001332 0.010591 -0.000564 0.000000 0.000000 0.000000
# 3 -0.010065 -0.000564 0.019047 0.000000 0.000000 0.000000
# 4 0.000000 0.000000 0.000000 0.046874 0.000000 0.000000
# 5 0.000000 0.000000 0.000000 0.000000 0.113702 0.000000
# 6 0.000000 0.000000 0.000000 0.000000 0.000000 0.049686
#
#
# Mechanical properties :
#
#
# Convention : Reuss Voigt Hill
#
# Bulk Modulus (GPa) = 23.18140 25.46445 24.32293
# Shear Modulus (GPa) = 16.39514 21.94750 19.17132
#
# Velocity S-wave (km/s) = 2.82128 3.26423 3.05081
# Velocity P-wave (km/s) = 4.67622 5.15457 4.92121
#
# Compressibility (1/GPa) = 0.04313803
#
# Stress axis : x y z
#
# Youngs Moduli (GPa) = 31.15716 94.42132 52.50274
#
# Poissons Ratio (x) = -0.12579 0.52846
# Poissons Ratio (y) = -0.04151 0.02962
# Poissons Ratio (z) = 0.31361 0.05327
#
# Static dielectric constant tensor:
#      x y z
#    x 1.730670 0.000000 0.000000 
#    y 0.000000 1.783410 0.000000 
#    z 0.000000 0.000000 1.729760 
# 
# From -- ./inp_files/24447.got.cif
#   From: 2010.05.17/outbox.cif.g08.bks.cpg/sg57_13_cif.got.tgz:24447.got - 2010.06.03 13:58:18.
