data_PCOD9438581
_publ_section_title
;
Structure prediction by ZEFSAII (Michael W. Deem and Ramdas Pophale) SiO2 
 PCOD9438581
Probable space group: P B C M
;
_chemical_formula_sum "Si O2"
_cell_formula_units_Z 48
_cell_length_a 9.003542
_cell_length_b 7.997484
_cell_length_c 30.915108
_cell_angle_alpha 90.000000
_cell_angle_beta 90.000000
_cell_angle_gamma 90.000000
_cell_volume 2226.063469
_symmetry_space_group_name_H-M "P B C M"
_symmetry_group_IT_number 57
_symmetry_cell_setting 'orthorhombic'
loop_
_space_group_symop_operation_xyz
x,y,z
-x,-y,1/2+z
x,1/2-y,-z
-x,1/2+y,1/2-z
-x,-y,-z
x,y,1/2-z
-x,1/2+y,z
x,1/2-y,1/2+z
loop_
_atom_site_type_symbol
_atom_site_label
_atom_site_fract_x
_atom_site_fract_y
_atom_site_fract_z
Si Si1 0.914622 0.429181 0.699775
Si Si2 0.077041 0.837525 0.046519
Si Si3 0.423166 0.414163 0.875053
Si Si4 0.773205 0.797364 0.700096
Si Si5 0.729672 0.224700 0.124741
Si Si6 0.770541 0.798528 0.547180
O O1 0.901919 0.374122 0.750000
O O2 0.845867 0.613691 0.696269
O O3 0.826202 0.313225 0.666873
O O4 0.089512 0.420679 0.688959
O O5 0.165167 0.737936 0.083266
O O6 0.902266 0.831619 0.057920
O O7 0.143689 0.023211 0.044306
O O8 0.093402 0.750000 0.000000
O O9 0.362378 0.324346 0.832012
O O10 0.599586 0.411267 0.878585
O O11 0.357029 0.599748 0.873183
O O12 0.351799 0.320885 0.916316
O O13 0.729731 0.823484 0.750000
O O14 0.709552 0.750000 0.500000
#
# Coordination Sequence:
#
# PCOD9438581 Si02
#       6
#     8   8   8   8   8   8
#     4  10  21  38  61  87 114 147 188 233 280 332
#     4  10  21  37  59  85 111 144 186 231 279 331
#     4  11  24  39  57  83 115 152 190 231 282 337
#     4  10  21  38  61  87 114 147 188 233 280 332
#     4  11  24  39  57  83 115 152 190 231 282 337
#     4  10  21  37  59  85 111 144 186 231 279 331
#
# _framework density 21.562728
#
# number of rings (size 3 to 8) (size 9 to 14) (size 15 to 20)
#    0.000    1.667    0.000    5.000    0.000   11.333 
#    0.000    3.333    0.000    0.000    0.000    0.000 
#    0.000    0.000    0.000    0.000    0.000    0.000 
#
# Total GULP energy -268621.157589 kJ/mol
# GULP energy per Si atom -5596.274116 kJ/mol
# Density = 2.151365 g / cm^3
# Si number density = 21.562728 Si / 1000 Ang^3
#
#
#
# Elastic Constant Matrix: (Units=GPa)
#
#
# Indices 1 2 3 4 5 6 
#
# 1 49.6302 -9.7777 36.6182 0.0000 0.0000 0.0000
# 2 -9.7777 53.6777 12.3077 0.0000 0.0000 0.0000
# 3 36.6182 12.3077 56.3769 0.0000 0.0000 0.0000
# 4 0.0000 0.0000 0.0000 20.8029 0.0000 0.0000
# 5 0.0000 0.0000 0.0000 0.0000 -2.1268 0.0000
# 6 0.0000 0.0000 0.0000 0.0000 0.0000 31.1592
#
#
#
# Elastic Compliance Matrix: (Units=1/GPa)
#
#
# Indices 1 2 3 4 5 6 
#
# 1 0.050886 0.017735 -0.036924 0.000000 0.000000 0.000000
# 2 0.017735 0.025793 -0.017150 0.000000 0.000000 0.000000
# 3 -0.036924 -0.017150 0.045465 0.000000 0.000000 0.000000
# 4 0.000000 0.000000 0.000000 0.048070 0.000000 0.000000
# 5 0.000000 0.000000 0.000000 0.000000 -0.470182 0.000000
# 6 0.000000 0.000000 0.000000 0.000000 0.000000 0.032093
#
#
# Mechanical properties :
#
#
# Convention : Reuss Voigt Hill
#
# Bulk Modulus (GPa) = 20.21583 26.44236 23.32910
# Shear Modulus (GPa) = -27.97846 18.00283 -4.98781
#
# Velocity S-wave (km/s) = -3.60604 2.89261 -1.52256
# Velocity P-wave (km/s) = 2.81822 4.84209 2.78420
#
# Compressibility (1/GPa) = 0.04946619
#
# Stress axis : x y z
#
# Youngs Moduli (GPa) = 19.65170 38.77066 21.99505
#
# Poissons Ratio (x) = -0.68761 0.81214
# Poissons Ratio (y) = -0.34853 0.37722
# Poissons Ratio (z) = 0.72561 0.66493
#
# Static dielectric constant tensor:
#      x y z
#    x 1.735640 0.000000 0.000000 
#    y 0.000000 1.829990 0.000000 
#    z 0.000000 0.000000 1.748080 
# 
# From -- ./inp_files/29483.got.cif
#   From: 2010.05.17/outbox.cif.g08.bks.cpg/sg57_15_cif.got.tgz:29483.got - 2010.06.03 13:58:18.
