data_PCOD9438052
_publ_section_title
;
Structure prediction by ZEFSAII (Michael W. Deem and Ramdas Pophale) SiO2 
 PCOD9438052
Probable space group: P B C M
;
_chemical_formula_sum "Si O2"
_cell_formula_units_Z 64
_cell_length_a 14.391008
_cell_length_b 11.836221
_cell_length_c 18.248784
_cell_angle_alpha 90.000000
_cell_angle_beta 90.000000
_cell_angle_gamma 90.000000
_cell_volume 3108.409380
_symmetry_space_group_name_H-M "P B C M"
_symmetry_group_IT_number 57
_symmetry_cell_setting 'orthorhombic'
loop_
_space_group_symop_operation_xyz
x,y,z
-x,-y,1/2+z
x,1/2-y,-z
-x,1/2+y,1/2-z
-x,-y,-z
x,y,1/2-z
-x,1/2+y,z
x,1/2-y,1/2+z
loop_
_atom_site_type_symbol
_atom_site_label
_atom_site_fract_x
_atom_site_fract_y
_atom_site_fract_z
Si Si1 0.864508 0.045039 0.332730
Si Si2 0.802733 0.617613 0.337663
Si Si3 0.354176 0.280861 0.165054
Si Si4 0.133530 0.696309 0.831088
Si Si5 0.657631 0.047305 0.336548
Si Si6 0.538848 0.260476 0.913485
Si Si7 0.669728 0.404342 0.333045
Si Si8 0.037769 0.986151 0.081809
O O1 0.851786 0.003349 0.250000
O O2 0.896588 0.175115 0.331969
O O3 0.762805 0.049036 0.366866
O O4 0.944398 0.977550 0.371109
O O5 0.825929 0.613701 0.250000
O O6 0.749024 0.734589 0.353502
O O7 0.723456 0.520810 0.351134
O O8 0.892042 0.583000 0.386299
O O9 0.369513 0.246756 0.250000
O O10 0.366333 0.415256 0.160472
O O11 0.433781 0.229806 0.114716
O O12 0.107723 0.647361 0.750000
O O13 0.245063 0.685511 0.833898
O O14 0.093530 0.627311 0.898709
O O15 0.656680 0.081911 0.250000
O O16 0.593494 0.131412 0.381717
O O17 0.588885 0.148034 0.881344
O O18 0.542811 0.250000 0.000000
O O19 0.634570 0.415262 0.250000
O O20 0.000000 0.000000 0.000000
#
# Coordination Sequence:
#
# PCOD9438052 Si02
#       8
#     8   8   8   8   8   8   8   8
#     4  10  20  38  63  88 117 158 209 267 314 365
#     4   9  20  41  67  94 125 168 224 272 319 382
#     4  10  23  43  67  93 125 171 222 272 323 380
#     4   9  18  36  60  85 115 157 211 262 305 364
#     4  10  22  42  67  96 126 160 219 278 325 383
#     4  12  25  39  60  95 132 171 209 266 334 407
#     4   9  17  36  64  88 115 158 216 270 311 368
#     4  11  23  37  58  96 130 167 205 253 323 394
#
# _framework density 20.589310000000001
#
# number of rings (size 3 to 8) (size 9 to 14) (size 15 to 20)
#    0.000    2.000    1.250    3.000    1.750    4.000 
#    2.250    2.500    0.000    0.000    0.000    0.000 
#    0.000    0.000    0.000    0.000    0.000    0.000 
#
# Total GULP energy -357065.235762 kJ/mol
# GULP energy per Si atom -5579.144309 kJ/mol
# Density = 2.054245 g / cm^3
# Si number density = 20.589310 Si / 1000 Ang^3
#
#
#
# Elastic Constant Matrix: (Units=GPa)
#
#
# Indices 1 2 3 4 5 6 
#
# 1 100.9048 17.7012 60.1700 0.0000 0.0000 0.0000
# 2 17.7012 35.9341 17.2186 0.0000 0.0000 0.0000
# 3 60.1700 17.2186 94.0772 0.0000 0.0000 0.0000
# 4 0.0000 0.0000 0.0000 4.7675 0.0000 0.0000
# 5 0.0000 0.0000 0.0000 0.0000 -30.3895 0.0000
# 6 0.0000 0.0000 0.0000 0.0000 0.0000 22.0666
#
#
#
# Elastic Compliance Matrix: (Units=1/GPa)
#
#
# Indices 1 2 3 4 5 6 
#
# 1 0.016378 -0.003342 -0.009864 0.000000 0.000000 0.000000
# 2 -0.003342 0.031186 -0.003571 0.000000 0.000000 0.000000
# 3 -0.009864 -0.003571 0.017592 0.000000 0.000000 0.000000
# 4 0.000000 0.000000 0.000000 0.209754 0.000000 0.000000
# 5 0.000000 0.000000 0.000000 0.000000 -0.032906 0.000000
# 6 0.000000 0.000000 0.000000 0.000000 0.000000 0.045317
#
#
# Mechanical properties :
#
#
# Convention : Reuss Voigt Hill
#
# Bulk Modulus (GPa) = 31.64154 46.78841 39.21497
# Shear Modulus (GPa) = 15.08718 8.34400 11.71559
#
# Velocity S-wave (km/s) = 2.70990 2.01529 2.38799
# Velocity P-wave (km/s) = 5.01924 5.30934 5.16633
#
# Compressibility (1/GPa) = 0.03160403
#
# Stress axis : x y z
#
# Youngs Moduli (GPa) = 61.05665 32.06599 56.84515
#
# Poissons Ratio (x) = 0.10715 0.56070
# Poissons Ratio (y) = 0.20402 0.20297
# Poissons Ratio (z) = 0.60224 0.11449
#
# Static dielectric constant tensor:
#      x y z
#    x 1.726760 0.000000 0.000000 
#    y 0.000000 1.788210 0.000000 
#    z 0.000000 0.000000 1.725770 
# 
# From -- ./inp_files/22634.got.cif
#   From: 2010.05.17/outbox.cif.g08.bks.cpg/sg57_12_cif.got.tgz:22634.got - 2010.06.03 13:58:18.
