data_PCOD9438911
_publ_section_title
;
Structure prediction by ZEFSAII (Michael W. Deem and Ramdas Pophale) SiO2 
 PCOD9438911
Probable space group: P B C M
;
_chemical_formula_sum "Si O2"
_cell_formula_units_Z 64
_cell_length_a 26.748338
_cell_length_b 15.134308
_cell_length_c 8.572557
_cell_angle_alpha 90.000000
_cell_angle_beta 90.000000
_cell_angle_gamma 90.000000
_cell_volume 3470.321829
_symmetry_space_group_name_H-M "P B C M"
_symmetry_group_IT_number 57
_symmetry_cell_setting 'orthorhombic'
loop_
_space_group_symop_operation_xyz
x,y,z
-x,-y,1/2+z
x,1/2-y,-z
-x,1/2+y,1/2-z
-x,-y,-z
x,y,1/2-z
-x,1/2+y,z
x,1/2-y,1/2+z
loop_
_atom_site_type_symbol
_atom_site_label
_atom_site_fract_x
_atom_site_fract_y
_atom_site_fract_z
Si Si1 0.870132 0.149029 0.938196
Si Si2 0.790963 0.499385 0.062626
Si Si3 0.500660 0.400794 0.437286
Si Si4 0.869488 0.648911 0.438236
Si Si5 0.608746 0.657519 0.562306
Si Si6 0.943762 0.999677 0.437192
Si Si7 0.320848 0.500848 0.438385
Si Si8 0.393244 0.658020 0.436438
O O1 0.872588 0.151761 0.750000
O O2 0.821852 0.088902 0.984361
O O3 0.869557 0.250000 0.000000
O O4 0.915386 0.087725 0.001011
O O5 0.789892 0.499604 0.250000
O O6 0.821399 0.588211 0.015262
O O7 0.735106 0.498364 0.999696
O O8 0.500000 0.500000 0.500000
O O9 0.501536 0.400180 0.250000
O O10 0.448387 0.358231 0.491016
O O11 0.551031 0.357092 0.499364
O O12 0.868770 0.750000 0.500000
O O13 0.871744 0.651765 0.250000
O O14 0.915068 0.587962 0.500316
O O15 0.626673 0.750000 0.500000
O O16 0.607703 0.656083 0.750000
O O17 0.646762 0.582778 0.508810
O O18 0.942683 0.999337 0.250000
O O19 0.000000 0.000000 0.500000
O O20 0.319023 0.500403 0.250000
O O21 0.354622 0.583396 0.487731
O O22 0.374269 0.750000 0.500000
O O23 0.396304 0.657054 0.250000
#
# Coordination Sequence:
#
# PCOD9438911 Si02
#       8
#     8   8   8   8   8   8   8   8
#     4  10  21  39  61  88 120 155 199 246 292 347
#     4   9  21  39  59  84 115 148 192 243 291 345
#     4  11  21  37  60  83 112 147 184 227 281 341
#     4  10  21  39  61  88 120 156 200 247 292 346
#     4  10  22  39  56  81 111 143 182 226 277 337
#     4  11  22  38  60  89 125 163 201 244 294 344
#     4  10  22  40  58  79 114 149 185 235 288 344
#     4  11  23  40  58  83 114 146 188 233 283 344
#
# _framework density 18.442093
#
# number of rings (size 3 to 8) (size 9 to 14) (size 15 to 20)
#    0.000    1.750    1.250    3.750    0.000    8.000 
#    0.000    7.500    0.000    0.000    0.000    0.000 
#    0.000    0.000    0.000    0.000    0.000    0.000 
#
# Total GULP energy -357256.982322 kJ/mol
# GULP energy per Si atom -5582.140349 kJ/mol
# Density = 1.840012 g / cm^3
# Si number density = 18.442093 Si / 1000 Ang^3
#
#
#
# Elastic Constant Matrix: (Units=GPa)
#
#
# Indices 1 2 3 4 5 6 
#
# 1 178.6607 102.4327 42.9712 0.0000 0.0000 0.0000
# 2 102.4327 210.9429 50.0201 0.0000 0.0000 0.0000
# 3 42.9712 50.0201 59.7591 0.0000 0.0000 0.0000
# 4 0.0000 0.0000 0.0000 34.0280 0.0000 0.0000
# 5 0.0000 0.0000 0.0000 0.0000 41.6088 0.0000
# 6 0.0000 0.0000 0.0000 0.0000 0.0000 37.7182
#
#
#
# Elastic Compliance Matrix: (Units=1/GPa)
#
#
# Indices 1 2 3 4 5 6 
#
# 1 0.008221 -0.003232 -0.003207 0.000000 0.000000 0.000000
# 2 -0.003232 0.007185 -0.003690 0.000000 0.000000 0.000000
# 3 -0.003207 -0.003690 0.022128 0.000000 0.000000 0.000000
# 4 0.000000 0.000000 0.000000 0.029388 0.000000 0.000000
# 5 0.000000 0.000000 0.000000 0.000000 0.024033 0.000000
# 6 0.000000 0.000000 0.000000 0.000000 0.000000 0.026512
#
#
# Mechanical properties :
#
#
# Convention : Reuss Voigt Hill
#
# Bulk Modulus (GPa) = 57.87846 93.35676 75.61761
# Shear Modulus (GPa) = 34.84695 39.60025 37.22360
#
# Velocity S-wave (km/s) = 4.35159 4.63890 4.49754
# Velocity P-wave (km/s) = 7.52997 8.91201 8.24998
#
# Compressibility (1/GPa) = 0.01727758
#
# Stress axis : x y z
#
# Youngs Moduli (GPa) = 121.63348 139.17819 45.19086
#
# Poissons Ratio (x) = 0.44981 0.14491
# Poissons Ratio (y) = 0.39311 0.16676
# Poissons Ratio (z) = 0.39003 0.51358
#
# Static dielectric constant tensor:
#      x y z
#    x 1.620000 0.000000 0.000000 
#    y 0.000000 1.593510 0.000000 
#    z 0.000000 0.000000 1.628350 
# 
# From -- ./inp_files/9447.got.cif
#   From: 2010.05.17/outbox.cif.g08.bks.cpg/sg57_5_cif.got.tgz:9447.got - 2010.06.03 13:58:18.
