data_PCOD9438319
_publ_section_title
;
Structure prediction by ZEFSAII (Michael W. Deem and Ramdas Pophale) SiO2 
 PCOD9438319
Probable space group: P B C M
;
_chemical_formula_sum "Si O2"
_cell_formula_units_Z 64
_cell_length_a 30.056921
_cell_length_b 5.493241
_cell_length_c 19.175996
_cell_angle_alpha 90.000000
_cell_angle_beta 90.000000
_cell_angle_gamma 90.000000
_cell_volume 3166.146989
_symmetry_space_group_name_H-M "P B C M"
_symmetry_group_IT_number 57
_symmetry_cell_setting 'orthorhombic'
loop_
_space_group_symop_operation_xyz
x,y,z
-x,-y,1/2+z
x,1/2-y,-z
-x,1/2+y,1/2-z
-x,-y,-z
x,y,1/2-z
-x,1/2+y,z
x,1/2-y,1/2+z
loop_
_atom_site_type_symbol
_atom_site_label
_atom_site_fract_x
_atom_site_fract_y
_atom_site_fract_z
Si Si1 0.243374 0.688061 0.827186
Si Si2 0.476024 0.071997 0.334966
Si Si3 0.327201 0.513887 0.334121
Si Si4 0.848049 0.470111 0.672291
Si Si5 0.373125 0.017218 0.164940
Si Si6 0.801297 0.859932 0.572518
Si Si7 0.017413 0.040939 0.419978
Si Si8 0.108021 0.870652 0.429553
O O1 0.257623 0.595187 0.750000
O O2 0.276262 0.906895 0.847150
O O3 0.193345 0.784272 0.820785
O O4 0.238666 0.485977 0.885899
O O5 0.477398 0.073170 0.250000
O O6 0.501763 0.826796 0.357588
O O7 0.424388 0.055379 0.355290
O O8 0.331901 0.503159 0.250000
O O9 0.355003 0.752672 0.357856
O O10 0.344434 0.251770 0.359134
O O11 0.860001 0.555357 0.750000
O O12 0.826675 0.677158 0.624456
O O13 0.886137 0.324366 0.631865
O O14 0.371658 0.013639 0.250000
O O15 0.785635 0.750000 0.500000
O O16 0.842501 0.036727 0.553696
O O17 0.070748 0.071695 0.414686
O O18 0.005560 0.777887 0.388383
O O19 0.000000 0.000000 0.500000
O O20 0.090819 0.750000 0.500000
#
# Coordination Sequence:
#
# PCOD9438319 Si02
#       8
#     8   8   8   8   8   8   8   8
#     4   9  20  35  50  74 105 140 182 230 285 333
#     4   9  15  22  33  50  79 117 159 213 267 316
#     4   9  17  28  44  62  88 124 168 223 267 319
#     4  10  22  38  57  81 112 148 188 234 288 343
#     4   9  16  25  38  60  84 119 172 219 266 320
#     4  11  22  33  58  81 109 143 186 235 278 334
#     4  10  21  33  57  89 119 145 185 232 275 329
#     4  11  21  36  58  86 117 144 186 235 281 328
#
# _framework density 20.213842
#
# number of rings (size 3 to 8) (size 9 to 14) (size 15 to 20)
#    0.000    2.250    2.500    1.125    5.250    3.500 
#    0.000    0.000    0.000    0.750    0.000    0.000 
#    0.000    0.000    0.000    0.000    0.000   12.500 
#
# Total GULP energy -356657.925332 kJ/mol
# GULP energy per Si atom -5572.780083 kJ/mol
# Density = 2.016783 g / cm^3
# Si number density = 20.213842 Si / 1000 Ang^3
#
#
#
# Elastic Constant Matrix: (Units=GPa)
#
#
# Indices 1 2 3 4 5 6 
#
# 1 77.0107 10.9535 -3.7496 0.0000 0.0000 0.0000
# 2 10.9535 85.8767 11.4032 0.0000 0.0000 0.0000
# 3 -3.7496 11.4032 54.2818 0.0000 0.0000 0.0000
# 4 0.0000 0.0000 0.0000 6.7855 0.0000 0.0000
# 5 0.0000 0.0000 0.0000 0.0000 -5.6059 0.0000
# 6 0.0000 0.0000 0.0000 0.0000 0.0000 -26.2948
#
#
#
# Elastic Compliance Matrix: (Units=1/GPa)
#
#
# Indices 1 2 3 4 5 6 
#
# 1 0.013316 -0.001873 0.001313 0.000000 0.000000 0.000000
# 2 -0.001873 0.012242 -0.002701 0.000000 0.000000 0.000000
# 3 0.001313 -0.002701 0.019081 0.000000 0.000000 0.000000
# 4 0.000000 0.000000 0.000000 0.147372 0.000000 0.000000
# 5 0.000000 0.000000 0.000000 0.000000 -0.178383 0.000000
# 6 0.000000 0.000000 0.000000 0.000000 0.000000 -0.038030
#
#
# Mechanical properties :
#
#
# Convention : Reuss Voigt Hill
#
# Bulk Modulus (GPa) = 26.23513 28.26483 27.24998
# Shear Modulus (GPa) = -965.95851 8.21445 -478.87203
#
# Velocity S-wave (km/s) = -21.88395 2.01807 -15.40835
# Velocity P-wave (km/s) = 25.01072 4.40947 17.40823
#
# Compressibility (1/GPa) = 0.03811683
#
# Stress axis : x y z
#
# Youngs Moduli (GPa) = 75.10038 81.68505 52.40950
#
# Poissons Ratio (x) = 0.15298 -0.06882
# Poissons Ratio (y) = 0.14065 0.14156
# Poissons Ratio (z) = -0.09862 0.22064
#
# Static dielectric constant tensor:
#      x y z
#    x 1.717930 0.000000 0.000000 
#    y 0.000000 1.806630 0.000000 
#    z 0.000000 0.000000 1.748720 
# 
# From -- ./inp_files/23216.got.cif
#   From: 2010.05.17/outbox.cif.g08.bks.cpg/sg57_12_cif.got.tgz:23216.got - 2010.06.03 13:58:18.
