data_PCOD9438376
_publ_section_title
;
Structure prediction by ZEFSAII (Michael W. Deem and Ramdas Pophale) SiO2 
 PCOD9438376
Probable space group: P B C M
;
_chemical_formula_sum "Si O2"
_cell_formula_units_Z 56
_cell_length_a 13.379634
_cell_length_b 10.049989
_cell_length_c 21.901606
_cell_angle_alpha 90.000000
_cell_angle_beta 90.000000
_cell_angle_gamma 90.000000
_cell_volume 2945.003273
_symmetry_space_group_name_H-M "P B C M"
_symmetry_group_IT_number 57
_symmetry_cell_setting 'orthorhombic'
loop_
_space_group_symop_operation_xyz
x,y,z
-x,-y,1/2+z
x,1/2-y,-z
-x,1/2+y,1/2-z
-x,-y,-z
x,y,1/2-z
-x,1/2+y,z
x,1/2-y,1/2+z
loop_
_atom_site_type_symbol
_atom_site_label
_atom_site_fract_x
_atom_site_fract_y
_atom_site_fract_z
Si Si1 0.295223 0.043307 0.610401
Si Si2 0.092552 0.606563 0.924783
Si Si3 0.357472 0.175870 0.143699
Si Si4 0.587747 0.896823 0.509917
Si Si5 0.743745 0.417335 0.181204
Si Si6 0.413848 0.682665 0.321922
Si Si7 0.902415 0.417655 0.566786
O O1 0.296084 0.186913 0.642706
O O2 0.331017 0.076140 0.541905
O O3 0.374897 0.944628 0.641057
O O4 0.190830 0.967044 0.606536
O O5 0.172640 0.579977 0.871526
O O6 0.069579 0.764231 0.921326
O O7 0.994770 0.514769 0.919653
O O8 0.127398 0.577838 0.994663
O O9 0.364529 0.109751 0.076429
O O10 0.471249 0.210357 0.161686
O O11 0.308971 0.060652 0.183134
O O12 0.543579 0.750000 0.500000
O O13 0.500000 0.000000 0.500000
O O14 0.781798 0.385779 0.250000
O O15 0.659173 0.307201 0.165284
O O16 0.407704 0.654477 0.250000
#
# Coordination Sequence:
#
# PCOD9438376 Si02
#       7
#     8   8   8   8   8   8   8
#     4  11  22  40  61  91 125 161 207 256 314 369
#     4  10  22  43  68  96 123 158 202 258 319 374
#     4  11  23  37  60  91 127 168 207 255 308 367
#     4  10  21  35  55  89 123 158 198 255 305 361
#     4  11  24  42  63  91 127 168 212 256 309 372
#     4  11  23  40  61  84 124 171 216 254 297 373
#     4  10  22  42  70  96 122 157 201 261 322 374
#
# _framework density 19.015257999999999
#
# number of rings (size 3 to 8) (size 9 to 14) (size 15 to 20)
#    0.000    1.429    2.857    2.143    4.000    2.286 
#    7.714    1.429    0.000    0.000    0.000    0.000 
#    0.000    0.000    0.000    0.000    0.000    0.000 
#
# Total GULP energy -312649.250208 kJ/mol
# GULP energy per Si atom -5583.022325 kJ/mol
# Density = 1.897198 g / cm^3
# Si number density = 19.015258 Si / 1000 Ang^3
#
#
#
# Elastic Constant Matrix: (Units=GPa)
#
#
# Indices 1 2 3 4 5 6 
#
# 1 74.5494 53.8006 35.4087 0.0000 0.0000 0.0000
# 2 53.8006 141.3588 38.1202 0.0000 0.0000 0.0000
# 3 35.4087 38.1202 90.2562 0.0000 0.0000 0.0000
# 4 0.0000 0.0000 0.0000 16.6962 0.0000 0.0000
# 5 0.0000 0.0000 0.0000 0.0000 21.7102 0.0000
# 6 0.0000 0.0000 0.0000 0.0000 0.0000 30.4972
#
#
#
# Elastic Compliance Matrix: (Units=1/GPa)
#
#
# Indices 1 2 3 4 5 6 
#
# 1 0.020571 -0.006380 -0.005376 0.000000 0.000000 0.000000
# 2 -0.006380 0.009962 -0.001705 0.000000 0.000000 0.000000
# 3 -0.005376 -0.001705 0.013909 0.000000 0.000000 0.000000
# 4 0.000000 0.000000 0.000000 0.059894 0.000000 0.000000
# 5 0.000000 0.000000 0.000000 0.000000 0.046061 0.000000
# 6 0.000000 0.000000 0.000000 0.000000 0.000000 0.032790
#
#
# Mechanical properties :
#
#
# Convention : Reuss Voigt Hill
#
# Bulk Modulus (GPa) = 57.07302 62.31372 59.69337
# Shear Modulus (GPa) = 23.15371 25.70304 24.42838
#
# Velocity S-wave (km/s) = 3.49325 3.68054 3.58812
# Velocity P-wave (km/s) = 6.80808 7.13466 6.97328
#
# Compressibility (1/GPa) = 0.01752141
#
# Stress axis : x y z
#
# Youngs Moduli (GPa) = 48.61122 100.38176 71.89795
#
# Poissons Ratio (x) = 0.64040 0.38652
# Poissons Ratio (y) = 0.31012 0.12256
# Poissons Ratio (z) = 0.26133 0.17112
#
# Static dielectric constant tensor:
#      x y z
#    x 1.632970 0.000000 0.000000 
#    y 0.000000 1.670270 0.000000 
#    z 0.000000 0.000000 1.473460 
# 
# From -- ./inp_files/25393.got.cif
#   From: 2010.05.17/outbox.cif.g08.bks.cpg/sg57_13_cif.got.tgz:25393.got - 2010.06.03 13:58:18.
