data_PCOD9438993
_publ_section_title
;
Structure prediction by ZEFSAII (Michael W. Deem and Ramdas Pophale) SiO2 
 PCOD9438993
Probable space group: P B C M
;
_chemical_formula_sum "Si O2"
_cell_formula_units_Z 48
_cell_length_a 7.776052
_cell_length_b 18.979702
_cell_length_c 14.428555
_cell_angle_alpha 90.000000
_cell_angle_beta 90.000000
_cell_angle_gamma 90.000000
_cell_volume 2129.469307
_symmetry_space_group_name_H-M "P B C M"
_symmetry_group_IT_number 57
_symmetry_cell_setting 'orthorhombic'
loop_
_space_group_symop_operation_xyz
x,y,z
-x,-y,1/2+z
x,1/2-y,-z
-x,1/2+y,1/2-z
-x,-y,-z
x,y,1/2-z
-x,1/2+y,z
x,1/2-y,1/2+z
loop_
_atom_site_type_symbol
_atom_site_label
_atom_site_fract_x
_atom_site_fract_y
_atom_site_fract_z
Si Si1 0.620935 0.063131 0.029231
Si Si2 0.682518 0.701318 0.636755
Si Si3 0.970830 0.265749 0.645102
Si Si4 0.187685 0.452205 0.142542
Si Si5 0.185326 0.608953 0.850649
Si Si6 0.610659 0.192704 0.137601
O O1 0.534570 0.122489 0.093056
O O2 0.765740 0.022058 0.087642
O O3 0.692680 0.096502 0.935776
O O4 0.500000 0.000000 0.000000
O O5 0.692905 0.699467 0.750000
O O6 0.722008 0.620894 0.607424
O O7 0.503619 0.739132 0.612564
O O8 0.839620 0.752727 0.605907
O O9 0.993660 0.293582 0.750000
O O10 0.890953 0.187443 0.650895
O O11 0.809296 0.306354 0.601702
O O12 0.239484 0.460690 0.250000
O O13 0.983839 0.438984 0.140315
O O14 0.269892 0.596764 0.750000
O O15 0.614632 0.190060 0.250000
#
# Coordination Sequence:
#
# PCOD9438993 Si02
#       6
#     8   8   8   8   8   8
#     4  12  26  39  56  93 134 166 205 253 316 384
#     4   8  16  35  65  95 121 159 211 255 307 375
#     4   8  16  35  64  92 115 156 210 260 314 365
#     4   9  19  41  68  90 122 167 212 261 315 376
#     4   9  20  41  66  87 116 167 220 261 309 371
#     4  10  21  39  64  93 128 162 203 260 317 371
#
# _framework density 22.540828999999999
#
# number of rings (size 3 to 8) (size 9 to 14) (size 15 to 20)
#    0.000    2.667    0.000    3.000    2.333    2.000 
#    6.000    0.000    0.000    0.000    0.000    0.000 
#    0.000    0.000    0.000    0.000    0.000    0.000 
#
# Total GULP energy -268007.057944 kJ/mol
# GULP energy per Si atom -5583.480374 kJ/mol
# Density = 2.248953 g / cm^3
# Si number density = 22.540829 Si / 1000 Ang^3
#
#
#
# Elastic Constant Matrix: (Units=GPa)
#
#
# Indices 1 2 3 4 5 6 
#
# 1 70.7273 21.5472 22.2779 0.0000 0.0000 0.0000
# 2 21.5472 74.8721 27.8699 0.0000 0.0000 0.0000
# 3 22.2779 27.8699 84.2218 0.0000 0.0000 0.0000
# 4 0.0000 0.0000 0.0000 28.8197 0.0000 0.0000
# 5 0.0000 0.0000 0.0000 0.0000 10.1949 0.0000
# 6 0.0000 0.0000 0.0000 0.0000 0.0000 31.6360
#
#
#
# Elastic Compliance Matrix: (Units=1/GPa)
#
#
# Indices 1 2 3 4 5 6 
#
# 1 0.016188 -0.003495 -0.003125 0.000000 0.000000 0.000000
# 2 -0.003495 0.015987 -0.004366 0.000000 0.000000 0.000000
# 3 -0.003125 -0.004366 0.014145 0.000000 0.000000 0.000000
# 4 0.000000 0.000000 0.000000 0.034698 0.000000 0.000000
# 5 0.000000 0.000000 0.000000 0.000000 0.098088 0.000000
# 6 0.000000 0.000000 0.000000 0.000000 0.000000 0.031610
#
#
# Mechanical properties :
#
#
# Convention : Reuss Voigt Hill
#
# Bulk Modulus (GPa) = 41.07262 41.46791 41.27027
# Shear Modulus (GPa) = 20.76371 24.67188 22.71780
#
# Velocity S-wave (km/s) = 3.03835 3.31197 3.17811
# Velocity P-wave (km/s) = 5.52900 5.74998 5.64057
#
# Compressibility (1/GPa) = 0.02434712
#
# Stress axis : x y z
#
# Youngs Moduli (GPa) = 61.77377 62.55047 70.69756
#
# Poissons Ratio (x) = 0.21864 0.22095
# Poissons Ratio (y) = 0.21592 0.30865
# Poissons Ratio (z) = 0.19306 0.27308
#
# Static dielectric constant tensor:
#      x y z
#    x 1.911390 0.000000 0.000000 
#    y 0.000000 1.805400 0.000000 
#    z 0.000000 0.000000 1.854350 
# 
# From -- ./inp_files/16559.got.cif
#   From: 2010.05.17/outbox.cif.g08.bks.cpg/sg57_9_cif.got.tgz:16559.got - 2010.06.03 13:58:18.
