data_PCOD9438381
_publ_section_title
;
Structure prediction by ZEFSAII (Michael W. Deem and Ramdas Pophale) SiO2 
 PCOD9438381
Probable space group: P B C M
;
_chemical_formula_sum "Si O2"
_cell_formula_units_Z 48
_cell_length_a 12.210130
_cell_length_b 12.319668
_cell_length_c 14.889376
_cell_angle_alpha 90.000000
_cell_angle_beta 90.000000
_cell_angle_gamma 90.000000
_cell_volume 2239.730630
_symmetry_space_group_name_H-M "P B C M"
_symmetry_group_IT_number 57
_symmetry_cell_setting 'orthorhombic'
loop_
_space_group_symop_operation_xyz
x,y,z
-x,-y,1/2+z
x,1/2-y,-z
-x,1/2+y,1/2-z
-x,-y,-z
x,y,1/2-z
-x,1/2+y,z
x,1/2-y,1/2+z
loop_
_atom_site_type_symbol
_atom_site_label
_atom_site_fract_x
_atom_site_fract_y
_atom_site_fract_z
Si Si1 0.175913 0.339794 0.640035
Si Si2 0.403029 0.956951 0.614649
Si Si3 0.199343 0.096151 0.647157
Si Si4 0.273624 0.752420 0.107429
Si Si5 0.069424 0.610087 0.142478
Si Si6 0.643357 0.484300 0.097314
O O1 0.182087 0.343906 0.750000
O O2 0.194616 0.216190 0.608677
O O3 0.267018 0.421672 0.604103
O O4 0.053763 0.373318 0.611067
O O5 0.354691 0.840779 0.644150
O O6 0.386674 0.961778 0.506750
O O7 0.322045 0.050170 0.648802
O O8 0.528231 0.978004 0.639095
O O9 0.160234 0.108197 0.750000
O O10 0.127064 0.999060 0.605024
O O11 0.150736 0.711287 0.126511
O O12 0.306780 0.872873 0.136649
O O13 0.283983 0.750000 0.000000
O O14 0.064582 0.598776 0.250000
#
# Coordination Sequence:
#
# PCOD9438381 Si02
#       6
#     8   8   8   8   8   8
#     4  10  22  36  55  85 113 140 184 229 267 325
#     4   9  20  38  57  80 110 146 183 224 277 327
#     4   9  19  37  56  77 110 146 181 226 275 324
#     4   9  19  37  55  81 113 141 184 230 269 325
#     4   9  19  37  58  78 109 151 183 220 279 330
#     4  10  21  35  58  83 109 144 184 228 272 327
#
# _framework density 21.431149999999999
#
# number of rings (size 3 to 8) (size 9 to 14) (size 15 to 20)
#    0.000    2.667    0.000    0.000    4.667    2.000 
#    3.000    2.500    0.000    0.000    0.000    0.000 
#    0.000    0.000    0.000    0.000    0.000    0.000 
#
# Total GULP energy -267927.428498 kJ/mol
# GULP energy per Si atom -5581.821427 kJ/mol
# Density = 2.138237 g / cm^3
# Si number density = 21.431150 Si / 1000 Ang^3
#
#
#
# Elastic Constant Matrix: (Units=GPa)
#
#
# Indices 1 2 3 4 5 6 
#
# 1 210.5558 127.4316 0.8662 0.0000 0.0000 0.0000
# 2 127.4316 184.2978 1.6463 0.0000 0.0000 0.0000
# 3 0.8662 1.6463 39.7372 0.0000 0.0000 0.0000
# 4 0.0000 0.0000 0.0000 15.2616 0.0000 0.0000
# 5 0.0000 0.0000 0.0000 0.0000 18.2782 0.0000
# 6 0.0000 0.0000 0.0000 0.0000 0.0000 11.8280
#
#
#
# Elastic Compliance Matrix: (Units=1/GPa)
#
#
# Indices 1 2 3 4 5 6 
#
# 1 0.008167 -0.005648 0.000056 0.000000 0.000000 0.000000
# 2 -0.005648 0.009333 -0.000264 0.000000 0.000000 0.000000
# 3 0.000056 -0.000264 0.025175 0.000000 0.000000 0.000000
# 4 0.000000 0.000000 0.000000 0.065524 0.000000 0.000000
# 5 0.000000 0.000000 0.000000 0.000000 0.054710 0.000000
# 6 0.000000 0.000000 0.000000 0.000000 0.000000 0.084545
#
#
# Mechanical properties :
#
#
# Convention : Reuss Voigt Hill
#
# Bulk Modulus (GPa) = 32.29449 77.16434 54.72941
# Shear Modulus (GPa) = 18.55380 29.38335 23.96858
#
# Velocity S-wave (km/s) = 2.94554 3.70680 3.34788
# Velocity P-wave (km/s) = 5.16429 7.37593 6.36688
#
# Compressibility (1/GPa) = 0.03096503
#
# Stress axis : x y z
#
# Youngs Moduli (GPa) = 122.44216 107.14261 39.72194
#
# Poissons Ratio (x) = 0.60510 -0.00222
# Poissons Ratio (y) = 0.69150 0.01047
# Poissons Ratio (z) = -0.00685 0.02824
#
# Static dielectric constant tensor:
#      x y z
#    x 1.740180 0.000000 0.000000 
#    y 0.000000 1.768990 0.000000 
#    z 0.000000 0.000000 1.859700 
# 
# From -- ./inp_files/21785.got.cif
#   From: 2010.05.17/outbox.cif.g08.bks.cpg/sg57_11_cif.got.tgz:21785.got - 2010.06.03 13:58:18.
