data_PCOD9438938
_publ_section_title
;
Structure prediction by ZEFSAII (Michael W. Deem and Ramdas Pophale) SiO2 
 PCOD9438938
Probable space group: P B C M
;
_chemical_formula_sum "Si O2"
_cell_formula_units_Z 32
_cell_length_a 7.512949
_cell_length_b 12.147066
_cell_length_c 14.696585
_cell_angle_alpha 90.000000
_cell_angle_beta 90.000000
_cell_angle_gamma 90.000000
_cell_volume 1341.214570
_symmetry_space_group_name_H-M "P B C M"
_symmetry_group_IT_number 57
_symmetry_cell_setting 'orthorhombic'
loop_
_space_group_symop_operation_xyz
x,y,z
-x,-y,1/2+z
x,1/2-y,-z
-x,1/2+y,1/2-z
-x,-y,-z
x,y,1/2-z
-x,1/2+y,z
x,1/2-y,1/2+z
loop_
_atom_site_type_symbol
_atom_site_label
_atom_site_fract_x
_atom_site_fract_y
_atom_site_fract_z
Si Si1 0.204033 0.489594 0.969543
Si Si2 0.698559 0.300140 0.146452
Si Si3 0.049879 0.289285 0.896045
Si Si4 0.674390 0.878912 0.349732
O O1 0.261299 0.602318 0.923912
O O2 0.178146 0.394565 0.893324
O O3 0.314589 0.452887 0.059009
O O4 0.000000 0.500000 0.000000
O O5 0.731477 0.336036 0.250000
O O6 0.485870 0.290112 0.138347
O O7 0.841685 0.203063 0.129474
O O8 0.142192 0.188049 0.845974
O O9 0.055776 0.250000 0.000000
O O10 0.647616 0.933705 0.250000
#
# Coordination Sequence:
#
# PCOD9438938 Si02
#       4
#     8   8   8   8
#     4  11  22  41  67  94 124 170 209 259 316 370
#     4  11  23  41  65  93 130 170 208 259 315 370
#     4  10  21  39  62  88 121 162 208 257 312 365
#     4  10  22  41  62  91 131 168 209 261 309 369
#
# _framework density 23.858968999999998
#
# number of rings (size 3 to 8) (size 9 to 14) (size 15 to 20)
#    0.000    1.500    5.000    1.500    0.000    5.000 
#    4.500    0.000    0.000    0.000    0.000    0.000 
#    0.000    0.000    0.000    0.000    0.000    0.000 
#
# Total GULP energy -178401.473788 kJ/mol
# GULP energy per Si atom -5575.046056 kJ/mol
# Density = 2.380467 g / cm^3
# Si number density = 23.858969 Si / 1000 Ang^3
#
#
#
# Elastic Constant Matrix: (Units=GPa)
#
#
# Indices 1 2 3 4 5 6 
#
# 1 109.4741 -1.3249 23.6347 0.0000 0.0000 0.0000
# 2 -1.3249 43.7863 15.4545 0.0000 0.0000 0.0000
# 3 23.6347 15.4545 125.0290 0.0000 0.0000 0.0000
# 4 0.0000 0.0000 0.0000 18.0992 0.0000 0.0000
# 5 0.0000 0.0000 0.0000 0.0000 30.2804 0.0000
# 6 0.0000 0.0000 0.0000 0.0000 0.0000 27.2509
#
#
#
# Elastic Compliance Matrix: (Units=1/GPa)
#
#
# Indices 1 2 3 4 5 6 
#
# 1 0.009562 0.000970 -0.001927 0.000000 0.000000 0.000000
# 2 0.000970 0.023978 -0.003147 0.000000 0.000000 0.000000
# 3 -0.001927 -0.003147 0.008752 0.000000 0.000000 0.000000
# 4 0.000000 0.000000 0.000000 0.055251 0.000000 0.000000
# 5 0.000000 0.000000 0.000000 0.000000 0.033025 0.000000
# 6 0.000000 0.000000 0.000000 0.000000 0.000000 0.036696
#
#
# Mechanical properties :
#
#
# Convention : Reuss Voigt Hill
#
# Bulk Modulus (GPa) = 29.34079 39.31312 34.32696
# Shear Modulus (GPa) = 26.76158 31.16110 28.96134
#
# Velocity S-wave (km/s) = 3.35275 3.61786 3.48782
# Velocity P-wave (km/s) = 5.22611 5.82794 5.53521
#
# Compressibility (1/GPa) = 0.03408224
#
# Stress axis : x y z
#
# Youngs Moduli (GPa) = 104.57574 41.70429 114.26581
#
# Poissons Ratio (x) = -0.04044 0.22025
# Poissons Ratio (y) = -0.10140 0.35962
# Poissons Ratio (z) = 0.20157 0.13125
#
# Static dielectric constant tensor:
#      x y z
#    x 1.931480 0.000000 0.000000 
#    y 0.000000 2.059120 0.000000 
#    z 0.000000 0.000000 1.982310 
# 
# From -- ./inp_files/15694.got.cif
#   From: 2010.05.17/outbox.cif.g08.bks.cpg/sg57_8_cif.got.tgz:15694.got - 2010.06.03 13:58:18.
